#------------------------------------------------------------------------------
#$Date: 2017-12-11 01:28:22 +0200 (Mon, 11 Dec 2017) $
#$Revision: 204147 $
#$URL: file:///home/coder/svn-repositories/cod/cif/4/03/03/4030321.cif $
#------------------------------------------------------------------------------
#
# This file is available in the Crystallography Open Database (COD),
# http://www.crystallography.net/
#
# All data on this site have been placed in the public domain by the
# contributors.
#
data_4030321
loop_
_publ_author_name
'Fauber, Benjamin P.'
'Clagg, Kyle'
'Gibbons, Paul'
'Rene, Olivier'
_publ_section_title
;
 An Experimental and Computational Study of the Diastereoselective
 Alkylations of 3-Substituted gamma-Sultams.
;
_journal_issue                   1
_journal_name_full               'The Journal of organic chemistry'
_journal_page_first              685
_journal_paper_doi               10.1021/jo502506j
_journal_volume                  80
_journal_year                    2014
_chemical_absolute_configuration ad
_chemical_formula_sum            'C10 H13 N O2 S'
_chemical_formula_weight         211.27
_chemical_name_common            Compound_1a
_chemical_name_systematic
; 
 gene191 
;
_space_group.centring_type       P
_space_group_crystal_system      monoclinic
_space_group_IT_number           4
_space_group_name_Hall           'P 2yb'
_space_group_name_H-M_alt        'P 1 21 1'
_symmetry_space_group_name_Hall  'P 2yb'
_symmetry_space_group_name_H-M   'P 1 21 1'
_atom_sites_solution_hydrogens   geom
_atom_sites_solution_primary     iterative
_atom_sites_solution_secondary   difmap
_audit_creation_method           SHELXL-2013
_cell_angle_alpha                90
_cell_angle_beta                 101.765(2)
_cell_angle_gamma                90
_cell_formula_units_Z            2
_cell_length_a                   6.4713(2)
_cell_length_b                   6.9416(2)
_cell_length_c                   11.6404(4)
_cell_measurement_reflns_used    9608
_cell_measurement_temperature    100(2)
_cell_measurement_theta_max      68.24
_cell_measurement_theta_min      3.88
_cell_volume                     511.92(3)
_computing_cell_refinement       'Bruker SAINT'
_computing_data_collection       'Bruker APEX2'
_computing_data_reduction        'Bruker SAINT'
_computing_molecular_graphics    ORTEP-32
_computing_publication_material  WinGX
_computing_structure_refinement  SHELXL-2013
_computing_structure_solution    SHELXT
_diffrn_ambient_temperature      100(2)
_diffrn_detector_area_resol_mean 8.366
_diffrn_measured_fraction_theta_full 0.993
_diffrn_measured_fraction_theta_max 0.990
_diffrn_measurement_device_type  'Bruker APEX-II CCD'
_diffrn_measurement_method       'phi and omega scans'
_diffrn_radiation_type           CuK\a
_diffrn_radiation_wavelength     1.54178
_diffrn_reflns_av_R_equivalents  0.0256
_diffrn_reflns_av_unetI/netI     0.0152
_diffrn_reflns_Laue_measured_fraction_full 0.993
_diffrn_reflns_Laue_measured_fraction_max 0.990
_diffrn_refln_scan_rate          10
_diffrn_refln_scan_width         2.0
_diffrn_reflns_limit_h_max       6
_diffrn_reflns_limit_h_min       -7
_diffrn_reflns_limit_k_max       8
_diffrn_reflns_limit_k_min       -8
_diffrn_reflns_limit_l_max       14
_diffrn_reflns_limit_l_min       -13
_diffrn_reflns_number            11863
_diffrn_reflns_point_group_measured_fraction_full 0.980
_diffrn_reflns_point_group_measured_fraction_max 0.975
_diffrn_reflns_theta_full        67.000
_diffrn_reflns_theta_max         68.236
_diffrn_reflns_theta_min         3.879
_diffrn_source                   'microfocus rotating anode'
_exptl_absorpt_coefficient_mu    2.601
_exptl_absorpt_correction_T_max  0.929
_exptl_absorpt_correction_T_min  0.789
_exptl_absorpt_correction_type   multi-scan
_exptl_absorpt_process_details   SADABS
_exptl_crystal_colour            colorless
_exptl_crystal_density_diffrn    1.371
_exptl_crystal_description       plate
_exptl_crystal_F_000             224
_exptl_crystal_size_max          0.040
_exptl_crystal_size_mid          0.030
_exptl_crystal_size_min          0.010
_refine_diff_density_max         0.297
_refine_diff_density_min         -0.138
_refine_diff_density_rms         0.052
_refine_ls_abs_structure_details
; 
 Flack x determined using 814 quotients [(I+)-(I-)]/[(I+)+(I-)] 
 (Parsons and Flack (2004), Acta Cryst. A60, s61). 
;
_refine_ls_abs_structure_Flack   -0.007(8)
_refine_ls_extinction_method     none
_refine_ls_goodness_of_fit_ref   1.063
_refine_ls_hydrogen_treatment    constr
_refine_ls_matrix_type           full
_refine_ls_number_parameters     128
_refine_ls_number_reflns         1841
_refine_ls_number_restraints     1
_refine_ls_restrained_S_all      1.063
_refine_ls_R_factor_all          0.0297
_refine_ls_R_factor_gt           0.0294
_refine_ls_shift/su_max          0.000
_refine_ls_shift/su_mean         0.000
_refine_ls_structure_factor_coef Fsqd
_refine_ls_weighting_details
'w=1/[\s^2^(Fo^2^)+(0.0533P)^2^+0.1474P] where P=(Fo^2^+2Fc^2^)/3'
_refine_ls_weighting_scheme      calc
_refine_ls_wR_factor_gt          0.0777
_refine_ls_wR_factor_ref         0.0780
_reflns_Friedel_coverage         0.810
_reflns_Friedel_fraction_full    0.964
_reflns_Friedel_fraction_max     0.957
_reflns_number_gt                1818
_reflns_number_total             1841
_reflns_threshold_expression     'I > 2\s(I)'
_cod_data_source_file            jo502506j_si_001.cif
_cod_data_source_block           Compound_1a
_cod_depositor_comments
;Adding full bibliography for 4030321.cif.

The following automatic conversions were performed:

'_space_group.centring_type' value 'primitive' was replaced with the
value 'P' as specified in the replacement file
'/home/antanas/src/cod-tools/trunk/data/replacement-values/replacement_values.lst'.

Automatic conversion script
Id: cif_fix_values 5642 2017-10-24 12:04:52Z antanas 
;
_cod_database_code               4030321
#BEGIN Tags that were not found in dictionaries:
_shelx_space_group_comment
; 
The symmetry employed for this shelxl refinement is uniquely defined 
by the following loop, which should always be used as a source of 
symmetry information in preference to the above space-group names. 
They are only intended as comments. 
;
_shelx_estimated_absorpt_t_min   0.903
_shelx_estimated_absorpt_t_max   0.974
_shelxl_version_number           2013-4
_shelx_res_file
; 
TITL gene191_0m in P2(1) 
CELL  1.54178   6.4713   6.9416  11.6404   90.000  101.765   90.000 
ZERR     2.00   0.0002   0.0002   0.0004    0.000    0.002    0.000 
LATT  -1 
SYMM  - X, 1/2 + Y, - Z 
SFAC  C    H    N    O    S 
UNIT  20   26   2    4    2 
MERG   2 
FMAP   2 
PLAN   20 
SIZE     0.010   0.030   0.040 
ACTA   134.00 
BOND   $H 
LIST   4 
WPDB  -2 
L.S.   8 
TEMP  -173.00 
WGHT    0.053300    0.147400 
FVAR       0.32007 
C1    1    0.540239    0.246038    0.694394    11.00000    0.01995    0.02189 = 
         0.02108   -0.00170    0.00428   -0.00143 
AFIX  13 
H1    2    0.628925    0.275551    0.635594    11.00000   -1.20000 
AFIX   0 
C2    1    0.342412    0.136190    0.634127    11.00000    0.02594    0.02242 = 
         0.03046   -0.00192   -0.00135   -0.00325 
AFIX  23 
H2A   2    0.380701    0.027808    0.587265    11.00000   -1.20000 
H2B   2    0.266380    0.084268    0.693052    11.00000   -1.20000 
AFIX   0 
C3    1    0.205769    0.281718    0.555065    11.00000    0.03350    0.03156 = 
         0.03334   -0.00232   -0.01017   -0.00531 
AFIX  23 
H3A   2    0.054516    0.247324    0.543917    11.00000   -1.20000 
H3B   2    0.245303    0.288207    0.477355    11.00000   -1.20000 
AFIX   0 
C4    1    0.613764    0.576449    0.779588    11.00000    0.02455    0.02031 = 
         0.03481   -0.00213    0.00011   -0.00190 
AFIX 137 
H4A   2    0.700522    0.532813    0.854084    11.00000   -1.50000 
H4B   2    0.540871    0.695844    0.792410    11.00000   -1.50000 
H4C   2    0.704216    0.599992    0.723004    11.00000   -1.50000 
AFIX   0 
C5    1    0.670300    0.135690    0.795506    11.00000    0.01945    0.01414 = 
         0.02532   -0.00181    0.00243   -0.00227 
C6    1    0.852011    0.041220    0.780028    11.00000    0.01965    0.02539 = 
         0.02775   -0.00381    0.00688   -0.00191 
AFIX  43 
H6    2    0.896792    0.052727    0.707518    11.00000   -1.20000 
AFIX   0 
C7    1    0.968392   -0.069455    0.869184    11.00000    0.01963    0.02039 = 
         0.03925   -0.00353    0.00331    0.00279 
AFIX  43 
H7    2    1.090782   -0.135442    0.857076    11.00000   -1.20000 
AFIX   0 
C8    1    0.906814   -0.084177    0.975931    11.00000    0.02517    0.01768 = 
         0.03187    0.00195   -0.00291   -0.00101 
AFIX  43 
H8    2    0.987424   -0.159348    1.037282    11.00000   -1.20000 
AFIX   0 
C9    1    0.727003    0.011130    0.993176    11.00000    0.03033    0.02067 = 
         0.02379    0.00149    0.00457   -0.00489 
AFIX  43 
H9    2    0.685427    0.002460    1.066706    11.00000   -1.20000 
AFIX   0 
C10   1    0.607456    0.119525    0.902661    11.00000    0.02040    0.01980 = 
         0.02783   -0.00127    0.00684    0.00012 
AFIX  43 
H10   2    0.482863    0.182514    0.914058    11.00000   -1.20000 
AFIX   0 
N1    3    0.457386    0.427588    0.733516    11.00000    0.01749    0.01939 = 
         0.02294    0.00234   -0.00038    0.00124 
O1    4    0.326231    0.646625    0.556236    11.00000    0.04736    0.03161 = 
         0.02688    0.00622    0.00003   -0.00166 
O2    4    0.088934    0.564100    0.685636    11.00000    0.02832    0.09078 = 
         0.03416    0.00249    0.00667    0.02503 
S1    5    0.257922    0.506014    0.631374    11.00000    0.02068    0.02760 = 
         0.02169    0.00205    0.00254    0.00485 
HKLF    4 
  
REM  gene191_0m in P2(1) 
REM R1 =  0.0294 for    1818 Fo > 4sig(Fo)  and  0.0297 for all    1841 data 
REM    128 parameters refined using      1 restraints 
  
END 
  
WGHT      0.0524      0.1524 
  
REM Highest difference peak  0.297,  deepest hole -0.138,  1-sigma level  0.052 
Q1    1   0.3918  0.4961  0.6845  11.00000  0.05    0.30 
Q2    1   0.2581  0.5106  0.5440  11.00000  0.05    0.29 
Q3    1   0.1927  0.4073  0.5804  11.00000  0.05    0.28 
Q4    1   0.6244  0.0985  0.8358  11.00000  0.05    0.26 
Q5    1   0.5055  0.3390  0.7196  11.00000  0.05    0.24 
Q6    1   0.6094  0.2013  0.7511  11.00000  0.05    0.23 
Q7    1   0.1482  0.4531  0.6728  11.00000  0.05    0.22 
Q8    1   0.2134  0.5064  0.7019  11.00000  0.05    0.22 
Q9    1   0.3305  0.6359  0.6324  11.00000  0.05    0.22 
Q10   1   0.7424  0.0483  0.7796  11.00000  0.05    0.21 
Q11   1   0.5359  0.4894  0.7587  11.00000  0.05    0.21 
Q12   1   0.9023 -0.0971  0.9020  11.00000  0.05    0.21 
Q13   1   0.4433  0.1835  0.6747  11.00000  0.05    0.20 
Q14   1   0.8006 -0.0699  0.9778  11.00000  0.05    0.19 
Q15   1   0.8680 -0.0219  0.8182  11.00000  0.05    0.19 
Q16   1   0.6747  0.0438  0.9417  11.00000  0.05    0.17 
Q17   1   0.0862  0.5175  0.7554  11.00000  0.05    0.17 
Q18   1   0.0136  0.4253  0.6588  11.00000  0.05    0.14 
Q19   1   0.6400  0.5740  0.8228  11.00000  0.05    0.14 
Q20   1   0.2925  0.2152  0.5938  11.00000  0.05    0.14 
;
_shelx_res_checksum              35162
_shelx_hkl_file
; 
   1   0   0   39.46    1.63 
   1   0   0   50.49    1.64 
  -1   0   0   42.35    1.56 
  -1   0   0   46.09    1.42 
  -1   0   0   46.62    1.79 
  -1   0   0   45.30    1.06 
  -1   0   0   47.73    1.06 
  -2   0   0   41.60    1.71 
  -2   0   0   41.14    1.64 
  -2   0   0   44.29    1.48 
  -3   0   0   31.37    1.26 
  -3   0   0   29.64    1.30 
   4   0   0    1.77    0.12 
  -4   0   0    1.46    0.36 
  -4   0   0    1.58    0.09 
  -4   0   0    1.48    0.30 
  -5   0   0   10.84    0.34 
  -5   0   0    9.65    0.66 
   5   0   0   10.57    0.33 
  -6   0   0    8.50    0.58 
   0  -1   0    0.00    0.03 
   0  -1   0   -0.03    0.04 
   0  -1   0    0.01    0.05 
   0  -1   0    0.03    0.05 
   0  -1   0    0.00    0.03 
   0  -1   0    0.00    0.05 
   0  -1   0    0.05    0.04 
   0  -1   0    0.00    0.04 
   0  -1   0    0.05    0.04 
   0  -1   0    0.04    0.04 
   0  -1   0   -0.03    0.03 
   0  -1   0   -0.01    0.05 
   0  -1   0    0.02    0.03 
   0  -1   0   -0.01    0.04 
   0  -1   0   -0.04    0.05 
   0   1   0    0.08    0.05 
   0   1   0    0.00    0.05 
   0   1   0   -0.01    0.04 
   0   1   0    0.01    0.05 
   0   1   0    0.01    0.04 
   0   1   0    0.01    0.04 
   0   1   0    0.06    0.07 
   0   1   0   -0.02    0.04 
   0   1   0    0.00    0.04 
   0   1   0    0.00    0.03 
   0   1   0   -0.01    0.05 
   0   1   0    0.04    0.03 
   0   1   0    0.03    0.04 
   1  -1   0  499.32   12.62 
   1  -1   0  503.42   16.38 
  -1  -1   0  522.04   11.49 
  -1  -1   0  509.60   12.63 
   1  -1   0  491.90   15.91 
   1  -1   0  516.74   15.91 
   1  -1   0  515.15   18.40 
   1  -1   0  513.72   12.63 
   1  -1   0  526.78   17.98 
  -1  -1   0  517.76   18.41 
  -1  -1   0  544.72   18.42 
  -1  -1   0  522.97   16.38 
  -1  -1   0  500.50   11.97 
   1  -1   0  514.13   11.95 
  -1  -1   0  525.05   11.96 
  -1  -1   0  521.75   13.15 
  -1  -1   0  528.77   12.64 
   1  -1   0  502.14   13.14 
   1  -1   0  501.37   13.14 
   1  -1   0  508.39   10.14 
  -1  -1   0  494.55   19.88 
  -1  -1   0  522.65   22.96 
   1  -1   0  471.55   17.97 
   1  -1   0  513.09   11.96 
  -1  -1   0  506.75   15.93 
   1  -1   0  503.53   16.37 
  -1  -1   0  531.06   13.15 
   1  -1   0  526.78   18.81 
   1   1   0  510.73   11.77 
   1   1   0  509.00   15.66 
  -1   1   0  485.23   18.08 
   1   1   0  508.42   12.42 
  -1   1   0  520.27   18.09 
   1   1   0  506.24   17.67 
  -1   1   0  507.60   11.75 
  -1   1   0  515.39   12.91 
  -1   1   0  525.30   12.41 
  -1   1   0  488.27   12.41 
   1   1   0  492.36   11.30 
  -1   1   0  496.14   19.57 
  -1   1   0  488.97   23.98 
   1   1   0  498.45    9.98 
   1   1   0  497.86   18.49 
   1   1   0  512.18   12.94 
  -1   1   0  495.07   15.65 
  -1   1   0  503.65   11.75 
   1   1   0  507.31   12.93 
   1   1   0  507.31   18.11 
   1   1   0  511.19   16.11 
   1   1   0  509.07   11.76 
   1   1   0  498.68   16.11 
  -2  -1   0   44.54    1.76 
  -2  -1   0   47.38    2.19 
  -2  -1   0   43.73    1.81 
  -2  -1   0   43.87    1.66 
  -2  -1   0   45.04    1.09 
  -2  -1   0   47.49    1.66 
  -2  -1   0   45.69    1.13 
   2  -1   0   43.35    0.90 
   2   1   0   45.99    1.72 
   2   1   0   46.13    1.47 
   2   1   0   44.59    1.10 
  -2   1   0   46.23    1.86 
   2   1   0   46.52    1.65 
  -3  -1   0    3.15    0.14 
  -3  -1   0    3.03    0.17 
  -3  -1   0    3.09    0.13 
  -3  -1   0    2.82    0.26 
  -3  -1   0    3.17    0.29 
   3   1   0    1.68    0.15 
   3   1   0    1.55    0.12 
   3   1   0    1.53    0.10 
   3   1   0    1.56    0.15 
  -3   1   0    1.81    0.24 
  -4  -1   0   13.49    0.68 
  -4  -1   0   12.41    0.70 
  -4  -1   0   13.60    0.44 
   4   1   0   13.91    0.44 
  -4   1   0   13.56    0.72 
  -5  -1   0   36.12    1.09 
  -5  -1   0   35.20    1.62 
   5   1   0   33.25    0.99 
  -5   1   0   32.41    1.50 
  -6  -1   0   10.27    0.34 
  -6  -1   0   10.65    0.35 
  -6  -1   0   11.25    0.60 
  -6  -1   0   10.32    0.34 
  -7  -1   0    3.22    0.12 
   0  -2   0  422.62    8.24 
   0  -2   0  403.64   15.26 
   0  -2   0  427.19   14.97 
   0  -2   0  419.14    9.72 
   0  -2   0  427.12   13.31 
   0  -2   0  418.94   10.69 
   0  -2   0  419.35   10.27 
   0  -2   0  410.39    9.33 
   0  -2   0  408.38    9.72 
   0  -2   0  413.84   12.94 
   0  -2   0  411.53   14.59 
   0  -2   0  402.15   18.63 
   0   2   0  422.06   15.29 
   0   2   0  436.41   19.02 
   0   2   0  421.31   15.60 
   0   2   0  416.26   13.22 
   0   2   0  419.17   10.91 
   0   2   0  409.21   10.49 
   0   2   0  441.67   13.59 
   0   2   0  430.46   10.92 
   0   2   0  423.70   15.28 
   0   2   0  424.08   10.49 
  -1  -2   0  102.56    2.62 
  -1  -2   0   98.35    3.37 
   1  -2   0  104.37    2.46 
   1  -2   0  108.53    3.28 
   1  -2   0  106.33    2.36 
   1  -2   0  103.18    2.46 
  -1  -2   0  104.00    5.03 
  -1  -2   0   99.64    3.29 
  -1  -2   0   97.94    2.72 
   1  -2   0  104.62    3.85 
  -1  -2   0  109.01    3.81 
   1  -2   0  105.69    3.68 
   1  -2   0  102.84    3.36 
   1  -2   0  104.34    2.09 
  -1  -2   0  106.14    4.72 
   1  -2   0  101.53    2.71 
  -1  -2   0  102.29    2.61 
  -1  -2   0  107.03    2.37 
  -1   2   0   94.41    3.25 
   1   2   0   99.28    2.42 
  -1   2   0  101.20    4.87 
   1   2   0  102.86    2.65 
  -1   2   0  103.75    4.56 
   1   2   0  101.04    2.55 
   1   2   0  102.71    3.61 
  -1   2   0  100.74    2.40 
  -1   2   0  105.75    3.69 
  -1   2   0  101.60    2.53 
  -1   2   0  102.91    3.20 
  -1   2   0  101.87    2.63 
  -1   2   0  100.87    2.41 
   1   2   0  103.80    3.22 
   1   2   0  102.41    3.77 
   1   2   0   95.74    3.30 
   2  -2   0   78.36    2.73 
   2  -2   0   76.77    2.17 
  -2  -2   0   76.26    2.85 
   2  -2   0   76.24    2.44 
  -2  -2   0   77.16    3.49 
  -2  -2   0   78.41    3.75 
  -2  -2   0   74.27    2.45 
   2  -2   0   77.28    2.86 
   2   2   0   82.75    3.09 
   2   2   0   83.50    2.35 
   2   2   0   80.05    2.95 
   2   2   0   79.65    2.44 
  -2   2   0   85.73    3.28 
   2   2   0   81.50    2.63 
  -3  -2   0   48.80    2.33 
  -3  -2   0   46.86    1.90 
   3  -2   0   48.17    1.71 
  -3  -2   0   46.88    1.54 
  -3  -2   0   46.09    1.43 
   3  -2   0   47.87    1.35 
   3   2   0   46.62    1.41 
   3   2   0   43.56    1.60 
   3   2   0   47.05    1.71 
   3   2   0   47.41    1.36 
   3   2   0   46.56    1.79 
  -4  -2   0   37.88    1.35 
   4  -2   0   37.19    1.08 
  -4  -2   0   39.20    1.40 
  -4  -2   0   36.45    1.67 
  -4  -2   0   37.08    1.16 
  -4  -2   0   37.58    1.42 
  -4   2   0   32.16    1.25 
  -4   2   0   32.23    0.95 
   4   2   0   32.03    1.00 
   4   2   0   32.54    0.98 
  -4   2   0   30.64    1.24 
   5  -2   0    6.07    0.21 
  -5  -2   0    5.81    0.54 
  -5  -2   0    5.95    0.28 
   5   2   0    5.72    0.27 
  -6  -2   0   20.86    0.95 
  -6  -2   0   20.04    0.52 
  -6  -2   0   20.37    0.65 
  -6  -2   0   20.09    0.51 
  -6  -2   0   20.25    0.64 
  -7  -2   0    3.49    0.14 
   0  -3   0    0.05    0.12 
   0  -3   0   -0.03    0.08 
   0  -3   0    0.03    0.10 
   0  -3   0    0.10    0.11 
   0   3   0   -0.08    0.10 
   0   3   0   -0.13    0.10 
   0   3   0   -0.01    0.09 
  -1  -3   0   31.09    1.11 
   1  -3   0   31.28    0.98 
   1  -3   0   31.11    0.95 
   1  -3   0   32.72    1.20 
   1  -3   0   31.69    1.26 
   1  -3   0   31.31    1.05 
  -1  -3   0   32.46    1.56 
   1  -3   0   33.28    1.10 
   1   3   0   33.51    1.33 
   1   3   0   33.72    1.04 
  -1   3   0   34.17    1.57 
  -1   3   0   31.61    1.70 
   1   3   0   34.29    1.16 
  -2  -3   0   21.03    0.76 
   2  -3   0   22.06    0.72 
   2  -3   0   22.16    0.88 
   2  -3   0   21.94    0.69 
  -2  -3   0   21.17    0.74 
   2  -3   0   21.65    0.83 
  -2  -3   0   21.17    0.77 
  -2  -3   0   20.84    0.63 
  -2  -3   0   20.91    0.69 
  -2  -3   0   22.29    1.08 
   2  -3   0   21.17    0.66 
   2   3   0   20.96    0.69 
  -2   3   0   22.74    1.08 
  -2   3   0   20.27    0.66 
   2   3   0   22.29    0.90 
   2   3   0   20.60    0.69 
   2   3   0   21.02    0.79 
  -2   3   0   19.76    0.81 
  -3  -3   0   29.27    1.35 
  -3  -3   0   29.84    1.54 
  -3  -3   0   29.97    1.01 
   3  -3   0   27.85    1.16 
   3  -3   0   30.66    0.88 
  -3  -3   0   27.77    0.91 
   3  -3   0   30.65    0.97 
  -3  -3   0   28.55    1.15 
  -3   3   0   30.52    1.18 
   3   3   0   31.52    1.16 
   3   3   0   31.90    1.01 
   3   3   0   32.15    1.02 
  -3   3   0   32.72    1.18 
  -3   3   0   32.83    0.98 
   4  -3   0    2.54    0.16 
  -4  -3   0    2.54    0.19 
  -4  -3   0    2.32    0.23 
  -4  -3   0    2.38    0.28 
   4  -3   0    2.51    0.14 
  -4  -3   0    2.51    0.48 
  -4   3   0    2.53    0.15 
   4   3   0    2.84    0.25 
  -4   3   0    2.42    0.21 
   4   3   0    2.71    0.23 
   4   3   0    2.53    0.21 
  -5  -3   0   29.01    0.90 
  -5  -3   0   29.41    0.77 
  -5  -3   0   29.94    1.05 
   5  -3   0   30.28    0.99 
  -5  -3   0   29.37    0.74 
  -5  -3   0   29.26    1.43 
  -5   3   0   24.13    0.73 
  -5   3   0   24.86    0.74 
  -5   3   0   23.29    1.05 
  -5   3   0   26.36    0.74 
  -5   3   0   20.06    0.95 
  -5   3   0   24.36    0.74 
  -6  -3   0    3.78    0.14 
  -6  -3   0    3.35    0.17 
  -6  -3   0    3.20    0.28 
  -6  -3   0    3.55    0.14 
  -6   3   0    3.19    0.37 
  -7  -3   0    7.82    0.25 
   0  -4   0    2.71    0.23 
   0  -4   0    2.55    0.23 
   0   4   0    2.68    0.23 
   0   4   0    2.70    0.28 
   0   4   0    2.81    0.20 
   0   4   0    2.41    0.22 
  -1  -4   0    5.70    0.29 
  -1  -4   0    6.14    0.49 
  -1  -4   0    6.19    0.32 
   1  -4   0    6.14    0.31 
  -1  -4   0    6.12    0.30 
   1  -4   0    6.55    0.37 
   1  -4   0    6.29    0.28 
  -1   4   0    5.81    0.25 
   1   4   0    5.26    0.27 
   1   4   0    5.74    0.31 
   1   4   0    6.00    0.30 
  -1   4   0    5.61    0.36 
  -1   4   0    5.58    0.23 
   1   4   0    6.01    0.32 
  -1   4   0    5.58    0.27 
  -2  -4   0   33.48    1.04 
   2  -4   0   33.16    1.05 
  -2  -4   0   33.77    0.97 
   2  -4   0   33.15    1.02 
  -2  -4   0   33.57    1.65 
   2  -4   0   33.53    1.12 
  -2  -4   0   31.03    1.31 
  -2  -4   0   33.94    1.14 
  -2  -4   0   33.88    1.12 
   2   4   0   36.14    1.13 
  -2   4   0   34.02    1.36 
   2   4   0   36.24    1.29 
  -2   4   0   33.91    1.78 
   2   4   0   36.15    1.12 
   2   4   0   35.38    1.19 
   3  -4   0   17.98    0.59 
  -3  -4   0   17.35    0.68 
  -3  -4   0   17.08    0.77 
  -3  -4   0   17.66    0.62 
   3  -4   0   16.93    0.62 
  -3  -4   0   17.02    0.93 
   3   4   0   17.38    0.62 
  -3   4   0   16.99    0.67 
   3   4   0   16.78    0.62 
   3   4   0   17.45    0.70 
  -3   4   0   16.58    0.70 
  -3   4   0   16.60    0.58 
   4  -4   0   53.76    1.75 
  -4  -4   0   53.38    1.62 
  -4  -4   0   54.53    1.96 
  -4  -4   0   55.67    1.82 
  -4  -4   0   52.30    2.34 
   4  -4   0   52.37    1.58 
  -4  -4   0   53.23    2.04 
  -4  -4   0   49.63    1.76 
  -4   4   0   48.45    1.98 
  -4   4   0   48.88    1.50 
   4   4   0   50.27    1.78 
   4   4   0   49.42    1.56 
   4   4   0   49.27    1.54 
  -5  -4   0    0.83    0.21 
  -5  -4   0    1.27    0.46 
  -5  -4   0    0.90    0.14 
  -5  -4   0    0.94    0.25 
  -5  -4   0    0.73    0.17 
  -5  -4   0    0.84    0.13 
  -5  -4   0    0.73    0.23 
  -5  -4   0    0.94    0.13 
  -5  -4   0    0.79    0.12 
  -5   4   0    0.84    0.16 
  -5   4   0    0.51    0.06 
  -5   4   0    0.71    0.08 
  -5   4   0    0.84    0.22 
  -5   4   0    0.71    0.08 
  -5   4   0    0.63    0.14 
  -5   4   0    0.62    0.23 
  -5   4   0    0.51    0.08 
  -5   4   0    0.69    0.06 
  -6  -4   0   11.69    0.51 
  -6  -4   0   13.33    0.34 
  -6  -4   0   13.37    0.42 
  -6  -4   0   13.46    0.36 
  -6   4   0   14.19    0.67 
  -6   4   0   13.67    0.58 
   0  -5   0    0.07    0.15 
   0  -5   0   -0.16    0.12 
   0   5   0    0.01    0.13 
   0   5   0   -0.08    0.13 
   0   5   0   -0.08    0.11 
  -1  -5   0   25.37    0.80 
   1  -5   0   25.71    0.86 
  -1  -5   0   25.30    0.92 
   1   5   0   22.69    0.81 
  -1   5   0   22.18    0.66 
   1   5   0   21.77    0.70 
  -1   5   0   22.00    0.94 
   2  -5   0    6.13    0.34 
  -2  -5   0    6.11    0.35 
  -2  -5   0    6.50    0.33 
  -2  -5   0    6.38    0.35 
  -2  -5   0    6.09    0.36 
   2   5   0    5.99    0.38 
  -2   5   0    6.08    0.40 
   2   5   0    5.84    0.36 
   2   5   0    5.68    0.34 
  -3  -5   0   42.08    1.89 
  -3  -5   0   38.76    1.44 
  -3  -5   0   42.44    1.42 
   3   5   0   38.84    1.31 
   3   5   0   40.20    1.49 
  -3   5   0   41.20    1.52 
  -3   5   0   41.53    1.54 
   3   5   0   39.17    1.30 
  -4  -5   0    0.28    0.20 
  -4  -5   0    0.11    0.18 
  -4  -5   0    0.54    0.32 
  -4  -5   0    0.27    0.05 
  -4  -5   0    0.38    0.12 
  -4  -5   0    0.46    0.11 
  -4  -5   0    0.26    0.20 
  -4  -5   0    0.11    0.09 
  -4  -5   0    0.46    0.08 
  -4   5   0    0.40    0.09 
  -4   5   0    0.22    0.07 
   4   5   0    0.35    0.10 
  -4   5   0    0.31    0.06 
  -4   5   0   -0.01    0.25 
  -4   5   0    0.18    0.18 
   4   5   0    0.24    0.15 
  -5  -5   0    4.46    0.34 
  -5  -5   0    4.42    0.29 
  -5  -5   0    4.72    0.22 
  -5  -5   0    4.06    0.24 
  -5   5   0    4.11    0.12 
  -5   5   0    4.16    0.13 
  -5   5   0    4.21    0.16 
  -5   5   0    4.30    0.37 
   5   5   0    4.13    0.20 
  -5   5   0    4.47    0.29 
  -5   5   0    4.08    0.24 
  -5   5   0    4.19    0.16 
  -6  -5   0    3.05    0.13 
  -6  -5   0    2.96    0.11 
  -6  -5   0    3.10    0.11 
  -6   5   0    3.15    0.27 
   0  -6   0    6.03    0.39 
   0  -6   0    5.75    0.36 
   0   6   0    3.91    0.30 
   0   6   0    3.93    0.26 
   0   6   0    3.89    0.26 
  -1  -6   0    3.58    0.34 
  -1  -6   0    4.16    0.32 
   1  -6   0    3.62    0.31 
   1   6   0    3.83    0.31 
   1   6   0    4.24    0.29 
  -1   6   0    3.48    0.40 
  -2  -6   0   46.64    1.18 
  -2  -6   0   47.94    1.59 
   2  -6   0   47.44    1.39 
   2  -6   0   47.35    1.49 
  -2  -6   0   46.38    1.58 
  -2  -6   0   44.06    1.55 
  -2  -6   0   47.30    1.41 
  -2  -6   0   46.80    1.36 
  -2  -6   0   50.28    1.73 
  -2   6   0   43.92    1.62 
  -2   6   0   43.93    1.20 
  -2   6   0   44.59    1.28 
  -2   6   0   45.57    1.32 
   2   6   0   43.35    1.50 
   2   6   0   41.62    1.33 
  -2   6   0   43.11    1.45 
  -2   6   0   43.64    1.63 
  -2   6   0   43.78    1.49 
   2   6   0   44.74    1.30 
  -2   6   0   46.95    1.73 
  -2   6   0   45.67    1.82 
  -3  -6   0    9.89    0.73 
  -3  -6   0    8.52    0.54 
  -3  -6   0    8.93    0.43 
  -3  -6   0    9.15    0.27 
  -3  -6   0    9.47    0.43 
  -3  -6   0    8.93    0.34 
  -3  -6   0    9.11    0.30 
  -3  -6   0    8.98    0.36 
  -3   6   0    8.84    0.38 
  -3   6   0    8.16    0.37 
  -3   6   0    8.41    0.52 
  -3   6   0    8.45    0.34 
  -3   6   0    8.54    0.26 
  -3   6   0    8.32    0.41 
  -3   6   0    8.08    0.30 
  -3   6   0    8.30    0.44 
   3   6   0    8.42    0.31 
  -4  -6   0    9.13    0.41 
  -4  -6   0    8.88    0.41 
  -4  -6   0    8.98    0.48 
  -4  -6   0    9.27    0.29 
  -4  -6   0    8.40    0.45 
  -4  -6   0    9.42    0.35 
  -4   6   0    8.44    0.50 
  -4   6   0    9.52    0.41 
  -4   6   0    8.92    0.30 
  -4   6   0    9.18    0.25 
   4   6   0    8.88    0.32 
  -4   6   0    8.74    0.26 
  -5  -6   0    2.42    0.20 
  -5  -6   0    2.98    0.15 
  -5  -6   0    2.83    0.17 
  -5  -6   0    2.63    0.25 
  -5   6   0    2.52    0.10 
  -5   6   0    2.53    0.27 
  -5   6   0    2.64    0.11 
  -5   6   0    2.63    0.20 
   5   6   0    2.71    0.14 
  -5   6   0    2.37    0.08 
   0  -7   0   -0.06    0.08 
   0  -7   0   -0.02    0.09 
   0   7   0    0.13    0.07 
   0   7   0    0.00    0.09 
   0   7   0   -0.12    0.10 
   0   7   0    0.05    0.09 
   0   7   0    0.00    0.11 
   1  -7   0   10.77    0.58 
   1  -7   0   11.94    0.39 
  -1  -7   0   11.41    0.39 
   1   7   0   11.71    0.46 
  -1   7   0   12.31    0.36 
  -1   7   0   10.19    0.60 
  -1   7   0   12.34    0.42 
  -1   7   0   12.15    0.39 
  -1   7   0   12.00    0.44 
   1   7   0   12.68    0.48 
  -1   7   0   12.00    0.52 
  -1   7   0   11.87    0.61 
  -1   7   0   12.10    0.32 
  -1   7   0   12.16    0.47 
   1   7   0   12.45    0.32 
   1   7   0   12.22    0.42 
  -2  -7   0   11.54    0.38 
   2  -7   0   10.76    0.57 
   2  -7   0   11.83    0.38 
  -2  -7   0   11.35    0.42 
  -2   7   0   10.89    0.40 
  -2   7   0   10.95    0.59 
  -2   7   0   10.80    0.41 
   2   7   0   11.34    0.39 
  -2   7   0   11.25    0.47 
  -2   7   0   11.38    0.39 
  -2   7   0   11.03    0.38 
  -2   7   0   11.14    0.42 
   2   7   0   11.29    0.31 
  -3  -7   0   15.92    0.58 
  -3  -7   0   15.49    0.54 
  -3  -7   0   15.21    0.61 
   3  -7   0   15.03    0.48 
  -3  -7   0   15.48    0.44 
  -3   7   0   14.14    0.57 
  -3   7   0   14.66    0.38 
  -3   7   0   14.54    0.55 
   3   7   0   14.98    0.46 
  -3   7   0   14.95    0.46 
  -3   7   0   14.54    0.40 
  -3   7   0   13.54    0.66 
  -3   7   0   15.07    0.51 
   3   7   0   14.66    0.47 
  -4  -7   0    2.89    0.14 
  -4  -7   0    2.78    0.18 
  -4  -7   0    2.98    0.28 
   4   7   0    2.84    0.13 
  -4   7   0    2.98    0.10 
  -4   7   0    2.93    0.10 
  -4   7   0    2.92    0.19 
  -4   7   0    2.56    0.12 
  -4   7   0    2.76    0.25 
   0  -8   0   18.31    0.56 
   0  -8   0   18.41    0.47 
   0   8   0   21.54    0.67 
   0   8   0   20.66    0.89 
   0   8   0   20.14    0.80 
   0   8   0   21.72    0.63 
   0   8   0   21.10    0.59 
   0   8   0   21.42    0.71 
   1  -8   0    3.94    0.29 
   1  -8   0    3.90    0.16 
  -1  -8   0    3.98    0.16 
  -1  -8   0    3.98    0.23 
  -1   8   0    3.66    0.28 
  -1   8   0    3.61    0.17 
   1   8   0    3.75    0.15 
  -1   8   0    3.89    0.19 
   1   8   0    3.66    0.16 
  -1   8   0    3.84    0.22 
  -1   8   0    3.81    0.19 
   1   8   0    3.91    0.13 
   1   8   0    3.89    0.18 
   1   8   0    4.03    0.16 
  -1   8   0    4.07    0.17 
  -2  -8   0   15.14    0.39 
  -2  -8   0   14.78    0.42 
   2  -8   0   14.67    0.45 
  -2   8   0   14.72    0.47 
  -2   8   0   13.41    0.63 
  -2   8   0   15.50    0.50 
  -2   8   0   14.95    0.46 
   2   8   0   15.04    0.45 
  -2   8   0   13.79    0.54 
  -6   0   1    5.16    0.37 
  -6   0   1    4.87    0.46 
  -5   0   1   13.65    0.43 
   5   0  -1   13.62    0.42 
   4   0  -1   27.45    0.98 
  -4   0   1   26.31    1.18 
  -4   0   1   26.50    0.80 
   3   0  -1   39.78    1.38 
  -3   0   1   37.48    1.56 
  -2   0   1   38.98    1.55 
   2   0  -1   39.41    1.03 
   2   0  -1   40.23    1.46 
  -1   0   1    0.65    0.05 
   1   0  -1    0.66    0.07 
   1   0  -1    0.75    0.07 
   1   0  -1    0.62    0.06 
  -1   0   1    0.72    0.04 
   1   0  -1    0.70    0.06 
   1   0  -1    0.67    0.05 
   1   0  -1    0.64    0.06 
   1   0  -1    0.64    0.05 
  -1   0   1    0.62    0.07 
  -1   0   1    0.72    0.05 
   1   0  -1    0.68    0.06 
   1   0  -1    0.64    0.05 
  -1   0   1    0.67    0.05 
   1   0  -1    0.81    0.07 
  -1   0   1    0.70    0.05 
   1   0  -1    0.58    0.05 
   1   0  -1    0.69    0.04 
  -1   0   1    0.67    0.07 
   1   0  -1    0.64    0.07 
   0   0   1   40.23    1.25 
   0   0  -1   40.14    1.25 
   0   0   1   37.99    1.21 
   0   0  -1   37.94    1.40 
   0   0  -1   38.76    0.96 
   0   0   1   38.29    1.00 
   0   0   1   38.55    0.96 
   0   0   1   39.66    1.00 
   0   0  -1   39.37    1.22 
   0   0   1   38.74    0.91 
   0   0  -1   40.00    1.25 
   0   0  -1   36.91    1.40 
   0   0  -1   38.71    0.96 
   0   0   1   36.03    1.33 
   0   0  -1   39.82    1.00 
   0   0   1   36.94    1.21 
   0   0   1   37.95    0.91 
   0   0  -1   38.08    1.21 
   0   0   1   37.32    1.40 
   0   0   1   36.79    1.43 
   0   0   1   38.30    0.96 
   0   0   1   37.64    1.40 
   0   0   1   38.95    1.25 
   0   0  -1   39.29    1.00 
   0   0  -1   39.83    0.91 
   0   0  -1   38.51    1.33 
   1   0   1   66.41    2.19 
  -1   0  -1   70.34    2.19 
   1   0   1   69.19    1.64 
  -1   0  -1   70.90    1.80 
   1   0   1   71.01    1.39 
  -1   0  -1   69.62    2.52 
   1   0   1   70.18    2.24 
   1   0   1   69.36    1.80 
   1   0   1   68.91    2.46 
  -1   0  -1   71.07    3.34 
  -1   0  -1   69.64    1.73 
   1   0   1   66.83    2.46 
  -1   0  -1   70.97    1.64 
   1   0   1   68.41    2.19 
   1   0   1   69.23    2.24 
   1   0   1   67.42    1.74 
   1   0   1   66.82    1.81 
   1   0   1   70.87    1.73 
  -1   0  -1   72.10    1.64 
  -1   0  -1   67.32    2.41 
   1   0   1   71.71    1.64 
  -1   0  -1   74.49    2.53 
   1   0   1   68.72    2.41 
  -1   0  -1   72.65    1.73 
   1   0   1   71.75    2.58 
   1   0   1   69.32    2.53 
  -2   0  -1  131.14    5.20 
   2   0   1  147.46    4.85 
  -2   0  -1  130.82    4.74 
   2   0   1  138.39    5.08 
  -2   0  -1  145.55    5.42 
   2   0   1  133.92    4.84 
   3   0   1   29.72    1.09 
  -3   0  -1   27.49    0.85 
  -3   0  -1   28.44    1.19 
   3   0   1   28.61    1.04 
  -3   0  -1   29.46    1.24 
  -4   0  -1    1.74    0.32 
  -4   0  -1    1.62    0.10 
   4   0   1    1.72    0.09 
  -5   0  -1   27.47    0.83 
   5   0   1   27.36    0.81 
  -5   0  -1   26.30    1.31 
  -6   0  -1    1.32    0.08 
  -6   0  -1    1.10    0.06 
  -6   0  -1    0.78    0.32 
  -6   0  -1    1.38    0.33 
  -7  -1   1    1.54    0.08 
  -6  -1   1   13.64    0.43 
  -6  -1   1   13.35    0.43 
  -6  -1   1   12.70    0.56 
  -6  -1   1   13.54    0.43 
  -6  -1   1   13.57    0.71 
  -5  -1   1   12.96    0.43 
  -5  -1   1   12.36    0.56 
   5   1  -1   12.81    0.43 
  -4  -1   1   30.41    1.37 
  -4  -1   1   31.28    1.32 
  -4  -1   1   30.65    0.94 
   4   1  -1   28.61    1.13 
   4   1  -1   28.75    0.85 
  -3  -1   1   13.93    0.44 
  -3  -1   1   13.37    0.54 
  -3  -1   1   13.92    0.46 
  -3  -1   1   14.55    0.66 
   3   1  -1   13.65    0.52 
   3   1  -1   13.35    0.40 
  -3   1   1   13.02    0.65 
   3   1  -1   12.78    0.43 
   3   1  -1   13.22    0.55 
  -2  -1   1    4.77    0.23 
  -2  -1   1    4.55    0.16 
  -2  -1   1    4.44    0.31 
   2  -1  -1    5.06    0.19 
  -2  -1   1    4.84    0.29 
   2  -1  -1    5.15    0.20 
   2  -1  -1    4.24    0.18 
  -2  -1   1    4.99    0.30 
  -2  -1   1    4.55    0.15 
  -2  -1   1    4.76    0.23 
   2   1  -1    5.60    0.23 
  -2   1   1    5.37    0.38 
   2   1  -1    5.24    0.26 
   2   1  -1    5.26    0.25 
   2   1  -1    5.23    0.17 
   1  -1  -1  120.17    4.77 
   1  -1  -1  135.63    3.18 
   1  -1  -1  142.69    4.77 
  -1  -1   1  141.73    3.20 
   1  -1  -1  137.53    4.24 
   1  -1  -1  129.83    4.35 
   1  -1  -1  136.25    2.70 
   1  -1  -1  131.65    4.24 
   1  -1  -1  132.12    3.36 
  -1  -1   1  139.02    3.51 
   1  -1  -1  135.01    3.50 
   1  -1  -1  137.51    3.18 
   1  -1  -1  134.76    4.35 
  -1  -1   1  132.89    4.25 
  -1  -1   1  137.40    3.37 
  -1  -1   1  132.78    6.10 
  -1  -1   1  141.23    4.36 
  -1  -1   1  135.35    4.36 
   1  -1  -1  137.53    3.36 
   1  -1  -1  134.90    3.50 
  -1  -1   1  135.65    3.19 
   1  -1  -1  139.37    5.00 
  -1  -1   1  137.50    4.91 
  -1  -1   1  136.55    3.51 
  -1  -1   1  134.84    4.91 
  -1  -1   1  139.93    3.37 
  -1   1   1  121.61    3.89 
   1   1  -1  124.38    2.49 
   1   1  -1  126.39    3.91 
   1   1  -1  123.79    4.60 
  -1   1   1  130.97    3.21 
   1   1  -1  123.19    3.22 
   1   1  -1  123.64    2.93 
   1   1  -1  125.82    4.01 
  -1   1   1  131.03    4.50 
   1   1  -1  127.92    2.93 
   1   1  -1  120.97    3.22 
   1   1  -1  119.84    4.51 
  -1   1   1  120.03    5.58 
  -1   1   1  127.59    3.21 
   1   1  -1  125.76    4.40 
  -1   1   1  124.92    2.92 
  -1   1   1  127.52    5.95 
   1   1  -1  121.84    2.81 
   1   1  -1  125.28    3.10 
  -1   1   1  119.42    4.49 
  -1   1   1  123.24    2.92 
  -1   1   1  126.26    3.08 
   0  -1   1  109.01    3.87 
   0  -1  -1  113.34    3.98 
   0  -1   1  112.13    2.73 
   0  -1   1  112.14    2.84 
   0  -1  -1  112.17    3.44 
   0  -1  -1   93.44    3.87 
   0  -1   1  108.66    2.73 
   0  -1  -1  109.68    2.58 
   0  -1   1  105.28    2.84 
   0  -1   1  111.06    2.58 
   0  -1  -1  115.01    3.54 
   0  -1   1  104.69    3.98 
   0  -1   1  115.07    3.54 
   0  -1   1  111.32    2.19 
   0  -1  -1  110.80    4.05 
   0  -1   1  110.95    3.98 
   0  -1  -1  108.58    3.54 
   0  -1   1  110.86    3.44 
   0  -1  -1  110.00    3.98 
   0  -1  -1  113.80    2.84 
   0  -1   1  105.84    2.59 
   0  -1  -1  107.76    2.73 
   0  -1   1  106.65    3.54 
   0  -1   1  107.50    4.05 
   0  -1   1  109.43    2.48 
   0  -1  -1  114.44    2.73 
   0  -1  -1  111.93    2.59 
   0  -1  -1  113.63    2.19 
   0  -1  -1  110.13    2.84 
   0   1  -1   97.91    3.21 
   0   1   1  101.18    2.48 
   0   1   1  104.01    2.58 
   0   1  -1  102.24    2.48 
   0   1  -1   99.23    3.12 
   0   1   1   98.18    3.67 
   0   1   1  100.18    3.21 
   0   1  -1  100.31    2.47 
   0   1   1   94.45    3.61 
   0   1   1  102.50    2.34 
   0   1   1   98.71    4.49 
   0   1  -1   97.82    2.25 
   0   1   1  103.95    2.58 
   0   1   1   94.15    3.61 
   0   1   1   97.26    2.47 
   0   1   1   99.44    2.35 
   0   1  -1   97.44    2.34 
   0   1   1   98.48    3.12 
   0   1  -1   99.38    3.61 
   0   1  -1  101.85    3.61 
   0   1  -1   98.49    4.48 
   0   1  -1  100.95    1.99 
   0   1  -1   98.67    3.20 
   0   1  -1  100.60    2.57 
   0   1  -1   98.79    2.58 
   0   1  -1   97.02    3.67 
   0   1   1  103.39    3.21 
   0   1   1   98.90    1.99 
   1  -1   1   44.11    1.37 
  -1  -1  -1   41.99    1.14 
   1  -1   1   41.84    1.40 
  -1  -1  -1   43.50    1.96 
   1  -1   1   42.82    1.13 
  -1  -1  -1   45.35    1.41 
  -1  -1  -1   43.05    1.38 
  -1  -1  -1   42.28    1.04 
  -1  -1  -1   43.94    0.99 
   1  -1   1   44.51    1.03 
   1  -1   1   42.99    0.87 
   1  -1   1   43.15    1.51 
   1  -1   1   41.94    1.40 
   1  -1   1   43.23    1.03 
  -1  -1  -1   42.78    1.59 
   1  -1   1   42.44    1.37 
  -1  -1  -1   42.66    1.09 
   1  -1   1   43.78    1.59 
   1  -1   1   42.56    1.60 
  -1  -1  -1   43.40    1.14 
   1  -1   1   41.86    1.09 
  -1  -1  -1   43.05    1.04 
   1  -1   1   42.89    0.98 
  -1  -1  -1   43.94    1.09 
   1  -1   1   42.69    1.53 
   1  -1   1   42.71    1.13 
   1  -1   1   42.04    1.53 
  -1  -1  -1   43.90    1.60 
  -1  -1  -1   43.78    1.41 
  -1  -1  -1   41.58    2.10 
  -1   1  -1   48.06    1.15 
   1   1   1   47.26    1.81 
  -1   1  -1   48.53    1.21 
  -1   1  -1   48.94    1.15 
  -1   1  -1   49.65    1.26 
   1   1   1   48.28    1.55 
  -1   1  -1   47.51    1.93 
   1   1   1   49.82    1.16 
   1   1   1   47.47    1.73 
   1   1   1   49.53    1.28 
  -1   1  -1   43.63    1.26 
  -1   1  -1   48.10    1.54 
  -1   1  -1   49.97    1.77 
   1   1   1   48.62    0.99 
   1   1   1   49.31    1.17 
   1   1   1   47.43    1.79 
   1   1   1   49.10    1.23 
  -1   1  -1   50.74    1.77 
   1   1   1   49.11    1.28 
  -2  -1  -1    3.68    0.25 
   2  -1   1    3.58    0.15 
  -2  -1  -1    3.31    0.19 
   2  -1   1    3.62    0.17 
  -2  -1  -1    3.11    0.24 
   2  -1   1    3.32    0.15 
  -2  -1  -1    3.59    0.13 
  -2  -1  -1    3.65    0.23 
  -2  -1  -1    3.47    0.25 
   2  -1   1    3.54    0.10 
   2   1   1    3.52    0.18 
  -2   1  -1    3.63    0.26 
   2   1   1    3.58    0.13 
   2   1   1    3.50    0.21 
   2   1   1    3.54    0.19 
   2   1   1    3.54    0.15 
  -3  -1  -1   41.52    1.30 
  -3  -1  -1   42.48    1.63 
  -3  -1  -1   41.68    1.22 
  -3  -1  -1   37.97    1.69 
  -3  -1  -1   40.00    1.49 
  -3  -1  -1   40.94    1.49 
   3   1   1   40.68    1.17 
   3   1   1   41.26    1.55 
  -3   1  -1   41.21    1.18 
  -3   1  -1   38.31    1.70 
   3   1   1   40.79    1.47 
   3   1   1   39.55    1.22 
  -4  -1  -1   13.35    0.44 
  -4  -1  -1   12.54    0.70 
  -4   1  -1   14.57    0.45 
   4   1   1   14.89    0.47 
  -4   1  -1   14.11    0.76 
   5  -1   1    0.53    0.08 
  -5  -1  -1    0.54    0.13 
  -5  -1  -1    0.27    0.26 
   5   1   1    0.76    0.14 
  -5   1  -1    0.95    0.07 
  -5   1  -1    0.51    0.27 
  -6  -1  -1   31.73    1.37 
  -6  -1  -1   31.10    0.96 
  -6  -1  -1   31.18    0.96 
  -6  -1  -1   29.75    1.47 
  -6  -1  -1   31.45    0.96 
  -7  -1  -1    1.76    0.08 
  -7  -2   1    0.86    0.06 
  -7  -2   1    1.13    0.22 
  -7  -2   1    0.94    0.07 
  -6  -2   1   19.10    0.72 
  -6  -2   1   18.35    0.48 
  -6  -2   1   18.41    0.59 
  -6  -2   1   18.36    0.59 
  -6  -2   1   18.32    0.46 
   5  -2  -1   25.39    0.75 
  -5  -2   1   25.87    0.83 
  -5   2   1   24.84    0.72 
   5   2  -1   22.97    0.77 
   4  -2  -1   11.27    0.34 
  -4  -2   1   11.64    0.48 
  -4  -2   1   11.50    0.41 
  -4  -2   1   11.00    0.49 
  -4  -2   1   10.58    0.65 
  -4  -2   1   11.49    0.65 
  -4  -2   1   11.47    0.39 
  -4  -2   1   11.17    0.45 
   4   2  -1   13.66    0.46 
  -4   2   1   12.79    0.55 
  -4   2   1   13.68    0.42 
   4   2  -1   13.63    0.47 
   3  -2  -1    7.12    0.32 
   3  -2  -1    7.31    0.30 
  -3  -2   1    7.27    0.44 
  -3  -2   1    6.99    0.45 
   3  -2  -1    6.97    0.23 
  -3  -2   1    6.75    0.28 
  -3  -2   1    6.93    0.30 
   3   2  -1    5.64    0.31 
   3   2  -1    5.56    0.28 
  -3   2   1    5.80    0.20 
   3   2  -1    6.21    0.33 
   3   2  -1    5.75    0.24 
   3   2  -1    5.79    0.24 
   2  -2  -1   41.51    1.31 
  -2  -2   1   41.23    2.05 
   2  -2  -1   42.46    1.55 
  -2  -2   1   39.84    1.56 
   2  -2  -1   40.24    1.17 
  -2  -2   1   39.50    1.34 
   2  -2  -1   41.50    1.32 
  -2  -2   1   40.56    1.89 
   2  -2  -1   40.57    1.48 
   2   2  -1   33.76    1.33 
   2   2  -1   32.83    1.04 
  -2   2   1   34.89    1.66 
   2   2  -1   34.81    1.27 
   2   2  -1   34.13    1.01 
  -2   2   1   34.63    1.66 
   2   2  -1   34.03    1.15 
   1  -2  -1   12.04    0.45 
   1  -2  -1   11.86    0.28 
  -1  -2   1   12.82    0.32 
  -1  -2   1   11.74    0.37 
  -1  -2   1   11.31    0.45 
  -1  -2   1   12.12    0.47 
   1  -2  -1   12.14    0.37 
   1  -2  -1   11.92    0.50 
  -1  -2   1   11.75    0.69 
   1  -2  -1   11.98    0.45 
  -1  -2   1   10.65    0.51 
   1  -2  -1   11.86    0.33 
   1  -2  -1   11.95    0.33 
   1  -2  -1   12.78    0.48 
  -1  -2   1   12.74    0.54 
  -1  -2   1   12.25    0.64 
   1   2  -1   14.12    0.41 
  -1   2   1   13.21    0.37 
  -1   2   1   13.73    0.56 
  -1   2   1   13.82    0.47 
   1   2  -1   13.05    0.58 
  -1   2   1   14.06    0.39 
  -1   2   1   13.81    0.40 
  -1   2   1   13.99    0.66 
  -1   2   1   13.54    0.50 
   1   2  -1   13.26    0.42 
   1   2  -1   13.64    0.52 
   1   2  -1   13.95    0.55 
  -1   2   1   13.94    0.73 
   1   2  -1   13.39    0.52 
   0  -2   1   54.22    1.28 
   0  -2  -1   50.47    1.41 
   0  -2  -1   54.53    1.71 
   0  -2  -1   52.76    1.28 
   0  -2   1   53.36    1.71 
   0  -2   1   51.81    1.41 
   0  -2  -1   52.74    2.43 
   0  -2  -1   53.30    1.90 
   0  -2  -1   52.89    1.23 
   0  -2   1   49.78    2.43 
   0  -2   1   52.11    1.97 
   0  -2  -1   51.12    1.98 
   0  -2  -1   53.38    1.74 
   0  -2   1   53.32    1.98 
   0  -2   1   50.42    1.74 
   0  -2   1   53.27    1.90 
   0  -2  -1   54.83    1.98 
   0  -2  -1   52.56    1.08 
   0  -2  -1   50.97    1.35 
   0  -2   1   52.92    1.22 
   0  -2   1   53.00    1.08 
   0  -2   1   53.49    1.36 
   0   2   1   57.30    2.68 
   0   2  -1   57.60    1.50 
   0   2  -1   58.82    2.68 
   0   2   1   57.23    2.20 
   0   2   1   62.44    1.42 
   0   2   1   55.37    1.55 
   0   2  -1   60.33    1.49 
   0   2   1   60.17    1.93 
   0   2   1   55.70    1.88 
   0   2   1   59.78    1.49 
   0   2  -1   57.65    1.92 
   0   2  -1   59.06    1.42 
   0   2  -1   60.75    2.17 
   0   2  -1   59.46    1.55 
   0   2  -1   58.77    1.89 
   0   2  -1   53.16    2.19 
   0   2  -1   59.07    1.55 
   0   2   1   58.67    2.17 
   1  -2   1   62.50    2.21 
   1  -2   1   61.67    1.64 
  -1  -2  -1   61.75    1.58 
  -1  -2  -1   59.23    1.99 
   1  -2   1   60.56    1.48 
  -1  -2  -1   60.22    3.03 
   1  -2   1   59.27    1.48 
   1  -2   1   61.84    2.31 
   1  -2   1   60.47    1.26 
  -1  -2  -1   64.21    2.84 
   1  -2   1   60.00    1.42 
  -1  -2  -1   63.69    1.43 
   1  -2   1   63.18    1.98 
  -1  -2  -1   63.27    2.31 
  -1  -2  -1   62.93    2.03 
   1   2   1   51.26    1.38 
  -1   2  -1   54.77    2.14 
  -1   2  -1   52.92    1.98 
   1   2   1   52.47    1.78 
   1   2   1   54.41    1.94 
  -1   2  -1   54.39    1.41 
   1   2   1   52.29    1.43 
  -1   2  -1   52.99    2.61 
  -1   2  -1   53.66    1.36 
   1   2   1   54.67    1.74 
  -1   2  -1   54.26    2.43 
   1   2   1   53.61    2.03 
   2  -2   1   15.51    0.61 
   2  -2   1   15.45    0.52 
   2  -2   1   15.91    0.64 
  -2  -2  -1   15.60    0.56 
  -2  -2  -1   16.02    0.86 
  -2  -2  -1   16.18    0.77 
   2  -2   1   16.17    0.48 
  -2   2  -1   19.68    0.83 
   2   2   1   18.23    0.73 
   2   2   1   18.32    0.76 
   2   2   1   18.33    0.66 
   2   2   1   17.83    0.59 
   2   2   1   18.32    0.58 
   3  -2   1   21.28    0.61 
   3  -2   1   21.03    0.78 
  -3  -2  -1   20.43    1.06 
   3  -2   1   20.43    0.81 
  -3  -2  -1   19.93    0.99 
   3  -2   1   21.34    0.67 
  -3  -2  -1   20.28    0.66 
  -3  -2  -1   20.25    0.71 
  -3   2  -1   24.69    0.72 
   3   2   1   23.51    0.74 
  -3   2  -1   23.11    1.08 
   3   2   1   23.52    0.76 
   3   2   1   24.29    0.94 
   3   2   1   23.86    0.98 
   3   2   1   24.19    0.76 
   3   2   1   22.88    0.86 
  -3   2  -1   24.07    1.08 
  -4  -2  -1   17.76    0.75 
  -4  -2  -1   17.89    0.69 
  -4  -2  -1   18.79    0.72 
   4  -2   1   18.80    0.56 
  -4  -2  -1   17.99    0.61 
   4  -2   1   18.72    0.61 
  -4  -2  -1   18.44    0.94 
  -4   2  -1   16.16    0.66 
  -4   2  -1   15.90    0.50 
   4   2   1   16.18    0.54 
   4   2   1   15.70    0.55 
   5  -2   1   40.78    1.15 
  -5  -2  -1   38.26    1.77 
  -5  -2  -1   38.25    1.68 
  -5  -2  -1   39.34    1.23 
   5   2   1   38.27    1.22 
  -5   2  -1   40.79    1.17 
  -6  -2  -1    0.06    0.05 
  -6  -2  -1    0.11    0.05 
  -6  -2  -1    0.02    0.07 
  -6  -2  -1    0.18    0.07 
  -6  -2  -1    0.21    0.24 
  -7  -2  -1    2.33    0.10 
  -7  -2  -1    2.36    0.27 
  -7  -3   1    2.27    0.10 
  -6  -3   1   10.10    0.27 
  -6  -3   1    9.71    0.44 
  -6  -3   1   10.08    0.28 
  -6  -3   1    9.79    0.33 
  -6   3   1   10.31    0.56 
  -5  -3   1    6.66    0.35 
   5  -3  -1    8.36    0.31 
  -5  -3   1    8.15    0.40 
  -5  -3   1    8.37    0.35 
   5   3  -1    8.82    0.47 
  -5   3   1    8.39    0.30 
   5   3  -1    8.55    0.37 
  -4  -3   1    8.21    0.43 
  -4  -3   1    8.04    0.39 
  -4  -3   1    8.36    0.59 
   4  -3  -1    8.81    0.31 
  -4  -3   1    8.01    0.35 
  -4  -3   1    8.37    0.55 
   4  -3  -1    8.15    0.32 
   4   3  -1    6.92    0.33 
  -4   3   1    6.44    0.35 
  -4   3   1    7.07    0.26 
   4   3  -1    6.63    0.36 
   4   3  -1    7.36    0.32 
  -3  -3   1   12.68    0.73 
   3  -3  -1   13.30    0.58 
   3  -3  -1   13.42    0.47 
   3  -3  -1   13.90    0.44 
  -3  -3   1   13.48    0.68 
  -3  -3   1   12.76    0.47 
   3  -3  -1   13.29    0.45 
  -3  -3   1   13.16    0.79 
  -3  -3   1   13.85    0.53 
  -3  -3   1   12.83    0.59 
  -3   3   1   13.49    0.51 
   3   3  -1   12.88    0.47 
   3   3  -1   13.24    0.48 
   3   3  -1   12.98    0.54 
  -3   3   1   13.69    0.44 
  -3   3   1   11.89    0.51 
   2  -3  -1   15.84    0.68 
  -2  -3   1   15.62    0.54 
  -2  -3   1   15.91    0.61 
  -2  -3   1   17.44    0.58 
  -2  -3   1   15.32    0.50 
  -2  -3   1   17.00    0.85 
   2  -3  -1   15.91    0.53 
   2  -3  -1   16.00    0.56 
   2  -3  -1   15.93    0.65 
   2  -3  -1   15.94    0.52 
  -2  -3   1   15.60    0.59 
  -2   3   1   17.21    0.57 
   2   3  -1   18.67    0.78 
  -2   3   1   18.91    0.94 
   2   3  -1   17.36    0.68 
   2   3  -1   17.55    0.60 
   2   3  -1   17.40    0.60 
  -1  -3   1   14.19    0.56 
  -1  -3   1   13.82    0.75 
   1  -3  -1   13.25    0.52 
   1  -3  -1   12.93    0.45 
   1  -3  -1   13.32    0.45 
   1  -3  -1   12.15    0.47 
   1  -3  -1   13.18    0.58 
   1  -3  -1   13.37    0.55 
   1   3  -1   10.67    0.54 
  -1   3   1   11.91    0.61 
   1   3  -1   11.77    0.49 
  -1   3   1   12.38    0.68 
   1   3  -1   11.31    0.41 
   0  -3   1   49.92    1.35 
   0  -3   1   51.10    1.69 
   0  -3   1   52.10    1.95 
   0  -3  -1   51.86    1.95 
   0  -3  -1   48.70    1.68 
   0  -3  -1   50.51    1.54 
   0   3  -1   51.84    2.37 
   0   3   1   51.96    1.68 
   0   3  -1   50.03    1.69 
   0   3  -1   48.42    1.93 
   0   3   1   50.65    2.36 
   1  -3   1   33.07    1.26 
  -1  -3  -1   32.32    1.12 
  -1  -3  -1   33.48    1.56 
   1  -3   1   32.32    1.06 
  -1  -3  -1   32.30    0.91 
   1  -3   1   31.28    1.20 
   1  -3   1   31.22    0.96 
   1  -3   1   29.29    1.10 
   1   3   1   33.03    1.36 
   1   3   1   33.94    1.07 
  -1   3  -1   34.86    1.60 
  -1   3  -1   34.87    1.74 
   1   3   1   34.30    1.21 
   1   3   1   34.47    1.19 
  -2  -3  -1   50.89    1.69 
  -2  -3  -1   54.29    2.41 
   2  -3   1   52.36    1.88 
   2  -3   1   52.43    1.67 
   2  -3   1   49.87    1.97 
  -2  -3  -1   48.40    1.52 
  -2  -3  -1   51.20    1.68 
  -2  -3  -1   51.27    1.41 
   2  -3   1   52.32    1.50 
  -2  -3  -1   50.80    1.64 
   2   3   1   44.81    1.58 
  -2   3  -1   47.48    2.20 
  -2   3  -1   43.35    1.35 
   2   3   1   45.11    1.77 
   2   3   1   43.99    1.38 
   2   3   1   44.48    1.37 
   3  -3   1    8.00    0.29 
  -3  -3  -1    8.19    0.36 
  -3  -3  -1    7.61    0.52 
  -3  -3  -1    7.51    0.42 
   3  -3   1    7.81    0.30 
  -3  -3  -1    7.98    0.55 
  -3  -3  -1    7.60    0.34 
   3   3   1    6.40    0.34 
  -3   3  -1    6.47    0.28 
  -3   3  -1    6.66    0.25 
   3   3   1    6.50    0.30 
  -3   3  -1    5.86    0.28 
   3   3   1    6.54    0.31 
  -4  -3  -1    9.60    0.67 
   4  -3   1    9.96    0.37 
   4  -3   1    9.33    0.35 
  -4  -3  -1    9.86    0.49 
  -4  -3  -1    9.89    0.45 
  -4  -3  -1    9.46    0.39 
  -4   3  -1   10.77    0.38 
   4   3   1   11.03    0.50 
   4   3   1   10.99    0.45 
  -4   3  -1   10.65    0.50 
   4   3   1   11.44    0.44 
  -5  -3  -1    1.01    0.36 
  -5  -3  -1    1.15    0.15 
  -5  -3  -1    1.05    0.13 
  -5  -3  -1    1.11    0.13 
  -5  -3  -1    1.48    0.33 
  -5  -3  -1    1.30    0.27 
  -5   3  -1    1.91    0.34 
  -5   3  -1    1.47    0.09 
  -5   3  -1    1.59    0.11 
  -5   3  -1    1.46    0.08 
  -5   3  -1    1.59    0.09 
  -5   3  -1    1.43    0.28 
  -6  -3  -1    4.80    0.19 
  -6  -3  -1    4.88    0.37 
  -6  -3  -1    4.78    0.16 
  -6  -3  -1    4.82    0.16 
  -6  -4   1    2.22    0.11 
  -6  -4   1    2.13    0.11 
  -6  -4   1    1.86    0.29 
  -6  -4   1    2.32    0.24 
  -6  -4   1    2.14    0.14 
  -6   4   1    1.86    0.09 
  -6   4   1    2.26    0.26 
  -6   4   1    1.78    0.32 
  -5  -4   1    9.76    0.44 
  -5  -4   1    9.35    0.52 
  -5  -4   1    9.63    0.40 
  -5  -4   1    9.24    0.28 
  -5  -4   1    9.44    0.34 
  -5  -4   1    9.13    0.40 
  -5  -4   1    9.28    0.29 
  -5  -4   1    9.50    0.47 
  -5   4   1    9.35    0.43 
  -5   4   1    9.71    0.46 
  -5   4   1    9.57    0.53 
  -5   4   1    9.18    0.24 
  -5   4   1    9.15    0.31 
  -5   4   1    9.35    0.31 
  -5   4   1    9.39    0.46 
  -5   4   1    9.25    0.25 
  -5   4   1    9.71    0.31 
  -4  -4   1   21.93    0.85 
   4  -4  -1   21.06    0.74 
  -4  -4   1   21.62    0.90 
  -4  -4   1   21.61    0.77 
   4  -4  -1   18.29    0.68 
  -4  -4   1   20.20    1.10 
   4   4  -1   22.13    0.75 
  -4   4   1   19.70    0.70 
   4   4  -1   22.55    0.76 
   4   4  -1   21.76    0.86 
  -3  -4   1   27.06    1.11 
   3  -4  -1   27.52    0.86 
   3  -4  -1   26.03    0.93 
   3  -4  -1   27.11    0.88 
  -3  -4   1   27.96    0.98 
  -3  -4   1   27.98    1.32 
  -3  -4   1   26.61    0.79 
  -3  -4   1   27.35    0.89 
   3   4  -1   25.96    0.89 
  -3   4   1   27.14    1.03 
   3   4  -1   28.22    0.91 
   3   4  -1   27.23    1.03 
  -3   4   1   26.82    1.06 
  -3   4   1   26.15    0.86 
   2  -4  -1   16.92    0.61 
  -2  -4   1   16.55    0.62 
  -2  -4   1   17.35    0.59 
  -2  -4   1   16.93    0.63 
   2  -4  -1   16.44    0.72 
   2  -4  -1   17.58    0.58 
   2  -4  -1   16.34    0.58 
  -2  -4   1   15.98    0.73 
   2  -4  -1   17.39    0.58 
  -2  -4   1   17.02    0.55 
  -2   4   1   13.23    0.76 
   2   4  -1   13.89    0.57 
  -2   4   1   12.94    0.59 
   2   4  -1   12.72    0.53 
   2   4  -1   14.04    0.51 
   2   4  -1   13.36    0.50 
  -1  -4   1   20.63    0.66 
   1  -4  -1   21.58    0.70 
   1  -4  -1   20.08    0.90 
  -1  -4   1   21.31    0.76 
   1  -4  -1   21.61    0.70 
   1   4  -1   21.72    0.71 
  -1   4   1   21.54    0.63 
  -1   4   1   20.67    1.06 
  -1   4   1   21.48    0.73 
   1   4  -1   19.29    0.82 
   1   4  -1   21.45    0.65 
  -1   4   1   21.68    0.73 
   1   4  -1   22.29    0.76 
   0  -4  -1   15.18    0.57 
   0  -4   1   15.28    0.55 
   0  -4   1   15.06    0.59 
   0  -4  -1   15.18    0.53 
   0  -4  -1   14.88    0.53 
   0   4  -1   16.10    0.60 
   0   4   1   16.06    0.62 
   0   4  -1   16.71    0.88 
   0   4  -1   16.11    0.61 
   0   4  -1   16.26    0.51 
   0   4   1   16.09    0.59 
   0   4   1   16.35    0.52 
   0   4   1   17.43    0.89 
  -1  -4  -1   25.56    0.83 
  -1  -4  -1   25.79    0.78 
   1  -4   1   25.75    1.08 
   1  -4   1   26.16    0.85 
  -1  -4  -1   26.16    1.34 
  -1  -4  -1   26.40    0.90 
   1   4   1   20.69    0.64 
   1   4   1   20.37    0.80 
   1   4   1   21.65    0.70 
  -1   4  -1   20.46    1.03 
  -1   4  -1   21.13    0.61 
  -1   4  -1   21.56    0.70 
  -1   4  -1   18.83    1.16 
   1   4   1   22.16    0.75 
  -2  -4  -1    2.67    0.23 
   2  -4   1    2.79    0.20 
  -2  -4  -1    2.79    0.31 
  -2  -4  -1    2.87    0.24 
  -2  -4  -1    2.51    0.31 
   2  -4   1    2.68    0.18 
  -2  -4  -1    2.63    0.22 
  -2  -4  -1    2.68    0.22 
   2  -4   1    2.75    0.24 
   2   4   1    3.74    0.26 
   2   4   1    3.87    0.28 
  -2   4  -1    3.73    0.28 
   2   4   1    3.55    0.26 
  -2   4  -1    3.40    0.29 
   2   4   1    3.69    0.27 
   3  -4   1    3.56    0.21 
  -3  -4  -1    4.69    0.36 
   3  -4   1    3.72    0.23 
  -3  -4  -1    3.64    0.29 
  -3  -4  -1    3.85    0.28 
  -3  -4  -1    4.03    0.47 
   3   4   1    3.32    0.29 
  -3   4  -1    3.34    0.27 
  -3   4  -1    3.68    0.21 
   3   4   1    3.48    0.28 
   3   4   1    3.75    0.27 
  -3   4  -1    3.54    0.23 
  -3   4  -1    3.73    0.23 
  -4  -4  -1    4.41    0.34 
  -4  -4  -1    5.13    0.32 
  -4  -4  -1    5.42    0.38 
  -4  -4  -1    5.15    0.35 
  -4  -4  -1    4.95    0.59 
  -4  -4  -1    4.89    0.29 
   4   4   1    3.71    0.31 
   4   4   1    3.71    0.30 
   4   4   1    3.99    0.27 
  -4   4  -1    3.49    0.33 
  -4   4  -1    3.71    0.21 
  -5  -4  -1    2.03    0.26 
  -5  -4  -1    1.88    0.13 
  -5  -4  -1    1.87    0.14 
  -5  -4  -1    2.04    0.16 
  -5  -4  -1    2.24    0.47 
  -5  -4  -1    2.00    0.19 
  -5  -4  -1    2.13    0.27 
  -5   4  -1    2.88    0.28 
  -5   4  -1    2.65    0.13 
  -5   4  -1    2.64    0.13 
  -5   4  -1    2.81    0.39 
  -5   4  -1    2.71    0.20 
  -5   4  -1    2.55    0.10 
  -5   4  -1    2.92    0.18 
  -5   4  -1    2.79    0.12 
  -6  -4  -1   17.24    0.46 
  -6  -4  -1   17.45    0.44 
  -6  -4  -1   17.11    0.53 
  -6   4  -1   17.28    0.52 
  -6   4  -1   16.29    0.75 
  -6  -5   1    4.11    0.16 
  -6  -5   1    4.10    0.24 
  -6  -5   1    4.08    0.13 
  -6  -5   1    4.01    0.14 
  -6  -5   1    4.01    0.28 
  -6   5   1    3.95    0.23 
  -6   5   1    3.90    0.29 
  -5  -5   1    3.34    0.28 
  -5  -5   1    3.75    0.22 
  -5  -5   1    3.70    0.20 
  -5  -5   1    4.05    0.33 
  -5  -5   1    3.67    0.22 
   5   5  -1    3.43    0.18 
  -5   5   1    3.46    0.28 
  -5   5   1    3.39    0.11 
  -5   5   1    3.23    0.11 
  -5   5   1    3.30    0.15 
  -5   5   1    3.09    0.34 
  -5   5   1    3.43    0.14 
  -5   5   1    3.49    0.23 
  -4  -5   1    7.82    0.38 
  -4  -5   1    8.39    0.40 
  -4  -5   1    7.59    0.31 
  -4  -5   1    6.84    0.63 
  -4  -5   1    7.31    0.31 
  -4  -5   1    7.34    0.43 
  -4  -5   1    8.36    0.48 
  -4  -5   1    7.69    0.24 
  -4  -5   1    7.50    0.27 
   4   5  -1    6.63    0.37 
  -4   5   1    6.10    0.45 
  -4   5   1    6.31    0.20 
   4   5  -1    6.40    0.27 
  -4   5   1    6.35    0.25 
  -4   5   1    6.53    0.21 
  -4   5   1    6.78    0.36 
   3  -5  -1   13.74    0.52 
  -3  -5   1   12.05    0.51 
  -3  -5   1   11.44    0.43 
  -3  -5   1   12.06    0.56 
   3  -5  -1   11.26    0.48 
  -3  -5   1   12.16    0.63 
  -3  -5   1   11.60    0.77 
   3   5  -1   13.37    0.61 
   3   5  -1   13.01    0.54 
   3   5  -1   13.41    0.55 
  -3   5   1   13.27    0.61 
  -2  -5   1   18.66    0.62 
   2  -5  -1   18.50    0.66 
  -2  -5   1   18.39    0.70 
  -2  -5   1   18.20    0.71 
  -2   5   1   18.53    0.80 
   2   5  -1   17.43    0.70 
   2   5  -1   17.86    0.75 
   2   5  -1   18.11    0.66 
  -1  -5   1    7.05    0.35 
  -1  -5   1    7.02    0.39 
   1  -5  -1    7.41    0.36 
   1   5  -1    6.38    0.36 
  -1   5   1    6.11    0.26 
  -1   5   1    6.57    0.28 
   1   5  -1    6.82    0.31 
  -1   5   1    6.50    0.41 
   0  -5  -1    9.04    0.40 
   0  -5  -1    8.52    0.50 
   0  -5   1    9.45    0.42 
   0  -5  -1    9.15    0.44 
   0  -5   1    9.00    0.45 
   0   5  -1    8.87    0.36 
   0   5   1    9.30    0.41 
   0   5   1    9.13    0.41 
   0   5   1    9.54    0.37 
   0   5  -1    9.14    0.41 
   0   5  -1    9.34    0.41 
  -1  -5  -1   19.60    0.65 
  -1  -5  -1   19.17    0.69 
   1  -5   1   19.82    0.70 
  -1  -5  -1   20.00    0.75 
  -1   5  -1   18.80    0.58 
  -1   5  -1   19.03    0.84 
   1   5   1   18.94    0.62 
   1   5   1   19.70    0.72 
  -2  -5  -1   10.46    0.41 
  -2  -5  -1   10.27    0.45 
  -2  -5  -1    9.16    0.45 
  -2  -5  -1    9.91    0.45 
   2  -5   1    9.77    0.44 
  -2   5  -1    9.52    0.51 
   2   5   1    9.37    0.49 
   2   5   1   10.21    0.46 
   2   5   1    9.86    0.44 
  -3  -5  -1   39.28    1.26 
  -3  -5  -1   41.45    1.85 
  -3  -5  -1   39.48    1.40 
  -3  -5  -1   40.59    1.60 
  -3  -5  -1   38.35    1.37 
  -3   5  -1   34.72    1.33 
   3   5   1   32.17    1.29 
   3   5   1   33.16    1.14 
  -3   5  -1   34.31    1.31 
   3   5   1   35.71    1.14 
  -3   5  -1   36.02    1.27 
  -4  -5  -1    7.77    0.44 
  -4  -5  -1    7.25    0.30 
  -4  -5  -1    7.59    0.47 
  -4  -5  -1    7.21    0.37 
  -4  -5  -1    7.59    0.39 
  -4  -5  -1    7.59    0.66 
  -4  -5  -1    7.27    0.22 
  -4  -5  -1    7.15    0.31 
  -4  -5  -1    7.44    0.25 
  -4   5  -1    6.87    0.36 
  -4   5  -1    6.36    0.20 
  -4   5  -1    6.35    0.24 
   4   5   1    6.57    0.26 
  -4   5  -1    6.50    0.47 
  -4   5  -1    6.60    0.21 
  -5  -5  -1    2.39    0.17 
  -5  -5  -1    2.34    0.19 
  -5  -5  -1    1.98    0.24 
  -5   5  -1    2.75    0.24 
  -5   5  -1    2.31    0.31 
   5   5   1    2.13    0.15 
  -5   5  -1    2.40    0.11 
  -5   5  -1    2.29    0.09 
  -5   5  -1    2.38    0.11 
  -5  -6   1    2.62    0.21 
  -5  -6   1    2.60    0.14 
  -5  -6   1    2.52    0.25 
  -5  -6   1    2.58    0.16 
  -5   6   1    2.86    0.12 
  -5   6   1    3.15    0.22 
  -5   6   1    2.76    0.11 
  -5   6   1    2.62    0.09 
  -5   6   1    2.49    0.26 
   5   6  -1    2.99    0.15 
  -4  -6   1    3.27    0.29 
  -4  -6   1    3.54    0.15 
  -4  -6   1    3.82    0.34 
  -4  -6   1    3.14    0.27 
  -4  -6   1    3.55    0.19 
  -4  -6   1    3.66    0.25 
  -4  -6   1    3.47    0.12 
  -4   6   1    4.04    0.15 
  -4   6   1    3.58    0.36 
  -4   6   1    4.20    0.28 
   4   6  -1    4.04    0.21 
  -4   6   1    3.95    0.15 
  -4   6   1    3.91    0.17 
  -3  -6   1    0.06    0.07 
  -3  -6   1   -0.10    0.20 
  -3  -6   1    0.01    0.07 
  -3  -6   1   -0.11    0.29 
  -3  -6   1   -0.01    0.10 
  -3  -6   1   -0.10    0.12 
  -3  -6   1   -0.02    0.07 
   3  -6  -1    0.18    0.22 
  -3  -6   1   -0.12    0.17 
  -3   6   1    0.05    0.07 
  -3   6   1    0.16    0.22 
   3   6  -1   -0.06    0.09 
  -3   6   1    0.33    0.19 
  -3   6   1    0.21    0.11 
  -3   6   1    0.10    0.09 
  -3   6   1    0.11    0.06 
  -3   6   1    0.03    0.09 
  -3   6   1    0.10    0.15 
   2  -6  -1    5.87    0.47 
  -2  -6   1    5.22    0.36 
  -2  -6   1    6.18    0.28 
  -2  -6   1    5.95    0.27 
   2  -6  -1    5.58    0.25 
  -2  -6   1    5.98    0.34 
  -2  -6   1    6.04    0.18 
   2  -6  -1    5.05    0.34 
  -2  -6   1    6.38    0.35 
  -2   6   1    5.19    0.43 
   2   6  -1    5.27    0.27 
  -2   6   1    5.27    0.33 
  -2   6   1    5.19    0.31 
  -2   6   1    5.38    0.45 
  -2   6   1    5.96    0.19 
  -2   6   1    5.84    0.26 
  -2   6   1    5.16    0.25 
  -2   6   1    6.04    0.21 
   2   6  -1    5.51    0.25 
   2   6  -1    5.33    0.37 
   1  -6  -1   15.75    0.72 
  -1  -6   1   15.51    0.58 
  -1  -6   1   15.59    0.66 
   1  -6  -1   15.62    0.61 
   1   6  -1   14.44    0.52 
  -1   6   1   14.17    0.73 
   1   6  -1   14.39    0.60 
   1   6  -1   14.41    0.60 
   0  -6  -1    9.23    0.45 
   0  -6   1   10.07    0.46 
   0  -6   1   10.47    0.51 
   0  -6  -1   10.32    0.50 
   0   6   1    9.13    0.37 
   0   6  -1    8.68    0.42 
   0   6   1    9.48    0.41 
   0   6  -1    8.76    0.39 
   0   6  -1    9.21    0.37 
   0   6   1    8.74    0.43 
  -1  -6  -1    4.96    0.33 
   1  -6   1    4.59    0.33 
  -1  -6  -1    5.17    0.36 
   1   6   1    4.73    0.33 
  -1   6  -1    4.10    0.40 
   1   6   1    4.50    0.30 
  -2  -6  -1    4.40    0.15 
   2  -6   1    4.95    0.32 
  -2  -6  -1    4.51    0.58 
  -2  -6  -1    4.29    0.22 
  -2  -6  -1    3.98    0.32 
  -2  -6  -1    4.49    0.27 
   2  -6   1    4.51    0.23 
  -2  -6  -1    4.66    0.29 
  -2  -6  -1    3.77    0.24 
  -2   6  -1    3.05    0.25 
   2   6   1    3.27    0.19 
   2   6   1    3.48    0.31 
  -2   6  -1    2.69    0.15 
  -2   6  -1    3.47    0.24 
  -2   6  -1    2.43    0.37 
  -2   6  -1    2.83    0.12 
  -2   6  -1    3.05    0.21 
  -2   6  -1    2.57    0.17 
  -2   6  -1    3.79    0.35 
   2   6   1    3.01    0.22 
  -3  -6  -1    6.26    0.48 
  -3  -6  -1    7.09    0.38 
  -3  -6  -1    5.37    0.60 
  -3  -6  -1    7.88    0.29 
  -3  -6  -1    8.19    0.32 
  -3  -6  -1    7.89    0.40 
  -3  -6  -1    8.06    0.26 
  -3  -6  -1    8.31    0.23 
  -3   6  -1    7.33    0.36 
  -3   6  -1    7.08    0.23 
   3   6   1    7.16    0.29 
  -3   6  -1    7.01    0.23 
  -3   6  -1    6.69    0.32 
  -3   6  -1    7.39    0.30 
  -3   6  -1    7.22    0.33 
  -3   6  -1    7.17    0.38 
  -3   6  -1    7.50    0.27 
  -3   6  -1    7.07    0.48 
  -4  -6  -1    2.41    0.22 
  -4  -6  -1    2.26    0.25 
  -4  -6  -1    1.92    0.15 
  -4  -6  -1    1.95    0.10 
  -4  -6  -1    2.21    0.27 
  -4   6  -1    1.57    0.10 
  -4   6  -1    1.76    0.10 
  -4   6  -1    1.21    0.23 
   4   6   1    1.64    0.15 
  -4   6  -1    1.83    0.12 
  -4   6  -1    1.12    0.31 
  -5  -6  -1    4.06    0.17 
  -5  -6  -1    4.00    0.19 
  -5   6  -1    3.92    0.14 
  -5   6  -1    4.12    0.23 
  -5   6  -1    3.51    0.30 
   5   6   1    4.10    0.16 
  -5   6  -1    4.00    0.14 
  -4  -7   1    2.81    0.13 
  -4  -7   1    2.35    0.22 
  -4  -7   1    2.78    0.17 
  -4   7   1    2.94    0.10 
  -4   7   1    2.59    0.12 
  -4   7   1    2.74    0.24 
   4   7  -1    3.00    0.13 
  -4   7   1    2.97    0.19 
  -4   7   1    2.98    0.11 
  -3  -7   1    1.45    0.11 
  -3  -7   1    1.41    0.07 
  -3  -7   1    1.52    0.18 
  -3  -7   1    1.39    0.20 
  -3  -7   1    1.44    0.14 
   3  -7  -1    1.42    0.12 
  -3   7   1    1.77    0.14 
  -3   7   1    1.87    0.14 
  -3   7   1    1.86    0.27 
   3   7  -1    2.08    0.15 
  -3   7   1    1.83    0.15 
  -3   7   1    2.01    0.19 
  -3   7   1    1.75    0.11 
  -3   7   1    2.07    0.11 
   3   7  -1    1.87    0.13 
   2  -7  -1    7.93    0.29 
   2  -7  -1    8.09    0.48 
  -2  -7   1    7.73    0.32 
  -2  -7   1    7.88    0.37 
  -2  -7   1    7.85    0.28 
  -2   7   1    7.01    0.27 
  -2   7   1    7.05    0.45 
  -2   7   1    6.51    0.27 
  -2   7   1    6.98    0.30 
   2   7  -1    7.02    0.28 
  -2   7   1    6.62    0.22 
  -2   7   1    6.54    0.34 
  -2   7   1    6.93    0.28 
  -2   7   1    7.22    0.34 
   1  -7  -1    4.64    0.21 
  -1  -7   1    4.69    0.31 
   1  -7  -1    4.42    0.40 
  -1   7   1    5.79    0.21 
  -1   7   1    6.26    0.33 
  -1   7   1    5.54    0.17 
   1   7  -1    5.51    0.27 
   1   7  -1    5.99    0.17 
  -1   7   1    5.70    0.27 
  -1   7   1    6.49    0.42 
   1   7  -1    5.97    0.26 
  -1   7   1    5.73    0.30 
  -1   7   1    5.83    0.23 
  -1   7   1    5.94    0.26 
  -1   7   1    6.49    0.45 
   0  -7   1    1.65    0.14 
   0  -7  -1    1.09    0.17 
   0  -7  -1    1.38    0.15 
   0   7   1    2.21    0.17 
   0   7  -1    2.21    0.13 
   0   7  -1    2.11    0.16 
   0   7   1    1.99    0.15 
   0   7  -1    2.17    0.16 
   0   7  -1    2.13    0.18 
   0   7   1    1.96    0.17 
   0   7  -1    2.04    0.14 
   0   7  -1    1.75    0.17 
   0   7   1    2.08    0.16 
   0   7   1    2.11    0.18 
  -1  -7  -1   10.03    0.29 
   1  -7   1    9.71    0.55 
  -1  -7  -1   10.36    0.36 
   1  -7   1   10.16    0.35 
   1   7   1    9.10    0.37 
   1   7   1    8.86    0.36 
  -1   7  -1    8.86    0.53 
   1   7   1    9.24    0.34 
  -1   7  -1    8.81    0.28 
  -1   7  -1    9.40    0.42 
  -1   7  -1    9.16    0.52 
  -1   7  -1    9.07    0.33 
  -1   7  -1    8.16    0.34 
  -1   7  -1    8.70    0.30 
  -1   7  -1    9.56    0.37 
  -1   7  -1    8.68    0.37 
   1   7   1    8.98    0.25 
  -2  -7  -1    1.16    0.12 
   2  -7   1    1.24    0.14 
  -2  -7  -1    1.50    0.15 
   2  -7   1    0.53    0.21 
  -2   7  -1    1.53    0.31 
  -2   7  -1    1.72    0.14 
  -2   7  -1    1.70    0.13 
  -2   7  -1    1.74    0.16 
  -2   7  -1    1.33    0.19 
   2   7   1    1.73    0.18 
  -2   7  -1    1.60    0.22 
  -2   7  -1    1.71    0.19 
  -2   7  -1    1.65    0.15 
  -3  -7  -1    1.21    0.10 
  -3  -7  -1    1.58    0.19 
  -3  -7  -1    1.24    0.13 
  -3  -7  -1    1.28    0.18 
  -3  -7  -1    1.30    0.11 
   3  -7   1    1.25    0.12 
  -3   7  -1    0.94    0.11 
  -3   7  -1    0.81    0.27 
  -3   7  -1    0.81    0.13 
  -3   7  -1    1.01    0.09 
   3   7   1    0.98    0.15 
  -3   7  -1    0.84    0.11 
  -3   7  -1    1.06    0.09 
   3   7   1    1.22    0.13 
  -4  -7  -1   14.56    0.56 
  -4   7  -1   12.43    0.59 
  -4   7  -1   13.86    0.33 
  -4   7  -1   13.38    0.34 
  -2  -8   1    5.39    0.15 
   2  -8  -1    5.22    0.19 
  -2  -8   1    5.35    0.18 
  -2   8   1    5.98    0.24 
  -2   8   1    6.62    0.25 
   2   8  -1    6.47    0.22 
  -2   8   1    6.22    0.27 
  -2   8   1    6.19    0.22 
  -1  -8   1    4.00    0.16 
   1  -8  -1    3.72    0.15 
   1  -8  -1    3.54    0.28 
  -1   8   1    3.18    0.25 
   1   8  -1    3.43    0.15 
  -1   8   1    3.55    0.21 
  -1   8   1    3.40    0.18 
   1   8  -1    3.20    0.14 
  -1   8   1    3.24    0.18 
  -1   8   1    3.51    0.17 
   1   8  -1    3.61    0.12 
   1   8  -1    3.32    0.16 
  -1   8   1    3.52    0.16 
   1   8  -1    3.43    0.15 
  -1   8   1    3.23    0.12 
   0  -8  -1    2.55    0.16 
   0  -8   1    2.88    0.15 
   0  -8  -1    2.88    0.10 
   0  -8   1    2.94    0.10 
   0  -8  -1    2.87    0.14 
   0   8   1    3.28    0.13 
   0   8  -1    3.14    0.12 
   0   8  -1    3.31    0.14 
   0   8  -1    2.72    0.20 
   0   8   1    3.32    0.14 
   0   8   1    3.63    0.17 
   0   8  -1    3.17    0.17 
   0   8   1    2.90    0.28 
   0   8  -1    3.29    0.16 
   0   8  -1    2.75    0.29 
   1  -8   1    2.75    0.12 
  -1  -8  -1    3.02    0.14 
  -1  -8  -1    2.49    0.19 
   1  -8   1    2.73    0.24 
  -1   8  -1    3.71    0.18 
   1   8   1    3.74    0.16 
   1   8   1    3.31    0.16 
  -1   8  -1    3.72    0.21 
  -1   8  -1    3.75    0.18 
  -1   8  -1    3.08    0.28 
  -1   8  -1    3.77    0.16 
  -1   8  -1    3.73    0.16 
   1   8   1    3.71    0.13 
   2  -8   1    1.96    0.10 
  -2   8  -1    1.42    0.10 
  -2   8  -1    1.43    0.11 
  -2   8  -1    1.19    0.20 
  -6   0   2    0.02    0.03 
  -6   0   2   -0.01    0.22 
  -6   0   2    0.03    0.14 
  -6   0   2    0.06    0.03 
   5   0  -2    8.33    0.28 
  -5   0   2    8.43    0.29 
  -5   0   2    8.05    0.37 
  -4   0   2   48.39    1.94 
   4   0  -2   47.34    1.70 
   4   0  -2   45.95    1.34 
  -4   0   2   46.54    1.39 
  -3   0   2    5.47    0.19 
   3   0  -2    5.37    0.16 
   3   0  -2    5.31    0.25 
   3   0  -2    5.73    0.24 
  -3   0   2    5.25    0.22 
  -3   0   2    5.57    0.38 
  -2   0   2  120.21    4.68 
  -2   0   2  110.34    4.45 
  -2   0   2  122.70    5.91 
   2   0  -2  127.85    4.57 
   2   0  -2  122.73    3.87 
   2   0  -2  124.67    3.20 
  -2   0   2  121.88    2.91 
  -2   0   2  139.94    4.46 
  -2   0   2  116.83    6.14 
   2   0  -2  123.29    2.91 
  -2   0   2  126.77    5.91 
   2   0  -2  129.15    4.37 
   1   0  -2  952.73   34.80 
  -1   0   2  920.46   34.03 
   1   0  -2  955.21   22.10 
   1   0  -2  928.67   22.11 
   1   0  -2  984.62   30.29 
  -1   0   2  969.31   23.37 
  -1   0   2  915.28   22.10 
   1   0  -2  976.60   23.36 
   1   0  -2  922.60   23.34 
  -1   0   2  908.16   29.43 
  -1   0   2  921.36   24.30 
  -1   0   2  975.29   24.31 
  -1   0   2  929.56   23.35 
   1   0  -2  909.20   33.24 
   1   0  -2  914.19   24.30 
  -1   0   2  980.50   30.29 
   1   0  -2  924.58   30.30 
  -1   0   2  987.85   34.04 
  -1   0   2 1000.00   42.45 
   1   0  -2  952.66   34.03 
  -1   0   2  917.13   22.11 
   1   0  -2  960.09   29.43 
   1   0  -2  936.03   24.30 
  -1   0   2  979.50   45.19 
  -1   0   2  984.11   32.21 
   0   0   2   42.40    1.58 
   0   0   2   44.14    1.08 
   0   0   2   43.61    1.03 
   0   0   2   41.35    1.60 
   0   0   2   43.91    1.40 
   0   0  -2   43.71    1.03 
   0   0  -2   43.27    1.13 
   0   0  -2   44.09    1.13 
   0   0  -2   43.70    1.08 
   0   0  -2   41.13    1.40 
   0   0   2   43.20    1.03 
   0   0  -2   42.88    1.58 
   0   0  -2   42.65    1.37 
   0   0  -2   41.69    1.08 
   0   0  -2   42.53    1.40 
   0   0   2   42.55    1.49 
   0   0  -2   44.00    1.49 
   0   0  -2   39.76    1.95 
   0   0   2   40.41    1.52 
   0   0  -2   41.49    1.60 
   0   0   2   42.49    1.13 
   0   0   2   42.44    1.40 
   0   0  -2   42.38    1.58 
   0   0   2   43.28    1.13 
   0   0   2   41.68    1.58 
   0   0   2   43.20    1.08 
   0   0   2   43.70    1.37 
  -1   0  -2  288.56    6.87 
   1   0   2  293.22    9.40 
  -1   0  -2  295.83    9.15 
  -1   0  -2  294.67   10.57 
   1   0   2  298.13    9.14 
   1   0   2  289.92   10.79 
   1   0   2  295.07   10.31 
   1   0   2  301.59    7.26 
  -1   0  -2  300.74   10.57 
  -1   0  -2  284.75    7.54 
  -1   0  -2  278.15    5.82 
  -1   0  -2  292.66   13.99 
  -1   0  -2  305.13    7.54 
   1   0   2  290.97    7.55 
  -1   0  -2  293.23   10.03 
   1   0   2  305.80    6.87 
   1   0   2  283.00    6.87 
   1   0   2  302.85    7.55 
  -1   0  -2  301.63    7.25 
  -1   0  -2  290.19    9.38 
   1   0   2  291.00   10.03 
  -1   0  -2  292.49    7.25 
  -1   0  -2  286.46    6.87 
   1   0   2  291.32   10.58 
   2   0   2   13.69    0.41 
   2   0   2   14.07    0.56 
   2   0   2   13.16    0.53 
   2   0   2   14.10    0.48 
  -2   0  -2   14.03    0.64 
  -3   0  -2   25.95    0.79 
   3   0   2   26.00    0.97 
   3   0   2   26.62    0.76 
  -3   0  -2   26.12    0.96 
  -3   0  -2   24.97    1.15 
   3   0   2   27.26    1.02 
  -3   0  -2   25.68    0.96 
   4   0   2    7.61    0.27 
  -4   0  -2    7.73    0.27 
  -4   0  -2    6.58    0.51 
  -5   0  -2    4.47    0.52 
  -5   0  -2    4.58    0.26 
   5   0   2    4.24    0.20 
  -5   0  -2    4.43    0.20 
  -6   0  -2    2.32    0.10 
  -6   0  -2    2.84    0.46 
  -6   0  -2    2.55    0.37 
  -6   0  -2    2.28    0.11 
  -7  -1   2    7.17    0.24 
  -7  -1   2    7.66    0.37 
  -6  -1   2   24.80    1.15 
  -6  -1   2   25.53    0.62 
  -6  -1   2   25.65    0.79 
  -6  -1   2   26.17    0.81 
  -6  -1   2   25.29    0.79 
  -6  -1   2   25.73    0.79 
  -6  -1   2   26.15    0.93 
  -6   1   2   25.36    0.89 
   5  -1  -2    1.81    0.09 
  -5  -1   2    1.34    0.14 
  -5  -1   2    1.49    0.21 
   5   1  -2    1.38    0.14 
  -5   1   2    1.69    0.09 
  -4  -1   2    8.98    0.32 
   4  -1  -2    9.48    0.36 
  -4  -1   2    8.51    0.35 
  -4  -1   2    8.60    0.36 
  -4  -1   2    9.38    0.55 
   4   1  -2    6.95    0.35 
  -4   1   2    6.54    0.22 
   4   1  -2    6.67    0.25 
   3  -1  -2   22.94    0.82 
  -3  -1   2   22.05    0.69 
   3  -1  -2   22.94    0.87 
  -3  -1   2   22.02    0.74 
  -3  -1   2   21.76    0.85 
  -3  -1   2   23.25    0.99 
  -3   1   2   23.07    0.99 
   3   1  -2   20.90    0.68 
  -3   1   2   21.35    0.66 
   3   1  -2   22.20    0.84 
   3   1  -2   22.14    0.66 
   3   1  -2   23.18    0.88 
   2  -1  -2   19.85    0.75 
  -2  -1   2   19.01    0.88 
   2  -1  -2   19.89    0.71 
  -2  -1   2   19.10    0.53 
   2  -1  -2   20.33    0.54 
  -2  -1   2   19.42    0.99 
  -2  -1   2   18.68    0.75 
  -2  -1   2   18.32    1.04 
  -2  -1   2   19.32    0.52 
   2  -1  -2   18.49    0.64 
  -2   1   2   14.89    0.70 
   2   1  -2   14.33    0.56 
   2   1  -2   14.54    0.59 
   2   1  -2   14.06    0.51 
   2   1  -2   13.47    0.38 
   2   1  -2   14.78    0.45 
  -2   1   2   14.56    0.66 
  -2   1   2   13.95    0.70 
  -1  -1   2    5.62    0.19 
  -1  -1   2    5.00    0.36 
  -1  -1   2    5.49    0.34 
  -1  -1   2    5.50    0.20 
  -1  -1   2    5.40    0.24 
  -1  -1   2    5.61    0.18 
   1  -1  -2    5.40    0.26 
   1  -1  -2    5.63    0.26 
  -1  -1   2    5.98    0.21 
  -1  -1   2    5.44    0.25 
   1  -1  -2    5.24    0.20 
  -1  -1   2    5.30    0.26 
  -1  -1   2    5.39    0.24 
  -1  -1   2    5.58    0.19 
   1  -1  -2    5.63    0.28 
   1  -1  -2    5.62    0.20 
   1  -1  -2    5.56    0.19 
   1  -1  -2    5.13    0.24 
   1  -1  -2    5.63    0.18 
  -1  -1   2    5.50    0.19 
   1  -1  -2    5.56    0.24 
  -1  -1   2    5.73    0.28 
   1  -1  -2    5.56    0.17 
  -1   1   2    5.93    0.22 
   1   1  -2    5.57    0.20 
  -1   1   2    5.90    0.35 
  -1   1   2    5.48    0.20 
  -1   1   2    5.40    0.26 
   1   1  -2    5.72    0.25 
   1   1  -2    5.94    0.28 
  -1   1   2    5.58    0.19 
   1   1  -2    5.38    0.25 
   1   1  -2    5.73    0.16 
   1   1  -2    5.47    0.29 
  -1   1   2    5.41    0.19 
  -1   1   2    5.78    0.28 
   1   1  -2    5.52    0.21 
   1   1  -2    5.94    0.19 
   1   1  -2    5.81    0.19 
  -1   1   2    5.28    0.18 
   1   1  -2    5.32    0.26 
  -1   1   2    5.69    0.31 
  -1   1   2    5.78    0.18 
  -1   1   2    5.35    0.23 
  -1   1   2    5.85    0.22 
   1   1  -2    5.68    0.21 
  -1   1   2    5.40    0.19 
   0  -1  -2  362.48   13.56 
   0  -1   2  386.81    8.81 
   0  -1   2  373.70   13.56 
   0  -1   2  371.65   13.22 
   0  -1  -2  385.86    7.47 
   0  -1  -2  361.14   12.06 
   0  -1  -2  371.48   16.88 
   0  -1   2  366.49    9.30 
   0  -1  -2  385.36   13.23 
   0  -1  -2  397.14   12.07 
   0  -1   2  377.22    8.81 
   0  -1   2  379.08   11.73 
   0  -1  -2  366.51   11.72 
   0  -1  -2  377.71    9.68 
   0  -1  -2  386.86    9.69 
   0  -1  -2  387.72    9.30 
   0  -1  -2  386.92    9.31 
   0  -1  -2  378.56   13.56 
   0  -1   2  382.89   12.06 
   0  -1  -2  367.00    8.81 
   0  -1   2  379.45    9.68 
   0  -1  -2  373.43   13.84 
   0  -1   2  360.27   13.84 
   0  -1   2  370.93    9.69 
   0  -1  -2  383.72    8.81 
   0   1  -2  362.04   13.44 
   0   1   2  368.65    9.22 
   0   1  -2  392.01   11.96 
   0   1  -2  378.56   13.72 
   0   1   2  370.46   13.11 
   0   1   2  375.21    8.73 
   0   1   2  375.42   13.72 
   0   1  -2  370.98   16.73 
   0   1   2  357.71    8.73 
   0   1   2  384.50   11.96 
   0   1  -2  377.13    9.22 
   0   1  -2  389.85   13.44 
   0   1   2  372.19   16.74 
   0   1   2  368.28   13.44 
   0   1  -2  361.75   11.95 
   0   1   2  364.73    9.22 
   0   1  -2  380.12    9.22 
   0   1  -2  373.51   11.63 
   0   1   2  363.04   11.62 
   0   1   2  377.91    9.60 
   0   1  -2  371.65    9.60 
   0   1  -2  365.38    7.41 
   0   1  -2  370.96    8.73 
   0   1   2  379.91   13.44 
   0   1   2  382.43    9.60 
   0   1  -2  377.68    9.60 
   1  -1   2   62.45    1.51 
   1  -1   2   63.42    2.06 
  -1  -1  -2   61.94    2.33 
  -1  -1  -2   63.41    1.52 
   1  -1   2   61.24    1.59 
   1  -1   2   63.03    2.01 
  -1  -1  -2   59.48    2.06 
  -1  -1  -2   63.11    1.66 
   1  -1   2   61.34    1.51 
  -1  -1  -2   64.18    1.60 
   1  -1   2   62.68    1.66 
  -1  -1  -2   64.46    1.66 
  -1  -1  -2   61.39    1.51 
  -1  -1  -2   62.60    1.45 
   1  -1   2   64.78    1.66 
  -1  -1  -2   63.99    3.07 
  -1  -1  -2   62.76    1.60 
  -1  -1  -2   65.09    2.06 
  -1  -1  -2   64.84    2.22 
  -1  -1  -2   65.46    2.88 
  -1  -1  -2   64.06    2.02 
   1   1   2   67.42    2.03 
   1   1   2   62.78    1.52 
  -1   1  -2   61.95    2.33 
  -1   1  -2   56.66    2.86 
  -1   1  -2   64.68    1.52 
   1   1   2   64.57    1.53 
  -1   1  -2   64.38    1.66 
   1   1   2   64.11    2.27 
  -1   1  -2   64.81    2.86 
  -1   1  -2   64.21    2.02 
  -1   1  -2   62.33    1.44 
  -1   1  -2   61.69    1.66 
  -1   1  -2   62.68    1.59 
   1   1   2   62.98    1.67 
   1   1   2   64.70    2.38 
   1   1   2   64.30    1.61 
  -1   1  -2   64.04    2.33 
  -1   1  -2   64.45    1.52 
   2  -1   2  109.98    3.01 
   2  -1   2  109.03    3.96 
  -2  -1  -2  101.71    3.89 
  -2  -1  -2  107.28    5.15 
  -2  -1  -2  107.63    3.38 
   2  -1   2  107.60    3.78 
  -2  -1  -2  109.54    4.23 
  -2  -1  -2  102.93    2.67 
   2   1   2  123.73    4.27 
   2   1   2  122.47    3.80 
   2   1   2  122.77    4.47 
   2   1   2  116.60    3.40 
   2   1   2  113.37    3.55 
  -2   1  -2  123.34    4.77 
  -3  -1  -2    3.11    0.19 
  -3  -1  -2    2.94    0.16 
   3  -1   2    3.13    0.12 
  -3  -1  -2    2.64    0.28 
   3  -1   2    3.02    0.17 
   3  -1   2    3.18    0.19 
  -3  -1  -2    2.96    0.16 
  -3   1  -2    3.46    0.15 
   3   1   2    3.44    0.17 
  -3   1  -2    3.48    0.32 
   3   1   2    3.55    0.22 
   3   1   2    3.75    0.24 
   3   1   2    3.39    0.18 
  -4  -1  -2   36.75    1.62 
  -4  -1  -2   36.08    1.11 
   4  -1   2   35.78    1.05 
   4   1   2   34.84    1.04 
  -4   1  -2   34.80    1.05 
  -4   1  -2   33.37    1.54 
   4   1   2   35.59    1.09 
   5  -1   2    3.81    0.19 
  -5  -1  -2    4.11    0.21 
  -5  -1  -2    4.21    0.44 
  -5  -1  -2    3.76    0.46 
  -5   1  -2    4.41    0.18 
  -5   1  -2    3.88    0.52 
  -5   1  -2    3.19    0.43 
   5   1   2    4.76    0.23 
  -6  -1  -2    4.10    0.18 
  -6  -1  -2    4.28    0.41 
  -6  -1  -2    4.74    0.53 
  -6  -1  -2    4.30    0.17 
  -6  -1  -2    4.29    0.13 
  -6  -1  -2    4.31    0.16 
  -6   1  -2    4.23    0.34 
  -6   1  -2    4.30    0.39 
  -7  -1  -2    0.14    0.16 
  -7  -2   2    3.77    0.27 
  -7  -2   2    3.86    0.14 
  -7  -2   2    4.13    0.15 
  -6  -2   2    2.75    0.25 
  -6  -2   2    2.79    0.15 
  -6  -2   2    2.77    0.11 
  -6  -2   2    2.24    0.36 
  -6  -2   2    2.75    0.30 
  -6  -2   2    2.60    0.11 
  -5  -2   2   21.45    0.71 
   5  -2  -2   21.31    0.64 
  -5   2   2   19.70    0.61 
   5   2  -2   21.56    0.69 
   5   2  -2   18.57    0.66 
  -4  -2   2   28.49    0.95 
  -4  -2   2   31.06    1.14 
  -4  -2   2   32.33    1.33 
  -4  -2   2   28.54    1.15 
  -4  -2   2   29.18    1.10 
  -4  -2   2   30.05    0.98 
   4  -2  -2   30.33    0.87 
  -4   2   2   28.26    1.16 
   4   2  -2   29.68    1.07 
  -4   2   2   29.46    0.88 
   4   2  -2   29.45    0.91 
   4   2  -2   29.72    0.93 
  -3  -2   2    4.85    0.37 
   3  -2  -2    4.03    0.22 
   3  -2  -2    3.85    0.17 
   3  -2  -2    3.57    0.15 
  -3  -2   2    3.47    0.22 
  -3  -2   2    3.60    0.19 
   3  -2  -2    4.02    0.21 
  -3  -2   2    3.89    0.32 
   3   2  -2    1.58    0.20 
  -3   2   2    1.82    0.11 
  -3   2   2    1.88    0.12 
   3   2  -2    1.65    0.15 
  -3   2   2    1.70    0.13 
   3   2  -2    1.82    0.15 
   3   2  -2    1.57    0.15 
   3   2  -2    1.77    0.17 
   3   2  -2    1.93    0.19 
  -2  -2   2   30.55    1.37 
   2  -2  -2   29.38    1.06 
   2  -2  -2   28.34    0.94 
   2  -2  -2   28.79    0.84 
   2  -2  -2   26.68    0.87 
   2  -2  -2   29.61    1.12 
  -2  -2   2   28.30    1.14 
  -2  -2   2   27.69    0.96 
   2  -2  -2   27.92    0.95 
  -2  -2   2   29.76    1.49 
   2   2  -2   26.82    1.05 
  -2   2   2   29.02    1.38 
   2   2  -2   26.96    0.86 
   2   2  -2   28.00    1.10 
   2   2  -2   27.03    0.83 
  -2   2   2   27.04    1.37 
   2   2  -2   28.81    0.96 
  -1  -2   2   39.28    1.11 
   1  -2  -2   42.89    0.88 
   1  -2  -2   41.14    1.14 
   1  -2  -2   43.01    1.38 
   1  -2  -2   42.99    1.04 
  -1  -2   2   42.58    1.62 
   1  -2  -2   42.75    1.61 
   1  -2  -2   42.95    1.54 
  -1  -2   2   43.41    1.98 
  -1  -2   2   42.03    1.40 
   1  -2  -2   39.57    1.41 
  -1  -2   2   43.55    1.42 
  -1   2   2   42.29    1.19 
  -1   2   2   43.73    1.09 
   1   2  -2   45.53    1.50 
   1   2  -2   46.22    1.47 
   1   2  -2   44.80    1.70 
  -1   2   2   43.16    1.45 
  -1   2   2   45.07    2.19 
  -1   2   2   43.74    1.46 
  -1   2   2   44.94    1.14 
   1   2  -2   44.67    1.16 
   1   2  -2   45.53    1.63 
  -1   2   2   44.52    2.04 
  -1   2   2   42.23    1.66 
   0  -2   2   49.15    1.81 
   0  -2  -2   46.80    2.32 
   0  -2  -2   52.39    1.91 
   0  -2   2   49.10    1.35 
   0  -2  -2   50.76    1.67 
   0  -2   2   50.96    1.90 
   0  -2  -2   51.09    1.04 
   0  -2   2   49.56    1.30 
   0  -2   2   50.76    1.64 
   0  -2  -2   48.71    1.90 
   0  -2  -2   50.59    1.30 
   0  -2   2   48.51    1.17 
   0  -2  -2   50.62    1.64 
   0  -2   2   51.82    1.67 
   0  -2   2   50.10    1.04 
   0   2   2   47.02    1.82 
   0   2   2   45.52    1.61 
   0   2   2   49.38    1.84 
   0   2  -2   48.28    1.85 
   0   2  -2   44.98    1.61 
   0   2  -2   48.54    1.25 
   0   2   2   50.11    1.58 
   0   2   2   47.17    2.24 
   0   2  -2   49.08    1.82 
   0   2  -2   50.28    2.24 
   0   2  -2   50.39    1.58 
   0   2   2   49.11    1.25 
  -1  -2  -2  276.95    8.66 
   1  -2   2  278.86   10.19 
   1  -2   2  279.81    7.76 
   1  -2   2  275.73    8.65 
   1  -2   2  277.19    9.73 
  -1  -2  -2  279.47    6.24 
  -1  -2  -2  270.27   10.01 
   1  -2   2  273.89    6.23 
   1   2   2  271.40   10.07 
   1   2   2  299.13    8.94 
   1   2   2  293.31    7.10 
  -1   2  -2  293.73   11.14 
  -1   2  -2  282.31    7.36 
  -1   2  -2  280.47   10.31 
  -1   2  -2  290.71   12.81 
   1   2   2  285.35   10.54 
  -1   2  -2  267.96    7.07 
   1   2   2  292.39    9.20 
  -2  -2  -2   53.74    1.71 
   2  -2   2   52.29    1.52 
  -2  -2  -2   52.40    1.43 
   2  -2   2   53.20    1.90 
   2  -2   2   53.07    1.99 
  -2  -2  -2   52.32    2.42 
  -2  -2  -2   52.00    2.61 
   2  -2   2   51.82    1.69 
   2   2   2   54.50    1.53 
  -2   2  -2   55.04    2.52 
   2   2   2   49.65    1.80 
   2   2   2   52.08    1.92 
   2   2   2   53.09    2.01 
  -2   2  -2   46.65    2.52 
  -2   2  -2   56.72    2.15 
   2   2   2   51.90    1.72 
   2   2   2   49.72    1.58 
  -2   2  -2   53.44    1.55 
  -3  -2  -2    9.72    0.38 
   3  -2   2    9.93    0.44 
  -3  -2  -2    9.96    0.59 
   3  -2   2    9.69    0.33 
  -3  -2  -2    9.75    0.57 
   3   2   2    8.76    0.42 
   3   2   2    8.52    0.43 
   3   2   2    8.26    0.32 
  -3   2  -2    8.20    0.29 
  -3   2  -2    8.09    0.32 
  -3   2  -2    7.34    0.51 
   3   2   2    8.18    0.32 
  -3   2  -2    8.54    0.50 
   3   2   2    7.95    0.33 
   3   2   2    7.77    0.36 
  -3   2  -2    7.88    0.32 
  -4  -2  -2    0.41    0.13 
   4  -2   2    0.30    0.08 
  -4  -2  -2    0.53    0.11 
  -4  -2  -2    0.46    0.26 
  -4  -2  -2    0.18    0.14 
  -4  -2  -2    0.32    0.11 
   4   2   2    0.30    0.15 
   4   2   2    0.23    0.10 
  -4   2  -2    0.25    0.06 
  -5  -2  -2   44.41    1.85 
  -5  -2  -2   41.94    1.35 
  -5  -2  -2   44.29    1.96 
  -5   2  -2   35.74    1.13 
  -5   2  -2   38.50    1.11 
  -6  -2  -2    1.36    0.32 
  -6  -2  -2    1.14    0.11 
  -6  -2  -2    1.31    0.09 
  -6  -2  -2    1.02    0.12 
  -6  -2  -2    1.16    0.08 
  -7  -2  -2    8.27    0.27 
  -7  -3   2    1.86    0.21 
  -7  -3   2    2.03    0.10 
  -7  -3   2    2.05    0.09 
  -6  -3   2    7.35    0.38 
  -6  -3   2    6.85    0.45 
  -6  -3   2    7.56    0.22 
  -6  -3   2    7.44    0.22 
  -6  -3   2    7.20    0.26 
  -6   3   2    7.88    0.48 
   5  -3  -2    8.05    0.32 
  -5  -3   2    8.16    0.37 
  -5  -3   2    7.98    0.41 
   5   3  -2    7.88    0.36 
  -5   3   2    8.42    0.30 
  -5   3   2    8.72    0.40 
   5   3  -2    8.37    0.42 
  -5   3   2    7.85    0.38 
  -4  -3   2   19.78    0.83 
   4  -3  -2   20.00    0.63 
  -4  -3   2   20.04    0.72 
   4  -3  -2   20.32    0.69 
  -4  -3   2   20.54    0.79 
  -4  -3   2   18.89    0.98 
   4   3  -2   20.64    0.71 
   4   3  -2   21.53    0.82 
   4   3  -2   20.94    0.71 
  -4   3   2   21.20    0.67 
  -4   3   2   20.02    0.87 
  -3  -3   2    3.76    0.29 
   3  -3  -2    3.91    0.19 
  -3  -3   2    3.90    0.27 
  -3  -3   2    3.49    0.38 
   3  -3  -2    3.94    0.19 
   3  -3  -2    4.09    0.20 
  -3   3   2    3.72    0.18 
  -3   3   2    3.62    0.20 
   3   3  -2    3.66    0.26 
   3   3  -2    3.87    0.24 
   3   3  -2    3.12    0.22 
  -3   3   2    3.37    0.25 
   2  -3  -2   34.79    1.11 
  -2  -3   2   34.05    1.13 
   2  -3  -2   34.40    1.03 
   2  -3  -2   31.25    1.26 
   2  -3  -2   31.73    1.00 
  -2  -3   2   33.05    1.14 
  -2  -3   2   33.67    1.63 
   2  -3  -2   33.95    1.32 
  -2  -3   2   33.64    0.95 
  -2  -3   2   33.60    1.10 
   2   3  -2   27.58    0.87 
  -2   3   2   26.29    0.84 
   2   3  -2   26.35    0.86 
   2   3  -2   26.83    1.12 
   2   3  -2   26.89    0.99 
  -2   3   2   29.30    1.40 
  -1  -3   2   30.27    0.87 
   1  -3  -2   29.44    0.93 
   1  -3  -2   30.58    1.04 
   1  -3  -2   29.12    1.14 
   1  -3  -2   31.35    1.19 
   1  -3  -2   28.93    0.99 
  -1  -3   2   28.89    1.06 
  -1  -3   2   30.06    1.48 
   1   3  -2   27.27    1.01 
  -1   3   2   27.10    1.48 
   1   3  -2   28.57    1.16 
  -1   3   2   30.15    1.36 
  -1   3   2   28.62    0.80 
   1   3  -2   28.94    0.90 
   0  -3   2   22.05    0.85 
   0  -3  -2   19.30    0.75 
   0  -3   2   19.70    0.76 
   0  -3  -2   20.29    0.66 
   0  -3  -2   20.51    0.85 
   0   3   2   23.16    0.84 
   0   3   2   23.37    1.15 
   0   3  -2   21.52    0.68 
   0   3  -2   24.26    0.97 
   0   3  -2   23.65    1.14 
   0   3  -2   22.37    0.84 
  -1  -3  -2    0.83    0.17 
   1  -3   2    0.62    0.14 
  -1  -3  -2    0.67    0.24 
  -1  -3  -2    0.66    0.18 
   1  -3   2    0.31    0.11 
   1  -3   2    0.49    0.14 
  -1   3  -2    0.73    0.13 
   1   3   2    0.53    0.15 
  -1   3  -2    0.87    0.15 
  -1   3  -2    0.51    0.21 
   1   3   2    0.49    0.16 
   1   3   2    0.61    0.20 
  -2  -3  -2   86.00    4.03 
  -2  -3  -2   88.71    2.75 
   2  -3   2   89.63    2.52 
  -2  -3  -2   88.32    2.37 
  -2  -3  -2   91.22    3.61 
   2  -3   2   86.12    3.31 
  -2  -3  -2   88.48    2.83 
  -2  -3  -2   86.85    2.84 
   2  -3   2   87.62    2.60 
   2  -3   2   87.99    3.17 
  -2  -3  -2   85.14    2.54 
  -2   3  -2   89.74    4.36 
   2   3   2   91.24    2.67 
   2   3   2   92.79    3.09 
   2   3   2   87.41    3.43 
   2   3   2   89.55    2.71 
  -3  -3  -2    4.22    0.29 
  -3  -3  -2    4.77    0.27 
  -3  -3  -2    4.66    0.44 
   3  -3   2    4.37    0.21 
  -3  -3  -2    4.56    0.33 
  -3  -3  -2    4.40    0.26 
  -3  -3  -2    4.67    0.38 
  -3   3  -2    4.42    0.22 
  -3   3  -2    4.00    0.22 
  -3   3  -2    4.14    0.20 
   3   3   2    4.71    0.29 
   3   3   2    4.29    0.26 
   3   3   2    4.22    0.27 
  -3   3  -2    4.32    0.23 
  -4  -3  -2   40.51    1.48 
  -4  -3  -2   37.63    1.32 
  -4  -3  -2   41.81    1.56 
   4  -3   2   39.74    1.20 
  -4  -3  -2   41.11    1.83 
   4   3   2   36.13    1.31 
  -4   3  -2   34.72    1.10 
   4   3   2   36.28    1.15 
  -5  -3  -2    2.10    0.18 
  -5  -3  -2    2.05    0.34 
  -5  -3  -2    2.09    0.15 
  -5  -3  -2    2.12    0.15 
  -5  -3  -2    2.06    0.46 
  -5   3  -2    1.24    0.09 
  -5   3  -2    1.44    0.09 
  -5   3  -2    1.08    0.27 
  -5   3  -2    1.28    0.34 
  -6  -3  -2    8.85    0.30 
  -6  -3  -2    9.16    0.26 
  -6  -3  -2    9.13    0.25 
  -6  -3  -2    9.08    0.51 
  -6   3  -2    8.63    0.28 
  -6  -4   2    0.46    0.22 
  -6  -4   2    0.25    0.07 
  -6  -4   2    0.29    0.06 
  -6  -4   2    0.43    0.16 
  -6  -4   2    0.29    0.06 
  -6   4   2    0.30    0.06 
  -6   4   2    0.13    0.19 
  -5  -4   2   17.75    0.57 
  -5  -4   2   17.20    0.49 
  -5  -4   2   18.59    0.69 
  -5  -4   2   17.61    0.47 
  -5  -4   2   17.56    0.68 
  -5  -4   2   17.76    0.82 
  -5  -4   2   17.61    0.75 
  -5  -4   2   17.15    0.68 
   5   4  -2   15.41    0.60 
  -5   4   2   16.51    0.41 
  -5   4   2   16.69    0.77 
  -5   4   2   17.44    0.68 
  -5   4   2   16.85    0.71 
  -5   4   2   16.21    0.53 
  -5   4   2   16.47    0.53 
  -5   4   2   16.36    0.43 
  -4  -4   2    4.41    0.30 
  -4  -4   2    4.53    0.32 
   4  -4  -2    4.18    0.25 
   4  -4  -2    4.53    0.24 
  -4  -4   2    4.08    0.36 
  -4   4   2    4.20    0.23 
   4   4  -2    4.25    0.28 
   4   4  -2    4.00    0.32 
   4   4  -2    4.34    0.30 
  -3  -4   2   25.29    1.22 
   3  -4  -2   25.73    0.82 
   3  -4  -2   26.31    0.84 
   3  -4  -2   25.50    0.89 
  -3  -4   2   25.56    0.94 
  -3  -4   2   26.27    1.06 
  -3  -4   2   24.27    0.75 
   3   4  -2   26.38    0.88 
   3   4  -2   26.11    1.00 
   3   4  -2   26.94    0.88 
  -3   4   2   26.41    1.01 
  -3   4   2   25.12    1.03 
  -2  -4   2    4.70    0.30 
   2  -4  -2    4.84    0.26 
  -2  -4   2    4.61    0.26 
  -2  -4   2    4.18    0.40 
   2  -4  -2    4.88    0.26 
  -2  -4   2    4.72    0.35 
  -2  -4   2    4.75    0.30 
   2  -4  -2    4.68    0.24 
   2   4  -2    4.48    0.28 
  -2   4   2    4.56    0.31 
   2   4  -2    4.38    0.30 
   2   4  -2    4.45    0.27 
  -2   4   2    5.23    0.38 
   2   4  -2    4.57    0.28 
   1  -4  -2    8.06    0.34 
   1  -4  -2    8.14    0.44 
  -1  -4   2    7.66    0.39 
   1  -4  -2    7.66    0.33 
  -1  -4   2    7.87    0.36 
  -1  -4   2    7.72    0.34 
  -1   4   2    5.12    0.25 
   1   4  -2    5.41    0.29 
   1   4  -2    4.91    0.28 
  -1   4   2    5.20    0.36 
  -1   4   2    4.83    0.26 
  -1   4   2    4.84    0.23 
   1   4  -2    4.81    0.26 
   0  -4   2    3.16    0.25 
   0  -4  -2    2.79    0.25 
   0  -4  -2    2.90    0.23 
   0  -4   2    2.53    0.23 
   0   4  -2    2.74    0.23 
   0   4   2    3.55    0.32 
   0   4  -2    3.00    0.20 
   0   4  -2    3.38    0.23 
   0   4   2    3.05    0.23 
   0   4   2    2.95    0.21 
   0   4  -2    2.90    0.29 
  -1  -4  -2   16.63    0.57 
  -1  -4  -2   16.14    0.62 
  -1  -4  -2   16.10    0.92 
  -1  -4  -2   16.71    0.54 
   1  -4   2   16.65    0.74 
   1  -4   2   15.88    0.58 
  -1   4  -2   17.93    1.07 
  -1   4  -2   18.85    0.63 
  -1   4  -2   18.16    0.93 
   1   4   2   18.54    0.59 
   1   4   2   18.94    0.68 
  -1   4  -2   18.84    0.79 
   1   4   2   19.08    0.65 
  -1   4  -2   18.66    0.56 
   1   4   2   19.34    0.74 
  -2  -4  -2   36.88    1.22 
  -2  -4  -2   34.82    1.19 
  -2  -4  -2   33.35    1.41 
  -2  -4  -2   37.37    1.62 
  -2  -4  -2   35.89    1.12 
   2  -4   2   36.08    1.13 
  -2  -4  -2   36.17    1.03 
  -2   4  -2   35.54    1.72 
   2   4   2   33.43    1.08 
  -2   4  -2   32.66    1.30 
   2   4   2   34.50    1.10 
   2   4   2   33.03    1.25 
  -3  -4  -2   45.32    1.52 
  -3  -4  -2   45.21    1.99 
  -3  -4  -2   43.41    1.74 
   3  -4   2   44.03    1.35 
  -3  -4  -2   44.91    1.38 
   3   4   2   41.90    1.55 
  -3   4  -2   41.47    1.60 
   3   4   2   41.38    1.36 
  -3   4  -2   43.60    1.58 
   3   4   2   43.00    1.35 
  -3   4  -2   43.82    1.54 
  -4  -4  -2   14.55    0.60 
  -4  -4  -2   16.01    0.59 
  -4  -4  -2   16.49    0.73 
  -4  -4  -2   15.29    0.53 
  -4  -4  -2   14.84    0.47 
  -4  -4  -2   15.32    0.60 
  -4  -4  -2   15.20    0.63 
  -4  -4  -2   15.32    0.90 
  -4  -4  -2   16.14    0.68 
  -4   4  -2   14.15    0.38 
  -4   4  -2   15.84    0.75 
   4   4   2   14.84    0.64 
  -4   4  -2   14.33    0.37 
  -4   4  -2   12.73    0.60 
  -4   4  -2   14.15    0.45 
  -4   4  -2   13.99    0.50 
  -5  -4  -2   14.14    0.56 
  -5  -4  -2   14.42    0.41 
  -5  -4  -2   14.22    0.39 
  -5  -4  -2   13.95    0.47 
  -5   4  -2   12.63    0.55 
  -5   4  -2   12.17    0.40 
  -5   4  -2   12.47    0.52 
  -5   4  -2   12.22    0.40 
  -5   4  -2   11.72    0.31 
  -5   4  -2   13.01    0.64 
  -5   4  -2   12.28    0.51 
  -6  -4  -2    1.83    0.09 
  -6  -4  -2    1.56    0.09 
  -6  -4  -2    1.44    0.12 
  -6   4  -2    1.49    0.08 
  -6  -5   2    1.56    0.24 
  -6  -5   2    1.54    0.18 
  -6  -5   2    1.41    0.09 
  -6  -5   2    1.41    0.09 
  -6  -5   2    1.29    0.11 
  -6   5   2    1.91    0.09 
  -6   5   2    1.78    0.19 
  -5  -5   2    3.56    0.20 
  -5  -5   2    3.66    0.27 
  -5  -5   2    3.33    0.31 
  -5  -5   2    3.62    0.22 
  -5  -5   2    3.61    0.23 
  -5   5   2    3.72    0.27 
  -5   5   2    3.32    0.11 
  -5   5   2    3.14    0.14 
  -5   5   2    3.51    0.12 
  -5   5   2    3.36    0.25 
  -5   5   2    3.39    0.15 
  -5   5   2    3.74    0.34 
   5   5  -2    3.45    0.19 
  -4  -5   2   14.61    0.60 
  -4  -5   2   12.91    0.64 
  -4  -5   2   13.91    0.51 
  -4  -5   2   14.25    0.58 
  -4  -5   2   15.49    0.69 
  -4  -5   2   14.40    0.41 
  -4  -5   2   14.33    0.49 
  -4  -5   2   14.32    0.45 
  -4   5   2   12.82    0.42 
  -4   5   2   12.80    0.36 
   4   5  -2   12.67    0.43 
   4   5  -2   12.35    0.53 
  -4   5   2   12.23    0.65 
  -4   5   2   13.22    0.56 
  -4   5   2   13.01    0.34 
  -3  -5   2    2.32    0.33 
  -3  -5   2    2.26    0.49 
  -3  -5   2    2.54    0.23 
  -3  -5   2    1.83    0.28 
   3  -5  -2    2.58    0.26 
   3  -5  -2    2.58    0.38 
   3   5  -2    2.12    0.27 
  -3   5   2    2.45    0.31 
   3   5  -2    1.73    0.25 
   3   5  -2    2.16    0.27 
  -2  -5   2   24.39    0.88 
  -2  -5   2   22.98    0.89 
  -2  -5   2   25.13    0.78 
   2  -5  -2   24.17    0.82 
   2  -5  -2   24.80    0.98 
   2  -5  -2   24.57    0.83 
   2   5  -2   22.20    0.82 
  -2   5   2   22.23    0.93 
   2   5  -2   21.63    0.77 
   1  -5  -2    7.50    0.36 
  -1  -5   2    7.12    0.36 
   1  -5  -2    6.42    0.47 
  -1  -5   2    7.53    0.41 
   1  -5  -2    7.27    0.34 
  -1   5   2    7.23    0.30 
   1   5  -2    7.22    0.38 
   1   5  -2    7.37    0.33 
  -1   5   2    7.74    0.42 
  -1   5   2    6.49    0.29 
   0  -5   2   14.83    0.62 
   0  -5   2   15.23    0.58 
   0  -5  -2   14.89    0.67 
   0  -5  -2   15.17    0.61 
   0  -5  -2   14.82    0.57 
   0   5   2   11.24    0.49 
   0   5   2   11.89    0.43 
   0   5  -2   11.44    0.42 
   0   5  -2   11.79    0.48 
   0   5  -2   11.82    0.48 
   0   5   2   11.26    0.49 
   1  -5   2    0.06    0.15 
  -1  -5  -2   -0.10    0.12 
  -1  -5  -2    0.05    0.18 
  -1  -5  -2   -0.18    0.14 
   1   5   2    0.16    0.15 
  -1   5  -2    0.14    0.18 
  -1   5  -2    0.09    0.09 
   1   5   2   -0.01    0.12 
  -2  -5  -2   38.87    1.34 
  -2  -5  -2   41.34    1.27 
   2  -5   2   40.50    1.29 
  -2  -5  -2   40.56    1.36 
  -2  -5  -2   38.21    1.81 
  -2  -5  -2   40.17    1.17 
   2   5   2   41.48    1.52 
   2   5   2   41.03    1.40 
  -2   5  -2   41.26    1.60 
  -3  -5  -2    4.83    0.35 
  -3  -5  -2    4.46    0.33 
  -3  -5  -2    4.93    0.58 
  -3  -5  -2    4.19    0.19 
  -3  -5  -2    3.93    0.30 
  -3  -5  -2    4.50    0.33 
  -3  -5  -2    4.32    0.16 
  -3  -5  -2    4.52    0.21 
  -3  -5  -2    4.14    0.24 
  -3  -5  -2    5.19    0.42 
   3   5   2    4.18    0.22 
   3   5   2    4.40    0.34 
   3   5   2    4.23    0.35 
  -3   5  -2    4.50    0.18 
  -3   5  -2    3.99    0.26 
  -3   5  -2    3.67    0.22 
  -3   5  -2    4.11    0.17 
  -3   5  -2    4.67    0.27 
  -3   5  -2    4.43    0.27 
  -3   5  -2    4.40    0.20 
  -3   5  -2    4.48    0.31 
  -3   5  -2    4.22    0.41 
  -3   5  -2    4.15    0.31 
  -4  -5  -2    7.30    0.30 
  -4  -5  -2    6.98    0.45 
  -4  -5  -2    5.76    0.58 
  -4  -5  -2    7.61    0.24 
  -4  -5  -2    7.84    0.30 
  -4  -5  -2    7.23    0.37 
  -4  -5  -2    7.55    0.37 
  -4  -5  -2    5.85    0.40 
  -4   5  -2    6.71    0.21 
   4   5   2    6.92    0.28 
  -4   5  -2    6.50    0.37 
  -4   5  -2    6.77    0.21 
  -4   5  -2    7.10    0.49 
  -4   5  -2    7.00    0.25 
  -5  -5  -2    0.75    0.14 
  -5  -5  -2    0.89    0.12 
  -5  -5  -2    0.74    0.13 
  -5  -5  -2    0.88    0.11 
  -5   5  -2    1.18    0.28 
  -5   5  -2    0.91    0.08 
   5   5   2    0.83    0.13 
  -5   5  -2    0.91    0.06 
  -5   5  -2    0.96    0.07 
  -5   5  -2    0.80    0.22 
  -5  -6   2    2.35    0.23 
  -5  -6   2    2.65    0.14 
  -5  -6   2    2.63    0.16 
  -5  -6   2    2.92    0.21 
  -5   6   2    2.57    0.11 
  -5   6   2    2.08    0.21 
  -5   6   2    2.34    0.09 
  -5   6   2    2.50    0.11 
   5   6  -2    2.76    0.14 
  -4  -6   2    1.21    0.25 
  -4  -6   2    1.62    0.08 
  -4  -6   2    1.62    0.19 
  -4  -6   2    1.59    0.31 
  -4  -6   2    1.50    0.24 
  -4  -6   2    1.50    0.13 
  -4  -6   2    1.45    0.11 
  -4   6   2    1.70    0.11 
   4   6  -2    1.60    0.16 
  -4   6   2    1.63    0.22 
  -4   6   2    1.48    0.11 
  -4   6   2    1.52    0.13 
   3  -6  -2   13.94    0.67 
  -3  -6   2   13.74    0.38 
  -3  -6   2   13.96    0.49 
  -3  -6   2   13.98    0.42 
  -3  -6   2   10.45    0.80 
  -3  -6   2   14.53    0.55 
  -3  -6   2   13.99    0.59 
  -3  -6   2   13.47    0.45 
  -3  -6   2   14.48    0.51 
  -3  -6   2   13.64    0.68 
  -3   6   2   13.15    0.62 
  -3   6   2   13.46    0.58 
   3   6  -2   13.70    0.45 
  -3   6   2   12.81    0.54 
  -3   6   2   13.18    0.37 
  -3   6   2   13.64    0.45 
   2  -6  -2    5.02    0.35 
  -2  -6   2    5.35    0.35 
  -2  -6   2    5.23    0.25 
  -2  -6   2    5.28    0.17 
  -2  -6   2    5.44    0.23 
  -2  -6   2    4.85    0.35 
   2  -6  -2    5.39    0.24 
   2  -6  -2    5.73    0.47 
  -2  -6   2    6.05    0.34 
  -2  -6   2    5.00    0.27 
  -2   6   2    5.80    0.28 
   2   6  -2    5.28    0.26 
  -2   6   2    5.39    0.33 
  -2   6   2    5.15    0.18 
   2   6  -2    5.38    0.36 
  -2   6   2    5.01    0.25 
   2   6  -2    4.80    0.24 
  -2   6   2    5.36    0.31 
   2   6  -2    5.11    0.32 
  -2   6   2    5.58    0.45 
  -2   6   2    5.31    0.21 
  -2   6   2    5.17    0.25 
  -1  -6   2    5.36    0.35 
  -1  -6   2    6.02    0.39 
   1  -6  -2    5.98    0.44 
   1  -6  -2    5.84    0.35 
   1   6  -2    3.80    0.32 
   1   6  -2    3.93    0.30 
   1   6  -2    4.14    0.29 
  -1   6   2    3.51    0.43 
   0  -6  -2    7.60    0.47 
   0  -6  -2    6.74    0.39 
   0  -6   2    7.33    0.43 
   0  -6   2    6.59    0.39 
   0  -6  -2    7.17    0.42 
   0   6  -2    6.75    0.37 
   0   6   2    7.21    0.34 
   0   6  -2    7.38    0.33 
   0   6  -2    7.42    0.32 
   0   6   2    6.81    0.39 
   0   6   2    7.34    0.36 
   1  -6   2   35.92    1.17 
  -1  -6  -2   33.70    1.08 
  -1  -6  -2   36.07    1.08 
  -1  -6  -2   36.78    1.24 
   1  -6   2   35.09    1.05 
  -1   6  -2   31.04    1.09 
   1   6   2   32.39    1.00 
   1   6   2   34.03    1.15 
  -1   6  -2   34.85    1.34 
  -1   6  -2   32.45    1.02 
  -1   6  -2   33.04    0.91 
  -1   6  -2   31.83    1.04 
  -1   6  -2   32.97    1.11 
   1   6   2   33.85    0.99 
  -1   6  -2   30.38    1.12 
  -1   6  -2   34.18    1.23 
  -1   6  -2   31.66    0.85 
   2  -6   2    6.45    0.37 
   2  -6   2    6.92    0.27 
  -2  -6  -2    6.67    0.27 
  -2  -6  -2    6.26    0.61 
  -2  -6  -2    6.76    0.31 
  -2  -6  -2    5.99    0.30 
  -2  -6  -2    5.58    0.37 
  -2  -6  -2    6.89    0.18 
  -2   6  -2    5.75    0.26 
  -2   6  -2    5.79    0.41 
  -2   6  -2    6.06    0.25 
  -2   6  -2    5.73    0.38 
   2   6   2    6.67    0.40 
   2   6   2    6.40    0.29 
  -2   6  -2    6.18    0.46 
  -2   6  -2    6.32    0.29 
  -2   6  -2    6.54    0.22 
  -2   6  -2    6.09    0.31 
   2   6   2    6.36    0.26 
  -2   6  -2    5.77    0.32 
  -3  -6  -2   16.15    0.65 
  -3  -6  -2   15.75    0.54 
  -3  -6  -2   14.38    0.61 
  -3  -6  -2   14.99    0.75 
  -3  -6  -2   16.08    0.47 
  -3  -6  -2   16.30    0.42 
  -3  -6  -2   16.68    0.57 
  -3   6  -2   16.86    0.43 
  -3   6  -2   16.17    0.56 
  -3   6  -2   16.46    0.58 
  -3   6  -2   15.66    0.63 
  -3   6  -2   16.33    0.69 
   3   6   2   16.47    0.53 
  -3   6  -2   16.85    0.53 
  -3   6  -2   17.06    0.45 
  -3   6  -2   16.32    0.66 
  -3   6  -2   17.45    0.79 
  -4  -6  -2    0.63    0.23 
  -4  -6  -2    0.91    0.18 
  -4  -6  -2    0.85    0.12 
  -4  -6  -2    0.92    0.16 
  -4  -6  -2    0.81    0.21 
  -4   6  -2    0.76    0.08 
  -4   6  -2    0.73    0.22 
  -4   6  -2    0.89    0.20 
  -4   6  -2    0.81    0.10 
   4   6   2    0.53    0.13 
  -4   6  -2    0.72    0.08 
  -4  -7   2    2.97    0.23 
  -4  -7   2    3.06    0.14 
  -4  -7   2    3.18    0.18 
  -4   7   2    3.09    0.11 
  -4   7   2    2.99    0.13 
  -4   7   2    3.25    0.20 
  -4   7   2    3.28    0.11 
   4   7  -2    3.00    0.14 
  -3  -7   2    0.50    0.10 
  -3  -7   2    0.50    0.16 
  -3  -7   2    0.35    0.06 
   3  -7  -2    0.45    0.08 
  -3  -7   2    0.30    0.14 
  -3  -7   2    0.38    0.08 
   3   7  -2    0.66    0.12 
  -3   7   2    0.45    0.11 
  -3   7   2    0.56    0.10 
  -3   7   2    0.42    0.09 
  -3   7   2    0.41    0.09 
   3   7  -2    0.21    0.08 
  -3   7   2    0.39    0.15 
  -2  -7   2    7.25    0.30 
  -2  -7   2    6.67    0.26 
   2  -7  -2    7.40    0.27 
   2  -7  -2    6.80    0.45 
   2   7  -2    6.54    0.20 
  -2   7   2    6.64    0.27 
   2   7  -2    6.33    0.30 
  -2   7   2    6.58    0.34 
  -2   7   2    6.74    0.28 
  -2   7   2    6.94    0.33 
  -2   7   2    6.47    0.21 
  -2   7   2    6.68    0.30 
   2   7  -2    6.73    0.27 
  -1  -7   2    1.90    0.12 
   1  -7  -2    2.16    0.16 
  -1  -7   2    2.03    0.20 
  -1  -7   2    2.12    0.16 
   1  -7  -2    1.82    0.34 
  -1   7   2    2.28    0.09 
  -1   7   2    2.37    0.14 
  -1   7   2    2.22    0.16 
   1   7  -2    1.96    0.18 
  -1   7   2    2.43    0.18 
   1   7  -2    2.16    0.18 
  -1   7   2    2.34    0.24 
   1   7  -2    2.05    0.09 
  -1   7   2    1.89    0.18 
  -1   7   2    1.48    0.37 
   0  -7   2    4.77    0.20 
   0  -7  -2    4.45    0.24 
   0  -7  -2    4.80    0.21 
   0   7  -2    5.87    0.24 
   0   7   2    5.57    0.27 
   0   7  -2    5.90    0.20 
   0   7   2    5.50    0.25 
   0   7  -2    5.74    0.28 
   0   7   2    5.55    0.22 
   0   7  -2    5.82    0.22 
   0   7  -2    5.48    0.24 
   0   7   2    5.74    0.25 
   0   7  -2    5.82    0.25 
   0   7  -2    5.90    0.26 
   0   7   2    5.87    0.26 
  -1  -7  -2    3.13    0.14 
  -1  -7  -2    3.17    0.20 
   1  -7   2    3.25    0.18 
  -1  -7  -2    3.28    0.20 
   1  -7   2    2.49    0.37 
  -1   7  -2    3.26    0.22 
  -1   7  -2    3.09    0.13 
  -1   7  -2    2.70    0.21 
   1   7   2    2.92    0.21 
  -1   7  -2    2.87    0.37 
  -1   7  -2    3.11    0.18 
  -1   7  -2    3.16    0.16 
  -1   7  -2    3.21    0.25 
  -1   7  -2    3.15    0.18 
   1   7   2    2.95    0.17 
   1   7   2    2.99    0.12 
  -2  -7  -2   13.77    0.51 
  -2  -7  -2   13.64    0.45 
  -2  -7  -2   14.18    0.51 
   2  -7   2   14.33    0.45 
  -2  -7  -2   15.32    0.44 
  -2   7  -2   13.21    0.45 
  -2   7  -2   13.51    0.49 
  -2   7  -2   13.49    0.44 
  -2   7  -2   13.32    0.47 
  -2   7  -2   12.94    0.46 
   2   7   2   13.85    0.45 
   2   7   2   13.64    0.36 
  -2   7  -2   13.05    0.64 
  -2   7  -2   13.82    0.54 
  -3  -7  -2    0.57    0.11 
  -3  -7  -2    0.66    0.17 
  -3  -7  -2    0.49    0.11 
   3  -7   2    0.42    0.09 
  -3  -7  -2    0.48    0.09 
  -3  -7  -2    0.67    0.10 
  -3   7  -2    0.35    0.08 
  -3   7  -2    0.55    0.12 
   3   7   2    0.33    0.09 
  -3   7  -2    0.33    0.06 
  -3   7  -2    0.40    0.19 
  -3   7  -2    0.38    0.08 
   3   7   2    0.24    0.08 
  -3   7  -2    0.51    0.10 
   2  -8  -2    2.27    0.12 
  -2  -8   2    2.22    0.08 
  -2   8   2    2.20    0.13 
   2   8  -2    2.06    0.12 
  -2   8   2    2.00    0.14 
  -2   8   2    2.04    0.11 
   1  -8  -2    7.29    0.24 
   1  -8  -2    6.39    0.42 
  -1  -8   2    7.63    0.24 
   1   8  -2    8.39    0.29 
  -1   8   2    8.75    0.26 
  -1   8   2    8.66    0.29 
   1   8  -2    8.61    0.26 
   1   8  -2    8.80    0.43 
  -1   8   2    7.87    0.37 
  -1   8   2    8.58    0.32 
   1   8  -2    8.97    0.32 
  -1   8   2    9.18    0.32 
   1   8  -2    9.02    0.24 
  -1   8   2    8.78    0.33 
   0  -8  -2    1.45    0.08 
   0  -8  -2    1.53    0.12 
   0  -8   2    1.63    0.13 
   0  -8   2    1.85    0.12 
   0  -8   2    1.52    0.08 
   0   8   2    1.79    0.12 
   0   8  -2    1.75    0.12 
   0   8  -2    1.47    0.16 
   0   8  -2    1.76    0.10 
   0   8   2    1.24    0.09 
   0   8   2    1.60    0.09 
   0   8  -2    1.72    0.23 
   0   8  -2    1.53    0.13 
   0   8  -2    1.40    0.08 
   1  -8   2   11.12    0.33 
   1  -8   2    9.82    0.60 
  -1  -8  -2   11.03    0.34 
   1   8   2   12.84    0.42 
   1   8   2   11.75    0.32 
   1   8   2   12.00    0.35 
  -1   8  -2   12.14    0.47 
  -1   8  -2   11.80    0.38 
  -1   8  -2   12.45    0.40 
   1   8   2   11.78    0.42 
   1   8   2   12.13    0.38 
  -1   8  -2   12.00    0.55 
  -1   8  -2   12.21    0.43 
  -1   8  -2   11.78    0.41 
  -6   0   3   21.06    0.62 
  -6   0   3   19.50    0.72 
  -6   0   3   19.60    0.62 
  -6   0   3   20.61    0.77 
  -6   0   3   18.86    0.92 
  -6   0   3   20.09    0.62 
  -6   0   3   20.49    0.63 
  -6   0   3   20.59    0.62 
  -5   0   3    8.34    0.41 
   5   0  -3    8.12    0.30 
  -5   0   3    8.86    0.31 
   4   0  -3    8.26    0.27 
  -4   0   3    7.46    0.55 
  -4   0   3    7.93    0.28 
   3   0  -3   25.35    0.97 
   3   0  -3   24.99    0.72 
   3   0  -3   24.27    0.76 
  -3   0   3   25.07    0.75 
  -3   0   3   22.72    1.34 
   3   0  -3   25.33    0.92 
  -3   0   3   24.46    0.92 
  -3   0   3   25.32    0.80 
  -3   0   3   23.62    1.05 
  -2   0   3    1.67    0.15 
   2   0  -3    1.65    0.14 
  -2   0   3    1.76    0.19 
  -2   0   3    1.43    0.24 
   2   0  -3    1.49    0.14 
   2   0  -3    1.73    0.15 
   2   0  -3    1.75    0.11 
  -2   0   3    1.70    0.28 
  -2   0   3    1.75    0.10 
   2   0  -3    1.63    0.10 
   1   0  -3  180.13    4.70 
   1   0  -3  180.98    4.51 
  -1   0   3  182.35    5.84 
   1   0  -3  180.52    5.69 
  -1   0   3  187.41    8.17 
  -1   0   3  186.57    4.69 
  -1   0   3  183.69    4.51 
   1   0  -3  178.84    5.85 
  -1   0   3  190.12    6.21 
  -1   0   3  189.88    6.58 
  -1   0   3  169.07    6.69 
  -1   0   3  185.86    5.84 
  -1   0   3  171.93    5.69 
  -1   0   3  187.83    4.51 
  -1   0   3  181.37    4.70 
   1   0  -3  181.18    4.27 
  -1   0   3  180.39    4.28 
   1   0  -3  179.99    6.70 
  -1   0   3  177.70    4.27 
   1   0  -3  178.55    6.58 
   1   0  -3  179.53    6.40 
  -1   0   3  183.67    8.70 
   1   0  -3  178.97    4.27 
   0   0   3  117.27    2.66 
   0   0   3  108.82    4.16 
   0   0   3  116.44    2.92 
   0   0  -3  111.58    3.63 
   0   0  -3  113.48    2.66 
   0   0  -3  111.54    5.07 
   0   0   3  109.05    2.81 
   0   0   3  113.29    4.09 
   0   0  -3  112.82    3.54 
   0   0  -3  111.29    4.09 
   0   0  -3  114.15    2.66 
   0   0  -3  114.83    2.81 
   0   0   3  109.25    2.66 
   0   0   3  108.47    3.63 
   0   0   3  110.72    3.97 
   0   0  -3  111.74    4.16 
   0   0   3  109.95    3.87 
   0   0   3  103.63    5.07 
   0   0  -3  111.54    2.81 
   0   0  -3  113.59    2.92 
   0   0   3  112.48    2.92 
   0   0   3  114.78    3.54 
   0   0  -3  113.46    2.92 
   0   0  -3  112.76    4.09 
   0   0  -3  116.42    3.87 
  -1   0  -3  163.29    5.82 
  -1   0  -3  155.88    5.15 
  -1   0  -3  157.50    4.15 
  -1   0  -3  164.95    7.69 
   1   0   3  160.27    5.67 
  -1   0  -3  161.14    3.79 
  -1   0  -3  166.59    7.21 
  -1   0  -3  150.59    3.99 
   1   0   3  164.90    5.93 
   1   0   3  158.00    5.17 
   1   0   3  167.07    5.04 
   1   0   3  156.29    3.78 
  -1   0  -3  165.26    5.04 
   1   0   3  153.46    4.16 
  -2   0  -3   30.61    1.05 
   2   0   3   31.44    1.07 
   2   0   3   32.98    1.25 
   2   0   3   30.86    0.98 
  -2   0  -3   33.72    1.59 
   2   0   3   32.27    0.94 
  -2   0  -3   33.10    1.37 
   2   0   3   32.72    1.19 
  -3   0  -3   61.99    2.50 
  -3   0  -3   60.77    2.20 
   3   0   3   63.47    2.19 
  -3   0  -3   60.04    2.19 
   3   0   3   57.53    2.28 
  -3   0  -3   60.06    2.49 
  -3   0  -3   60.81    1.79 
   3   0   3   56.91    1.80 
  -4   0  -3   24.26    0.76 
  -4   0  -3   24.60    1.15 
   4   0   3   23.55    0.74 
  -5   0  -3   26.65    0.86 
  -5   0  -3   29.00    1.35 
  -5   0  -3   26.82    1.22 
  -6   0  -3   22.23    0.93 
  -6   0  -3   22.80    0.71 
  -6   0  -3   23.48    1.05 
  -6   0  -3   23.43    0.71 
  -7  -1   3    9.48    0.30 
  -7  -1   3    9.18    0.43 
  -6  -1   3    5.06    0.28 
  -6  -1   3    5.18    0.24 
  -6  -1   3    4.61    0.15 
  -6  -1   3    4.68    0.18 
  -6  -1   3    4.71    0.14 
  -6  -1   3    4.80    0.19 
  -6  -1   3    4.79    0.39 
  -6  -1   3    4.76    0.18 
  -6  -1   3    4.66    0.34 
  -6   1   3    4.02    0.29 
  -5  -1   3   14.21    0.65 
  -5  -1   3   14.33    0.49 
   5  -1  -3   13.77    0.44 
  -5   1   3   13.88    0.44 
  -5   1   3   13.66    0.57 
   5   1  -3   13.60    0.47 
   4  -1  -3   21.30    0.62 
  -4  -1   3   21.08    0.98 
  -4  -1   3   20.14    0.79 
  -4  -1   3   20.77    0.67 
  -4  -1   3   21.18    0.79 
   4   1  -3   19.20    0.60 
   4   1  -3   19.33    0.62 
  -4   1   3   18.51    0.92 
  -4   1   3   19.43    0.60 
  -3  -1   3    6.60    0.51 
   3  -1  -3    7.15    0.31 
   3  -1  -3    6.71    0.23 
  -3  -1   3    6.92    0.28 
  -3  -1   3    7.18    0.27 
  -3  -1   3    6.87    0.40 
   3  -1  -3    6.69    0.25 
   3  -1  -3    7.21    0.33 
  -3  -1   3    6.57    0.46 
  -3  -1   3    6.43    0.31 
   3   1  -3    5.56    0.28 
   3   1  -3    5.59    0.30 
   3   1  -3    5.30    0.25 
   3   1  -3    5.59    0.22 
  -3   1   3    5.22    0.24 
  -3   1   3    5.74    0.44 
  -3   1   3    5.62    0.20 
   3   1  -3    5.69    0.23 
  -3   1   3    5.44    0.24 
   2  -1  -3   75.42    2.32 
  -2  -1   3   70.13    2.68 
  -2  -1   3   75.06    3.55 
   2  -1  -3   73.47    2.60 
   2  -1  -3   74.05    2.06 
   2  -1  -3   75.07    2.72 
  -2  -1   3   69.86    1.92 
  -2  -1   3   72.82    3.30 
  -2  -1   3   69.27    3.67 
  -2  -1   3   75.71    1.87 
   2  -1  -3   68.59    1.73 
  -2   1   3   68.92    3.23 
  -2   1   3   62.55    2.57 
   2   1  -3   65.43    2.40 
  -2   1   3   66.88    3.24 
  -2   1   3   64.89    3.38 
  -2   1   3   66.95    1.67 
   2   1  -3   68.43    2.51 
   2   1  -3   65.04    1.91 
   2   1  -3   69.78    2.15 
  -2   1   3   68.46    2.44 
  -1  -1   3  109.97    4.47 
   1  -1  -3  120.73    3.02 
  -1  -1   3  123.23    3.03 
  -1  -1   3  121.61    3.15 
  -1  -1   3  124.78    3.91 
   1  -1  -3  122.76    3.91 
  -1  -1   3  111.27    5.99 
  -1  -1   3  120.13    4.40 
   1  -1  -3  123.41    4.28 
  -1  -1   3  122.09    2.87 
   1  -1  -3  124.93    3.81 
   1  -1  -3  124.25    2.86 
   1  -1  -3  119.46    2.86 
   1  -1  -3  121.48    3.14 
  -1  -1   3  120.28    5.46 
  -1  -1   3  112.09    5.82 
  -1  -1   3  123.53    3.81 
   1  -1  -3  119.91    4.14 
  -1  -1   3  122.27    4.15 
   1  -1  -3  119.41    4.47 
  -1  -1   3  118.49    3.02 
  -1  -1   3  123.32    3.14 
  -1  -1   3  125.00    3.92 
  -1   1   3  119.47    3.74 
  -1   1   3  119.11    3.83 
   1   1  -3  123.40    3.75 
  -1   1   3  127.65    5.37 
   1   1  -3  115.72    3.09 
  -1   1   3  109.47    5.71 
  -1   1   3  122.76    4.32 
  -1   1   3  118.11    2.81 
   1   1  -3  118.48    2.82 
   1   1  -3  118.97    2.97 
   1   1  -3  121.73    4.40 
   1   1  -3  121.67    4.21 
   1   1  -3  116.36    3.85 
  -1   1   3  116.24    3.09 
  -1   1   3  110.04    2.97 
  -1   1   3  118.97    3.09 
   0  -1  -3    1.69    0.22 
   0  -1  -3    1.74    0.17 
   0  -1  -3    1.70    0.22 
   0  -1   3    1.71    0.16 
   0  -1  -3    2.16    0.12 
   0  -1   3    1.91    0.19 
   0  -1   3    2.03    0.14 
   0  -1  -3    1.85    0.18 
   0  -1  -3    1.66    0.18 
   0  -1  -3    1.86    0.13 
   0  -1   3    2.06    0.18 
   0  -1  -3    1.88    0.14 
   0  -1  -3    1.87    0.20 
   0  -1  -3    1.91    0.18 
   0  -1  -3    1.99    0.18 
   0  -1   3    1.85    0.16 
   0  -1   3    1.77    0.15 
   0  -1   3    1.92    0.17 
   0  -1  -3    1.81    0.14 
   0  -1   3    2.37    0.16 
   0  -1   3    2.45    0.24 
   0   1  -3    2.81    0.24 
   0   1  -3    2.82    0.14 
   0   1  -3    2.72    0.20 
   0   1   3    2.90    0.15 
   0   1  -3    2.61    0.16 
   0   1   3    2.65    0.16 
   0   1  -3    2.64    0.15 
   0   1   3    2.72    0.22 
   0   1  -3    2.87    0.24 
   0   1  -3    2.67    0.14 
   0   1   3    2.93    0.15 
   0   1   3    3.08    0.25 
   0   1  -3    2.65    0.18 
   0   1   3    2.86    0.23 
   0   1   3    2.68    0.21 
   0   1   3    2.82    0.19 
   0   1  -3    2.87    0.20 
  -1  -1  -3   14.71    0.54 
   1  -1   3   14.70    0.40 
   1  -1   3   14.15    0.45 
   1  -1   3   14.88    0.60 
  -1  -1  -3   15.56    0.55 
   1  -1   3   15.16    0.58 
  -1  -1  -3   14.93    0.74 
  -1  -1  -3   14.14    0.63 
  -1  -1  -3   14.77    0.81 
  -1  -1  -3   14.32    0.43 
   1  -1   3   14.89    0.54 
   1   1   3   13.94    0.43 
  -1   1  -3   14.31    0.41 
  -1   1  -3   12.68    0.48 
   1   1   3   13.92    0.39 
  -1   1  -3   14.00    0.39 
  -1   1  -3   13.74    0.67 
   1   1   3   13.71    0.57 
   1   1   3   14.36    0.59 
  -1   1  -3   13.64    0.58 
   1   1   3   14.44    0.52 
  -2  -1  -3  152.56    6.16 
   2  -1   3  161.21    5.53 
  -2  -1  -3  159.68    7.52 
   2  -1   3  158.53    4.41 
   2  -1   3  151.62    4.59 
  -2  -1  -3  149.09    4.93 
   2  -1   3  161.08    5.79 
   2   1   3  151.08    4.61 
   2   1   3  164.68    5.82 
   2   1   3  156.24    4.42 
   2   1   3  150.47    4.94 
  -2   1  -3  158.22    4.93 
  -2   1  -3  157.34    7.48 
  -2   1  -3  160.21    6.18 
   2   1   3  154.18    5.56 
   3  -1   3    4.30    0.26 
  -3  -1  -3    4.20    0.21 
  -3  -1  -3    3.60    0.34 
   3  -1   3    3.95    0.23 
   3  -1   3    4.32    0.19 
  -3  -1  -3    4.26    0.25 
  -3  -1  -3    4.25    0.21 
  -3  -1  -3    4.47    0.38 
   3  -1   3    4.04    0.19 
   3   1   3    4.12    0.20 
  -3   1  -3    4.04    0.38 
  -3   1  -3    3.80    0.34 
   3   1   3    4.35    0.27 
  -3   1  -3    4.46    0.19 
   3   1   3    4.40    0.29 
   3   1   3    4.23    0.21 
  -3   1  -3    3.98    0.21 
  -3   1  -3    4.46    0.21 
   3   1   3    4.00    0.25 
  -4  -1  -3   11.89    0.68 
  -4  -1  -3   11.78    0.46 
   4  -1   3   11.60    0.40 
  -4  -1  -3   11.01    0.46 
  -4  -1  -3   11.35    0.41 
  -4   1  -3   13.56    0.75 
  -4   1  -3   13.15    0.45 
   4   1   3   13.21    0.47 
   4   1   3   13.12    0.47 
  -5  -1  -3   58.35    2.36 
  -5  -1  -3   57.03    2.45 
  -5  -1  -3   55.41    1.74 
  -5  -1  -3   54.78    1.71 
  -5   1  -3   57.24    1.82 
  -5   1  -3   60.80    1.82 
  -5   1  -3   61.66    2.60 
  -5   1  -3   57.71    1.83 
  -5   1  -3   58.32    1.79 
  -5   1  -3   64.47    2.33 
  -6  -1  -3    4.09    0.38 
  -6  -1  -3    3.70    0.16 
  -6  -1  -3    3.70    0.12 
  -6  -1  -3    3.58    0.15 
  -6  -1  -3    3.65    0.16 
  -6   1  -3    3.18    0.13 
  -6   1  -3    3.42    0.32 
  -7  -2   3   11.35    0.57 
  -7  -2   3   11.89    0.37 
  -7  -2   3   11.72    0.48 
  -7  -2   3   11.97    0.38 
  -6  -2   3   13.99    0.38 
  -6  -2   3   14.34    0.65 
  -6  -2   3   14.11    0.37 
  -6  -2   3   13.96    0.46 
  -6  -2   3   14.50    0.58 
  -6  -2   3   13.51    0.69 
  -6   2   3   12.84    0.52 
  -5  -2   3    5.27    0.27 
   5  -2  -3    5.36    0.22 
   5  -2  -3    5.49    0.23 
   5   2  -3    4.39    0.24 
   5   2  -3    4.23    0.25 
  -5   2   3    4.21    0.24 
  -5   2   3    4.42    0.19 
  -5   2   3    4.65    0.26 
  -4  -2   3   10.44    0.41 
  -4  -2   3   10.63    0.46 
  -4  -2   3   11.23    0.42 
   4  -2  -3   11.87    0.37 
  -4  -2   3   11.27    0.65 
  -4  -2   3   11.14    0.49 
  -4  -2   3   10.65    0.49 
   4  -2  -3   11.61    0.40 
   4   2  -3    9.99    0.44 
   4   2  -3   10.48    0.39 
  -4   2   3   10.20    0.35 
  -4   2   3   10.01    0.47 
   4   2  -3   10.17    0.39 
   3  -2  -3   31.00    1.02 
   3  -2  -3   30.11    0.91 
   3  -2  -3   31.81    1.22 
   3  -2  -3   30.91    0.95 
   3  -2  -3   30.96    1.16 
  -3  -2   3   30.79    1.04 
  -3  -2   3   30.28    1.32 
  -3  -2   3   31.51    1.60 
  -3   2   3   26.89    1.00 
   3   2  -3   26.14    1.05 
   3   2  -3   26.44    1.10 
  -3   2   3   26.85    0.82 
   3   2  -3   26.59    0.97 
   3   2  -3   27.95    0.83 
   3   2  -3   26.89    0.85 
   3   2  -3   27.63    0.85 
  -2  -2   3   81.87    4.15 
   2  -2  -3   82.26    2.34 
   2  -2  -3   85.92    3.08 
   2  -2  -3   79.98    2.44 
   2  -2  -3   84.10    2.94 
   2  -2  -3   78.44    2.62 
  -2  -2   3   80.09    2.63 
  -2  -2   3   82.65    2.22 
  -2  -2   3   86.67    3.76 
  -2  -2   3   78.44    4.02 
   2  -2  -3   81.24    2.62 
   2   2  -3   77.58    2.70 
   2   2  -3   71.11    2.54 
  -2   2   3   80.83    3.64 
   2   2  -3   74.98    2.82 
   2   2  -3   72.52    2.23 
   2   2  -3   69.71    2.41 
  -1  -2   3    3.78    0.25 
   1  -2  -3    4.39    0.25 
  -1  -2   3    3.62    0.28 
   1  -2  -3    3.92    0.25 
   1  -2  -3    4.21    0.25 
   1  -2  -3    3.89    0.15 
   1  -2  -3    3.73    0.23 
  -1  -2   3    3.92    0.35 
  -1   2   3    4.98    0.31 
   1   2  -3    5.61    0.22 
  -1   2   3    5.32    0.26 
  -1   2   3    5.48    0.38 
   1   2  -3    5.30    0.29 
  -1   2   3    5.43    0.34 
   1   2  -3    5.05    0.31 
   0  -2  -3   68.82    1.80 
   0  -2   3   70.86    2.32 
   0  -2  -3   71.46    2.27 
   0  -2  -3   70.54    2.65 
   0  -2   3   71.26    2.65 
   0  -2   3   68.74    1.81 
   0  -2   3   69.05    2.27 
   0  -2  -3   70.82    3.24 
   0   2  -3   61.58    2.44 
   0   2  -3   68.75    3.00 
   0   2   3   65.92    3.00 
   0   2  -3   64.89    2.12 
   0   2   3   69.52    2.12 
   0   2   3   65.09    1.67 
   0   2   3   60.01    2.46 
   1  -2   3   96.40    3.44 
  -1  -2  -3   91.78    3.58 
   1  -2   3   97.34    3.61 
  -1  -2  -3  101.52    4.41 
   1  -2   3   97.08    2.75 
   1  -2   3   96.42    3.09 
  -1  -2  -3   94.52    3.10 
  -1   2  -3  103.76    4.07 
   1   2   3  105.64    3.85 
   1   2   3   98.89    3.28 
  -1   2  -3  104.74    4.65 
   1   2   3  100.35    3.05 
  -2  -2  -3   58.98    1.78 
  -2  -2  -3   61.14    1.98 
  -2  -2  -3   60.57    2.80 
   2  -2   3   62.35    2.32 
   2  -2   3   61.19    1.77 
  -2  -2  -3   60.70    1.96 
  -2  -2  -3   58.03    1.65 
  -2  -2  -3   64.29    3.03 
   2  -2   3   61.93    2.21 
   2   2   3   64.60    1.90 
   2   2   3   60.74    2.40 
  -2   2  -3   65.08    3.04 
  -2   2  -3   62.72    2.56 
   2   2   3   62.22    1.83 
  -2   2  -3   63.91    1.87 
   2   2   3   64.19    2.30 
   2   2   3   61.01    2.16 
  -2   2  -3   59.82    2.28 
   3  -2   3    7.92    0.30 
  -3  -2  -3    7.38    0.41 
  -3  -2  -3    8.98    0.54 
  -3  -2  -3    7.59    0.48 
  -3  -2  -3    8.05    0.33 
  -3  -2  -3    7.89    0.34 
  -3   2  -3    7.27    0.31 
   3   2   3    7.26    0.36 
  -3   2  -3    6.68    0.31 
  -3   2  -3    7.20    0.28 
   3   2   3    7.49    0.32 
   3   2   3    7.28    0.31 
  -4  -2  -3   25.32    0.96 
   4  -2   3   24.87    0.81 
  -4  -2  -3   27.05    1.25 
  -4  -2  -3   25.85    1.03 
  -4  -2  -3   26.27    1.00 
   4   2   3   27.88    0.92 
  -4   2  -3   28.39    0.88 
   4   2   3   28.69    1.05 
   4   2   3   27.04    0.90 
  -5  -2  -3    5.17    0.55 
  -5  -2  -3    5.48    0.42 
  -5  -2  -3    5.26    0.23 
  -5  -2  -3    4.90    0.19 
  -5  -2  -3    5.16    0.27 
  -5  -2  -3    5.14    0.18 
  -5   2  -3    4.66    0.18 
  -5   2  -3    4.39    0.17 
  -5   2  -3    4.90    0.40 
  -5   2  -3    4.51    0.19 
  -5   2  -3    4.08    0.40 
  -5   2  -3    5.74    0.26 
  -6  -2  -3   16.84    0.42 
  -6  -2  -3   16.89    0.54 
  -6  -2  -3   16.57    0.54 
  -6  -2  -3   17.30    0.81 
  -6  -2  -3   16.68    0.43 
  -6   2  -3   16.67    0.52 
  -7  -3   3    0.63    0.21 
  -7  -3   3    0.59    0.07 
  -7  -3   3    0.52    0.04 
  -7  -3   3    0.77    0.21 
  -7  -3   3    0.51    0.06 
  -6  -3   3   13.55    0.55 
  -6  -3   3   13.93    0.36 
  -6  -3   3   12.69    0.65 
  -6  -3   3   13.80    0.37 
  -6  -3   3   13.54    0.43 
  -6   3   3   12.28    0.39 
   5  -3  -3    6.98    0.29 
  -5  -3   3    6.14    0.24 
  -5  -3   3    6.93    0.34 
  -5  -3   3    6.30    0.31 
  -5  -3   3    6.56    0.36 
  -5  -3   3    6.58    0.36 
  -5   3   3    5.97    0.38 
  -5   3   3    5.57    0.22 
  -5   3   3    6.26    0.33 
  -5   3   3    6.43    0.25 
   5   3  -3    6.29    0.31 
   5   3  -3    5.68    0.34 
   4  -3  -3   32.82    1.08 
  -4  -3   3   33.35    1.22 
  -4  -3   3   31.47    1.26 
  -4  -3   3   31.38    1.44 
  -4  -3   3   32.50    1.10 
   4  -3  -3   31.47    0.97 
   4   3  -3   32.58    1.06 
  -4   3   3   33.16    1.02 
  -4   3   3   33.08    1.35 
   4   3  -3   33.17    1.21 
   4   3  -3   32.84    1.06 
   3  -3  -3   40.16    1.23 
  -3  -3   3   41.67    1.36 
  -3  -3   3   36.28    2.06 
   3  -3  -3   41.65    1.19 
  -3  -3   3   38.35    1.53 
   3  -3  -3   40.37    1.32 
  -3  -3   3   40.06    1.11 
  -3   3   3   39.52    1.49 
   3   3  -3   41.69    1.44 
  -3   3   3   40.71    1.23 
   3   3  -3   41.98    1.25 
   3   3  -3   39.78    1.26 
  -3   3   3   37.47    1.50 
   2  -3  -3   41.51    1.30 
  -2  -3   3   43.63    1.46 
   2  -3  -3   41.19    1.28 
   2  -3  -3   41.37    1.39 
  -2  -3   3   42.97    1.38 
  -2  -3   3   42.05    1.42 
   2  -3  -3   42.62    1.26 
  -2  -3   3   41.05    2.03 
   2  -3  -3   43.48    1.66 
  -2  -3   3   42.72    1.20 
   2  -3  -3   43.32    1.59 
   2   3  -3   39.82    1.60 
  -2   3   3   41.88    2.04 
   2   3  -3   40.40    1.42 
   2   3  -3   39.01    1.24 
   2   3  -3   39.40    1.24 
   1  -3  -3   98.80    2.95 
   1  -3  -3   99.65    3.74 
  -1  -3   3   98.86    2.69 
  -1   3   3   97.82    4.40 
  -1   3   3   97.95    2.59 
   1   3  -3   95.54    3.28 
   1   3  -3   93.65    2.60 
   0  -3   3   13.48    0.61 
   0  -3  -3   13.43    0.47 
   0   3   3   14.81    0.48 
   0   3  -3   15.25    0.82 
   0   3  -3   15.82    0.48 
   0   3   3   15.26    0.62 
   0   3   3   16.08    0.83 
  -1  -3  -3  108.52    2.90 
  -1  -3  -3  110.27    3.36 
   1  -3   3  109.29    3.17 
   1  -3   3  108.64    4.04 
  -1  -3  -3  102.81    3.09 
  -1  -3  -3  105.36    4.93 
   1   3   3   99.18    3.12 
  -1   3  -3  100.85    3.20 
  -1   3  -3   99.75    2.67 
   1   3   3   95.78    3.40 
   1   3   3  101.08    3.78 
  -1   3  -3  100.99    4.53 
   1   3   3  101.11    2.98 
  -1   3  -3   98.52    4.86 
  -2  -3  -3    4.45    0.36 
  -2  -3  -3    5.13    0.45 
  -2  -3  -3    4.84    0.24 
  -2  -3  -3    4.88    0.27 
   2  -3   3    4.72    0.25 
  -2  -3  -3    5.04    0.25 
  -2  -3  -3    5.10    0.29 
   2  -3   3    5.24    0.24 
  -2  -3  -3    4.61    0.36 
  -2  -3  -3    5.00    0.27 
   2   3   3    6.03    0.34 
  -2   3  -3    6.05    0.39 
   2   3   3    6.31    0.39 
  -2   3  -3    6.06    0.33 
   2   3   3    5.88    0.29 
  -3  -3  -3   10.49    0.44 
   3  -3   3   10.02    0.38 
  -3  -3  -3    9.36    0.65 
  -3  -3  -3   10.19    0.64 
  -3  -3  -3   10.00    0.52 
  -3  -3  -3   10.22    0.42 
  -3  -3  -3   10.06    0.49 
   3   3   3    9.41    0.39 
   3   3   3    9.63    0.46 
  -3   3  -3    9.46    0.40 
  -3   3  -3    9.21    0.38 
  -3   3  -3    8.39    0.43 
  -4  -3  -3    2.43    0.25 
  -4  -3  -3    2.11    0.31 
  -4  -3  -3    2.37    0.20 
   4  -3   3    2.28    0.18 
  -4  -3  -3    2.55    0.48 
   4   3   3    2.26    0.27 
   4   3   3    2.61    0.24 
  -4   3  -3    2.09    0.17 
  -5  -3  -3    6.67    0.24 
  -5  -3  -3    7.84    0.61 
  -5  -3  -3    7.06    0.23 
  -5  -3  -3    7.12    0.28 
  -5  -3  -3    7.20    0.47 
  -5   3  -3    7.85    0.26 
  -5   3  -3    7.47    0.34 
  -5   3  -3    8.16    0.35 
  -5   3  -3    7.34    0.41 
  -5   3  -3    7.48    0.28 
  -5   3  -3    7.37    0.26 
  -5   3  -3    7.53    0.50 
  -6  -3  -3    1.86    0.11 
  -6  -3  -3    1.99    0.10 
  -6  -3  -3    2.38    0.33 
  -6  -3  -3    2.11    0.10 
  -6   3  -3    2.22    0.10 
  -6  -4   3    2.28    0.30 
  -6  -4   3    2.42    0.14 
  -6  -4   3    2.65    0.24 
  -6  -4   3    2.55    0.12 
  -6  -4   3    2.43    0.12 
  -6   4   3    2.46    0.11 
  -6   4   3    2.18    0.08 
  -5  -4   3   19.62    0.77 
  -5  -4   3   19.20    0.52 
  -5  -4   3   20.41    0.84 
  -5  -4   3   20.32    0.64 
  -5  -4   3   20.78    0.78 
  -5  -4   3   20.42    0.75 
  -5  -4   3   20.39    0.55 
  -5  -4   3   19.27    0.90 
  -5   4   3   19.53    0.51 
  -5   4   3   19.76    0.62 
   5   4  -3   19.21    0.70 
  -5   4   3   19.13    0.49 
  -5   4   3   20.27    0.84 
  -5   4   3   19.80    0.62 
   4  -4  -3   48.52    1.57 
  -4  -4   3   47.79    1.59 
  -4  -4   3   48.66    1.82 
   4  -4  -3   45.40    1.41 
   4  -4  -3   44.39    1.45 
   4   4  -3   44.50    1.46 
   4   4  -3   46.71    1.46 
  -4   4   3   45.64    1.70 
   4   4  -3   48.22    1.68 
   3  -4  -3    7.50    0.47 
  -3  -4   3    7.84    0.45 
  -3  -4   3    7.98    0.42 
   3  -4  -3    7.75    0.34 
   3  -4  -3    7.83    0.35 
  -3  -4   3    7.67    0.32 
   3  -4  -3    7.50    0.34 
   3  -4  -3    7.84    0.34 
   3   4  -3    7.65    0.36 
   3   4  -3    7.57    0.40 
  -3   4   3    6.75    0.38 
  -3   4   3    7.38    0.39 
   3   4  -3    7.71    0.37 
   2  -4  -3   30.12    1.13 
  -2  -4   3   29.47    1.05 
  -2  -4   3   29.65    0.89 
   2  -4  -3   30.22    0.95 
  -2  -4   3   30.31    1.03 
  -2  -4   3   30.67    1.24 
  -2  -4   3   28.49    1.07 
   2  -4  -3   29.33    0.96 
  -2   4   3   24.47    1.46 
   2   4  -3   28.03    0.92 
   2   4  -3   28.27    0.97 
   2   4  -3   28.84    0.92 
   2   4  -3   29.49    1.04 
  -2   4   3   27.53    1.10 
   1  -4  -3   27.10    0.88 
  -1  -4   3   27.57    0.95 
  -1  -4   3   26.45    0.83 
  -1  -4   3   25.77    0.89 
   1  -4  -3   28.43    0.89 
   1  -4  -3   27.43    1.15 
  -1   4   3   21.73    1.24 
  -1   4   3   24.33    1.01 
   1   4  -3   25.36    0.83 
   1   4  -3   26.06    0.76 
  -1   4   3   25.76    0.86 
   1   4  -3   26.30    0.88 
  -1   4   3   26.61    0.74 
  -1   4   3   26.24    0.87 
   0  -4   3   38.46    1.21 
   0  -4  -3   38.12    1.20 
   0  -4  -3   39.12    1.28 
   0  -4   3   37.28    1.29 
   0   4  -3   37.59    1.24 
   0   4  -3   36.48    1.04 
   0   4  -3   36.52    1.21 
   0   4   3   36.66    1.80 
   0   4  -3   35.14    1.78 
   0   4   3   36.15    1.21 
   0   4   3   36.82    1.05 
  -1  -4  -3    8.44    0.59 
   1  -4   3    9.37    0.39 
  -1  -4  -3    8.97    0.41 
  -1  -4  -3    9.03    0.38 
  -1  -4  -3    9.00    0.36 
   1   4   3   10.39    0.39 
  -1   4  -3   10.21    0.35 
   1   4   3   10.40    0.45 
  -1   4  -3   10.27    0.50 
   1   4   3   10.68    0.48 
  -1   4  -3   10.02    0.56 
  -2  -4  -3    4.26    0.25 
  -2  -4  -3    4.22    0.37 
  -2  -4  -3    4.17    0.29 
   2  -4   3    4.44    0.27 
  -2  -4  -3    4.52    0.29 
  -2  -4  -3    3.73    0.43 
  -2  -4  -3    4.23    0.26 
   2   4   3    2.97    0.29 
  -2   4  -3    3.07    0.25 
   2   4   3    3.20    0.25 
  -2   4  -3    3.00    0.29 
  -3  -4  -3   13.01    0.81 
   3  -4   3   13.15    0.48 
  -3  -4  -3   12.23    0.54 
  -3  -4  -3   12.24    0.65 
  -3  -4  -3   12.29    0.51 
  -3   4  -3   10.74    0.46 
   3   4   3   11.28    0.53 
  -3   4  -3   10.46    0.47 
   3   4   3   10.49    0.46 
  -3   4  -3   10.85    0.50 
  -4  -4  -3    2.30    0.28 
  -4  -4  -3    1.97    0.38 
  -4  -4  -3    2.19    0.33 
  -4  -4  -3    1.76    0.44 
  -4  -4  -3    2.16    0.27 
  -4  -4  -3    1.71    0.23 
  -4  -4  -3    1.93    0.21 
  -4   4  -3    1.60    0.10 
  -4   4  -3    1.47    0.10 
  -4   4  -3    1.55    0.26 
  -4   4  -3    1.70    0.37 
   4   4   3    1.14    0.25 
  -4   4  -3    1.24    0.12 
  -4   4  -3    1.36    0.16 
  -5  -4  -3    5.05    0.20 
  -5  -4  -3    4.95    0.19 
  -5  -4  -3    4.63    0.22 
  -5  -4  -3    4.71    0.39 
  -5  -4  -3    4.51    0.26 
  -5   4  -3    5.00    0.38 
  -5   4  -3    4.50    0.24 
  -5   4  -3    4.90    0.32 
  -5   4  -3    4.43    0.18 
  -5   4  -3    4.37    0.22 
  -5   4  -3    4.49    0.17 
  -6  -4  -3    5.84    0.20 
  -6  -4  -3    5.79    0.17 
  -6  -4  -3    6.18    0.17 
  -6   4  -3    5.05    0.17 
  -6  -5   3    4.65    0.25 
  -6  -5   3    5.01    0.16 
  -6  -5   3    5.04    0.16 
  -6  -5   3    5.63    0.34 
  -6  -5   3    5.23    0.19 
  -6   5   3    4.38    0.15 
  -5  -5   3    9.72    0.40 
  -5  -5   3    9.38    0.50 
  -5  -5   3    9.26    0.42 
  -5  -5   3    9.33    0.41 
  -5  -5   3    9.73    0.34 
  -5   5   3    9.58    0.25 
  -5   5   3    8.44    0.45 
  -5   5   3    9.44    0.25 
  -5   5   3    9.57    0.32 
   5   5  -3    9.16    0.33 
  -5   5   3    9.15    0.43 
  -4  -5   3   11.00    0.41 
  -4  -5   3   11.20    0.36 
  -4  -5   3   10.88    0.40 
  -4  -5   3   10.93    0.57 
  -4  -5   3   11.00    0.33 
  -4  -5   3   11.81    0.49 
  -4  -5   3   11.66    0.58 
  -4  -5   3   10.21    0.54 
  -4  -5   3   11.55    0.49 
   4   5  -3   11.70    0.41 
  -4   5   3   12.02    0.32 
  -4   5   3   11.92    0.34 
  -4   5   3   12.17    0.53 
   4   5  -3   11.88    0.50 
  -4   5   3   11.88    0.40 
   3  -5  -3   18.88    0.83 
   3  -5  -3   19.20    0.69 
   3  -5  -3   19.34    0.69 
  -3  -5   3   19.68    0.62 
  -3  -5   3   19.11    0.87 
   3   5  -3   18.28    0.68 
  -3   5   3   18.86    0.79 
   3   5  -3   17.48    0.76 
  -2  -5   3   12.17    0.54 
  -2  -5   3   12.05    0.57 
  -2  -5   3   11.80    0.53 
   2  -5  -3   12.20    0.49 
   2  -5  -3   11.74    0.48 
  -2  -5   3   12.56    0.48 
   2  -5  -3   12.15    0.62 
   2   5  -3   11.87    0.50 
  -2   5   3   12.34    0.58 
   2   5  -3   11.05    0.52 
   1  -5  -3   18.46    0.66 
  -1  -5   3   17.23    0.62 
   1  -5  -3   18.00    0.77 
  -1  -5   3   18.65    0.72 
   1  -5  -3   17.97    0.65 
   1   5  -3   20.69    0.76 
  -1   5   3   19.29    0.87 
  -1   5   3   19.56    0.69 
  -1   5   3   20.25    0.63 
   1   5  -3   20.52    0.65 
   0  -5  -3   40.19    1.46 
   0  -5   3   39.13    1.37 
   0  -5  -3   39.00    1.27 
   0  -5   3   40.04    1.28 
   0  -5  -3   40.66    1.36 
   0   5   3   39.38    1.33 
   0   5   3   40.48    1.15 
   0   5  -3   41.10    1.35 
   0   5   3   38.60    1.37 
   0   5  -3   38.71    1.33 
   0   5  -3   40.02    1.14 
  -1  -5  -3   28.59    0.92 
  -1  -5  -3   27.39    0.98 
  -1  -5  -3   26.75    0.85 
   1  -5   3   27.09    0.93 
   1   5   3   28.13    1.00 
  -1   5  -3   28.11    1.15 
   1   5   3   27.48    0.86 
  -2  -5  -3   24.77    0.78 
  -2  -5  -3   25.21    0.89 
  -2  -5  -3   24.53    0.86 
  -2  -5  -3   25.92    1.27 
  -2  -5  -3   24.58    0.88 
   2  -5   3   25.35    0.87 
  -2   5  -3   21.84    0.88 
  -2   5  -3   21.93    0.93 
   2   5   3   21.94    0.89 
   2   5   3   21.57    0.83 
  -3  -5  -3   18.50    0.77 
  -3  -5  -3   18.74    1.04 
  -3  -5  -3   18.34    0.55 
  -3  -5  -3   18.79    0.67 
  -3  -5  -3   19.39    0.88 
  -3  -5  -3   18.84    0.72 
  -3  -5  -3   19.09    0.70 
  -3  -5  -3   18.69    0.65 
  -3  -5  -3   19.17    0.51 
  -3   5  -3   15.85    0.66 
  -3   5  -3   14.85    0.65 
  -3   5  -3   15.68    0.44 
  -3   5  -3   17.06    0.78 
  -3   5  -3   16.69    0.69 
   3   5   3   16.21    0.53 
  -3   5  -3   16.34    0.62 
  -3   5  -3   15.46    0.62 
  -3   5  -3   16.01    0.56 
  -3   5  -3   15.89    0.57 
  -3   5  -3   16.24    0.51 
   3   5   3   15.76    0.70 
  -3   5  -3   15.88    0.42 
  -4  -5  -3    1.46    0.10 
  -4  -5  -3    1.57    0.16 
  -4  -5  -3    2.17    0.30 
  -4  -5  -3    1.89    0.17 
  -4  -5  -3    2.06    0.26 
  -4  -5  -3    1.64    0.22 
  -4   5  -3    1.04    0.24 
  -4   5  -3    1.23    0.10 
   4   5   3    1.48    0.17 
  -4   5  -3    1.26    0.12 
  -4   5  -3    1.24    0.10 
  -4   5  -3    1.18    0.33 
  -5  -5  -3    2.32    0.12 
  -5  -5  -3    1.98    0.16 
  -5  -5  -3    2.23    0.12 
  -5  -5  -3    2.33    0.14 
   5   5   3    2.06    0.14 
  -5   5  -3    2.04    0.11 
  -5   5  -3    2.11    0.09 
  -5   5  -3    2.64    0.28 
  -5  -6   3    1.39    0.16 
  -5  -6   3    1.41    0.12 
  -5  -6   3    1.24    0.14 
  -5  -6   3    1.79    0.24 
  -5   6   3    1.68    0.19 
  -5   6   3    1.81    0.07 
  -5   6   3    1.70    0.07 
  -5   6   3    1.70    0.09 
  -5   6   3    1.65    0.10 
   5   6  -3    1.86    0.13 
  -4  -6   3    7.63    0.43 
  -4  -6   3    7.23    0.34 
  -4  -6   3    7.88    0.25 
  -4  -6   3    7.55    0.30 
  -4  -6   3    7.54    0.36 
  -4  -6   3    7.50    0.23 
  -4   6   3    8.10    0.24 
  -4   6   3    8.61    0.40 
  -4   6   3    8.11    0.25 
   4   6  -3    8.32    0.30 
  -4   6   3    8.54    0.30 
  -3  -6   3    7.16    0.31 
  -3  -6   3    7.11    0.26 
   3  -6  -3    7.86    0.50 
  -3  -6   3    7.38    0.37 
  -3  -6   3    6.71    0.26 
  -3  -6   3    7.07    0.22 
  -3  -6   3    7.05    0.28 
  -3   6   3    6.84    0.42 
  -3   6   3    6.56    0.27 
   3   6  -3    6.58    0.26 
  -3   6   3    6.66    0.37 
  -3   6   3    6.74    0.33 
  -2  -6   3   10.59    0.37 
  -2  -6   3   10.55    0.44 
  -2  -6   3   10.68    0.48 
  -2  -6   3   12.04    0.51 
  -2  -6   3   10.39    0.49 
   2  -6  -3   12.54    0.61 
  -2  -6   3   10.41    0.42 
   2  -6  -3   10.86    0.47 
  -2  -6   3   10.74    0.30 
   2  -6  -3   10.72    0.39 
   2   6  -3   10.34    0.40 
  -2   6   3   10.52    0.41 
  -2   6   3   10.82    0.49 
  -2   6   3   10.94    0.32 
  -2   6   3   10.78    0.39 
  -2   6   3   10.67    0.36 
  -2   6   3   11.25    0.41 
  -2   6   3   11.30    0.51 
   2   6  -3   11.10    0.52 
   2   6  -3   10.53    0.37 
   1  -6  -3    6.90    0.38 
  -1  -6   3    5.87    0.41 
  -1  -6   3    6.25    0.26 
   1  -6  -3    6.61    0.49 
  -1  -6   3    6.43    0.27 
  -1  -6   3    7.75    0.51 
  -1  -6   3    6.46    0.38 
   1  -6  -3    6.51    0.28 
  -1   6   3    6.31    0.36 
   1   6  -3    6.25    0.29 
   1   6  -3    5.38    0.36 
   1   6  -3    6.31    0.28 
  -1   6   3    6.00    0.36 
  -1   6   3    6.13    0.29 
   1   6  -3    5.91    0.26 
   1   6  -3    6.20    0.33 
  -1   6   3    6.10    0.29 
   1   6  -3    6.02    0.22 
   1   6  -3    5.68    0.37 
  -1   6   3    6.15    0.23 
  -1   6   3    6.33    0.21 
  -1   6   3    5.61    0.45 
  -1   6   3    6.45    0.26 
   0  -6   3    6.40    0.42 
   0  -6  -3    6.17    0.37 
   0  -6  -3    6.07    0.46 
   0  -6  -3    6.51    0.41 
   0  -6   3    6.34    0.26 
   0  -6  -3    6.44    0.26 
   0  -6   3    6.50    0.39 
   0  -6  -3    6.64    0.33 
   0   6   3    6.39    0.30 
   0   6  -3    6.95    0.29 
   0   6   3    7.15    0.34 
   0   6  -3    6.80    0.31 
   0   6  -3    6.92    0.31 
   0   6  -3    7.04    0.29 
   0   6  -3    7.00    0.32 
   0   6   3    7.28    0.31 
   0   6   3    6.97    0.32 
   0   6   3    6.47    0.38 
   0   6   3    6.79    0.21 
   0   6   3    7.33    0.36 
   0   6   3    6.99    0.30 
   0   6  -3    6.90    0.28 
   1  -6   3    8.61    0.43 
  -1  -6  -3    8.93    0.41 
   1  -6   3    8.65    0.32 
  -1  -6  -3    9.40    0.46 
  -1  -6  -3    8.35    0.44 
  -1  -6  -3    8.48    0.36 
  -1   6  -3    8.49    0.52 
  -1   6  -3    8.63    0.27 
   1   6   3    8.15    0.44 
  -1   6  -3    8.54    0.36 
  -1   6  -3    8.81    0.41 
  -1   6  -3    8.02    0.33 
  -1   6  -3    8.21    0.30 
  -1   6  -3    8.14    0.36 
  -1   6  -3    8.08    0.25 
   1   6   3    8.36    0.35 
   1   6   3    8.40    0.39 
  -1   6  -3    8.83    0.51 
  -1   6  -3    8.24    0.32 
   2  -6   3   13.89    0.45 
  -2  -6  -3   12.02    0.82 
  -2  -6  -3   13.90    0.46 
   2  -6   3   13.61    0.56 
  -2  -6  -3   14.12    0.51 
  -2   6  -3   12.92    0.39 
  -2   6  -3   12.35    0.57 
  -2   6  -3   12.94    0.43 
  -2   6  -3   13.14    0.48 
   2   6   3   10.39    0.57 
  -2   6  -3   13.42    0.62 
   2   6   3   13.45    0.43 
  -2   6  -3   13.36    0.53 
  -2   6  -3   13.29    0.47 
  -2   6  -3   13.50    0.66 
   2   6   3   12.99    0.46 
  -2   6  -3   12.24    0.46 
  -3  -6  -3    5.19    0.20 
  -3  -6  -3    5.10    0.16 
  -3  -6  -3    5.38    0.26 
  -3  -6  -3    5.64    0.32 
  -3  -6  -3    6.12    0.33 
  -3   6  -3    4.93    0.25 
  -3   6  -3    5.16    0.18 
  -3   6  -3    4.45    0.26 
  -3   6  -3    5.35    0.38 
  -3   6  -3    5.07    0.21 
   3   6   3    5.13    0.23 
  -3   6  -3    4.61    0.23 
  -3   6  -3    5.20    0.18 
  -4  -6  -3   14.67    0.50 
  -4  -6  -3   15.30    0.58 
  -4  -6  -3   14.26    0.54 
  -4   6  -3   12.90    0.41 
   4   6   3   13.46    0.43 
  -4   6  -3   13.43    0.54 
  -4   6  -3   13.57    0.34 
  -4   6  -3   13.41    0.61 
  -4   6  -3   13.72    0.36 
  -4  -7   3    1.23    0.18 
  -4  -7   3    1.07    0.09 
  -4  -7   3    1.25    0.13 
  -4   7   3    1.22    0.15 
  -4   7   3    1.41    0.10 
  -4   7   3    1.39    0.08 
   4   7  -3    1.16    0.10 
  -4   7   3    1.51    0.08 
  -3  -7   3    5.37    0.16 
  -3  -7   3    5.57    0.23 
  -3  -7   3    5.46    0.19 
   3  -7  -3    5.15    0.21 
  -3  -7   3    5.92    0.35 
  -3   7   3    5.08    0.25 
  -3   7   3    5.22    0.22 
   3   7  -3    5.27    0.23 
  -3   7   3    5.49    0.28 
  -3   7   3    5.34    0.21 
  -3   7   3    5.38    0.23 
   2  -7  -3    1.54    0.35 
  -2  -7   3    1.57    0.14 
   2  -7  -3    1.57    0.14 
  -2  -7   3    1.54    0.15 
  -2   7   3    2.13    0.23 
   2   7  -3    2.04    0.16 
  -2   7   3    2.19    0.16 
   2   7  -3    2.19    0.17 
  -2   7   3    2.20    0.17 
  -2   7   3    2.22    0.10 
   2   7  -3    2.12    0.11 
  -2   7   3    2.29    0.21 
  -2   7   3    2.09    0.17 
   1  -7  -3    0.80    0.22 
   1  -7  -3    0.63    0.14 
  -1  -7   3    0.76    0.14 
  -1  -7   3    0.60    0.09 
  -1   7   3    1.04    0.07 
  -1   7   3    1.34    0.22 
  -1   7   3    1.31    0.12 
   1   7  -3    1.06    0.16 
  -1   7   3    0.96    0.17 
  -1   7   3    1.07    0.21 
  -1   7   3    0.94    0.16 
  -1   7   3    1.21    0.14 
   1   7  -3    1.08    0.16 
   0  -7  -3   11.85    0.40 
   0  -7  -3   12.63    0.42 
   0  -7   3   12.24    0.39 
   0   7  -3   12.85    0.38 
   0   7  -3   12.44    0.35 
   0   7  -3   13.04    0.46 
   0   7  -3   12.06    0.45 
   0   7   3   12.16    0.46 
   0   7  -3   12.33    0.45 
   0   7   3   12.63    0.43 
   0   7  -3   12.78    0.54 
   0   7   3   13.07    0.39 
   0   7   3   13.06    0.47 
   0   7   3   13.09    0.43 
   0   7  -3   12.24    0.42 
  -1  -7  -3    4.03    0.14 
   1  -7   3    4.37    0.19 
  -1  -7  -3    4.28    0.21 
   1   7   3    4.15    0.13 
  -1   7  -3    4.20    0.20 
  -1   7  -3    4.50    0.39 
  -1   7  -3    4.23    0.15 
  -1   7  -3    4.06    0.22 
  -1   7  -3    4.42    0.24 
  -1   7  -3    4.32    0.21 
   1   7   3    4.39    0.23 
  -1   7  -3    4.18    0.18 
  -1   7  -3    4.61    0.27 
  -2  -7  -3    2.19    0.13 
  -2  -7  -3    2.53    0.18 
  -2  -7  -3    2.40    0.14 
  -2  -7  -3    2.24    0.14 
   2  -7   3    2.25    0.14 
  -2  -7  -3    2.44    0.12 
  -2   7  -3    2.25    0.31 
   2   7   3    2.29    0.11 
  -2   7  -3    2.38    0.15 
  -2   7  -3    2.40    0.18 
   2   7   3    2.19    0.17 
  -2   7  -3    2.40    0.17 
  -2   7  -3    2.33    0.15 
  -2   7  -3    2.31    0.19 
   2   7   3    2.45    0.19 
  -3  -7  -3   20.55    0.67 
   3  -7   3   18.90    0.59 
  -3  -7  -3   20.88    0.59 
  -3  -7  -3   20.14    0.70 
  -3  -7  -3   19.82    0.76 
  -3  -7  -3   20.32    0.55 
  -3   7  -3   19.56    0.61 
   3   7   3   18.88    0.59 
  -3   7  -3   21.16    0.81 
  -3   7  -3   19.12    0.58 
  -3   7  -3   20.34    0.59 
  -3   7  -3   18.92    0.50 
  -3   7  -3   18.03    0.64 
  -3   7  -3   19.17    0.48 
   3   7   3   16.42    0.57 
   1  -8  -3    4.93    0.19 
  -1  -8   3    5.41    0.20 
   1  -8  -3    6.32    0.34 
   1   8  -3    6.02    0.19 
   1   8  -3    6.05    0.23 
  -1   8   3    6.00    0.22 
  -1   8   3    5.52    0.21 
   1   8  -3    5.57    0.33 
  -1   8   3    5.85    0.24 
  -1   8   3    5.55    0.27 
   1   8  -3    5.70    0.16 
   0  -8  -3    6.03    0.17 
   0  -8  -3    6.18    0.22 
   0  -8   3    6.12    0.17 
   0  -8   3    6.02    0.26 
   0  -8   3    6.18    0.22 
   0   8   3    6.44    0.24 
   0   8   3    5.98    0.20 
   0   8  -3    6.15    0.23 
   0   8  -3    5.63    0.18 
   0   8  -3    5.81    0.28 
   0   8  -3    6.02    0.20 
   0   8  -3    6.32    0.34 
   0   8  -3    5.85    0.23 
   0   8   3    5.94    0.19 
  -1  -8  -3    2.29    0.12 
   1  -8   3    2.07    0.17 
   1  -8   3    1.90    0.10 
  -1  -8  -3    1.83    0.10 
  -1   8  -3    2.74    0.23 
  -1   8  -3    2.78    0.14 
   1   8   3    2.79    0.10 
  -1   8  -3    2.63    0.16 
  -1   8  -3    2.73    0.14 
  -7   0   4    0.83    0.24 
  -7   0   4    0.40    0.05 
  -6   0   4    8.41    0.30 
  -6   0   4    7.73    0.34 
  -6   0   4    7.20    0.25 
  -6   0   4    7.41    0.46 
  -6   0   4    7.17    0.35 
  -6   0   4    7.68    0.26 
  -6   0   4    7.37    0.40 
  -6   0   4    7.22    0.20 
  -6   0   4    7.35    0.25 
  -5   0   4    0.59    0.12 
  -5   0   4    0.89    0.26 
  -5   0   4    0.68    0.15 
   5   0  -4    0.89    0.14 
  -4   0   4   32.24    0.98 
  -4   0   4   29.74    1.13 
  -4   0   4   34.60    1.39 
   4   0  -4   30.91    0.98 
   4   0  -4   32.36    0.95 
  -4   0   4   30.17    1.16 
  -4   0   4   32.70    1.17 
   3   0  -4   43.37    1.27 
  -3   0   4   43.52    2.13 
  -3   0   4   43.49    1.32 
   3   0  -4   43.35    1.68 
   3   0  -4   43.06    1.51 
  -3   0   4   43.01    1.76 
  -3   0   4   44.60    2.12 
   3   0  -4   43.75    1.61 
  -3   0   4   46.23    2.32 
  -3   0   4   42.82    1.61 
   3   0  -4   43.13    1.32 
   2   0  -4    3.08    0.21 
  -2   0   4    3.09    0.22 
  -2   0   4    2.85    0.26 
   2   0  -4    2.80    0.16 
   2   0  -4    3.03    0.21 
   2   0  -4    2.83    0.21 
  -2   0   4    2.94    0.35 
  -2   0   4    3.44    0.30 
   2   0  -4    2.74    0.17 
  -2   0   4    3.25    0.23 
  -1   0   4    2.61    0.28 
  -1   0   4    2.86    0.16 
   1   0  -4    3.39    0.22 
  -1   0   4    3.41    0.28 
   1   0  -4    3.36    0.23 
   1   0  -4    3.19    0.21 
   1   0  -4    3.71    0.23 
  -1   0   4    3.38    0.21 
  -1   0   4    3.43    0.21 
   1   0  -4    3.47    0.17 
  -1   0   4    3.37    0.25 
  -1   0   4    3.79    0.23 
  -1   0   4    3.08    0.32 
   0   0   4    0.89    0.21 
   0   0  -4    0.92    0.16 
   0   0  -4    0.89    0.17 
   0   0  -4    0.79    0.12 
   0   0  -4    0.83    0.17 
   0   0   4    0.72    0.12 
   0   0  -4    0.88    0.22 
   0   0   4    0.79    0.15 
   0   0   4    0.92    0.17 
   0   0   4    0.84    0.16 
   0   0  -4    1.07    0.21 
   1   0   4    1.04    0.17 
  -1   0  -4    1.10    0.19 
   1   0   4    0.98    0.16 
  -1   0  -4    0.92    0.13 
   1   0   4    0.99    0.13 
   1   0   4    0.91    0.17 
   1   0   4    0.95    0.13 
  -1   0  -4    1.11    0.25 
  -1   0  -4    0.87    0.19 
   2   0   4   36.31    1.29 
   2   0   4   38.89    1.38 
  -2   0  -4   35.81    1.21 
  -2   0  -4   38.08    1.85 
   2   0   4   37.47    1.10 
   2   0   4   34.34    1.24 
  -2   0  -4   35.73    1.13 
   2   0   4   36.47    1.13 
   2   0   4   39.62    1.45 
   3   0   4    9.38    0.35 
  -3   0  -4    9.16    0.34 
  -3   0  -4    9.45    0.55 
  -3   0  -4    8.60    0.43 
  -3   0  -4    9.53    0.35 
  -3   0  -4    9.67    0.41 
   3   0   4    9.44    0.35 
  -4   0  -4    5.58    0.47 
  -4   0  -4    4.60    0.24 
   4   0   4    5.08    0.25 
  -5   0  -4    2.09    0.36 
  -5   0  -4    2.01    0.11 
  -5   0  -4    2.06    0.36 
  -5   0  -4    2.26    0.42 
  -5   0  -4    2.09    0.13 
  -5   0  -4    2.20    0.17 
  -5   0  -4    1.73    0.13 
  -6   0  -4    2.00    0.11 
  -6   0  -4    2.02    0.29 
  -6   0  -4    1.84    0.32 
  -6   0  -4    2.25    0.11 
  -7  -1   4   12.26    0.53 
  -7  -1   4   12.70    0.40 
  -7  -1   4   13.10    0.41 
  -7  -1   4   14.48    0.64 
  -6  -1   4    4.75    0.15 
  -6  -1   4    4.87    0.19 
  -6  -1   4    4.85    0.39 
  -6  -1   4    5.07    0.20 
  -6  -1   4    5.06    0.31 
  -6  -1   4    4.99    0.16 
  -6  -1   4    4.94    0.35 
  -6   1   4    4.87    0.17 
  -6   1   4    4.73    0.17 
  -6   1   4    5.17    0.39 
  -6   1   4    4.90    0.17 
  -6   1   4    5.00    0.17 
  -6   1   4    4.90    0.30 
   5  -1  -4   32.20    0.97 
  -5  -1   4   32.04    1.02 
  -5   1   4   33.38    1.01 
  -5   1   4   32.39    1.32 
   5   1  -4   32.21    1.01 
  -4  -1   4    0.88    0.22 
  -4  -1   4    1.04    0.14 
  -4  -1   4    0.95    0.13 
  -4  -1   4    0.92    0.13 
  -4  -1   4    1.00    0.11 
   4  -1  -4    0.83    0.11 
  -4  -1   4    0.84    0.18 
  -4  -1   4    1.44    0.36 
  -4   1   4    1.35    0.25 
  -4   1   4    0.85    0.11 
  -4   1   4    0.98    0.34 
   4   1  -4    0.88    0.14 
   4   1  -4    1.29    0.15 
  -3  -1   4   16.17    0.85 
   3  -1  -4   15.34    0.49 
   3  -1  -4   15.91    0.52 
  -3  -1   4   15.27    0.95 
   3  -1  -4   15.58    0.66 
   3  -1  -4   15.97    0.63 
  -3  -1   4   15.86    0.57 
  -3  -1   4   14.86    0.52 
  -3  -1   4   16.53    0.75 
   3   1  -4   12.04    0.42 
  -3   1   4   11.87    0.63 
  -3   1   4   12.23    0.49 
   3   1  -4   12.49    0.52 
   3   1  -4   11.76    0.47 
  -3   1   4   11.82    0.40 
   3   1  -4   12.02    0.55 
   3   1  -4   11.57    0.41 
   2  -1  -4   19.47    0.58 
  -2  -1   4   19.19    1.03 
   2  -1  -4   19.31    0.78 
   2  -1  -4   17.59    0.60 
   2  -1  -4   18.47    0.68 
   2  -1  -4   18.48    0.74 
  -2  -1   4   19.54    0.94 
  -2  -1   4   19.03    1.08 
  -2   1   4   18.60    1.03 
   2   1  -4   16.86    0.58 
   2   1  -4   18.11    0.72 
  -2   1   4   17.34    0.96 
   2   1  -4   18.85    0.75 
   2   1  -4   17.78    0.57 
  -2   1   4   18.34    0.85 
   2   1  -4   18.18    0.67 
  -1  -1   4   62.13    1.99 
   1  -1  -4   59.65    2.03 
   1  -1  -4   56.83    2.31 
   1  -1  -4   57.87    1.98 
   1  -1  -4   63.53    2.21 
  -1  -1   4   64.33    2.83 
  -1  -1   4   63.27    2.30 
  -1  -1   4   60.71    1.58 
   1  -1  -4   60.26    1.57 
  -1   1   4   44.99    2.48 
   1   1  -4   51.36    1.30 
  -1   1   4   51.09    1.66 
  -1   1   4   49.80    1.64 
  -1   1   4   47.59    2.54 
   1   1  -4   48.81    1.91 
   1   1  -4   52.54    1.68 
  -1   1   4   54.57    2.32 
  -1   1   4   49.60    1.89 
   1   1  -4   48.35    1.65 
   0  -1   4    9.92    0.41 
   0  -1  -4   10.23    0.51 
   0  -1   4   10.16    0.43 
   0  -1   4   10.09    0.34 
   0  -1  -4   10.75    0.43 
   0  -1  -4    9.71    0.57 
   0  -1  -4   10.02    0.46 
   0  -1   4   10.47    0.46 
   0  -1  -4    9.67    0.33 
   0   1   4    8.74    0.45 
   0   1   4    9.66    0.32 
   0   1   4    9.44    0.41 
   0   1  -4   10.19    0.42 
   0   1  -4    9.23    0.31 
   0   1   4    9.62    0.54 
   0   1  -4    9.88    0.48 
   0   1  -4    9.84    0.54 
   1  -1   4   67.36    2.46 
   1  -1   4   65.27    2.04 
  -1  -1  -4   60.07    3.36 
   1  -1   4   71.36    1.97 
   1  -1   4   71.93    2.59 
   1  -1   4   67.65    2.22 
  -1  -1  -4   75.10    3.15 
   1   1   4   76.34    2.84 
   1   1   4   69.31    2.43 
  -1   1  -4   77.59    2.41 
   1   1   4   70.81    2.24 
  -1   1  -4   79.99    3.43 
  -1   1  -4   74.32    2.81 
   1   1   4   77.13    2.72 
  -2  -1  -4    6.80    0.30 
   2  -1   4    6.35    0.32 
   2  -1   4    6.15    0.26 
   2  -1   4    6.26    0.30 
   2  -1   4    6.60    0.26 
  -2  -1  -4    6.84    0.45 
  -2  -1  -4    6.52    0.24 
   2  -1   4    6.18    0.35 
   2   1   4    6.62    0.33 
   2   1   4    6.69    0.29 
  -2   1  -4    7.15    0.28 
   2   1   4    6.97    0.37 
  -2   1  -4    7.09    0.44 
   2   1   4    7.01    0.39 
  -2   1  -4    7.65    0.30 
   2   1   4    7.46    0.29 
   2   1   4    7.32    0.30 
  -3  -1  -4   31.38    1.25 
  -3  -1  -4   30.77    1.23 
  -3  -1  -4   33.49    1.06 
   3  -1   4   30.66    0.97 
  -3  -1  -4   32.28    1.41 
   3  -1   4   32.56    1.00 
  -3   1  -4   32.26    1.18 
  -3   1  -4   32.54    0.98 
   3   1   4   30.86    0.99 
  -3   1  -4   31.88    1.41 
   3   1   4   31.14    1.14 
   3   1   4   31.68    0.97 
  -3   1  -4   29.87    1.20 
   3   1   4   32.42    1.00 
  -4  -1  -4    4.60    0.25 
  -4  -1  -4    4.80    0.44 
  -4  -1  -4    4.44    0.24 
   4  -1   4    4.64    0.24 
  -4  -1  -4    4.13    0.24 
   4   1   4    3.72    0.24 
  -4   1  -4    4.13    0.22 
   4   1   4    4.32    0.25 
  -4   1  -4    4.11    0.48 
  -5  -1  -4    5.10    0.26 
  -5  -1  -4    4.68    0.39 
  -5  -1  -4    4.90    0.21 
  -5  -1  -4    5.72    0.51 
  -5  -1  -4    5.03    0.18 
  -5  -1  -4    4.98    0.42 
  -5   1  -4    5.48    0.25 
  -5   1  -4    5.52    0.21 
  -5   1  -4    5.59    0.21 
  -5   1  -4    5.91    0.42 
  -5   1  -4    5.67    0.17 
  -5   1  -4    5.66    0.55 
  -5   1  -4    5.61    0.21 
  -6  -1  -4    2.63    0.12 
  -6  -1  -4    2.67    0.10 
  -6  -1  -4    2.29    0.31 
  -6  -1  -4    2.91    0.13 
  -6   1  -4    2.39    0.29 
  -6   1  -4    2.69    0.12 
  -7  -2   4    1.47    0.07 
  -7  -2   4    1.36    0.23 
  -7  -2   4    1.37    0.07 
  -7  -2   4    1.44    0.09 
  -7  -2   4    1.38    0.24 
  -6  -2   4    9.43    0.32 
  -6  -2   4    9.10    0.52 
  -6  -2   4    9.53    0.27 
  -6  -2   4    9.71    0.26 
  -6  -2   4   10.16    0.45 
  -6  -2   4    8.73    0.51 
  -6   2   4    9.82    0.44 
  -6   2   4    9.79    0.32 
  -6   2   4   10.35    0.32 
  -5  -2   4    4.12    0.22 
   5  -2  -4    4.74    0.23 
  -5  -2   4    4.99    0.24 
   5  -2  -4    4.65    0.22 
  -5   2   4    4.97    0.29 
   5   2  -4    4.30    0.26 
   5   2  -4    4.22    0.26 
  -5   2   4    4.58    0.32 
  -5   2   4    4.86    0.22 
   4  -2  -4   15.45    0.50 
  -4  -2   4   14.98    0.65 
  -4  -2   4   15.53    0.56 
  -4  -2   4   14.56    0.61 
  -4  -2   4   14.99    0.61 
   4  -2  -4   16.19    0.55 
  -4  -2   4   14.41    0.80 
   4   2  -4   15.18    0.53 
   4   2  -4   14.73    0.60 
   4   2  -4   15.02    0.53 
   4   2  -4   14.75    0.53 
  -4   2   4   14.63    0.67 
  -4   2   4   15.40    0.50 
  -3  -2   4   12.55    0.82 
  -3  -2   4   13.37    0.67 
   3  -2  -4   12.06    0.54 
   3  -2  -4   12.84    0.42 
   3  -2  -4   12.68    0.46 
  -3  -2   4   12.71    0.50 
   3  -2  -4   12.69    0.58 
   3  -2  -4   12.36    0.44 
  -3  -2   4   12.86    0.77 
  -3   2   4   11.81    0.40 
   3   2  -4   12.15    0.44 
   3   2  -4   12.17    0.43 
   3   2  -4   11.19    0.56 
   3   2  -4   11.69    0.48 
  -3   2   4   11.90    0.49 
   3   2  -4   11.15    0.53 
   3   2  -4   11.99    0.43 
  -2  -2   4   38.32    1.27 
  -2  -2   4   39.61    1.80 
   2  -2  -4   36.56    1.47 
   2  -2  -4   36.43    1.16 
   2  -2  -4   36.98    1.11 
   2  -2  -4   35.02    1.40 
   2  -2  -4   37.49    1.24 
  -2  -2   4   36.95    1.06 
  -2  -2   4   40.72    2.01 
   2   2  -4   30.23    0.93 
  -2   2   4   27.70    1.36 
   2   2  -4   30.83    1.07 
   2   2  -4   31.32    1.20 
  -2   2   4   29.92    0.82 
  -2   2   4   28.45    1.53 
  -1  -2   4   52.26    1.70 
  -1  -2   4   53.65    2.40 
   1  -2  -4   49.07    1.95 
   1  -2  -4   50.08    1.54 
   1  -2  -4   48.11    1.68 
   1   2  -4   51.31    1.70 
   1   2  -4   49.97    1.55 
   1   2  -4   52.09    1.96 
  -1   2   4   50.90    2.38 
  -1   2   4   50.25    1.95 
   0  -2  -4    7.31    0.48 
   0  -2   4    6.71    0.36 
   0  -2   4    7.49    0.38 
   0  -2  -4    7.49    0.36 
   0   2   4    9.67    0.43 
   0   2  -4    9.80    0.44 
   0   2   4    9.95    0.58 
   0   2  -4   10.48    0.57 
   0   2  -4    9.94    0.51 
   1  -2   4   35.92    1.37 
  -1  -2  -4   36.40    1.03 
   1  -2   4   37.58    1.44 
  -1  -2  -4   36.34    1.75 
  -1   2  -4   38.13    1.76 
  -1   2  -4   37.47    1.04 
   1   2   4   38.63    1.50 
  -1   2  -4   37.43    1.58 
   1   2   4   36.59    1.33 
   1   2   4   37.63    1.17 
  -2  -2  -4   21.82    0.77 
  -2  -2  -4   24.17    0.83 
   2  -2   4   23.79    0.74 
   2  -2   4   22.96    0.76 
  -2  -2  -4   23.68    1.27 
   2  -2   4   24.00    0.92 
  -2  -2  -4   23.66    0.75 
  -2  -2  -4   22.78    1.13 
  -2  -2  -4   23.23    0.68 
   2  -2   4   24.49    0.97 
   2   2   4   27.28    1.11 
   2   2   4   27.04    0.86 
   2   2   4   26.62    0.98 
  -2   2  -4   26.59    0.86 
  -2   2  -4   24.56    1.18 
  -3  -2  -4    3.72    0.29 
   3  -2   4    4.00    0.22 
   3  -2   4    4.12    0.22 
  -3  -2  -4    4.15    0.34 
  -3  -2  -4    4.10    0.33 
  -3  -2  -4    4.20    0.26 
  -3  -2  -4    4.41    0.26 
  -3  -2  -4    4.39    0.41 
   3   2   4    3.80    0.28 
  -3   2  -4    3.70    0.26 
  -3   2  -4    3.40    0.21 
  -3   2  -4    3.22    0.21 
   3   2   4    3.77    0.25 
   3   2   4    3.45    0.24 
  -3   2  -4    3.33    0.34 
  -3   2  -4    3.18    0.19 
  -4  -2  -4   33.54    1.20 
   4  -2   4   29.20    1.01 
  -4  -2  -4   33.50    1.25 
  -4  -2  -4   33.39    1.51 
  -4  -2  -4   32.95    1.28 
   4   2   4   30.74    1.14 
   4   2   4   31.65    1.00 
  -4   2  -4   29.05    0.96 
  -5  -2  -4    1.03    0.12 
  -5  -2  -4    0.59    0.25 
  -5  -2  -4    1.17    0.41 
  -5  -2  -4    1.05    0.15 
  -5   2  -4    0.82    0.08 
  -5   2  -4    0.98    0.10 
  -5   2  -4    0.83    0.11 
  -5   2  -4    0.92    0.09 
  -5   2  -4    1.09    0.21 
  -5   2  -4    1.09    0.30 
  -6  -2  -4    3.75    0.12 
  -6  -2  -4    3.44    0.11 
  -6  -2  -4    3.68    0.17 
  -6  -2  -4    3.38    0.33 
  -6  -2  -4    3.77    0.15 
  -6   2  -4    4.29    0.29 
  -6   2  -4    4.29    0.16 
  -7  -3   4    3.58    0.23 
  -7  -3   4    3.27    0.10 
  -7  -3   4    3.36    0.27 
  -7  -3   4    3.30    0.13 
  -7  -3   4    3.48    0.14 
  -6  -3   4    0.77    0.10 
  -6  -3   4    0.63    0.23 
  -6  -3   4    0.77    0.10 
  -6  -3   4    0.80    0.12 
  -6  -3   4    0.67    0.19 
  -6   3   4    0.65    0.08 
  -6   3   4    0.89    0.24 
  -6   3   4    0.87    0.07 
  -5  -3   4   20.14    0.84 
  -5  -3   4   18.83    0.77 
  -5  -3   4   19.80    0.55 
  -5  -3   4   20.41    0.91 
  -5  -3   4   20.55    0.75 
  -5  -3   4   20.40    0.81 
  -5  -3   4   19.88    0.64 
  -5  -3   4   21.17    0.77 
  -5  -3   4   20.65    0.52 
  -5   3   4   23.37    0.81 
  -5   3   4   22.93    0.72 
  -5   3   4   22.67    0.96 
  -5   3   4   22.43    0.56 
   5   3  -4   21.68    0.88 
  -5   3   4   22.94    0.90 
  -5   3   4   22.51    0.74 
  -5   3   4   23.60    0.72 
  -5   3   4   22.65    0.59 
  -4  -3   4    6.43    0.37 
   4  -3  -4    6.62    0.29 
   4  -3  -4    6.53    0.30 
   4  -3  -4    6.43    0.29 
  -4  -3   4    6.66    0.39 
  -4  -3   4    6.53    0.34 
   4   3  -4    6.30    0.31 
   4   3  -4    5.95    0.35 
  -4   3   4    5.66    0.26 
   4   3  -4    6.17    0.32 
  -3  -3   4   29.41    1.69 
  -3  -3   4   32.43    1.10 
   3  -3  -4   32.28    0.96 
  -3  -3   4   27.99    1.48 
  -3  -3   4   32.95    0.90 
  -3  -3   4   30.70    1.23 
  -3  -3   4   31.98    1.13 
   3  -3  -4   30.99    1.06 
   3  -3  -4   33.39    1.00 
  -3   3   4   25.62    1.03 
   3   3  -4   26.61    0.98 
   3   3  -4   27.17    0.87 
  -3   3   4   26.22    1.02 
   3   3  -4   26.13    0.86 
  -2  -3   4   12.57    0.44 
   2  -3  -4   12.38    0.59 
  -2  -3   4   13.48    0.84 
  -2  -3   4   12.34    0.73 
   2  -3  -4   12.52    0.45 
   2  -3  -4   12.05    0.47 
  -2  -3   4   12.60    0.50 
   2  -3  -4   12.72    0.46 
  -2  -3   4   12.00    0.50 
   2   3  -4   11.91    0.48 
   2   3  -4   11.62    0.46 
   2   3  -4   11.52    0.43 
   2   3  -4   11.04    0.56 
  -2   3   4    9.47    0.67 
  -2   3   4   11.14    0.37 
   2   3  -4   11.44    0.42 
   1  -3  -4   29.15    0.93 
  -1  -3   4   30.01    0.99 
   1  -3  -4   29.85    0.91 
   1  -3  -4   24.84    1.17 
  -1  -3   4   30.53    0.86 
  -1  -3   4   29.14    0.93 
   1   3  -4   27.06    0.97 
   1   3  -4   26.50    0.90 
  -1   3   4   26.68    0.89 
  -1   3   4   25.96    0.91 
  -1   3   4   26.74    0.77 
  -1   3   4   27.07    1.31 
   1   3  -4   26.37    0.85 
   1   3  -4   25.53    0.78 
   0  -3  -4   26.62    0.85 
   0  -3   4   26.33    1.09 
   0  -3  -4   25.94    0.83 
   0  -3  -4   26.69    0.90 
   0  -3   4   27.28    0.87 
   0  -3  -4   26.32    0.79 
   0   3  -4   25.97    0.75 
   0   3   4   26.73    1.31 
   0   3   4   25.95    0.88 
   0   3  -4   25.59    0.90 
   0   3   4   24.72    0.75 
   0   3  -4   25.43    0.87 
   0   3  -4   26.02    1.29 
   1  -3   4   20.83    0.69 
  -1  -3  -4   20.46    0.72 
  -1  -3  -4   21.04    0.75 
  -1  -3  -4   20.24    0.68 
  -1  -3  -4   20.75    0.63 
   1  -3   4   19.43    0.87 
  -1  -3  -4   20.45    1.07 
   1   3   4   22.05    0.77 
  -1   3  -4   21.39    0.72 
   1   3   4   23.26    0.84 
  -1   3  -4   19.56    1.05 
  -1   3  -4   22.12    0.63 
   1   3   4   22.25    0.73 
  -2  -3  -4    4.29    0.26 
  -2  -3  -4    4.41    0.24 
   2  -3   4    4.67    0.24 
  -2  -3  -4    4.57    0.37 
  -2  -3  -4    4.39    0.40 
  -2  -3  -4    3.97    0.34 
  -2  -3  -4    5.09    0.29 
  -2  -3  -4    4.58    0.22 
  -2  -3  -4    4.46    0.27 
   2  -3   4    4.19    0.26 
   2   3   4    4.63    0.27 
  -2   3  -4    4.28    0.29 
  -2   3  -4    3.93    0.31 
  -2   3  -4    4.42    0.32 
   2   3   4    4.52    0.31 
  -3  -3  -4   13.54    0.62 
   3  -3   4   13.39    0.49 
  -3  -3  -4   13.82    0.78 
  -3  -3  -4   13.85    0.56 
  -3  -3  -4   14.46    0.53 
   3  -3   4   13.32    0.50 
  -3  -3  -4   13.93    0.66 
  -3   3  -4   13.27    0.48 
  -3   3  -4   12.11    0.57 
  -3   3  -4   13.45    0.53 
   3   3   4   13.47    0.60 
   3   3   4   13.04    0.52 
  -3   3  -4   13.31    0.55 
  -4  -3  -4    6.49    0.32 
  -4  -3  -4    6.92    0.38 
  -4  -3  -4    7.08    0.51 
  -4  -3  -4    7.12    0.31 
  -4  -3  -4    7.12    0.45 
  -4  -3  -4    6.94    0.59 
  -4   3  -4    4.54    0.37 
   4   3   4    5.75    0.37 
   4   3   4    6.18    0.34 
  -4   3  -4    5.95    0.27 
   4   3   4    6.23    0.34 
  -5  -3  -4    7.45    0.29 
  -5  -3  -4    7.44    0.25 
  -5  -3  -4    7.43    0.49 
  -5  -3  -4    7.59    0.24 
  -5   3  -4    5.94    0.21 
  -5   3  -4    6.23    0.30 
  -5   3  -4    6.24    0.29 
  -5   3  -4    5.44    0.17 
  -5   3  -4    6.04    0.22 
  -6  -3  -4    1.51    0.28 
  -6  -3  -4    1.33    0.08 
  -6  -3  -4    1.32    0.09 
  -6  -3  -4    1.28    0.07 
  -6   3  -4    1.71    0.08 
  -6  -4   4    5.48    0.38 
  -6  -4   4    5.24    0.17 
  -6  -4   4    5.10    0.29 
  -6  -4   4    5.14    0.17 
  -6  -4   4    4.96    0.21 
  -6   4   4    5.85    0.20 
  -6   4   4    6.19    0.21 
  -5  -4   4    6.52    0.27 
  -5  -4   4    6.82    0.39 
  -5  -4   4    6.65    0.42 
  -5  -4   4    6.31    0.33 
  -5  -4   4    6.25    0.22 
  -5  -4   4    6.92    0.35 
  -5  -4   4    6.62    0.32 
  -5   4   4    6.07    0.24 
  -5   4   4    6.16    0.19 
  -5   4   4    6.09    0.18 
  -5   4   4    6.24    0.39 
  -5   4   4    6.11    0.37 
  -4  -4   4   24.84    1.02 
  -4  -4   4   24.22    0.89 
  -4  -4   4   24.57    0.97 
   4  -4  -4   22.97    0.80 
   4  -4  -4   23.76    0.86 
  -4  -4   4   23.15    0.86 
   4   4  -4   24.22    0.93 
  -4   4   4   23.27    0.92 
   4   4  -4   22.97    0.82 
   4   4  -4   23.03    0.81 
  -3  -4   4   -0.01    0.12 
   3  -4  -4    0.05    0.15 
   3  -4  -4   -0.03    0.09 
  -3  -4   4    0.16    0.27 
   3  -4  -4   -0.01    0.12 
  -3  -4   4    0.11    0.15 
  -3  -4   4    0.16    0.17 
   3  -4  -4    0.18    0.20 
   3   4  -4   -0.05    0.22 
   3   4  -4    0.20    0.18 
   3   4  -4    0.05    0.13 
  -3   4   4    0.09    0.14 
  -2  -4   4   11.10    0.43 
   2  -4  -4   10.78    0.43 
   2  -4  -4   10.88    0.43 
   2  -4  -4   10.53    0.54 
  -2  -4   4   10.37    0.47 
  -2  -4   4   10.86    0.49 
  -2  -4   4   10.62    0.51 
   2   4  -4    8.47    0.41 
   2   4  -4    8.31    0.40 
   2   4  -4    8.20    0.37 
  -2   4   4    7.21    0.56 
  -2   4   4    8.26    0.44 
   1  -4  -4    0.66    0.17 
  -1  -4   4    0.46    0.15 
  -1  -4   4    0.44    0.14 
   1  -4  -4    0.77    0.21 
   1  -4  -4    0.73    0.19 
  -1  -4   4    0.76    0.20 
  -1   4   4    0.36    0.14 
   1   4  -4    0.50    0.12 
  -1   4   4    0.77    0.19 
  -1   4   4    0.67    0.18 
   1   4  -4    0.61    0.16 
  -1   4   4    0.69    0.19 
  -1   4   4    0.40    0.19 
   0  -4   4    5.90    0.35 
   0  -4  -4    5.61    0.33 
   0  -4  -4    5.38    0.29 
   0  -4  -4    5.71    0.30 
   0  -4   4    5.15    0.31 
   0   4   4    4.51    0.29 
   0   4  -4    4.32    0.37 
   0   4  -4    4.38    0.27 
   0   4  -4    4.27    0.34 
   0   4   4    4.23    0.25 
   0   4   4    4.34    0.39 
   0   4  -4    4.58    0.27 
   0   4  -4    4.85    0.25 
  -1  -4  -4    9.24    0.50 
  -1  -4  -4   10.76    0.44 
   1  -4   4   10.55    0.45 
  -1  -4  -4   10.99    0.47 
  -1  -4  -4   11.35    0.42 
  -1   4  -4   10.57    0.52 
  -1   4  -4   10.76    0.37 
   1   4   4   11.33    0.48 
  -2  -4  -4   10.48    0.40 
  -2  -4  -4   10.01    0.58 
  -2  -4  -4   10.89    0.42 
  -2  -4  -4   10.60    0.68 
   2  -4   4   10.38    0.45 
  -2  -4  -4   10.43    0.45 
  -2  -4  -4   10.51    0.45 
  -2   4  -4   10.12    0.48 
   2   4   4   10.03    0.44 
   2   4   4    9.23    0.49 
  -2   4  -4    9.86    0.50 
  -3  -4  -4    7.58    0.38 
  -3  -4  -4    6.93    0.39 
  -3  -4  -4    6.66    0.54 
  -3  -4  -4    6.71    0.60 
  -3  -4  -4    7.23    0.50 
  -3   4  -4    6.02    0.29 
  -3   4  -4    5.92    0.31 
  -3   4  -4    5.21    0.35 
   3   4   4    5.13    0.38 
   3   4   4    6.08    0.35 
  -4  -4  -4    5.61    0.42 
  -4  -4  -4    5.42    0.32 
  -4  -4  -4    5.50    0.27 
  -4  -4  -4    5.20    0.46 
  -4  -4  -4    5.28    0.35 
  -4  -4  -4    5.14    0.55 
  -4   4  -4    4.01    0.15 
   4   4   4    3.88    0.30 
  -4   4  -4    3.82    0.32 
  -4   4  -4    3.92    0.18 
  -4   4  -4    3.79    0.15 
  -5  -4  -4    1.17    0.13 
  -5  -4  -4    1.14    0.15 
  -5  -4  -4    1.41    0.28 
  -5  -4  -4    1.47    0.13 
  -5   4  -4    1.37    0.10 
  -5   4  -4    1.31    0.08 
  -6  -5   4    0.76    0.20 
  -6  -5   4    0.49    0.07 
  -6  -5   4    0.39    0.09 
  -6  -5   4    0.49    0.08 
   6   5  -4    0.48    0.10 
  -6   5   4    0.35    0.06 
  -5  -5   4    3.76    0.25 
  -5  -5   4    3.85    0.23 
  -5  -5   4    3.91    0.20 
  -5  -5   4    3.43    0.24 
  -5  -5   4    4.44    0.31 
  -5   5   4    3.51    0.16 
   5   5  -4    3.53    0.19 
  -5   5   4    3.51    0.13 
  -5   5   4    3.59    0.12 
  -5   5   4    3.44    0.26 
  -4  -5   4    4.64    0.28 
  -4  -5   4    4.83    0.37 
  -4  -5   4    4.15    0.35 
  -4  -5   4    4.09    0.21 
  -4  -5   4    3.71    0.32 
  -4  -5   4    4.08    0.18 
  -4  -5   4    4.18    0.16 
  -4  -5   4    4.52    0.23 
  -4   5   4    4.12    0.31 
   4   5  -4    3.83    0.22 
  -4   5   4    4.09    0.17 
  -4   5   4    4.08    0.20 
  -4   5   4    4.09    0.16 
   4   5  -4    4.16    0.31 
  -3  -5   4   12.09    0.63 
   3  -5  -4   12.70    0.50 
   3  -5  -4   11.89    0.62 
  -3  -5   4   11.70    0.39 
  -3  -5   4   12.36    0.45 
  -3   5   4   11.53    0.54 
   3   5  -4   11.17    0.55 
   3   5  -4   11.72    0.50 
   3   5  -4   11.92    0.56 
  -3   5   4   11.66    0.54 
  -3   5   4   11.71    0.57 
   2  -5  -4    0.63    0.16 
   2  -5  -4    0.95    0.24 
  -2  -5   4    0.66    0.30 
  -2  -5   4    0.84    0.20 
  -2  -5   4    1.06    0.18 
  -2  -5   4    0.42    0.19 
   2  -5  -4    0.85    0.21 
   2   5  -4    0.66    0.17 
  -2   5   4    0.73    0.22 
   2   5  -4    0.60    0.18 
  -1  -5   4    7.45    0.39 
   1  -5  -4    7.71    0.37 
   1  -5  -4    8.66    0.49 
   1  -5  -4    7.53    0.38 
  -1  -5   4    7.88    0.45 
  -1   5   4    6.67    0.31 
  -1   5   4    6.15    0.29 
  -1   5   4    6.32    0.41 
  -1   5   4    5.81    0.36 
   1   5  -4    6.74    0.33 
   1   5  -4    6.26    0.36 
   0  -5  -4    1.87    0.36 
   0  -5   4    1.60    0.28 
   0  -5   4    2.02    0.27 
   0  -5  -4    1.46    0.28 
   0  -5  -4    1.62    0.27 
   0  -5  -4    1.95    0.25 
   0   5   4    1.78    0.24 
   0   5  -4    1.74    0.22 
   0   5  -4    2.15    0.24 
   0   5  -4    1.60    0.21 
   0   5   4    1.90    0.27 
   0   5   4    1.85    0.26 
   1  -5   4   16.56    0.64 
  -1  -5  -4   15.92    0.65 
  -1  -5  -4   16.09    0.63 
  -1  -5  -4   16.28    0.57 
  -1  -5  -4   16.23    0.66 
  -1   5  -4   18.62    0.83 
   1   5   4   17.71    0.62 
   1   5   4   19.25    0.73 
  -2  -5  -4   10.69    0.50 
  -2  -5  -4   11.38    0.43 
  -2  -5  -4   11.08    0.75 
  -2  -5  -4   11.36    0.44 
  -2  -5  -4   11.36    0.67 
   2  -5   4   11.95    0.51 
  -2  -5  -4   11.86    0.52 
  -2   5  -4   10.85    0.54 
  -2   5  -4   11.89    0.58 
   2   5   4   12.32    0.54 
  -3  -5  -4    2.54    0.48 
  -3  -5  -4    2.15    0.28 
  -3  -5  -4    2.07    0.10 
  -3  -5  -4    2.38    0.16 
  -3  -5  -4    2.59    0.37 
  -3  -5  -4    1.72    0.26 
  -3  -5  -4    2.27    0.21 
  -3  -5  -4    1.82    0.40 
   3   5   4    1.74    0.20 
  -3   5  -4    1.48    0.15 
  -3   5  -4    2.00    0.13 
  -3   5  -4    1.47    0.19 
  -3   5  -4    1.44    0.22 
  -3   5  -4    1.76    0.13 
   3   5   4    1.68    0.26 
  -3   5  -4    1.79    0.17 
  -3   5  -4    1.69    0.23 
  -3   5  -4    2.01    0.34 
  -3   5  -4    1.96    0.14 
  -4  -5  -4    0.14    0.12 
  -4  -5  -4    0.09    0.18 
  -4  -5  -4    0.16    0.22 
  -4  -5  -4    0.01    0.09 
  -4  -5  -4    0.06    0.09 
  -4   5  -4   -0.18    0.18 
  -4   5  -4    0.16    0.19 
  -4   5  -4   -0.02    0.05 
   4   5   4    0.10    0.09 
  -4   5  -4    0.02    0.06 
  -4   5  -4    0.06    0.06 
  -5  -5  -4    5.08    0.17 
  -5  -5  -4    4.94    0.16 
  -5  -5  -4    5.24    0.20 
   5   5   4    4.46    0.18 
  -5   5  -4    4.89    0.15 
  -5   5  -4    4.59    0.16 
  -5   5  -4    4.20    0.15 
  -5  -6   4    1.11    0.21 
  -5  -6   4    1.05    0.11 
  -5  -6   4    1.16    0.13 
  -5   6   4    1.06    0.17 
  -5   6   4    1.07    0.07 
  -5   6   4    1.01    0.08 
   5   6  -4    1.10    0.11 
  -5   6   4    1.15    0.08 
  -5   6   4    1.07    0.06 
  -4  -6   4    0.99    0.18 
  -4  -6   4    1.07    0.10 
  -4  -6   4    1.01    0.08 
  -4  -6   4    1.06    0.24 
  -4  -6   4    1.01    0.12 
  -4   6   4    1.46    0.10 
   4   6  -4    1.37    0.14 
  -4   6   4    1.43    0.11 
  -4   6   4    1.39    0.14 
  -4   6   4    1.00    0.21 
  -3  -6   4    0.92    0.13 
  -3  -6   4    1.04    0.21 
   3  -6  -4    1.15    0.34 
  -3  -6   4    1.09    0.13 
  -3  -6   4    1.24    0.15 
  -3  -6   4    1.04    0.12 
  -3  -6   4    1.21    0.10 
  -3   6   4    1.08    0.17 
  -3   6   4    1.10    0.19 
  -3   6   4    1.02    0.24 
   3   6  -4    1.16    0.15 
  -3   6   4    1.36    0.24 
  -2  -6   4    2.03    0.27 
   2  -6  -4    1.46    0.27 
  -2  -6   4    2.16    0.19 
  -2  -6   4    1.91    0.14 
  -2  -6   4    2.00    0.10 
   2  -6  -4    2.10    0.19 
   2  -6  -4    2.09    0.37 
  -2  -6   4    1.57    0.30 
  -2  -6   4    2.06    0.16 
  -2  -6   4    1.26    0.25 
   2   6  -4    1.15    0.28 
  -2   6   4    1.91    0.21 
  -2   6   4    1.71    0.15 
  -2   6   4    1.66    0.28 
  -2   6   4    1.61    0.33 
  -2   6   4    1.98    0.12 
  -2   6   4    1.82    0.18 
   2   6  -4    1.46    0.19 
  -2   6   4    1.72    0.25 
  -2   6   4    1.90    0.19 
  -1  -6   4    1.66    0.26 
  -1  -6   4    2.26    0.31 
  -1  -6   4    2.43    0.17 
   1  -6  -4    1.96    0.38 
  -1  -6   4    1.39    0.29 
   1  -6  -4    1.56    0.33 
   1  -6  -4    1.83    0.27 
   1  -6  -4    2.31    0.19 
  -1   6   4    2.63    0.16 
   1   6  -4    2.47    0.27 
  -1   6   4    2.48    0.20 
   1   6  -4    2.49    0.20 
  -1   6   4    2.44    0.22 
  -1   6   4    2.48    0.13 
   1   6  -4    1.97    0.18 
  -1   6   4    2.66    0.16 
  -1   6   4    2.57    0.21 
  -1   6   4    2.17    0.34 
   1   6  -4    2.00    0.13 
   1   6  -4    2.02    0.17 
   1   6  -4    2.03    0.20 
   1   6  -4    2.35    0.28 
  -1   6   4    2.49    0.29 
  -1   6   4    2.60    0.28 
   1   6  -4    1.79    0.25 
   0  -6   4   16.22    0.50 
   0  -6  -4   15.58    0.54 
   0  -6  -4   15.37    0.50 
   0  -6  -4   16.65    0.67 
   0  -6   4   14.86    0.67 
   0  -6   4   14.26    0.62 
   0  -6  -4   16.34    0.72 
   0   6  -4   13.62    0.46 
   0   6  -4   13.69    0.49 
   0   6   4   13.41    0.50 
   0   6   4   13.46    0.57 
   0   6   4   13.54    0.59 
   0   6   4   14.25    0.55 
   0   6   4   13.86    0.47 
   0   6   4   12.89    0.37 
   0   6  -4   13.81    0.48 
   0   6   4   13.59    0.48 
   0   6   4   13.29    0.52 
   0   6   4   13.40    0.53 
   0   6  -4   14.03    0.46 
   0   6  -4   13.97    0.50 
  -1  -6  -4    4.86    0.35 
  -1  -6  -4    5.23    0.27 
   1  -6   4    4.61    0.35 
  -1  -6  -4    4.74    0.19 
   1  -6   4    5.04    0.22 
  -1  -6  -4    5.05    0.34 
  -1   6  -4    4.48    0.39 
  -1   6  -4    4.34    0.23 
  -1   6  -4    4.86    0.21 
   1   6   4    4.79    0.34 
  -1   6  -4    4.87    0.23 
  -1   6  -4    4.71    0.27 
  -1   6  -4    4.56    0.26 
  -1   6  -4    4.61    0.15 
  -1   6  -4    5.17    0.30 
   1   6   4    4.78    0.28 
  -1   6  -4    5.64    0.40 
  -1   6  -4    4.85    0.19 
   2  -6   4    6.76    0.26 
  -2  -6  -4    6.69    0.31 
  -2  -6  -4    6.68    0.27 
  -2   6  -4    7.08    0.44 
  -2   6  -4    6.50    0.28 
  -2   6  -4    7.00    0.31 
  -2   6  -4    6.76    0.41 
  -2   6  -4    7.10    0.30 
   2   6   4    6.74    0.31 
  -2   6  -4    6.84    0.28 
  -2   6  -4    6.52    0.21 
   2   6   4    6.58    0.27 
  -2   6  -4    6.51    0.33 
  -2   6  -4    6.29    0.37 
  -2   6  -4    7.08    0.27 
  -3  -6  -4    0.29    0.12 
  -3  -6  -4    0.36    0.07 
  -3  -6  -4    0.60    0.14 
  -3   6  -4    0.36    0.08 
  -3   6  -4    0.45    0.07 
  -3   6  -4    0.32    0.19 
  -3   6  -4    0.16    0.07 
  -3   6  -4    0.28    0.09 
  -3   6  -4    0.32    0.06 
  -3   6  -4    0.55    0.15 
   3   6   4    0.20    0.09 
  -4  -6  -4    5.47    0.21 
  -4  -6  -4    4.96    0.25 
  -4   6  -4    6.22    0.17 
  -4   6  -4    5.99    0.18 
  -4   6  -4    6.59    0.34 
   4   6   4    5.95    0.22 
  -4   6  -4    5.88    0.21 
  -4   7   4    1.92    0.10 
  -4   7   4    1.84    0.16 
  -4   7   4    2.21    0.09 
   3  -7  -4    1.69    0.13 
  -3  -7   4    1.47    0.10 
  -3  -7   4    1.45    0.12 
  -3  -7   4    1.57    0.07 
  -3   7   4    1.63    0.14 
   3   7  -4    1.40    0.09 
  -3   7   4    1.52    0.15 
  -3   7   4    1.52    0.14 
   3   7  -4    1.61    0.15 
  -3   7   4    1.50    0.14 
  -3   7   4    1.26    0.19 
  -2  -7   4    3.88    0.18 
   2  -7  -4    4.35    0.20 
  -2  -7   4    3.73    0.20 
   2   7  -4    3.77    0.13 
  -2   7   4    3.63    0.14 
  -2   7   4    3.94    0.20 
   2   7  -4    3.88    0.19 
   2   7  -4    3.80    0.19 
  -2   7   4    3.93    0.25 
  -2   7   4    3.92    0.21 
  -2   7   4    3.67    0.19 
  -2   7   4    3.53    0.26 
  -1  -7   4    1.83    0.10 
  -1  -7   4    1.65    0.15 
   1  -7  -4    1.63    0.30 
   1  -7  -4    1.75    0.15 
   1   7  -4    1.66    0.16 
  -1   7   4    1.86    0.22 
  -1   7   4    1.68    0.16 
   1   7  -4    1.88    0.16 
  -1   7   4    1.80    0.23 
  -1   7   4    1.92    0.07 
  -1   7   4    1.95    0.15 
  -1   7   4    1.94    0.18 
  -1   7   4    1.87    0.12 
   0  -7   4    1.55    0.13 
   0  -7   4    1.36    0.17 
   0  -7  -4    1.38    0.16 
   0  -7   4    1.83    0.24 
   0   7   4    1.35    0.14 
   0   7  -4    1.35    0.10 
   0   7  -4    1.43    0.12 
   0   7  -4    1.47    0.14 
   0   7  -4    1.31    0.09 
   0   7   4    1.32    0.15 
   0   7   4    1.28    0.11 
   0   7  -4    1.31    0.15 
   0   7   4    1.46    0.17 
   0   7  -4    1.36    0.31 
   0   7   4    1.38    0.13 
   0   7  -4    1.56    0.22 
   0   7   4    1.14    0.16 
   0   7  -4    1.47    0.17 
   1  -7   4    4.17    0.18 
  -1  -7  -4    4.03    0.20 
  -1   7  -4    2.90    0.14 
  -1   7  -4    3.26    0.23 
  -1   7  -4    3.24    0.30 
  -1   7  -4    3.00    0.17 
  -1   7  -4    2.87    0.11 
   1   7   4    3.21    0.20 
  -1   7  -4    3.07    0.17 
  -1   7  -4    3.01    0.20 
  -1   7  -4    3.27    0.21 
  -2  -7  -4    0.06    0.08 
   2  -7   4    0.06    0.06 
  -2  -7  -4   -0.02    0.06 
  -2  -7  -4    0.00    0.05 
  -2  -7  -4    0.02    0.06 
  -2  -7  -4    0.11    0.13 
  -2  -7  -4    0.08    0.06 
   2   7   4   -0.01    0.06 
  -2   7  -4    0.23    0.16 
  -2   7  -4    0.04    0.07 
  -2   7  -4    0.04    0.08 
  -2   7  -4    0.10    0.11 
  -2   7  -4   -0.01    0.06 
   2   7   4    0.01    0.09 
  -2   7  -4    0.04    0.08 
   2   7   4    0.05    0.08 
  -3  -7  -4    4.50    0.18 
  -3  -7  -4    4.56    0.15 
   3   7   4    5.05    0.15 
   3   7   4    5.19    0.23 
  -3   7  -4    4.85    0.18 
   0  -8   4    7.39    0.20 
  -7   0   5   12.97    0.41 
  -7   0   5   12.81    0.49 
  -7   0   5   13.12    0.62 
  -6   0   5    0.61    0.13 
  -6   0   5    0.83    0.21 
  -6   0   5    0.78    0.07 
  -6   0   5    0.72    0.07 
  -6   0   5    0.63    0.09 
  -6   0   5    0.60    0.21 
  -6   0   5    0.81    0.08 
  -6   0   5    0.92    0.30 
  -6   0   5    0.72    0.08 
   5   0  -5    0.29    0.10 
  -5   0   5    0.16    0.09 
  -5   0   5    0.23    0.15 
  -5   0   5    0.38    0.30 
   4   0  -5    7.95    0.32 
  -4   0   5    7.67    0.38 
  -4   0   5    7.47    0.34 
  -4   0   5    8.18    0.53 
  -4   0   5    8.15    0.65 
  -4   0   5    8.01    0.41 
  -4   0   5    7.98    0.32 
  -4   0   5    8.07    0.36 
   4   0  -5    8.10    0.31 
   3   0  -5    0.75    0.16 
   3   0  -5    0.71    0.15 
   3   0  -5    0.76    0.17 
  -3   0   5    0.65    0.24 
   3   0  -5    0.73    0.13 
   3   0  -5    0.60    0.15 
  -3   0   5    0.89    0.13 
   3   0  -5    0.85    0.14 
   2   0  -5   70.81    2.17 
  -2   0   5   76.42    3.58 
   2   0  -5   71.02    2.36 
   2   0  -5   72.93    2.75 
   2   0  -5   65.97    2.62 
  -2   0   5   72.64    3.32 
   2   0  -5   71.36    2.47 
  -2   0   5   70.78    1.96 
   2   0  -5   74.10    2.08 
  -2   0   5   77.76    3.70 
  -1   0   5   24.43    0.99 
  -1   0   5   24.60    1.31 
   1   0  -5   21.45    0.97 
  -1   0   5   23.82    0.87 
   1   0  -5   22.53    0.76 
   1   0  -5   25.49    0.69 
   1   0  -5   24.99    0.87 
  -1   0   5   25.69    1.20 
   0   0   5   17.35    0.73 
   0   0   5   15.02    0.95 
   0   0   5   19.43    0.67 
   0   0  -5   19.01    0.91 
   0   0  -5   16.39    0.66 
  -1   0  -5   20.93    0.60 
   1   0   5   20.77    0.86 
  -1   0  -5   21.49    0.73 
   1   0   5   19.85    0.67 
  -1   0  -5   20.81    1.13 
   1   0   5   20.01    0.76 
   2   0   5  120.51    3.45 
  -2   0  -5  121.43    3.70 
  -2   0  -5  112.98    3.32 
   2   0   5  117.71    4.37 
   2   0   5  115.77    3.94 
   2   0   5  117.69    3.33 
   2   0   5  113.90    4.17 
   2   0   5  113.10    3.41 
  -2   0  -5  111.79    5.63 
  -3   0  -5   22.99    0.79 
   3   0   5   22.42    0.75 
  -3   0  -5   22.95    0.89 
  -3   0  -5   23.17    1.08 
   3   0   5   24.76    0.77 
   3   0   5   23.56    0.87 
  -3   0  -5   23.77    0.92 
  -3   0  -5   22.12    0.93 
   4   0   5    2.03    0.20 
  -4   0  -5    2.13    0.38 
   4   0   5    1.89    0.20 
  -4   0  -5    1.95    0.19 
  -5   0  -5    2.70    0.41 
  -5   0  -5    3.50    0.14 
  -5   0  -5    3.31    0.16 
  -5   0  -5    3.53    0.38 
  -6   0  -5    0.15    0.05 
  -6   0  -5    0.34    0.18 
  -6   0  -5    0.38    0.08 
  -7  -1   5    3.90    0.28 
  -7  -1   5    3.88    0.14 
  -7  -1   5    3.57    0.31 
  -7  -1   5    3.75    0.14 
  -7   1   5    3.49    0.13 
  -7   1   5    3.49    0.25 
  -6  -1   5    1.98    0.34 
  -6  -1   5    1.82    0.10 
  -6  -1   5    1.97    0.10 
  -6  -1   5    1.77    0.13 
  -6  -1   5    1.88    0.26 
  -6  -1   5    2.06    0.28 
  -6   1   5    2.34    0.24 
  -6   1   5    2.17    0.11 
  -6   1   5    1.93    0.09 
  -6   1   5    2.13    0.10 
  -6   1   5    2.12    0.18 
  -6   1   5    2.95    0.35 
  -6   1   5    2.15    0.11 
  -6   1   5    2.03    0.16 
  -5  -1   5   10.73    0.43 
  -5  -1   5   10.73    0.51 
   5  -1  -5   10.86    0.40 
  -5   1   5    9.56    0.48 
   5   1  -5    9.21    0.38 
   5   1  -5    9.20    0.39 
  -5   1   5    9.78    0.36 
  -4  -1   5    1.32    0.33 
  -4  -1   5    0.95    0.15 
  -4  -1   5    1.21    0.14 
  -4  -1   5    1.53    0.37 
   4  -1  -5    1.11    0.16 
  -4  -1   5    1.41    0.23 
  -4  -1   5    1.17    0.20 
   4  -1  -5    1.09    0.14 
  -4  -1   5    1.15    0.17 
   4   1  -5    1.24    0.17 
  -4   1   5    1.15    0.14 
   4   1  -5    1.26    0.17 
  -4   1   5    1.10    0.13 
   4   1  -5    1.39    0.19 
  -4   1   5    1.15    0.28 
  -4   1   5    1.22    0.14 
   3  -1  -5   34.72    1.05 
  -3  -1   5   36.46    1.81 
  -3  -1   5   30.61    1.90 
  -3  -1   5   36.03    1.47 
   3  -1  -5   33.41    1.39 
   3  -1  -5   34.65    1.08 
   3  -1  -5   37.25    1.34 
  -3  -1   5   37.56    1.19 
   3  -1  -5   35.65    1.09 
   3   1  -5   35.68    1.09 
   3   1  -5   35.20    1.40 
   3   1  -5   35.93    1.06 
   3   1  -5   34.60    1.24 
  -3   1   5   35.36    1.91 
  -3   1   5   32.66    1.07 
  -3   1   5   35.65    1.74 
   3   1  -5   34.95    1.33 
   3   1  -5   33.15    1.08 
  -2  -1   5   61.54    3.06 
  -2  -1   5   59.33    2.97 
   2  -1  -5   60.15    2.27 
  -2  -1   5   58.28    1.62 
   2  -1  -5   58.91    1.78 
   2  -1  -5   60.68    2.17 
   2  -1  -5   56.71    1.92 
   2  -1  -5   57.51    1.71 
  -2  -1   5   58.81    2.75 
  -2   1   5   57.13    2.70 
  -2   1   5   56.21    1.47 
  -2   1   5   51.48    2.48 
   2   1  -5   55.36    1.86 
   2   1  -5   48.38    2.07 
   2   1  -5   54.07    1.63 
  -2   1   5   54.07    2.79 
   1  -1  -5   16.01    0.66 
  -1  -1   5   15.14    0.82 
   1  -1  -5   15.46    0.59 
   1  -1  -5   15.69    0.51 
  -1  -1   5   14.55    0.60 
  -1  -1   5   12.70    0.86 
   1   1  -5   13.22    0.57 
   1   1  -5   11.71    0.43 
   1   1  -5   11.08    0.51 
  -1   1   5   12.57    0.67 
  -1   1   5   11.68    0.57 
  -1   1   5   11.92    0.74 
  -1   1   5   12.20    0.50 
   0  -1  -5    2.60    0.29 
   0  -1  -5    2.35    0.22 
   0  -1   5    2.22    0.22 
   0  -1   5    2.24    0.23 
   0  -1   5    2.22    0.18 
   0   1   5    2.05    0.19 
   0   1  -5    2.17    0.27 
   0   1  -5    1.80    0.22 
   0   1   5    2.28    0.24 
   0   1   5    2.36    0.22 
   1  -1   5   66.10    2.03 
  -1  -1  -5   66.45    1.83 
   1  -1   5   67.23    2.32 
  -1  -1  -5   66.20    1.97 
   1  -1   5   68.18    2.58 
  -1  -1  -5   72.45    3.13 
  -1  -1  -5   66.35    2.19 
   1   1   5   72.01    2.10 
  -1   1  -5   67.10    2.26 
   1   1   5   68.77    2.40 
  -1   1  -5   75.75    2.28 
   1   1   5   68.13    2.11 
  -1   1  -5   73.18    3.22 
  -1   1  -5   69.40    1.89 
   1   1   5   65.52    2.67 
  -2  -1  -5   16.96    0.93 
   2  -1   5   15.69    0.63 
  -2  -1  -5   15.90    0.55 
   2  -1   5   15.19    0.68 
   2  -1   5   16.83    0.57 
   2  -1   5   15.60    0.72 
  -2  -1  -5   16.58    0.49 
   2  -1   5   15.82    0.54 
  -2  -1  -5   16.88    0.60 
   2  -1   5   16.55    0.55 
  -2   1  -5   14.74    0.50 
  -2   1  -5   15.03    0.77 
   2   1   5   14.57    0.70 
  -2   1  -5   15.85    0.56 
   2   1   5   16.02    0.54 
   2   1   5   15.04    0.61 
   2   1   5   14.86    0.54 
   3  -1   5   86.60    2.53 
   3  -1   5   90.02    2.62 
  -3  -1  -5   86.81    3.21 
  -3  -1  -5   86.03    3.58 
  -3  -1  -5   87.76    2.79 
  -3  -1  -5   85.30    3.09 
   3  -1   5   86.69    2.98 
  -3   1  -5   84.40    3.12 
   3   1   5   87.28    2.50 
  -3   1  -5   84.03    3.14 
  -3   1  -5   84.99    2.56 
   3   1   5   83.48    2.56 
   3   1   5   84.36    2.59 
  -3   1  -5   86.36    3.02 
   3   1   5   87.99    2.96 
  -3   1  -5   87.77    3.53 
  -4  -1  -5   18.34    0.71 
  -4  -1  -5   19.24    0.75 
  -4  -1  -5   19.60    0.99 
   4   1   5   19.98    0.83 
  -4   1  -5   20.97    0.70 
  -4   1  -5   22.37    1.06 
   4   1   5   19.63    0.71 
   4   1   5   21.33    0.72 
  -5  -1  -5    0.78    0.22 
  -5  -1  -5    0.67    0.14 
  -5  -1  -5    0.23    0.27 
  -5  -1  -5    0.45    0.25 
  -5   1  -5    0.78    0.09 
  -5   1  -5    0.86    0.10 
  -5   1  -5    1.02    0.32 
  -5   1  -5    0.70    0.10 
  -6  -1  -5   26.93    0.81 
  -6  -1  -5   25.11    0.63 
  -6  -1  -5   27.22    0.81 
  -6  -1  -5   25.61    1.12 
  -6   1  -5   26.20    0.96 
  -6   1  -5   25.46    0.75 
  -6   1  -5   22.34    0.74 
  -7  -2   5    2.67    0.24 
  -7  -2   5    2.38    0.10 
  -7  -2   5    2.38    0.27 
  -7  -2   5    2.44    0.11 
  -6  -2   5   12.41    0.33 
  -6  -2   5   12.28    0.52 
  -6  -2   5   12.01    0.40 
  -6  -2   5   12.64    0.63 
  -6  -2   5   12.54    0.35 
  -6   2   5   10.70    0.35 
  -6   2   5   10.38    0.45 
  -6   2   5   10.90    0.34 
  -6   2   5   10.56    0.35 
  -5  -2   5    2.29    0.17 
  -5  -2   5    2.30    0.19 
   5  -2  -5    2.35    0.18 
  -5  -2   5    2.85    0.29 
  -5  -2   5    1.94    0.27 
   5   2  -5    2.08    0.22 
  -5   2   5    2.53    0.24 
  -5   2   5    2.98    0.29 
  -5   2   5    2.69    0.19 
   5   2  -5    2.22    0.24 
  -4  -2   5    8.49    0.63 
  -4  -2   5   10.28    0.42 
   4  -2  -5   10.09    0.39 
  -4  -2   5    9.44    0.45 
  -4  -2   5    9.86    0.48 
   4  -2  -5   10.49    0.40 
  -4  -2   5    9.88    0.47 
   4  -2  -5    9.68    0.37 
  -4   2   5    8.66    0.35 
  -4   2   5    9.34    0.39 
   4   2  -5    8.95    0.43 
   4   2  -5    9.23    0.39 
   4   2  -5    9.59    0.38 
  -3  -2   5   42.67    2.17 
  -3  -2   5   40.06    2.25 
  -3  -2   5   44.38    1.42 
  -3  -2   5   41.09    1.16 
   3  -2  -5   43.08    1.60 
  -3  -2   5   40.12    1.44 
   3  -2  -5   40.22    1.28 
  -3  -2   5   39.44    1.59 
   3  -2  -5   41.32    1.29 
  -3  -2   5   44.26    1.74 
   3  -2  -5   42.01    1.24 
   3  -2  -5   42.35    1.38 
   3   2  -5   38.06    1.16 
  -3   2   5   35.80    1.83 
   3   2  -5   38.29    1.16 
  -3   2   5   35.21    1.40 
   3   2  -5   37.45    1.32 
   2  -2  -5   11.46    0.42 
  -2  -2   5   11.48    0.40 
   2  -2  -5   11.32    0.44 
   2  -2  -5   11.13    0.55 
   2  -2  -5   11.78    0.42 
  -2  -2   5   12.32    0.46 
  -2  -2   5   10.51    0.66 
  -2  -2   5   12.44    0.78 
   2  -2  -5   11.50    0.55 
  -2  -2   5   11.10    0.46 
  -2  -2   5   10.51    0.48 
  -2   2   5   12.31    0.64 
   2   2  -5   12.50    0.60 
   2   2  -5   12.51    0.52 
   2   2  -5   12.62    0.46 
   2   2  -5   12.85    0.47 
  -2   2   5   12.88    0.40 
   1  -2  -5   31.06    0.97 
  -1  -2   5   31.37    0.90 
  -1  -2   5   31.11    1.55 
   1  -2  -5   30.60    0.98 
   1  -2  -5   30.37    1.25 
   1   2  -5   27.83    0.84 
  -1   2   5   30.32    0.98 
  -1   2   5   28.09    1.42 
  -1   2   5   28.73    0.83 
   1   2  -5   29.78    1.05 
   0  -2   5   29.12    0.93 
   0  -2  -5   28.23    0.84 
   0  -2  -5   29.13    0.97 
   0  -2   5   28.68    1.17 
   0  -2   5   28.62    0.91 
   0   2   5   30.14    0.96 
   0   2  -5   29.06    1.41 
   0   2  -5   28.80    0.95 
   0   2  -5   28.75    0.82 
   0   2   5   27.57    0.83 
   0   2   5   26.31    1.03 
  -1  -2  -5   95.77    2.83 
  -1  -2  -5   96.03    3.18 
  -1  -2  -5   98.29    4.51 
  -1  -2  -5   98.10    3.06 
   1  -2   5   96.27    2.90 
   1  -2   5  104.34    2.93 
  -1  -2  -5  101.05    2.65 
   1  -2   5   93.41    3.70 
  -1   2  -5  105.12    3.26 
  -1   2  -5  104.57    4.63 
   1   2   5   97.13    3.47 
  -1   2  -5  102.61    2.73 
   1   2   5  104.30    3.00 
   1   2   5   98.76    3.85 
  -1   2  -5  101.19    2.91 
   1   2   5  100.65    3.04 
   1   2   5  101.69    3.18 
  -1   2  -5   98.70    3.16 
  -2  -2  -5   22.47    0.80 
  -2  -2  -5   22.80    0.65 
   2  -2   5   21.12    0.74 
   2  -2   5   23.88    0.73 
  -2  -2  -5   19.71    1.06 
  -2  -2  -5   19.42    1.22 
  -2  -2  -5   22.85    0.92 
  -2  -2  -5   22.82    0.73 
   2  -2   5   22.59    0.72 
  -2   2  -5   20.85    0.71 
   2   2   5   23.00    0.75 
   2   2   5   21.95    0.86 
  -2   2  -5   23.01    0.91 
   2   2   5   23.26    0.76 
   3  -2   5    7.88    0.34 
  -3  -2  -5    7.99    0.53 
  -3  -2  -5    7.80    0.46 
  -3  -2  -5    7.70    0.37 
  -3  -2  -5    7.50    0.41 
   3  -2   5    7.47    0.33 
   3  -2   5    7.05    0.37 
  -3  -2  -5    7.77    0.36 
  -3   2  -5    8.79    0.50 
  -3   2  -5    8.28    0.38 
   3   2   5    8.07    0.44 
  -3   2  -5    8.00    0.43 
   3   2   5    8.57    0.38 
  -3   2  -5    8.78    0.40 
   3   2   5    8.11    0.38 
  -4  -2  -5    5.11    0.48 
  -4  -2  -5    5.61    0.31 
  -4  -2  -5    4.94    0.48 
  -4  -2  -5    5.31    0.33 
  -4  -2  -5    6.40    0.39 
   4   2   5    6.07    0.38 
  -4   2  -5    5.37    0.27 
   4   2   5    5.77    0.32 
  -5  -2  -5    6.36    0.46 
  -5  -2  -5    6.62    0.26 
  -5  -2  -5    6.37    0.22 
  -5   2  -5    6.46    0.24 
  -5   2  -5    6.52    0.23 
  -5   2  -5    6.66    0.41 
  -5   2  -5    6.18    0.19 
  -6  -2  -5    4.32    0.16 
  -6  -2  -5    4.25    0.17 
  -6  -2  -5    4.11    0.12 
  -6  -2  -5    3.77    0.31 
  -6   2  -5    3.87    0.14 
  -6   2  -5    3.72    0.27 
  -7  -3   5    9.06    0.31 
  -7  -3   5    9.34    0.30 
  -7  -3   5    9.34    0.24 
  -7  -3   5   10.30    0.47 
  -6  -3   5    4.06    0.16 
  -6  -3   5    4.21    0.15 
  -6  -3   5    3.90    0.35 
  -6  -3   5    4.40    0.30 
  -6  -3   5    4.11    0.19 
  -6   3   5    2.70    0.25 
  -6   3   5    2.96    0.12 
  -6   3   5    3.13    0.13 
  -6   3   5    3.37    0.28 
  -6   3   5    2.85    0.14 
  -5  -3   5   11.95    0.50 
  -5  -3   5   11.88    0.35 
  -5  -3   5   12.27    0.49 
  -5  -3   5   11.86    0.56 
  -5  -3   5   11.72    0.53 
  -5  -3   5   11.35    0.61 
  -5  -3   5   11.30    0.48 
  -5  -3   5   11.83    0.40 
  -5  -3   5   11.61    0.33 
  -5   3   5   12.21    0.32 
   5   3  -5   12.17    0.55 
  -5   3   5   11.73    0.45 
  -5   3   5   12.30    0.58 
  -5   3   5   12.09    0.48 
   5   3  -5   11.59    0.49 
  -5   3   5   12.66    0.56 
  -5   3   5   12.26    0.34 
  -5   3   5   12.16    0.41 
   4  -3  -5   16.89    0.63 
  -4  -3   5   17.19    0.75 
   4  -3  -5   16.94    0.59 
   4  -3  -5   16.21    0.58 
  -4  -3   5   16.67    0.66 
  -4  -3   5   16.33    0.69 
  -4  -3   5   16.47    0.71 
   4   3  -5   16.96    0.72 
   4   3  -5   17.96    0.65 
   4   3  -5   17.78    0.64 
  -4   3   5   18.81    0.70 
  -4   3   5   17.08    0.73 
  -3  -3   5   23.80    0.70 
  -3  -3   5   21.43    0.85 
  -3  -3   5   23.09    0.87 
   3  -3  -5   23.07    0.75 
   3  -3  -5   23.11    0.81 
  -3  -3   5   22.50    0.95 
   3  -3  -5   22.44    0.76 
   3  -3  -5   23.13    0.74 
   3   3  -5   21.84    0.77 
  -3   3   5   22.94    1.16 
  -3   3   5   22.81    0.92 
   3   3  -5   23.20    0.78 
   3   3  -5   22.49    0.87 
  -2  -3   5   49.78    1.56 
   2  -3  -5   47.05    1.47 
  -2  -3   5   48.07    2.29 
   2  -3  -5   49.12    1.45 
  -2  -3   5   45.69    1.80 
  -2  -3   5   42.14    2.51 
  -2  -3   5   48.17    1.60 
  -2  -3   5   49.78    1.34 
  -2  -3   5   44.45    1.61 
  -2   3   5   42.67    1.66 
   2   3  -5   44.18    1.37 
   2   3  -5   46.68    1.56 
  -2   3   5   40.73    2.02 
   2   3  -5   43.16    1.44 
   2   3  -5   43.81    1.36 
  -2   3   5   44.44    1.21 
  -1  -3   5   15.34    0.52 
   1  -3  -5   14.78    0.53 
   1  -3  -5   15.08    0.58 
   1  -3  -5   14.99    0.54 
  -1  -3   5   14.74    0.56 
  -1  -3   5   15.45    0.59 
  -1   3   5   13.39    0.77 
  -1   3   5   14.17    0.55 
  -1   3   5   14.08    0.47 
   1   3  -5   14.38    0.52 
   1   3  -5   14.26    0.54 
   1   3  -5   13.65    0.47 
  -1   3   5   14.08    0.54 
   0  -3  -5   64.66    1.97 
   0  -3  -5   65.35    2.10 
   0  -3   5   67.20    2.00 
   0  -3  -5   64.73    1.81 
   0  -3  -5   65.86    1.94 
   0   3  -5   63.44    1.72 
   0   3  -5   57.78    2.92 
   0   3   5   63.24    1.99 
   0   3  -5   63.34    1.99 
   0   3   5   62.18    1.72 
   0   3  -5   63.56    2.06 
   1  -3   5    9.51    0.40 
  -1  -3  -5    9.41    0.43 
  -1  -3  -5    9.43    0.41 
  -1  -3  -5    9.56    0.40 
  -1  -3  -5    8.56    0.59 
  -1  -3  -5    9.46    0.37 
  -1   3  -5    8.34    0.49 
   1   3   5    8.68    0.39 
   1   3   5    8.95    0.44 
  -1   3  -5    8.43    0.45 
  -1   3  -5    8.29    0.30 
   1   3   5    9.04    0.37 
  -1   3  -5    8.91    0.31 
  -2  -3  -5   34.07    1.38 
   2  -3   5   34.74    1.12 
  -2  -3  -5   35.72    1.10 
   2  -3   5   34.03    1.11 
  -2  -3  -5   34.95    1.00 
  -2  -3  -5   34.66    1.22 
  -2  -3  -5   35.14    1.14 
   2   3   5   33.65    1.06 
   2   3   5   32.16    1.20 
  -2   3  -5   31.00    1.26 
  -2   3  -5   31.93    1.21 
   2   3   5   31.19    1.03 
   3  -3   5    7.70    0.35 
  -3  -3  -5    7.81    0.40 
  -3  -3  -5    8.27    0.56 
  -3  -3  -5    8.36    0.49 
  -3  -3  -5    7.84    0.44 
   3  -3   5    6.39    0.35 
  -3  -3  -5    8.54    0.40 
  -3   3  -5    8.81    0.45 
   3   3   5    9.29    0.43 
   3   3   5    8.51    0.41 
  -3   3  -5    9.31    0.42 
   3   3   5    9.09    0.49 
  -3   3  -5    9.42    0.41 
  -4  -3  -5    2.28    0.21 
  -4  -3  -5    2.46    0.33 
  -4  -3  -5    2.14    0.40 
  -4  -3  -5    2.34    0.26 
  -4  -3  -5    2.13    0.23 
  -4  -3  -5    2.18    0.43 
  -4   3  -5    2.34    0.15 
   4   3   5    1.76    0.26 
  -4   3  -5    2.32    0.13 
  -4   3  -5    2.53    0.35 
  -5  -3  -5    0.86    0.11 
  -5  -3  -5    0.61    0.12 
  -5  -3  -5    0.56    0.15 
  -5  -3  -5    0.15    0.21 
  -5   3  -5    0.62    0.06 
  -5   3  -5    0.81    0.08 
  -5   3  -5    0.49    0.15 
  -5   3  -5    0.70    0.19 
  -5   3  -5    0.67    0.09 
  -5   3  -5    0.76    0.13 
  -6  -4   5   13.11    0.51 
  -6  -4   5   13.48    0.43 
  -6  -4   5   13.80    0.37 
  -6  -4   5   13.50    0.36 
  -6  -4   5   13.37    0.62 
  -6   4   5   12.27    0.40 
  -6   4   5   12.77    0.40 
  -6   4   5   12.91    0.39 
  -5  -4   5   15.21    0.58 
  -5  -4   5   14.17    0.66 
  -5  -4   5   15.10    0.61 
  -5  -4   5   14.84    0.59 
  -5  -4   5   14.82    0.70 
  -5  -4   5   15.02    0.49 
  -5   4   5   15.26    0.66 
  -5   4   5   15.43    0.39 
  -5   4   5   15.30    0.41 
  -5   4   5   14.93    0.48 
  -4  -4   5    7.49    0.24 
  -4  -4   5    7.86    0.39 
  -4  -4   5    7.90    0.47 
  -4  -4   5    8.31    0.46 
   4  -4  -5    6.42    0.36 
  -4  -4   5    7.08    0.27 
  -4  -4   5    7.40    0.30 
  -4  -4   5    8.31    0.44 
  -4  -4   5    7.73    0.31 
  -4   4   5    7.54    0.44 
   4   4  -5    7.27    0.43 
  -4   4   5    8.47    0.27 
  -4   4   5    8.21    0.25 
   4   4  -5    8.24    0.32 
   4   4  -5    8.10    0.41 
  -4   4   5    8.36    0.36 
  -4   4   5    8.14    0.31 
  -3  -4   5   16.20    0.74 
   3  -4  -5   15.67    0.58 
  -3  -4   5   16.37    0.54 
  -3  -4   5   15.52    0.67 
   3  -4  -5   15.55    0.59 
   3   4  -5   14.58    0.63 
  -3   4   5   14.54    0.66 
   3   4  -5   14.76    0.56 
  -3   4   5   13.02    0.62 
   3   4  -5   14.89    0.57 
  -2  -4   5   14.29    0.62 
   2  -4  -5   14.51    0.65 
   2  -4  -5   14.78    0.56 
  -2  -4   5   14.59    0.54 
   2  -4  -5   14.85    0.55 
  -2  -4   5   14.47    0.60 
  -2  -4   5   15.39    1.01 
   2   4  -5   14.19    0.56 
   2   4  -5   14.32    0.62 
  -2   4   5   14.22    0.67 
   2   4  -5   14.75    0.60 
   1  -4  -5   14.21    0.58 
  -1  -4   5   15.13    0.61 
   1  -4  -5   14.12    0.64 
   1  -4  -5   14.89    0.55 
   1  -4  -5   14.17    0.54 
  -1   4   5   13.52    0.52 
  -1   4   5   13.47    0.46 
  -1   4   5   12.54    0.53 
   1   4  -5   13.23    0.54 
   1   4  -5   12.91    0.47 
  -1   4   5   12.92    0.62 
   0  -4  -5    4.25    0.28 
   0  -4  -5    4.51    0.32 
   0  -4  -5    4.94    0.29 
   0  -4   5    4.09    0.30 
   0  -4  -5    4.08    0.34 
   0  -4   5    4.75    0.34 
   0   4  -5    4.95    0.29 
   0   4  -5    4.44    0.34 
   0   4   5    4.69    0.28 
   0   4  -5    4.73    0.26 
   0   4  -5    4.62    0.30 
   0   4   5    4.71    0.31 
  -1  -4  -5   10.94    0.48 
   1  -4   5   11.09    0.49 
  -1  -4  -5   10.64    0.56 
  -1  -4  -5   11.46    0.47 
  -1  -4  -5   10.34    0.49 
  -1  -4  -5   11.26    0.43 
  -1   4  -5   12.94    0.42 
   1   4   5   13.24    0.54 
   1   4   5   12.01    0.50 
  -1   4  -5   12.31    0.60 
  -2  -4  -5    7.84    0.52 
   2  -4   5    9.08    0.38 
  -2  -4  -5    7.78    0.36 
   2  -4   5    9.06    0.43 
  -2  -4  -5    8.82    0.42 
  -2  -4  -5    8.24    0.33 
   2   4   5    7.14    0.37 
   2   4   5    6.47    0.41 
  -2   4  -5    7.08    0.42 
  -2   4  -5    6.69    0.40 
  -3  -4  -5    9.48    0.60 
  -3  -4  -5    9.61    0.45 
  -3  -4  -5    9.43    0.66 
  -3  -4  -5    9.31    0.45 
  -3  -4  -5    9.33    0.57 
  -3  -4  -5    9.34    0.37 
  -3  -4  -5    9.37    0.30 
  -3  -4  -5    9.44    0.39 
  -3  -4  -5    9.17    0.26 
  -3   4  -5    8.04    0.35 
   3   4   5    7.54    0.45 
  -3   4  -5    7.10    0.35 
   3   4   5    7.63    0.32 
  -3   4  -5    7.90    0.24 
  -3   4  -5    8.09    0.38 
  -3   4  -5    7.68    0.25 
  -3   4  -5    7.30    0.34 
  -3   4  -5    7.36    0.32 
  -3   4  -5    7.75    0.29 
   3   4   5    8.07    0.40 
  -3   4  -5    7.99    0.42 
  -4  -4  -5    1.32    0.23 
  -4  -4  -5    1.68    0.32 
  -4  -4  -5    1.49    0.19 
  -4  -4  -5    1.23    0.21 
  -4  -4  -5    1.27    0.35 
  -4   4  -5    1.37    0.11 
  -4   4  -5    1.47    0.11 
   4   4   5    1.36    0.19 
  -4   4  -5    1.47    0.13 
  -5  -4  -5    3.54    0.18 
  -5  -4  -5    3.90    0.33 
  -5  -4  -5    3.80    0.16 
  -5  -4  -5    3.87    0.15 
  -5   4  -5    3.04    0.13 
  -5   4  -5    2.99    0.12 
  -6  -5   5    2.14    0.10 
  -6  -5   5    2.21    0.11 
  -6  -5   5    2.23    0.23 
  -5  -5   5    3.53    0.30 
  -5  -5   5    3.58    0.19 
  -5  -5   5    3.75    0.22 
   5   5  -5    3.60    0.18 
  -5   5   5    3.22    0.12 
  -5   5   5    3.48    0.15 
  -5   5   5    3.24    0.13 
  -4  -5   5    9.26    0.49 
  -4  -5   5    8.63    0.34 
  -4  -5   5    8.48    0.50 
  -4  -5   5    8.97    0.30 
  -4  -5   5    9.15    0.41 
  -4  -5   5    8.52    0.27 
  -4   5   5    9.46    0.29 
  -4   5   5    9.28    0.34 
  -4   5   5    9.13    0.44 
  -4   5   5    9.31    0.27 
  -4   5   5    9.48    0.47 
   4   5  -5    9.29    0.34 
  -3  -5   5    8.62    0.30 
   3  -5  -5    8.78    0.41 
  -3  -5   5    8.47    0.32 
  -3  -5   5    8.50    0.37 
  -3  -5   5    8.93    0.35 
  -3  -5   5    8.41    0.47 
   3  -5  -5    8.39    0.51 
  -3  -5   5    9.26    0.52 
  -3  -5   5    8.64    0.42 
  -3  -5   5    9.01    0.36 
  -3   5   5    9.14    0.45 
   3   5  -5    7.41    0.46 
  -3   5   5    9.66    0.50 
   3   5  -5    9.31    0.34 
  -3   5   5    9.53    0.43 
  -3   5   5    9.76    0.36 
   3   5  -5    8.19    0.44 
  -3   5   5    9.11    0.28 
   2  -5  -5    2.88    0.35 
  -2  -5   5    1.96    0.30 
  -2  -5   5    2.04    0.33 
   2  -5  -5    2.59    0.26 
  -2  -5   5    2.27    0.27 
  -2  -5   5    2.55    0.28 
   2  -5  -5    2.02    0.27 
  -2   5   5    3.17    0.35 
   2   5  -5    3.37    0.31 
   2   5  -5    3.01    0.30 
   1  -5  -5   24.50    0.90 
  -1  -5   5   24.91    0.93 
   1  -5  -5   24.71    0.99 
  -1  -5   5   23.58    0.81 
   1  -5  -5   23.65    0.84 
  -1   5   5   21.69    0.71 
   1   5  -5   22.95    0.74 
  -1   5   5   22.78    0.78 
   1   5  -5   22.22    0.86 
   1   5  -5   23.94    0.86 
  -1   5   5   23.68    1.01 
   0  -5  -5   28.23    0.90 
   0  -5   5   29.50    1.00 
   0  -5   5   29.05    1.07 
   0  -5  -5   28.34    1.12 
   0  -5  -5   29.75    1.05 
   0   5  -5   30.11    0.90 
   0   5  -5   30.37    1.05 
   0   5  -5   31.10    1.04 
   0   5   5   29.46    1.07 
   0   5   5   30.63    0.93 
   0   5   5   29.36    1.08 
  -1  -5  -5    3.50    0.31 
  -1  -5  -5    2.94    0.29 
  -1  -5  -5    3.04    0.29 
  -1  -5  -5    3.10    0.29 
   1  -5   5    3.49    0.33 
  -1   5  -5    2.93    0.34 
   1   5   5    2.22    0.27 
   1   5   5    2.87    0.30 
  -2  -5  -5   10.38    0.61 
   2  -5   5    9.89    0.48 
  -2  -5  -5    9.40    0.40 
  -2  -5  -5    9.89    0.37 
  -2  -5  -5    9.58    0.47 
  -2  -5  -5   10.02    0.41 
   2   5   5    8.87    0.43 
   2   5   5    8.72    0.35 
  -2   5  -5    9.00    0.37 
  -2   5  -5    8.92    0.46 
  -2   5  -5    8.38    0.35 
  -2   5  -5    9.39    0.33 
  -2   5  -5    9.04    0.29 
  -2   5  -5    9.41    0.50 
   2   5   5    9.07    0.47 
  -2   5  -5    9.04    0.38 
  -2   5  -5    9.67    0.42 
  -3  -5  -5    0.10    0.07 
  -3  -5  -5   -0.14    0.24 
  -3  -5  -5    0.08    0.16 
  -3  -5  -5    0.14    0.23 
  -3  -5  -5   -0.18    0.11 
   3   5   5    0.12    0.12 
  -3   5  -5    0.12    0.09 
  -3   5  -5    0.07    0.06 
  -3   5  -5   -0.14    0.09 
  -3   5  -5   -0.11    0.07 
  -3   5  -5    0.20    0.16 
  -3   5  -5    0.06    0.07 
  -4  -5  -5    3.28    0.20 
  -4  -5  -5    3.49    0.24 
  -4  -5  -5    3.57    0.34 
  -4  -5  -5    3.78    0.18 
  -4   5  -5    3.34    0.13 
   4   5   5    3.16    0.18 
  -4   5  -5    3.51    0.13 
  -4   5  -5    3.29    0.15 
  -5  -6   5    4.97    0.23 
  -5   6   5    5.13    0.15 
  -5   6   5    5.17    0.14 
   5   6  -5    5.69    0.20 
  -4  -6   5    4.33    0.20 
  -4  -6   5    4.59    0.25 
  -4  -6   5    4.24    0.16 
  -4  -6   5    4.32    0.14 
  -4   6   5    4.04    0.16 
  -4   6   5    4.11    0.15 
  -4   6   5    3.91    0.19 
   4   6  -5    3.93    0.19 
  -4   6   5    3.62    0.27 
  -3  -6   5    4.71    0.19 
  -3  -6   5    4.45    0.20 
  -3  -6   5    4.43    0.16 
   3  -6  -5    3.98    0.38 
  -3  -6   5    4.71    0.22 
  -3  -6   5    4.33    0.20 
   3  -6  -5    4.81    0.23 
  -3   6   5    4.74    0.28 
  -3   6   5    4.95    0.23 
   3   6  -5    4.79    0.22 
  -3   6   5    4.99    0.31 
  -2  -6   5    3.55    0.13 
   2  -6  -5    3.94    0.21 
  -2  -6   5    3.60    0.19 
  -2  -6   5    3.80    0.34 
   2  -6  -5    3.68    0.39 
  -2  -6   5    3.36    0.21 
  -2   6   5    2.82    0.14 
  -2   6   5    3.12    0.23 
  -2   6   5    2.43    0.29 
  -2   6   5    3.04    0.17 
   2   6  -5    3.01    0.22 
  -2   6   5    3.10    0.34 
  -2   6   5    2.96    0.21 
  -2   6   5    3.04    0.28 
  -2   6   5    2.94    0.21 
   1  -6  -5    2.51    0.33 
  -1  -6   5    2.50    0.33 
  -1  -6   5    3.33    0.20 
  -1  -6   5    3.25    0.31 
   1  -6  -5    2.84    0.36 
   1  -6  -5    2.79    0.28 
  -1  -6   5    2.40    0.33 
   1  -6  -5    3.43    0.20 
   1   6  -5    4.03    0.23 
  -1   6   5    3.92    0.21 
  -1   6   5    3.99    0.32 
  -1   6   5    3.92    0.32 
  -1   6   5    4.21    0.16 
  -1   6   5    4.16    0.19 
   1   6  -5    3.78    0.23 
   1   6  -5    3.73    0.32 
  -1   6   5    4.45    0.25 
  -1   6   5    3.65    0.38 
   1   6  -5    3.93    0.15 
  -1   6   5    3.85    0.20 
   1   6  -5    3.91    0.21 
   1   6  -5    3.33    0.27 
  -1   6   5    3.95    0.24 
   0  -6   5   15.15    0.46 
   0  -6   5   13.70    0.65 
   0  -6  -5   14.15    0.47 
   0  -6   5   14.42    0.61 
   0  -6  -5   15.04    0.50 
   0  -6  -5   12.89    0.62 
   0  -6  -5   14.87    0.68 
   0   6   5   16.13    0.57 
   0   6   5   14.57    0.55 
   0   6  -5   14.90    0.45 
   0   6  -5   14.50    0.49 
   0   6   5   14.41    0.64 
   0   6   5   15.01    0.51 
   0   6  -5   15.10    0.54 
   0   6  -5   14.76    0.54 
   0   6  -5   15.06    0.50 
   0   6  -5   14.93    0.52 
   0   6   5   13.94    0.50 
   0   6   5   12.94    0.60 
   0   6   5   15.41    0.39 
   0   6  -5   16.19    0.63 
   0   6   5   14.22    0.56 
  -1  -6  -5   12.70    0.49 
  -1  -6  -5   12.58    0.45 
  -1  -6  -5   12.83    0.68 
  -1  -6  -5   12.64    0.35 
   1  -6   5   12.73    0.41 
  -1  -6  -5   12.32    0.50 
   1   6   5   12.35    0.46 
  -1   6  -5   12.65    0.43 
  -1   6  -5   12.66    0.46 
  -1   6  -5   13.06    0.46 
  -1   6  -5   12.85    0.62 
   1   6   5   11.43    0.55 
  -1   6  -5   12.48    0.37 
  -1   6  -5   12.09    0.40 
  -1   6  -5   12.56    0.48 
  -1   6  -5   13.21    0.54 
  -2  -6  -5    1.42    0.19 
  -2  -6  -5    1.33    0.14 
  -2  -6  -5    1.02    0.15 
  -2  -6  -5    1.35    0.15 
   2  -6   5    1.05    0.13 
  -2  -6  -5    1.25    0.12 
  -2   6  -5    1.31    0.17 
   2   6   5    1.15    0.20 
   2   6   5    1.05    0.15 
  -2   6  -5    1.10    0.19 
  -2   6  -5    1.16    0.19 
  -2   6  -5    1.29    0.13 
  -2   6  -5    1.17    0.18 
  -2   6  -5    1.10    0.14 
  -2   6  -5    1.20    0.14 
  -3  -6  -5    6.22    0.20 
  -3  -6  -5    6.87    0.33 
  -3  -6  -5    6.47    0.27 
  -3   6  -5    5.50    0.25 
   3   6   5    5.57    0.23 
  -3   6  -5    5.82    0.18 
  -3   6  -5    5.45    0.18 
  -3   6  -5    5.95    0.23 
  -3   6  -5    5.73    0.22 
  -4  -6  -5    7.51    0.32 
   4   6   5    8.22    0.27 
  -4   6  -5    7.96    0.22 
   3  -7  -5    1.18    0.11 
  -3  -7   5    1.04    0.08 
  -3  -7   5    1.07    0.11 
  -3  -7   5    1.06    0.11 
  -3   7   5    0.64    0.12 
  -3   7   5    0.82    0.11 
   3   7  -5    0.85    0.07 
  -3   7   5    0.73    0.12 
   3   7  -5    0.79    0.10 
  -3   7   5    0.73    0.12 
  -3   7   5    0.50    0.16 
   3   7  -5    0.65    0.12 
  -2  -7   5    0.04    0.07 
   2  -7  -5    0.10    0.07 
  -2  -7   5    0.05    0.07 
  -2   7   5   -0.03    0.09 
  -2   7   5    0.14    0.10 
   2   7  -5    0.10    0.08 
  -2   7   5    0.04    0.08 
  -2   7   5   -0.01    0.14 
  -1  -7   5    8.20    0.24 
  -1  -7   5    8.83    0.35 
   1  -7  -5    8.23    0.30 
  -1  -7   5    8.98    0.31 
  -1   7   5    8.60    0.41 
  -1   7   5    9.11    0.28 
   1   7  -5    9.09    0.32 
  -1   7   5    9.18    0.35 
   1   7  -5    9.47    0.35 
  -1   7   5    8.81    0.30 
   1   7  -5    8.94    0.34 
  -1   7   5    9.25    0.42 
  -1   7   5    8.28    0.32 
   0  -7   5    7.37    0.28 
   0  -7   5    7.61    0.25 
   0  -7   5    6.57    0.46 
   0  -7  -5    7.52    0.32 
   0  -7  -5    7.67    0.30 
   0  -7  -5    7.30    0.22 
   0   7  -5    7.84    0.30 
   0   7   5    7.68    0.30 
   0   7  -5    7.82    0.25 
   0   7   5    8.01    0.32 
   0   7  -5    8.03    0.21 
   0   7   5    7.67    0.29 
   0   7  -5    7.83    0.29 
   0   7  -5    8.15    0.31 
   0   7   5    7.73    0.26 
   0   7  -5    8.13    0.37 
   0   7   5    7.59    0.37 
  -1  -7  -5    5.86    0.23 
   1  -7   5    5.98    0.22 
  -1   7  -5    6.94    0.27 
  -1   7  -5    6.48    0.26 
   1   7   5    6.16    0.26 
  -1   7  -5    6.82    0.28 
  -1   7  -5    6.67    0.31 
  -1   7  -5    6.59    0.21 
  -2  -7  -5    5.07    0.17 
  -2  -7  -5    5.00    0.22 
   2  -7   5    5.19    0.18 
  -2  -7  -5    4.85    0.14 
   2   7   5    4.83    0.20 
  -2   7  -5    4.59    0.20 
  -2   7  -5    4.57    0.20 
  -2   7  -5    4.59    0.22 
  -2   7  -5    4.94    0.19 
   2   7   5    4.99    0.13 
  -7   0   6    2.19    0.22 
  -7   0   6    2.64    0.10 
  -7   0   6    2.72    0.11 
  -6   0   6    4.08    0.32 
  -6   0   6    3.68    0.26 
  -6   0   6    3.79    0.17 
  -6   0   6    3.88    0.14 
  -6   0   6    3.81    0.37 
  -6   0   6    3.74    0.13 
  -6   0   6    4.15    0.31 
   5   0  -6   63.11    1.90 
   5   0  -6   61.47    1.85 
  -5   0   6   62.80    2.15 
  -5   0   6   61.28    1.90 
   4   0  -6    3.93    0.23 
   4   0  -6    4.11    0.24 
  -4   0   6    3.74    0.25 
  -4   0   6    3.73    0.25 
   4   0  -6    3.49    0.27 
  -4   0   6    4.04    0.34 
  -4   0   6    3.88    0.29 
  -4   0   6    3.80    0.49 
  -4   0   6    3.64    0.22 
   3   0  -6   38.95    1.37 
  -3   0   6   38.69    1.33 
  -3   0   6   40.78    2.12 
  -3   0   6   38.48    1.98 
   3   0  -6   39.51    1.19 
  -3   0   6   36.84    1.46 
   3   0  -6   40.34    1.20 
   3   0  -6   38.41    1.16 
   3   0  -6   33.88    1.46 
  -2   0   6    0.71    0.17 
   2   0  -6    0.62    0.17 
  -2   0   6    0.67    0.13 
   2   0  -6    0.78    0.17 
   2   0  -6    0.66    0.19 
   2   0  -6    0.64    0.13 
  -2   0   6    0.55    0.22 
  -2   0   6    0.72    0.31 
   1   0  -6   37.20    1.55 
  -1   0   6   39.05    2.07 
   1   0  -6   39.96    1.22 
  -1   0   6   39.40    1.11 
  -1   0   6   40.26    1.91 
  -1   0   6   39.47    1.30 
  -1   0   6   40.06    1.37 
   0   0   6    1.69    0.17 
   0   0  -6    1.70    0.18 
   0   0   6    1.44    0.19 
   0   0  -6    1.30    0.21 
   0   0  -6    1.09    0.15 
   0   0  -6    1.05    0.26 
  -1   0  -6   11.44    0.67 
  -1   0  -6   12.21    0.40 
  -1   0  -6   12.35    0.49 
  -1   0  -6   12.22    0.46 
  -1   0  -6   11.91    0.46 
   1   0   6   12.35    0.50 
   1   0   6   12.36    0.44 
   1   0   6   11.61    0.45 
  -1   0  -6   12.29    0.43 
   1   0   6   12.70    0.59 
  -2   0  -6    9.35    0.37 
  -2   0  -6    9.23    0.61 
   2   0   6    9.71    0.38 
   2   0   6    8.96    0.43 
  -2   0  -6   10.10    0.41 
  -2   0  -6    8.91    0.47 
   2   0   6   10.06    0.40 
  -3   0  -6   13.53    0.53 
  -3   0  -6   14.73    0.67 
   3   0   6   15.21    0.62 
  -3   0  -6   14.08    0.62 
   3   0   6   14.41    0.55 
   3   0   6   15.89    0.55 
  -4   0  -6    3.11    0.19 
  -4   0  -6    2.69    0.36 
  -4   0  -6    2.87    0.42 
  -4   0  -6    2.70    0.17 
  -5   0  -6    2.81    0.13 
  -5   0  -6    3.05    0.33 
  -5   0  -6    2.66    0.16 
  -6   0  -6    2.21    0.09 
  -7  -1   6    0.80    0.07 
  -7  -1   6    0.91    0.24 
  -7  -1   6    0.68    0.05 
  -7   1   6    0.50    0.12 
  -7   1   6    0.89    0.07 
  -6  -1   6   19.59    0.60 
  -6  -1   6   17.85    0.90 
  -6  -1   6   20.18    0.52 
  -6  -1   6   20.08    0.50 
  -6  -1   6   19.81    0.74 
  -6  -1   6   20.14    0.90 
  -6   1   6   21.81    0.68 
  -6   1   6   21.59    0.68 
  -6   1   6   21.69    0.91 
  -6   1   6   22.39    0.77 
  -6   1   6   21.27    0.55 
  -6   1   6   21.74    0.54 
  -5  -1   6   24.92    0.92 
  -5  -1   6   23.52    0.88 
  -5  -1   6   24.76    0.95 
   5  -1  -6   24.12    0.86 
   5   1  -6   23.31    0.79 
   5   1  -6   24.44    0.83 
  -5   1   6   23.23    0.78 
  -4  -1   6   68.68    2.27 
  -4  -1   6   68.99    2.18 
  -4  -1   6   67.92    3.55 
  -4  -1   6   66.47    2.39 
   4  -1  -6   63.01    2.18 
  -4  -1   6   65.26    2.49 
   4  -1  -6   69.00    2.04 
   4  -1  -6   65.90    1.96 
  -4   1   6   65.43    2.21 
   4   1  -6   62.95    1.97 
   4   1  -6   66.48    2.00 
   4   1  -6   66.04    1.94 
   4   1  -6   65.08    2.27 
  -4   1   6   64.88    1.98 
  -4   1   6   64.63    2.31 
  -4   1   6   64.40    2.08 
  -4   1   6   67.07    2.39 
  -4   1   6   64.19    2.41 
  -3  -1   6   16.61    1.07 
   3  -1  -6   16.60    0.73 
   3  -1  -6   17.31    0.58 
  -3  -1   6   18.62    0.67 
   3  -1  -6   17.50    0.63 
  -3  -1   6   17.63    1.01 
  -3  -1   6   16.43    0.73 
   3  -1  -6   17.62    0.59 
   3  -1  -6   17.52    0.59 
  -3  -1   6   16.80    0.67 
  -3   1   6   16.51    0.72 
   3   1  -6   17.56    0.59 
   3   1  -6   17.40    0.60 
  -3   1   6   16.84    0.94 
   3   1  -6   16.91    0.67 
  -3   1   6   16.52    0.66 
  -3   1   6   17.08    1.07 
  -2  -1   6   13.61    0.79 
   2  -1  -6   14.72    0.50 
  -2  -1   6   13.99    0.47 
  -2  -1   6   13.77    0.54 
   2  -1  -6   15.23    0.66 
  -2  -1   6   15.16    0.92 
   2  -1  -6   14.26    0.51 
  -2   1   6    9.75    0.37 
   2   1  -6   10.20    0.39 
  -2   1   6    8.51    0.65 
  -2   1   6    8.70    0.54 
  -2   1   6   10.13    0.39 
  -2   1   6    8.96    0.62 
   2   1  -6    8.26    0.48 
   2   1  -6   10.35    0.43 
   2   1  -6    9.92    0.38 
  -2   1   6   10.13    0.34 
   1  -1  -6    5.53    0.29 
   1  -1  -6    5.20    0.35 
   1  -1  -6    5.36    0.27 
  -1  -1   6    6.20    0.47 
  -1  -1   6    6.00    0.26 
  -1  -1   6    5.99    0.48 
   1   1  -6    4.66    0.27 
   1   1  -6    5.57    0.27 
  -1   1   6    5.60    0.40 
   1   1  -6    5.41    0.31 
  -1   1   6    5.41    0.28 
   1   1  -6    5.49    0.30 
  -1   1   6    5.37    0.24 
   0  -1   6    0.73    0.14 
   0  -1  -6    0.95    0.17 
   0  -1   6    0.80    0.18 
   0  -1  -6    1.13    0.26 
   0  -1   6    0.99    0.28 
   0  -1   6    1.06    0.21 
   0  -1  -6    1.05    0.19 
   0  -1   6    0.84    0.19 
   0  -1   6    0.65    0.17 
   0  -1  -6    0.86    0.19 
   0   1  -6    0.08    0.10 
   0   1   6    0.44    0.15 
   0   1  -6    0.17    0.10 
   0   1  -6    0.10    0.14 
   0   1   6    0.23    0.19 
   0   1   6    0.00    0.11 
   0   1  -6    0.29    0.16 
   0   1   6    0.26    0.13 
  -1  -1  -6    5.55    0.26 
   1  -1   6    5.16    0.27 
  -1  -1  -6    5.10    0.38 
   1  -1   6    4.62    0.34 
  -1  -1  -6    5.16    0.27 
  -1  -1  -6    5.14    0.29 
  -1  -1  -6    5.55    0.24 
   1  -1   6    5.51    0.29 
   1  -1   6    5.15    0.29 
  -1   1  -6    5.29    0.25 
   1   1   6    5.33    0.30 
  -1   1  -6    5.31    0.28 
   1   1   6    5.62    0.28 
   1   1   6    5.11    0.36 
  -1   1  -6    5.45    0.26 
  -1   1  -6    5.32    0.37 
  -1   1  -6    5.10    0.24 
   1   1   6    5.46    0.31 
  -1   1  -6    5.31    0.30 
   2  -1   6   24.87    0.78 
  -2  -1  -6   22.53    1.29 
   2  -1   6   22.94    0.78 
   2  -1   6   23.93    0.89 
  -2  -1  -6   23.83    0.77 
  -2  -1  -6   23.87    0.84 
  -2  -1  -6   22.55    0.97 
  -2   1  -6   22.21    0.71 
   2   1   6   22.51    0.75 
  -2   1  -6   21.15    0.86 
  -2   1  -6   21.05    0.78 
   2   1   6   23.24    0.85 
  -2   1  -6   22.18    0.90 
  -2   1  -6   20.10    0.87 
   2   1   6   22.93    0.75 
  -3  -1  -6   20.41    0.82 
  -3  -1  -6   20.65    0.72 
   3  -1   6   19.95    0.69 
  -3  -1  -6   20.30    0.70 
   3  -1   6   20.34    0.79 
   3  -1   6   18.96    0.69 
  -3  -1  -6   20.54    0.87 
   3   1   6   17.81    0.67 
  -3   1  -6   19.29    0.80 
   3   1   6   19.72    0.77 
   3   1   6   18.40    0.67 
  -3   1  -6   18.39    0.81 
  -3   1  -6   19.03    0.75 
  -3   1  -6   19.37    0.78 
  -4  -1  -6   11.03    0.43 
  -4  -1  -6   10.36    0.38 
  -4  -1  -6   10.27    0.41 
  -4  -1  -6   10.75    0.46 
  -4  -1  -6    8.99    0.54 
  -4  -1  -6   10.69    0.33 
  -4  -1  -6   10.72    0.51 
   4   1   6   12.75    0.57 
  -4   1  -6   12.21    0.61 
  -4   1  -6   12.94    0.36 
  -4   1  -6   12.69    0.42 
  -5  -1  -6    0.26    0.22 
  -5  -1  -6    0.27    0.09 
  -5  -1  -6    0.24    0.07 
  -5  -1  -6    0.06    0.18 
  -5   1  -6    0.10    0.20 
  -5   1  -6    0.42    0.10 
  -5   1  -6    0.22    0.06 
  -6  -1  -6   10.22    0.32 
  -6  -1  -6    9.92    0.32 
  -6   1  -6   10.52    0.46 
  -6   1  -6   10.60    0.34 
  -7  -2   6    3.57    0.29 
  -7  -2   6    3.41    0.10 
  -7  -2   6    3.50    0.13 
  -7  -2   6    3.19    0.24 
  -7  -2   6    3.55    0.14 
  -7   2   6    3.84    0.23 
  -7   2   6    4.18    0.14 
  -6  -2   6    6.85    0.36 
  -6  -2   6    6.75    0.43 
  -6  -2   6    6.59    0.25 
  -6  -2   6    6.72    0.21 
  -6  -2   6    6.65    0.21 
  -6   2   6    6.30    0.32 
  -6   2   6    6.49    0.18 
  -6   2   6    6.58    0.24 
  -6   2   6    6.31    0.23 
  -6   2   6    6.75    0.33 
  -6   2   6    6.87    0.33 
  -6   2   6    6.33    0.18 
  -5  -2   6   19.00    0.75 
  -5  -2   6   21.35    0.81 
  -5  -2   6   19.37    0.54 
  -5  -2   6   19.59    0.51 
  -5  -2   6   19.11    0.62 
   5  -2  -6   17.56    0.72 
  -5  -2   6   21.41    0.79 
  -5  -2   6   21.12    0.75 
  -5  -2   6   20.09    0.82 
  -5  -2   6   18.84    0.91 
  -5   2   6   19.66    0.53 
  -5   2   6   19.90    0.68 
  -5   2   6   20.31    0.73 
  -5   2   6   19.67    0.62 
  -5   2   6   20.28    0.51 
  -5   2   6   20.67    0.82 
   5   2  -6   20.41    0.80 
   4  -2  -6   11.39    0.46 
   4  -2  -6   11.94    0.45 
  -4  -2   6   11.24    0.57 
  -4  -2   6   12.04    0.49 
   4  -2  -6   11.13    0.44 
  -4  -2   6   11.58    0.52 
  -4  -2   6   11.56    0.53 
  -4   2   6   11.29    0.53 
   4   2  -6   11.50    0.46 
   4   2  -6   11.30    0.48 
  -4   2   6   12.17    0.51 
   4   2  -6   11.60    0.53 
   3  -2  -6   72.38    2.16 
  -3  -2   6   68.41    2.81 
  -3  -2   6   69.52    3.59 
  -3  -2   6   70.10    2.39 
  -3  -2   6   71.15    1.94 
   3  -2  -6   72.09    2.32 
  -3  -2   6   73.98    3.72 
  -3  -2   6   68.30    2.65 
  -3  -2   6   72.40    2.35 
   3  -2  -6   71.53    2.13 
   3   2  -6   67.27    2.01 
   3   2  -6   67.09    2.00 
  -3   2   6   60.83    2.44 
   3   2  -6   66.94    2.29 
  -3   2   6   64.28    2.36 
  -3   2   6   67.82    3.25 
  -2  -2   6    4.58    0.43 
  -2  -2   6    5.50    0.30 
   2  -2  -6    5.74    0.28 
  -2  -2   6    5.60    0.51 
  -2  -2   6    5.54    0.31 
  -2  -2   6    5.73    0.28 
   2  -2  -6    5.33    0.28 
   2  -2  -6    5.04    0.35 
   2   2  -6    5.30    0.28 
   2   2  -6    5.00    0.29 
   2   2  -6    5.71    0.33 
   2   2  -6    5.05    0.29 
  -2   2   6    5.21    0.35 
   2   2  -6    3.93    0.33 
  -2   2   6    5.48    0.44 
  -2   2   6    5.04    0.22 
  -2   2   6    4.66    0.32 
  -2   2   6    5.23    0.23 
  -1  -2   6    5.87    0.33 
  -1  -2   6    6.49    0.56 
  -1  -2   6    6.38    0.30 
   1  -2  -6    5.82    0.30 
   1  -2  -6    5.80    0.31 
   1  -2  -6    5.67    0.33 
   1   2  -6    3.64    0.26 
  -1   2   6    3.55    0.26 
   1   2  -6    3.61    0.28 
   1   2  -6    3.67    0.27 
  -1   2   6    3.93    0.23 
  -1   2   6    3.11    0.32 
   1   2  -6    3.36    0.24 
   1   2  -6    3.35    0.22 
  -1   2   6    3.66    0.27 
   0  -2  -6    5.61    0.31 
   0  -2   6    6.54    0.33 
   0  -2  -6    5.63    0.31 
   0  -2   6    5.98    0.33 
   0  -2  -6    6.74    0.30 
   0  -2   6    6.30    0.29 
   0  -2  -6    5.94    0.31 
   0   2  -6    5.65    0.26 
   0   2  -6    5.54    0.42 
   0   2   6    5.71    0.28 
   0   2   6    5.40    0.32 
   0   2  -6    5.64    0.26 
   0   2   6    5.20    0.31 
   0   2  -6    5.82    0.31 
   0   2  -6    5.54    0.30 
  -1  -2  -6   39.87    1.29 
  -1  -2  -6   39.01    1.90 
  -1  -2  -6   35.85    1.53 
   1  -2   6   39.50    1.24 
  -1  -2  -6   39.44    1.21 
   1  -2   6   40.39    1.24 
   1  -2   6   40.39    1.41 
  -1  -2  -6   39.79    1.33 
  -1  -2  -6   39.52    1.12 
  -1   2  -6   35.05    1.12 
  -1   2  -6   35.64    1.75 
  -1   2  -6   37.55    1.04 
  -1   2  -6   37.53    1.21 
   1   2   6   39.47    1.35 
   1   2   6   39.16    1.19 
   1   2   6   36.47    1.17 
  -1   2  -6   35.00    1.43 
   1   2   6   36.45    1.24 
   2  -2   6   12.39    0.53 
  -2  -2  -6   12.19    0.49 
  -2  -2  -6   12.15    0.41 
   2  -2   6   11.76    0.47 
  -2  -2  -6   11.33    0.60 
  -2  -2  -6   12.40    0.52 
   2  -2   6   12.44    0.49 
  -2   2  -6   12.09    0.56 
   2   2   6   12.06    0.49 
   2   2   6   11.31    0.48 
  -2   2  -6   12.41    0.61 
  -2   2  -6   11.66    0.44 
   2   2   6   12.55    0.55 
  -2   2  -6   11.16    0.52 
   3  -2   6   23.14    0.88 
  -3  -2  -6   22.87    0.92 
  -3  -2  -6   21.54    0.81 
   3  -2   6   23.00    0.77 
  -3  -2  -6   22.02    0.78 
  -3  -2  -6   23.51    0.98 
  -3   2  -6   23.67    0.96 
  -3   2  -6   23.94    0.92 
   3   2   6   21.60    0.80 
  -3   2  -6   22.93    0.88 
  -3   2  -6   23.57    0.94 
   3   2   6   23.62    0.92 
   3   2   6   22.17    0.81 
  -4  -2  -6    5.80    0.30 
  -4  -2  -6    6.17    0.32 
  -4  -2  -6    6.14    0.24 
  -4  -2  -6    5.96    0.34 
  -4  -2  -6    6.15    0.48 
  -4  -2  -6    5.80    0.27 
  -4  -2  -6    6.58    0.41 
  -4   2  -6    5.77    0.24 
  -4   2  -6    5.85    0.42 
   4   2   6    5.71    0.36 
  -4   2  -6    6.15    0.21 
  -5  -2  -6    2.81    0.15 
  -5  -2  -6    2.83    0.34 
  -5  -2  -6    3.05    0.17 
  -5   2  -6    3.01    0.31 
  -5   2  -6    3.02    0.11 
  -5   2  -6    3.07    0.14 
  -5   2  -6    3.27    0.14 
  -6  -3   6    7.08    0.26 
  -6  -3   6    6.82    0.21 
  -6  -3   6    6.70    0.34 
  -6  -3   6    7.56    0.44 
  -6  -3   6    6.67    0.22 
  -6   3   6    8.04    0.22 
  -6   3   6    8.81    0.42 
  -6   3   6    8.59    0.28 
  -6   3   6    8.41    0.29 
  -6   3   6    8.36    0.37 
  -5  -3   6    1.61    0.27 
  -5  -3   6    1.71    0.16 
  -5  -3   6    1.52    0.13 
  -5  -3   6    1.47    0.19 
  -5  -3   6    1.70    0.19 
  -5  -3   6    1.92    0.33 
  -5  -3   6    1.72    0.14 
   5   3  -6    1.57    0.24 
  -5   3   6    1.64    0.29 
  -5   3   6    1.89    0.12 
  -5   3   6    1.63    0.15 
  -5   3   6    2.23    0.24 
  -5   3   6    1.81    0.12 
  -4  -3   6   19.36    0.74 
   4  -3  -6   20.15    0.67 
  -4  -3   6   19.49    0.77 
  -4  -3   6   18.98    0.85 
   4  -3  -6   18.76    0.67 
   4  -3  -6   18.67    0.71 
  -4  -3   6   18.49    0.80 
  -4   3   6   18.39    0.74 
   4   3  -6   17.26    0.67 
  -4   3   6   17.81    0.75 
   4   3  -6   18.19    0.66 
   4   3  -6   18.53    0.75 
  -4   3   6   18.70    0.76 
  -3  -3   6    6.13    0.49 
   3  -3  -6    6.22    0.32 
  -3  -3   6    6.58    0.40 
  -3  -3   6    6.15    0.59 
  -3  -3   6    6.55    0.37 
   3  -3  -6    6.31    0.33 
  -3  -3   6    6.50    0.32 
  -3  -3   6    6.61    0.41 
   3   3  -6    5.95    0.35 
  -3   3   6    5.59    0.37 
   3   3  -6    5.90    0.31 
   3   3  -6    5.83    0.33 
  -2  -3   6   55.36    1.87 
  -2  -3   6   54.20    1.89 
  -2  -3   6   54.45    1.57 
  -2  -3   6   55.06    1.81 
   2  -3  -6   55.20    1.72 
  -2  -3   6   58.90    2.97 
   2  -3  -6   56.25    1.70 
   2  -3  -6   53.65    1.93 
   2   3  -6   54.87    1.77 
   2   3  -6   54.99    1.91 
  -2   3   6   51.94    1.48 
  -2   3   6   52.48    2.04 
   2   3  -6   54.60    1.67 
  -1  -3   6    8.16    0.38 
  -1  -3   6    8.25    0.41 
   1  -3  -6    9.06    0.38 
  -1  -3   6    8.78    0.43 
   1  -3  -6    8.94    0.48 
   1  -3  -6    8.53    0.40 
   1  -3  -6    8.51    0.38 
  -1   3   6    8.18    0.38 
  -1   3   6    7.90    0.33 
   1   3  -6    8.48    0.34 
   1   3  -6    8.50    0.39 
  -1   3   6    7.23    0.44 
   1   3  -6    8.56    0.34 
  -1   3   6    6.62    0.51 
  -1   3   6    8.13    0.38 
   0  -3   6   44.04    1.38 
   0  -3  -6   42.30    1.57 
   0  -3  -6   42.62    1.37 
   0  -3  -6   44.43    1.26 
   0  -3  -6   44.26    1.35 
   0  -3  -6   44.51    1.45 
   0  -3   6   44.49    1.39 
   0   3   6   40.30    1.17 
   0   3  -6   39.18    1.37 
   0   3  -6   38.97    1.57 
   0   3  -6   41.16    1.16 
   0   3  -6   39.63    1.97 
   0   3  -6   42.86    1.23 
   0   3  -6   39.57    1.33 
   0   3   6   40.94    1.35 
   1  -3   6   25.75    0.85 
  -1  -3  -6   25.36    0.85 
  -1  -3  -6   24.77    0.89 
  -1  -3  -6   26.06    0.99 
   1  -3   6   25.06    0.87 
  -1  -3  -6   25.16    0.91 
  -1  -3  -6   26.04    0.78 
  -1   3  -6   24.97    0.78 
   1   3   6   21.78    0.94 
   1   3   6   24.79    0.83 
  -1   3  -6   23.80    1.00 
  -1   3  -6   25.12    0.72 
  -1   3  -6   24.20    0.96 
   1   3   6   24.85    0.88 
  -2  -3  -6   17.42    0.64 
   2  -3   6   17.16    0.62 
  -2  -3  -6   16.90    0.70 
   2  -3   6   16.98    0.70 
  -2  -3  -6   16.80    0.81 
   2  -3   6   17.16    0.65 
  -2  -3  -6   17.56    0.55 
  -2   3  -6   15.81    0.56 
  -2   3  -6   16.69    0.72 
   2   3   6   15.00    0.69 
   2   3   6   14.02    0.60 
   2   3   6   16.90    0.61 
  -2   3  -6   16.15    0.67 
  -3  -3  -6   14.71    0.79 
   3  -3   6   14.41    0.63 
   3  -3   6   14.77    0.56 
  -3  -3  -6   15.34    0.73 
  -3  -3  -6   14.49    0.59 
  -3  -3  -6   14.56    0.60 
  -3  -3  -6   15.95    0.69 
   3   3   6   13.87    0.58 
   3   3   6   13.77    0.66 
  -3   3  -6   15.12    0.65 
  -3   3  -6   15.22    0.59 
  -3   3  -6   14.80    0.62 
   3   3   6   13.63    0.58 
  -4  -3  -6    3.93    0.36 
  -4  -3  -6    3.62    0.23 
  -4  -3  -6    3.24    0.25 
  -4  -3  -6    3.82    0.42 
  -4  -3  -6    3.44    0.26 
  -4   3  -6    2.82    0.14 
  -4   3  -6    2.68    0.16 
  -4   3  -6    2.34    0.33 
  -5  -3  -6    3.39    0.18 
  -5  -3  -6    3.65    0.15 
  -5  -3  -6    3.58    0.15 
  -5  -3  -6    2.73    0.31 
  -5   3  -6    3.10    0.28 
  -5   3  -6    3.23    0.13 
  -5   3  -6    3.56    0.15 
  -6  -4   6    1.77    0.13 
  -6  -4   6    1.75    0.10 
  -6  -4   6    1.77    0.24 
  -6  -4   6    1.83    0.10 
  -6   4   6    1.71    0.09 
  -6   4   6    1.66    0.08 
  -5  -4   6   10.56    0.53 
  -5  -4   6   11.11    0.38 
  -5  -4   6   10.91    0.56 
  -5  -4   6   10.33    0.45 
  -5  -4   6   10.92    0.47 
  -5   4   6   11.37    0.52 
  -5   4   6   11.38    0.31 
   5   4  -6   11.00    0.38 
  -5   4   6   10.98    0.30 
  -5   4   6   11.04    0.37 
  -4  -4   6    0.26    0.17 
  -4  -4   6    0.31    0.06 
  -4  -4   6    0.53    0.21 
  -4  -4   6    0.20    0.08 
  -4  -4   6    0.26    0.26 
  -4  -4   6    0.52    0.11 
  -4  -4   6    0.32    0.07 
  -4  -4   6    0.39    0.13 
   4   4  -6    0.30    0.16 
  -4   4   6    0.24    0.08 
  -4   4   6    0.29    0.11 
  -4   4   6    0.45    0.12 
  -4   4   6    0.28    0.08 
  -4   4   6    0.49    0.16 
   4   4  -6    0.51    0.11 
   4   4  -6    0.29    0.23 
  -4   4   6    0.22    0.10 
  -4   4   6    0.34    0.18 
   3  -4  -6   13.72    0.53 
   3  -4  -6   13.94    0.54 
  -3  -4   6   13.20    0.49 
  -3  -4   6   13.88    0.67 
  -3  -4   6   13.46    0.62 
  -3   4   6   13.79    0.65 
   3   4  -6   13.43    0.55 
   3   4  -6   12.36    0.60 
  -3   4   6   13.78    0.60 
  -2  -4   6    3.50    0.53 
   2  -4  -6    3.46    0.33 
   2  -4  -6    2.99    0.27 
  -2  -4   6    3.55    0.30 
  -2  -4   6    3.13    0.28 
   2  -4  -6    3.45    0.27 
  -2  -4   6    3.37    0.31 
  -2  -4   6    3.84    0.32 
  -2   4   6    3.40    0.36 
   2   4  -6    3.24    0.29 
   2   4  -6    3.11    0.31 
   1  -4  -6   39.52    1.27 
  -1  -4   6   41.28    1.43 
   1  -4  -6   40.24    1.36 
  -1  -4   6   39.46    1.38 
  -1  -4   6   39.29    1.20 
   1  -4  -6   40.24    1.46 
  -1   4   6   36.42    1.27 
  -1   4   6   37.43    1.52 
  -1   4   6   36.29    1.10 
   1   4  -6   38.89    1.30 
  -1   4   6   39.15    1.29 
   1   4  -6   39.15    1.12 
   0  -4   6    9.43    0.46 
   0  -4  -6    9.35    0.51 
   0  -4  -6    9.60    0.46 
   0  -4  -6   10.20    0.42 
   0  -4   6    8.85    0.48 
   0   4  -6    8.83    0.41 
   0   4  -6    8.61    0.42 
   0   4   6    9.52    0.40 
   0   4  -6    9.39    0.37 
   0   4   6    8.87    0.45 
   0   4  -6    9.68    0.57 
   1  -4   6    7.14    0.36 
   1  -4   6    7.65    0.42 
  -1  -4  -6    7.52    0.40 
  -1  -4  -6    7.03    0.44 
  -1  -4  -6    7.61    0.37 
  -1  -4  -6    7.14    0.39 
  -1  -4  -6    7.23    0.39 
   1   4   6    5.54    0.35 
   1   4   6    5.42    0.36 
  -1   4  -6    5.34    0.40 
  -2  -4  -6    5.96    0.50 
   2  -4   6    5.76    0.32 
  -2  -4  -6    6.34    0.48 
   2  -4   6    5.57    0.38 
  -2  -4  -6    5.77    0.36 
  -2  -4  -6    5.74    0.29 
  -2   4  -6    4.55    0.29 
   2   4   6    5.94    0.40 
   2   4   6    5.53    0.39 
   2   4   6    4.99    0.35 
  -2   4  -6    5.72    0.39 
  -2   4  -6    5.59    0.35 
  -3  -4  -6    2.83    0.42 
  -3  -4  -6    2.17    0.35 
  -3  -4  -6    2.79    0.38 
  -3  -4  -6    2.58    0.22 
  -3  -4  -6    3.24    0.29 
  -3  -4  -6    2.75    0.15 
  -3  -4  -6    3.11    0.27 
  -3  -4  -6    2.76    0.23 
  -3   4  -6    2.92    0.22 
   3   4   6    2.81    0.22 
  -3   4  -6    2.90    0.15 
  -3   4  -6    2.95    0.17 
   3   4   6    2.22    0.30 
  -3   4  -6    2.77    0.19 
  -3   4  -6    2.93    0.26 
  -3   4  -6    2.93    0.24 
  -3   4  -6    2.86    0.16 
  -3   4  -6    3.19    0.19 
  -4  -4  -6    6.82    0.36 
  -4  -4  -6    6.91    0.47 
  -4  -4  -6    7.18    0.29 
  -4  -4  -6    7.28    0.35 
  -4   4  -6    7.04    0.25 
   4   4   6    6.66    0.28 
  -4   4  -6    7.24    0.21 
  -5  -4  -6    7.17    0.25 
  -5  -4  -6    6.81    0.20 
  -5  -4  -6    7.06    0.21 
  -5   4  -6    6.82    0.21 
  -5   4  -6    6.41    0.21 
  -5   4  -6    5.90    0.21 
   5   4   6    6.28    0.23 
  -5  -5   6    0.79    0.23 
  -5  -5   6    1.02    0.16 
  -5  -5   6    1.18    0.13 
  -5   5   6    0.97    0.09 
  -5   5   6    0.82    0.11 
   5   5  -6    0.89    0.14 
  -5   5   6    0.96    0.08 
  -4  -5   6    4.06    0.27 
  -4  -5   6    4.04    0.21 
  -4  -5   6    4.19    0.15 
  -4  -5   6    4.43    0.35 
  -4  -5   6    3.93    0.17 
  -4   5   6    3.45    0.31 
  -4   5   6    3.64    0.21 
   4   5  -6    3.90    0.20 
  -4   5   6    3.54    0.16 
  -4   5   6    3.39    0.17 
  -3  -5   6    4.66    0.31 
  -3  -5   6    4.64    0.22 
   3  -5  -6    5.15    0.42 
   3  -5  -6    4.80    0.32 
  -3  -5   6    5.22    0.25 
  -3  -5   6    4.74    0.23 
  -3  -5   6    4.97    0.20 
  -3  -5   6    5.01    0.36 
  -3   5   6    4.87    0.26 
  -3   5   6    4.66    0.30 
  -3   5   6    4.51    0.17 
   3   5  -6    4.64    0.23 
  -3   5   6    4.95    0.37 
  -3   5   6    4.65    0.25 
   3   5  -6    3.95    0.34 
  -3   5   6    4.59    0.32 
   3   5  -6    3.83    0.36 
   2  -5  -6   26.98    0.91 
   2  -5  -6   26.25    0.82 
  -2  -5   6   24.92    0.98 
  -2  -5   6   26.85    0.82 
  -2  -5   6   25.75    0.97 
   2  -5  -6   28.44    1.06 
  -2  -5   6   26.01    0.90 
  -2  -5   6   25.41    1.00 
  -2  -5   6   27.41    0.86 
  -2  -5   6   26.62    0.68 
  -2  -5   6   28.26    1.03 
  -2   5   6   28.17    0.74 
  -2   5   6   26.53    0.90 
  -2   5   6   28.94    0.86 
  -2   5   6   28.49    0.96 
  -2   5   6   30.23    1.20 
  -2   5   6   27.58    0.91 
  -2   5   6   28.80    0.97 
  -2   5   6   29.39    0.80 
  -2   5   6   29.14    1.10 
   2   5  -6   27.80    0.90 
  -2   5   6   29.14    1.10 
   2   5  -6   28.38    0.86 
   2   5  -6   29.14    0.89 
   2   5  -6   28.78    1.05 
  -1  -5   6    2.79    0.34 
   1  -5  -6    2.88    0.29 
   1  -5  -6    3.18    0.32 
  -1  -5   6    3.50    0.36 
  -1  -5   6    2.46    0.35 
   1  -5  -6    3.36    0.38 
  -1   5   6    2.28    0.37 
   1   5  -6    2.63    0.28 
  -1   5   6    2.73    0.24 
   1   5  -6    2.71    0.28 
   1   5  -6    2.92    0.30 
  -1   5   6    2.62    0.17 
   0  -5   6   19.23    0.80 
   0  -5  -6   19.73    0.85 
   0  -5   6   18.79    0.73 
   0  -5  -6   18.73    0.66 
   0  -5  -6   20.00    0.76 
   0   5  -6   20.83    0.67 
   0   5   6   21.63    0.86 
   0   5  -6   20.93    0.72 
   0   5   6   20.27    0.80 
   0   5   6   20.87    0.70 
   0   5   6   21.18    0.80 
  -1  -5  -6   24.26    0.93 
  -1  -5  -6   24.58    0.77 
   1  -5   6   24.23    0.74 
  -1  -5  -6   25.16    0.89 
  -1  -5  -6   24.00    0.90 
  -1  -5  -6   24.87    0.79 
  -1  -5  -6   23.76    0.63 
   1  -5   6   25.01    0.88 
  -1  -5  -6   24.09    0.85 
   1   5   6   23.60    0.75 
  -1   5  -6   23.72    0.77 
  -1   5  -6   23.70    0.85 
  -1   5  -6   23.63    0.75 
  -1   5  -6   24.51    0.69 
   1   5   6   24.08    0.78 
  -1   5  -6   23.35    0.79 
  -1   5  -6   25.78    1.04 
  -1   5  -6   25.05    0.94 
  -1   5  -6   24.59    0.82 
  -1   5  -6   25.19    0.64 
  -1   5  -6   24.31    0.83 
   1   5   6   23.96    0.79 
   1   5   6   23.59    0.95 
   1   5   6   24.64    0.92 
  -2  -5  -6    1.72    0.38 
  -2  -5  -6    1.59    0.17 
   2  -5   6    1.49    0.15 
  -2  -5  -6    1.88    0.27 
  -2  -5  -6    1.75    0.17 
  -2  -5  -6    1.55    0.20 
  -2  -5  -6    1.89    0.19 
  -2   5  -6    0.76    0.18 
  -2   5  -6    1.39    0.27 
  -2   5  -6    1.06    0.15 
   2   5   6    0.63    0.12 
  -2   5  -6    0.98    0.09 
  -2   5  -6    0.64    0.17 
  -2   5  -6    1.04    0.21 
  -2   5  -6    0.80    0.20 
  -2   5  -6    0.89    0.14 
   2   5   6    0.81    0.26 
  -3  -5  -6    2.76    0.37 
  -3  -5  -6    2.36    0.27 
  -3  -5  -6    2.40    0.19 
  -3  -5  -6    2.58    0.12 
  -3   5  -6    2.77    0.21 
  -3   5  -6    2.74    0.13 
  -3   5  -6    3.00    0.17 
   3   5   6    2.53    0.20 
  -3   5  -6    2.29    0.17 
  -3   5  -6    2.49    0.14 
  -3   5  -6    2.69    0.16 
  -4  -5  -6    4.26    0.23 
  -4  -5  -6    4.63    0.20 
  -4  -5  -6    4.16    0.31 
  -4   5  -6    4.07    0.13 
   4   5   6    4.28    0.18 
  -4   5  -6    3.98    0.16 
  -4  -6   6    1.13    0.08 
  -4  -6   6    1.08    0.11 
  -4  -6   6    1.28    0.16 
  -4   6   6    1.16    0.10 
   4   6  -6    1.11    0.13 
  -4   6   6    1.22    0.18 
  -4   6   6    1.13    0.13 
  -4   6   6    0.98    0.10 
   3  -6  -6    5.88    0.25 
  -3  -6   6    6.32    0.24 
  -3  -6   6    6.50    0.27 
  -3  -6   6    6.16    0.19 
  -3  -6   6    6.00    0.22 
   3   6  -6    7.02    0.27 
   3   6  -6    6.23    0.25 
  -3   6   6    6.75    0.28 
  -3   6   6    6.80    0.28 
  -3   6   6    6.68    0.33 
  -3   6   6    6.79    0.35 
  -2  -6   6    2.84    0.10 
   2  -6  -6    2.48    0.35 
   2  -6  -6    2.54    0.19 
  -2  -6   6    3.05    0.20 
  -2  -6   6    2.54    0.18 
  -2  -6   6    3.12    0.32 
   2   6  -6    2.82    0.13 
   2   6  -6    2.93    0.20 
  -2   6   6    2.58    0.21 
  -2   6   6    2.66    0.13 
  -2   6   6    2.24    0.33 
  -2   6   6    2.66    0.16 
  -2   6   6    2.75    0.27 
  -2   6   6    2.98    0.28 
  -2   6   6    2.69    0.20 
   1  -6  -6   16.93    0.53 
  -1  -6   6   16.07    0.92 
   1  -6  -6   15.61    0.74 
  -1  -6   6   17.03    0.54 
  -1  -6   6   16.99    0.71 
  -1   6   6   17.00    0.51 
  -1   6   6   17.46    0.71 
  -1   6   6   17.78    0.61 
  -1   6   6   18.00    0.56 
   1   6  -6   17.51    0.62 
  -1   6   6   17.36    0.62 
   1   6  -6   17.38    0.56 
  -1   6   6   16.42    0.58 
  -1   6   6   16.96    0.47 
   1   6  -6   17.45    0.44 
  -1   6   6   17.28    0.72 
   0  -6   6    2.69    0.16 
   0  -6   6    2.67    0.33 
   0  -6  -6    2.49    0.36 
   0  -6  -6    2.20    0.22 
   0   6  -6    2.44    0.15 
   0   6  -6    2.68    0.20 
   0   6   6    2.28    0.22 
   0   6  -6    2.64    0.12 
   0   6   6    2.36    0.21 
   0   6  -6    2.63    0.19 
   0   6   6    2.52    0.19 
   0   6  -6    2.98    0.25 
   0   6  -6    2.39    0.15 
   0   6   6    2.53    0.29 
   0   6  -6    2.67    0.18 
  -1  -6  -6    3.19    0.21 
  -1  -6  -6    3.43    0.11 
   1  -6   6    3.24    0.17 
  -1  -6  -6    3.08    0.23 
  -1  -6  -6    3.27    0.40 
   1   6   6    3.20    0.27 
  -1   6  -6    2.93    0.20 
   1   6   6    2.48    0.21 
  -1   6  -6    3.13    0.21 
  -1   6  -6    2.46    0.23 
   1   6   6    2.81    0.14 
   1   6   6    2.94    0.21 
  -1   6  -6    3.01    0.12 
  -1   6  -6    2.88    0.18 
  -1   6  -6    2.92    0.15 
  -1   6  -6    2.46    0.34 
  -2  -6  -6    1.42    0.13 
  -2  -6  -6    1.62    0.10 
  -2  -6  -6    1.31    0.17 
   2  -6   6    1.44    0.13 
  -2  -6  -6    1.45    0.11 
  -2  -6  -6    1.26    0.32 
   2   6   6    1.22    0.18 
  -2   6  -6    1.24    0.17 
  -2   6  -6    1.44    0.15 
  -2   6  -6    1.49    0.14 
  -2   6  -6    1.10    0.17 
   2   6   6    1.40    0.14 
   3  -6   6    3.36    0.15 
  -3  -6  -6    3.63    0.17 
  -3  -6  -6    3.56    0.13 
  -3  -6  -6    4.18    0.34 
  -3  -6  -6    3.73    0.24 
  -3   6  -6    4.17    0.17 
  -3   6  -6    4.13    0.14 
  -3   6  -6    4.08    0.14 
   3   6   6    4.18    0.17 
  -3   6  -6    4.23    0.20 
  -3   6  -6    4.20    0.18 
  -3  -7   6   16.59    0.45 
  -3  -7   6   16.24    0.48 
  -3  -7   6   16.23    0.55 
   3  -7  -6   15.82    0.49 
  -3   7   6   15.49    0.59 
  -3   7   6   15.93    0.58 
  -3   7   6   15.99    0.49 
  -3   7   6   15.07    0.48 
   3   7  -6   15.39    0.48 
  -2  -7   6    3.90    0.17 
   2  -7  -6    3.84    0.17 
  -2  -7   6    3.41    0.16 
  -2  -7   6    4.08    0.18 
  -2   7   6    4.58    0.25 
  -2   7   6    4.27    0.19 
  -2   7   6    4.54    0.24 
   2   7  -6    4.30    0.19 
  -2   7   6    4.33    0.19 
   1  -7  -6    1.55    0.16 
  -1  -7   6    1.80    0.14 
   1  -7  -6    1.86    0.13 
  -1  -7   6    1.87    0.08 
  -1   7   6    1.84    0.19 
  -1   7   6    1.52    0.20 
  -1   7   6    1.67    0.15 
   1   7  -6    1.84    0.09 
  -1   7   6    1.63    0.10 
   1   7  -6    1.73    0.13 
   1   7  -6    1.58    0.14 
   1   7  -6    1.77    0.11 
  -1   7   6    1.86    0.12 
   1   7  -6    1.68    0.12 
  -1   7   6    1.84    0.14 
   0  -7   6    1.92    0.14 
   0  -7  -6    1.98    0.13 
   0  -7   6    1.97    0.12 
   0  -7  -6    2.02    0.09 
   0  -7  -6    1.83    0.16 
   0  -7   6    2.07    0.19 
   0   7   6    1.21    0.09 
   0   7  -6    1.26    0.15 
   0   7   6    1.20    0.08 
   0   7  -6    1.20    0.08 
   0   7   6    0.98    0.13 
   0   7   6    1.18    0.14 
   0   7  -6    1.26    0.10 
   0   7  -6    1.23    0.12 
   0   7   6    1.33    0.18 
   0   7   6    1.12    0.12 
   0   7  -6    1.08    0.17 
  -1  -7  -6    0.30    0.07 
   1  -7   6    0.26    0.07 
  -1  -7  -6    0.31    0.09 
  -1  -7  -6    0.23    0.07 
   1   7   6    0.47    0.12 
  -1   7  -6    0.35    0.09 
  -1   7  -6    0.65    0.12 
  -1   7  -6    0.19    0.09 
  -1   7  -6    0.42    0.11 
  -7   0   7   -0.06    0.10 
  -7   0   7    0.15    0.04 
  -7   0   7    0.12    0.04 
  -6   0   7    2.80    0.23 
  -6   0   7    2.64    0.11 
  -6   0   7    2.46    0.14 
  -6   0   7    2.87    0.29 
  -6   0   7    2.19    0.31 
  -6   0   7    2.69    0.12 
  -5   0   7    3.48    0.36 
  -5   0   7    3.52    0.21 
  -5   0   7    3.88    0.16 
  -5   0   7    3.99    0.17 
   5   0  -7    3.36    0.26 
   4   0  -7    0.44    0.18 
  -4   0   7    0.20    0.16 
   4   0  -7   -0.02    0.13 
  -4   0   7   -0.02    0.15 
  -4   0   7   -0.03    0.24 
  -4   0   7    0.15    0.11 
   4   0  -7    0.14    0.24 
  -4   0   7    0.39    0.29 
  -3   0   7   20.04    1.15 
   3   0  -7   20.50    0.69 
  -3   0   7   19.67    0.76 
   3   0  -7   21.14    0.80 
  -3   0   7   19.59    0.84 
   3   0  -7   20.56    0.69 
  -3   0   7   20.61    1.24 
  -3   0   7   19.31    0.80 
  -2   0   7   14.42    0.67 
  -2   0   7   16.14    0.58 
   2   0  -7   15.79    0.55 
  -2   0   7   16.16    0.51 
  -2   0   7   16.25    0.98 
   2   0  -7   15.56    0.56 
  -2   0   7   14.15    0.84 
   2   0  -7   15.40    0.72 
  -1   0   7    6.78    0.31 
  -1   0   7    7.38    0.35 
   1   0  -7    7.18    0.31 
   1   0  -7    7.37    0.32 
   1   0  -7    7.69    0.35 
  -1   0   7    7.47    0.57 
   1   0  -7    7.65    0.37 
   0   0  -7    2.75    0.21 
   0   0   7    2.28    0.22 
   0   0  -7    2.31    0.21 
   0   0   7    1.73    0.22 
   0   0  -7    2.15    0.23 
   0   0   7    2.17    0.21 
   0   0  -7    2.58    0.31 
  -1   0  -7    0.72    0.21 
  -1   0  -7    1.18    0.19 
   1   0   7    0.85    0.16 
  -1   0  -7    1.27    0.18 
   1   0   7    1.14    0.19 
  -1   0  -7    0.74    0.18 
  -1   0  -7    1.19    0.19 
  -1   0  -7    0.90    0.20 
  -1   0  -7    1.00    0.25 
   1   0   7    1.25    0.22 
  -2   0  -7   35.35    1.36 
  -2   0  -7   35.14    1.11 
   2   0   7   36.64    1.15 
   2   0   7   35.91    1.15 
  -2   0  -7   34.59    1.22 
  -2   0  -7   35.54    1.41 
   2   0   7   36.83    1.31 
  -2   0  -7   35.69    1.32 
   3   0   7    0.16    0.26 
  -3   0  -7    0.22    0.20 
  -3   0  -7   -0.02    0.09 
   3   0   7   -0.06    0.18 
  -3   0  -7    0.05    0.19 
   3   0   7    0.01    0.15 
  -4   0  -7    1.04    0.30 
  -4   0  -7    0.51    0.11 
  -4   0  -7    0.85    0.14 
  -4   0  -7    0.62    0.16 
  -5   0  -7    6.12    0.23 
  -5   0  -7    6.29    0.20 
  -5   0  -7    7.18    0.39 
  -7  -1   7    1.37    0.08 
  -7  -1   7    1.41    0.22 
  -7  -1   7    1.51    0.07 
  -7  -1   7    1.61    0.08 
  -7   1   7    1.05    0.18 
  -7   1   7    1.39    0.08 
  -6  -1   7    7.73    0.38 
  -6  -1   7    7.32    0.22 
  -6  -1   7    7.09    0.26 
  -6  -1   7    7.51    0.22 
  -6  -1   7    7.28    0.44 
  -6   1   7    6.28    0.19 
  -6   1   7    5.88    0.37 
  -6   1   7    6.40    0.31 
  -6   1   7    6.48    0.19 
  -6   1   7    6.44    0.24 
  -5  -1   7    0.34    0.09 
  -5  -1   7    0.29    0.09 
  -5  -1   7    0.42    0.07 
  -5  -1   7    0.30    0.15 
  -5  -1   7    0.50    0.11 
  -5  -1   7    0.55    0.13 
  -5  -1   7    0.38    0.23 
  -5  -1   7    0.51    0.30 
  -5   1   7    0.76    0.14 
  -5   1   7    1.27    0.12 
  -5   1   7    1.37    0.11 
  -5   1   7    1.73    0.33 
  -5   1   7    1.10    0.22 
  -5   1   7    1.18    0.27 
   5   1  -7    1.18    0.25 
   4  -1  -7    9.32    0.39 
  -4  -1   7    9.16    0.49 
   4  -1  -7    9.31    0.40 
  -4  -1   7    9.93    0.78 
   4  -1  -7    9.16    0.40 
  -4  -1   7    9.69    0.44 
  -4  -1   7    9.49    0.49 
  -4  -1   7    9.26    0.44 
  -4   1   7   10.23    0.50 
  -4   1   7   10.12    0.45 
   4   1  -7    9.86    0.44 
  -4   1   7   10.12    0.52 
   4   1  -7    9.34    0.48 
   4   1  -7   10.16    0.42 
  -3  -1   7   35.81    1.05 
  -3  -1   7   40.82    2.06 
  -3  -1   7   36.88    1.27 
  -3  -1   7   29.88    1.91 
  -3  -1   7   35.64    1.41 
   3  -1  -7   37.84    1.15 
  -3  -1   7   36.66    1.28 
   3  -1  -7   37.11    1.16 
  -3   1   7   37.27    2.09 
  -3   1   7   37.41    1.40 
   3   1  -7   36.60    1.36 
  -3   1   7   37.31    1.95 
  -3   1   7   37.24    1.45 
  -3   1   7   38.19    1.32 
   3   1  -7   37.28    1.20 
   3   1  -7   38.14    1.19 
  -2  -1   7    5.65    0.36 
   2  -1  -7    7.31    0.44 
  -2  -1   7    6.16    0.54 
   2  -1  -7    5.94    0.29 
  -2  -1   7    5.58    0.30 
  -2  -1   7    5.96    0.32 
  -2  -1   7    5.96    0.32 
   2  -1  -7    6.08    0.31 
  -2  -1   7    5.93    0.46 
  -2   1   7    4.25    0.35 
  -2   1   7    5.09    0.26 
  -2   1   7    4.64    0.25 
   2   1  -7    4.92    0.30 
  -2   1   7    5.14    0.47 
   2   1  -7    4.06    0.36 
   2   1  -7    4.52    0.26 
   2   1  -7    5.08    0.29 
  -2   1   7    5.02    0.28 
   2   1  -7    5.05    0.31 
  -2   1   7    5.24    0.36 
   1  -1  -7    0.10    0.18 
  -1  -1   7    0.16    0.12 
  -1  -1   7    0.24    0.22 
  -1  -1   7   -0.06    0.17 
   1  -1  -7    0.06    0.13 
   1   1  -7    0.31    0.12 
  -1   1   7    0.54    0.15 
   1   1  -7    0.99    0.22 
  -1   1   7    0.61    0.11 
  -1   1   7    0.37    0.18 
   1   1  -7    0.32    0.10 
  -1   1   7    0.26    0.14 
   1   1  -7    0.52    0.14 
   0  -1  -7    2.83    0.23 
   0  -1  -7    3.12    0.27 
   0  -1   7    2.66    0.24 
   0  -1  -7    2.92    0.22 
   0  -1  -7    2.77    0.33 
   0  -1   7    2.77    0.25 
   0  -1   7    3.26    0.26 
   0   1   7    2.12    0.24 
   0   1   7    1.89    0.21 
   0   1  -7    2.38    0.20 
   0   1  -7    2.09    0.22 
   0   1  -7    1.90    0.27 
   0   1  -7    2.36    0.24 
   0   1  -7    2.46    0.24 
   0   1   7    1.89    0.24 
   0   1   7    2.37    0.25 
   1  -1   7   12.93    0.50 
  -1  -1  -7   11.51    0.72 
  -1  -1  -7   12.92    0.50 
  -1  -1  -7   12.50    0.44 
  -1  -1  -7   12.81    0.50 
   1  -1   7   13.59    0.49 
  -1  -1  -7   12.10    0.62 
   1  -1   7   13.73    0.55 
  -1  -1  -7   12.78    0.48 
  -1  -1  -7   12.68    0.58 
   1   1   7   13.35    0.49 
   1   1   7   13.06    0.50 
  -1   1  -7   10.41    0.68 
  -1   1  -7   12.86    0.60 
  -1   1  -7   11.93    0.59 
  -1   1  -7   12.93    0.50 
   1   1   7   12.96    0.55 
  -1   1  -7   13.35    0.53 
  -1   1  -7   12.68    0.43 
  -1   1  -7   12.45    0.46 
  -1   1  -7   12.56    0.46 
   1   1   7   12.66    0.56 
   2  -1   7   11.95    0.53 
   2  -1   7   11.60    0.46 
  -2  -1  -7   12.18    0.51 
  -2  -1  -7   11.31    0.60 
   2  -1   7   11.94    0.49 
  -2  -1  -7   12.03    0.48 
  -2  -1  -7   11.99    0.59 
   2   1   7   11.77    0.49 
   2   1   7   11.70    0.55 
   2   1   7   12.37    0.49 
  -2   1  -7   12.74    0.58 
  -2   1  -7   11.12    0.54 
  -2   1  -7   12.22    0.46 
  -2   1  -7   11.58    0.50 
  -2   1  -7   11.68    0.58 
  -3  -1  -7   11.77    0.61 
  -3  -1  -7   12.06    0.48 
  -3  -1  -7   11.86    0.49 
   3  -1   7   12.30    0.51 
   3  -1   7   11.97    0.54 
   3  -1   7   11.04    0.46 
  -3  -1  -7   11.86    0.56 
   3   1   7   12.28    0.50 
   3   1   7   11.01    0.55 
  -3   1  -7   11.20    0.59 
  -3   1  -7   11.36    0.57 
  -3   1  -7   11.98    0.52 
   3   1   7   11.39    0.49 
  -4  -1  -7   10.99    0.49 
  -4  -1  -7   11.55    0.35 
  -4  -1  -7   12.15    0.44 
  -4  -1  -7   11.81    0.41 
  -4   1  -7   12.39    0.36 
  -4   1  -7   12.63    0.42 
  -4   1  -7   12.95    0.61 
  -5  -1  -7    3.37    0.14 
  -5  -1  -7    3.42    0.17 
  -5  -1  -7    3.22    0.28 
  -5   1  -7    3.14    0.12 
  -5   1  -7    3.32    0.30 
  -7  -2   7    6.18    0.21 
  -7  -2   7    6.19    0.21 
  -7  -2   7    6.34    0.34 
  -7  -2   7    6.01    0.16 
  -7   2   7    5.64    0.19 
  -7   2   7    5.42    0.25 
  -6  -2   7    1.48    0.10 
  -6  -2   7    1.22    0.29 
  -6  -2   7    1.42    0.13 
  -6  -2   7    1.51    0.10 
  -6   2   7    1.39    0.21 
  -6   2   7    1.20    0.09 
  -6   2   7    1.36    0.10 
  -6   2   7    1.31    0.11 
  -6   2   7    1.28    0.08 
  -6   2   7    1.61    0.24 
  -6   2   7    1.57    0.21 
  -5  -2   7    2.01    0.14 
  -5  -2   7    1.91    0.27 
  -5  -2   7    2.29    0.27 
  -5  -2   7    2.02    0.19 
  -5  -2   7    1.86    0.16 
  -5  -2   7    2.13    0.32 
  -5  -2   7    2.09    0.20 
  -5  -2   7    2.12    0.14 
   5   2  -7    1.04    0.23 
  -5   2   7    1.41    0.20 
  -5   2   7    1.64    0.12 
  -5   2   7    1.43    0.12 
   5   2  -7    1.44    0.26 
  -5   2   7    1.32    0.29 
  -5   2   7    1.52    0.15 
  -4  -2   7    4.73    0.32 
   4  -2  -7    4.69    0.28 
  -4  -2   7    4.84    0.35 
   4  -2  -7    5.41    0.29 
  -4  -2   7    4.95    0.37 
  -4  -2   7    5.07    0.33 
   4   2  -7    3.72    0.30 
  -4   2   7    3.53    0.27 
  -4   2   7    3.73    0.32 
   4   2  -7    3.72    0.27 
   4   2  -7    3.25    0.29 
  -4   2   7    3.80    0.32 
  -3  -2   7   14.77    0.69 
  -3  -2   7   15.95    1.03 
   3  -2  -7   15.31    0.56 
  -3  -2   7   14.71    0.50 
   3  -2  -7   15.17    0.56 
  -3  -2   7   13.88    0.63 
  -3  -2   7   15.69    0.63 
  -3   2   7   16.90    0.74 
  -3   2   7   15.98    0.70 
   3   2  -7   16.57    0.63 
   3   2  -7   16.66    0.69 
   3   2  -7   16.92    0.61 
  -2  -2   7   15.24    0.55 
  -2  -2   7   16.27    1.03 
  -2  -2   7   15.55    0.64 
  -2  -2   7   15.04    0.72 
  -2  -2   7   16.16    0.62 
   2  -2  -7   16.09    0.58 
   2  -2  -7   16.24    0.58 
  -2   2   7   14.07    0.66 
  -2   2   7   14.33    0.46 
  -2   2   7   14.07    0.50 
   2   2  -7   13.02    0.59 
   2   2  -7   14.14    0.53 
   2   2  -7   13.89    0.54 
   2   2  -7   14.73    0.59 
  -1  -2   7   11.84    0.46 
   1  -2  -7   12.58    0.48 
  -1  -2   7   12.72    0.86 
   1  -2  -7   12.36    0.52 
   1   2  -7   11.78    0.44 
  -1   2   7   11.96    0.49 
  -1   2   7   11.76    0.42 
  -1   2   7   11.03    0.49 
   1   2  -7   11.07    0.46 
   1   2  -7   12.18    0.51 
   1   2  -7   11.26    0.43 
   0  -2   7   34.16    1.94 
   0  -2  -7   35.17    1.18 
   0  -2  -7   35.28    1.09 
   0  -2  -7   34.98    1.02 
   0  -2   7   35.82    1.13 
   0  -2   7   33.36    1.27 
   0  -2  -7   34.75    1.28 
   0   2  -7   36.87    1.07 
   0   2  -7   37.85    1.14 
   0   2  -7   33.92    1.81 
   0   2  -7   36.58    1.24 
   0   2   7   37.44    1.25 
   0   2   7   37.26    1.08 
   0   2   7   36.28    1.17 
   0   2  -7   38.43    1.27 
  -1  -2  -7   10.83    0.59 
  -1  -2  -7   11.65    0.49 
  -1  -2  -7   12.17    0.48 
  -1  -2  -7   11.31    0.55 
  -1  -2  -7   12.55    0.49 
   1  -2   7   12.18    0.49 
   1  -2   7   11.73    0.52 
  -1  -2  -7   11.20    0.41 
   1  -2   7   11.07    0.46 
  -1   2  -7    9.64    0.36 
  -1   2  -7   10.61    0.42 
   1   2   7   10.13    0.45 
  -1   2  -7    9.66    0.52 
   1   2   7   10.01    0.48 
   1   2   7   11.07    0.50 
  -1   2  -7   10.08    0.53 
  -1   2  -7   10.32    0.37 
  -2  -2  -7   19.74    0.76 
  -2  -2  -7   19.96    0.71 
   2  -2   7   19.95    0.70 
  -2  -2  -7   19.60    0.90 
   2  -2   7   19.49    0.72 
  -2  -2  -7   19.62    0.83 
   2  -2   7   20.38    0.80 
   2   2   7   18.07    0.75 
  -2   2  -7   18.09    0.75 
   2   2   7   18.50    0.67 
  -2   2  -7   18.10    0.79 
   2   2   7   17.42    0.67 
  -2   2  -7   18.07    0.62 
  -2   2  -7   16.84    0.78 
  -3  -2  -7   16.32    0.73 
   3  -2   7   15.84    0.63 
  -3  -2  -7   15.98    0.63 
  -3  -2  -7   15.46    0.54 
   3  -2   7   16.74    0.69 
  -3  -2  -7   16.56    0.47 
  -3  -2  -7   16.00    0.63 
  -3  -2  -7   18.10    0.56 
  -3  -2  -7   15.95    0.60 
  -3  -2  -7   16.23    0.62 
  -3  -2  -7   16.46    0.81 
  -3  -2  -7   16.36    0.70 
   3  -2   7   17.16    0.63 
  -3  -2  -7   16.83    0.78 
  -3   2  -7   17.56    0.68 
  -3   2  -7   18.14    0.74 
  -3   2  -7   16.53    0.78 
  -3   2  -7   16.59    0.47 
   3   2   7   16.58    0.68 
   3   2   7   17.55    0.65 
  -3   2  -7   14.62    0.68 
   3   2   7   18.54    0.74 
  -3   2  -7   16.87    0.54 
  -3   2  -7   16.37    0.71 
  -3   2  -7   15.73    0.62 
  -3   2  -7   17.56    0.74 
  -4  -2  -7    3.22    0.26 
  -4  -2  -7    3.70    0.33 
  -4  -2  -7    3.64    0.22 
  -4  -2  -7    3.50    0.19 
  -4  -2  -7    3.16    0.22 
  -4  -2  -7    3.46    0.36 
  -4  -2  -7    3.30    0.22 
  -4   2  -7    2.46    0.17 
  -4   2  -7    2.64    0.14 
  -4   2  -7    2.77    0.34 
  -5  -2  -7    2.20    0.26 
  -5  -2  -7    2.55    0.15 
  -5  -2  -7    2.57    0.12 
  -5  -2  -7    2.85    0.13 
  -5   2  -7    2.76    0.13 
  -5   2  -7    2.55    0.09 
  -5   2  -7    3.04    0.13 
  -5   2  -7    2.36    0.27 
  -6  -3   7    3.12    0.29 
  -6  -3   7    3.31    0.17 
  -6  -3   7    3.40    0.13 
  -6  -3   7    3.31    0.14 
  -6   3   7    3.43    0.10 
  -6   3   7    3.36    0.23 
  -6   3   7    3.08    0.13 
  -6   3   7    3.07    0.11 
  -6   3   7    3.31    0.14 
  -6   3   7    3.23    0.28 
  -5  -3   7    5.94    0.37 
  -5  -3   7    5.59    0.29 
  -5  -3   7    5.79    0.31 
  -5  -3   7    5.33    0.37 
  -5  -3   7    5.34    0.40 
  -5  -3   7    5.72    0.25 
  -5   3   7    6.90    0.22 
  -5   3   7    6.69    0.41 
  -5   3   7    6.67    0.22 
  -5   3   7    6.69    0.26 
  -4  -3   7    2.29    0.24 
  -4  -3   7    2.34    0.29 
  -4  -3   7    2.02    0.18 
  -4  -3   7    2.47    0.26 
  -4  -3   7    2.48    0.12 
  -4  -3   7    2.15    0.26 
   4  -3  -7    2.45    0.27 
  -4  -3   7    2.33    0.33 
  -4  -3   7    2.66    0.15 
  -4  -3   7    2.01    0.20 
  -4   3   7    2.44    0.31 
   4   3  -7    2.08    0.27 
  -4   3   7    3.10    0.21 
   4   3  -7    2.54    0.23 
  -4   3   7    2.36    0.28 
  -4   3   7    2.77    0.24 
   4   3  -7    2.57    0.27 
  -4   3   7    2.72    0.17 
   4   3  -7    2.57    0.28 
  -4   3   7    2.87    0.18 
   3  -3  -7   14.47    0.56 
  -3  -3   7   14.89    0.51 
   3  -3  -7   14.48    0.56 
  -3  -3   7   13.64    0.67 
  -3  -3   7   14.53    0.64 
  -3  -3   7   14.26    1.01 
  -3  -3   7   14.38    0.69 
   3   3  -7   10.72    0.48 
  -3   3   7   10.69    0.55 
   3   3  -7   10.07    0.45 
  -3   3   7   10.73    0.52 
  -3   3   7   10.88    0.42 
   3   3  -7   10.50    0.51 
  -2  -3   7    7.45    0.38 
   2  -3  -7    7.54    0.39 
   2  -3  -7    8.33    0.38 
  -2  -3   7    8.93    0.71 
  -2  -3   7    8.02    0.42 
  -2  -3   7    8.12    0.41 
  -2  -3   7    8.39    0.44 
   2  -3  -7    7.37    0.44 
   2   3  -7    7.89    0.40 
  -2   3   7    8.41    0.32 
  -2   3   7    8.21    0.49 
   2   3  -7    7.94    0.43 
   2   3  -7    7.60    0.41 
  -1  -3   7    7.45    0.38 
   1  -3  -7    7.89    0.39 
  -1  -3   7    8.90    0.72 
   1  -3  -7    8.27    0.42 
  -1  -3   7    8.12    0.43 
   1  -3  -7    7.94    0.45 
  -1   3   7    9.13    0.41 
   1   3  -7    8.52    0.37 
   1   3  -7    8.85    0.38 
  -1   3   7    8.38    0.42 
   1   3  -7    8.49    0.43 
  -1   3   7    9.19    0.38 
   0  -3  -7   32.01    1.05 
   0  -3   7   32.59    1.09 
   0  -3   7   32.93    1.22 
   0  -3  -7   31.41    0.98 
   0  -3  -7   34.41    1.13 
   0  -3  -7   32.53    1.23 
   0   3  -7   29.67    0.93 
   0   3  -7   28.72    1.01 
   0   3   7   28.44    0.88 
   0   3  -7   27.91    1.00 
   0   3  -7   28.50    0.87 
   0   3   7   29.28    1.01 
  -1  -3  -7   29.85    1.03 
   1  -3   7   29.36    0.99 
   1  -3   7   30.69    1.13 
  -1  -3  -7   29.30    1.04 
  -1  -3  -7   28.68    0.98 
  -1  -3  -7   30.94    1.15 
  -1  -3  -7   29.99    0.90 
  -1   3  -7   26.26    0.80 
   1   3   7   28.31    1.00 
  -1   3  -7   27.56    0.89 
  -1   3  -7   28.01    1.14 
  -1   3  -7   26.84    1.08 
   1   3   7   27.96    0.94 
   1   3   7   27.69    1.10 
   2  -3   7    7.80    0.41 
  -2  -3  -7    7.93    0.44 
   2  -3   7    7.86    0.43 
  -2  -3  -7    8.14    0.54 
   2  -3   7    8.03    0.39 
  -2  -3  -7    8.45    0.56 
  -2  -3  -7    8.34    0.43 
  -2   3  -7    8.10    0.39 
  -2   3  -7    9.15    0.45 
  -2   3  -7    8.48    0.49 
   2   3   7    8.80    0.44 
   2   3   7    8.88    0.43 
   2   3   7    9.44    0.49 
  -3  -3  -7   11.09    0.61 
  -3  -3  -7   10.49    0.39 
  -3  -3  -7   10.44    0.44 
  -3  -3  -7   10.69    0.50 
  -3  -3  -7   10.53    0.32 
  -3  -3  -7   10.39    0.46 
  -3  -3  -7   10.56    0.42 
  -3  -3  -7   10.26    0.54 
  -3  -3  -7   11.11    0.60 
   3  -3   7    8.40    0.47 
  -3   3  -7   10.97    0.38 
  -3   3  -7   11.17    0.42 
   3   3   7   10.99    0.40 
  -3   3  -7   10.97    0.43 
  -3   3  -7   11.01    0.33 
  -3   3  -7   10.92    0.56 
  -3   3  -7   10.67    0.47 
   3   3   7   10.94    0.50 
  -3   3  -7   11.90    0.54 
  -3   3  -7   11.40    0.47 
  -4  -3  -7    1.78    0.34 
  -4  -3  -7    2.56    0.20 
  -4  -3  -7    1.91    0.19 
  -4  -3  -7    2.18    0.20 
  -4   3  -7    2.56    0.15 
  -4   3  -7    2.51    0.30 
  -4   3  -7    2.48    0.13 
   4   3   7    2.30    0.19 
  -5  -3  -7    0.82    0.11 
  -5  -3  -7    0.45    0.20 
  -5  -3  -7    1.07    0.09 
  -5  -3  -7    0.90    0.09 
  -5   3  -7    1.22    0.20 
  -5   3  -7    1.21    0.08 
  -5   3  -7    1.22    0.07 
  -6  -4   7    1.95    0.10 
  -6  -4   7    2.07    0.10 
  -6  -4   7    2.76    0.27 
  -6  -4   7    2.14    0.12 
  -6   4   7    2.22    0.10 
   6   4  -7    2.22    0.13 
  -6   4   7    2.19    0.09 
  -5  -4   7    5.98    0.25 
  -5  -4   7    5.53    0.30 
  -5  -4   7    5.91    0.29 
   5   4  -7    5.30    0.22 
  -5   4   7    5.08    0.17 
  -5   4   7    4.90    0.17 
  -5   4   7    5.04    0.21 
  -5   4   7    5.26    0.35 
  -4  -4   7    5.91    0.40 
  -4  -4   7    7.45    0.37 
  -4  -4   7    7.21    0.23 
  -4  -4   7    6.79    0.30 
  -4  -4   7    6.88    0.25 
  -4  -4   7    8.30    0.47 
  -4  -4   7    7.56    0.30 
  -4   4   7    6.49    0.40 
   4   4  -7    6.17    0.37 
  -4   4   7    6.66    0.24 
  -4   4   7    6.42    0.33 
  -4   4   7    6.47    0.37 
   4   4  -7    6.62    0.27 
  -4   4   7    6.40    0.22 
  -4   4   7    6.23    0.27 
   3  -4  -7    2.91    0.29 
  -3  -4   7    3.99    0.22 
  -3  -4   7    3.83    0.21 
  -3  -4   7    3.20    0.35 
  -3  -4   7    3.68    0.18 
  -3  -4   7    3.46    0.34 
  -3  -4   7    2.88    0.26 
  -3  -4   7    3.30    0.28 
  -3   4   7    3.95    0.29 
  -3   4   7    4.40    0.24 
  -3   4   7    4.61    0.23 
  -3   4   7    4.32    0.38 
  -3   4   7    4.71    0.23 
  -3   4   7    4.09    0.33 
   3   4  -7    3.93    0.32 
   3   4  -7    4.14    0.32 
   3   4  -7    4.02    0.23 
  -3   4   7    4.48    0.19 
   3   4  -7    3.81    0.37 
  -3   4   7    4.46    0.16 
  -2  -4   7    4.17    0.33 
   2  -4  -7    3.94    0.30 
  -2  -4   7    3.76    0.34 
   2  -4  -7    4.18    0.38 
   2  -4  -7    4.13    0.31 
  -2  -4   7    4.16    0.36 
   2   4  -7    2.19    0.29 
   2   4  -7    2.03    0.31 
  -2   4   7    2.56    0.36 
   2   4  -7    2.66    0.31 
   1  -4  -7    1.68    0.34 
  -1  -4   7    1.76    0.31 
  -1  -4   7    1.40    0.30 
   1  -4  -7    1.60    0.28 
   1  -4  -7    2.23    0.30 
  -1   4   7    1.38    0.22 
  -1   4   7    1.14    0.26 
   1   4  -7    1.07    0.26 
   1   4  -7    0.89    0.21 
  -1   4   7    1.18    0.17 
   1   4  -7    1.06    0.24 
   0  -4  -7    9.04    0.47 
   0  -4  -7    8.81    0.41 
   0  -4   7    8.73    0.45 
   0  -4  -7    9.77    0.52 
   0  -4   7    8.89    0.46 
   0  -4   7    8.49    0.49 
   0  -4   7    9.02    0.46 
   0   4  -7   11.00    0.49 
   0   4  -7   10.80    0.42 
   0   4   7   10.67    0.45 
   0   4   7   10.98    0.51 
   0   4  -7   11.05    0.44 
   0   4  -7   10.81    0.45 
   1  -4   7   14.13    0.62 
   1  -4   7   15.47    0.59 
  -1  -4  -7   14.18    0.59 
  -1  -4  -7   14.79    0.62 
  -1  -4  -7   15.86    0.71 
  -1  -4  -7   15.36    0.54 
  -1  -4  -7   15.33    0.59 
   1  -4   7   15.22    0.66 
   1   4   7   13.17    0.57 
   1   4   7   13.97    0.61 
  -1   4  -7   14.00    0.53 
  -1   4  -7   14.49    0.70 
  -2  -4  -7   11.43    0.38 
  -2  -4  -7   11.25    0.45 
  -2  -4  -7   12.12    0.68 
   2  -4   7   11.39    0.53 
  -2  -4  -7   11.58    0.55 
  -2  -4  -7   11.60    0.65 
   2  -4   7   11.08    0.40 
  -2  -4  -7   11.63    0.41 
  -2  -4  -7   11.27    0.51 
  -2  -4  -7   11.78    0.44 
  -2  -4  -7   11.09    0.46 
  -2   4  -7   10.63    0.33 
  -2   4  -7   10.61    0.42 
  -2   4  -7   10.02    0.43 
   2   4   7   10.91    0.39 
  -2   4  -7   10.59    0.37 
   2   4   7   10.12    0.52 
   2   4   7   10.46    0.49 
  -2   4  -7   10.55    0.42 
  -2   4  -7   11.38    0.47 
  -2   4  -7   10.65    0.55 
  -2   4  -7   10.44    0.49 
  -2   4  -7    9.74    0.39 
  -3  -4  -7    3.43    0.39 
  -3  -4  -7    3.71    0.41 
  -3  -4  -7    3.82    0.22 
  -3  -4  -7    3.48    0.14 
  -3  -4  -7    3.44    0.27 
  -3  -4  -7    2.63    0.32 
  -3   4  -7    3.97    0.33 
   3   4   7    3.80    0.23 
  -3   4  -7    3.88    0.17 
  -3   4  -7    3.82    0.20 
  -3   4  -7    3.82    0.28 
  -3   4  -7    4.09    0.25 
  -3   4  -7    3.40    0.22 
  -3   4  -7    3.87    0.20 
  -4  -4  -7    3.32    0.22 
  -4  -4  -7    3.39    0.30 
  -4  -4  -7    3.42    0.19 
  -4   4  -7    3.27    0.13 
  -4   4  -7    3.33    0.27 
  -4   4  -7    3.23    0.15 
   4   4   7    3.64    0.19 
  -5  -5   7    4.00    0.21 
  -5  -5   7    3.83    0.18 
  -5   5   7    4.05    0.13 
   5   5  -7    3.96    0.18 
  -5   5   7    3.95    0.13 
  -5   5   7    3.80    0.16 
  -4  -5   7    2.26    0.22 
  -4  -5   7    2.43    0.11 
  -4  -5   7    2.32    0.17 
  -4  -5   7    2.60    0.13 
   4   5  -7    2.04    0.17 
  -4   5   7    1.90    0.19 
  -4   5   7    2.28    0.14 
  -4   5   7    2.48    0.18 
  -4   5   7    2.28    0.13 
  -4   5   7    2.04    0.25 
  -3  -5   7    0.44    0.11 
  -3  -5   7    0.67    0.28 
  -3  -5   7    0.43    0.10 
  -3  -5   7    0.49    0.08 
  -3  -5   7    0.68    0.10 
  -3  -5   7    0.37    0.09 
   3  -5  -7    0.80    0.13 
  -3  -5   7    0.23    0.12 
  -3   5   7    0.15    0.11 
  -3   5   7    0.29    0.13 
   3   5  -7    0.32    0.10 
  -3   5   7    0.25    0.18 
  -3   5   7    0.17    0.13 
  -3   5   7    0.13    0.05 
  -3   5   7    0.13    0.10 
  -3   5   7    0.12    0.18 
  -2  -5   7    2.45    0.15 
   2  -5  -7    2.65    0.36 
  -2  -5   7    2.71    0.32 
  -2  -5   7    2.68    0.26 
  -2  -5   7    2.46    0.11 
   2  -5  -7    2.24    0.20 
  -2  -5   7    1.86    0.19 
   2  -5  -7    2.60    0.30 
  -2  -5   7    2.50    0.18 
  -2  -5   7    2.30    0.28 
  -2   5   7    1.87    0.09 
  -2   5   7    2.36    0.35 
  -2   5   7    1.95    0.22 
  -2   5   7    2.10    0.27 
  -2   5   7    1.78    0.20 
   2   5  -7    1.74    0.20 
  -2   5   7    1.67    0.17 
  -2   5   7    1.83    0.26 
   2   5  -7    1.93    0.29 
  -2   5   7    1.72    0.14 
  -2   5   7    1.81    0.19 
  -1  -5   7    3.78    0.35 
  -1  -5   7    4.11    0.21 
  -1  -5   7    4.19    0.35 
   1  -5  -7    3.36    0.33 
  -1  -5   7    3.38    0.37 
   1  -5  -7    3.37    0.40 
   1  -5  -7    3.97    0.24 
  -1  -5   7    3.78    0.23 
   1  -5  -7    3.51    0.36 
  -1   5   7    3.98    0.25 
  -1   5   7    4.06    0.25 
   1   5  -7    3.75    0.24 
   1   5  -7    3.68    0.22 
   1   5  -7    3.09    0.30 
  -1   5   7    3.75    0.25 
  -1   5   7    4.06    0.32 
   1   5  -7    3.93    0.15 
   1   5  -7    4.09    0.23 
   1   5  -7    3.23    0.27 
   0  -5   7    1.96    0.31 
   0  -5   7    1.22    0.31 
   0  -5  -7    1.75    0.24 
   0  -5   7    2.01    0.16 
   0  -5  -7    1.74    0.30 
   0  -5   7    1.91    0.35 
   0  -5  -7    2.35    0.37 
   0   5  -7    2.35    0.19 
   0   5  -7    2.20    0.21 
   0   5   7    2.22    0.13 
   0   5   7    2.14    0.18 
   0   5  -7    2.37    0.19 
   0   5   7    2.22    0.19 
   0   5  -7    2.19    0.16 
   0   5   7    2.30    0.29 
   0   5   7    2.10    0.22 
   0   5   7    2.53    0.29 
   0   5  -7    2.14    0.24 
   0   5  -7    2.46    0.27 
   0   5   7    2.36    0.24 
   0   5   7    2.47    0.27 
  -1  -5  -7   12.74    0.47 
  -1  -5  -7   12.13    0.32 
   1  -5   7   11.88    0.40 
  -1  -5  -7   11.43    0.48 
  -1  -5  -7   11.49    0.63 
  -1  -5  -7   11.91    0.43 
  -1   5  -7   13.02    0.35 
  -1   5  -7   12.80    0.50 
   1   5   7   13.23    0.48 
  -1   5  -7   13.04    0.48 
  -1   5  -7   14.01    0.39 
   1   5   7   13.97    0.58 
  -1   5  -7   13.25    0.48 
  -1   5  -7   11.86    0.65 
  -1   5  -7   12.88    0.56 
  -2  -5  -7    3.17    0.17 
  -2  -5  -7    2.94    0.28 
  -2  -5  -7    3.34    0.39 
  -2  -5  -7    3.30    0.14 
   2  -5   7    3.03    0.17 
  -2  -5  -7    3.19    0.22 
  -2  -5  -7    3.01    0.18 
  -2   5  -7    3.46    0.23 
  -2   5  -7    3.43    0.22 
  -2   5  -7    3.36    0.19 
  -2   5  -7    3.16    0.31 
  -2   5  -7    3.34    0.26 
   2   5   7    3.44    0.21 
   2   5   7    3.33    0.27 
  -2   5  -7    3.45    0.18 
  -2   5  -7    3.80    0.23 
  -3  -5  -7    3.46    0.25 
  -3  -5  -7    3.36    0.33 
  -3  -5  -7    3.52    0.19 
   3   5   7    4.09    0.20 
   3   5   7    3.78    0.25 
  -3   5  -7    3.97    0.15 
  -3   5  -7    3.78    0.18 
  -3   5  -7    4.01    0.22 
  -3   5  -7    4.04    0.18 
  -4  -6   7    3.02    0.14 
  -4  -6   7    3.05    0.11 
  -4  -6   7    2.65    0.18 
   4  -6  -7    2.72    0.15 
   4   6  -7    2.89    0.14 
  -4   6   7    3.18    0.15 
  -4   6   7    3.03    0.12 
  -4   6   7    2.74    0.11 
  -3  -6   7    3.25    0.18 
  -3  -6   7    3.36    0.11 
   3  -6  -7    3.46    0.18 
  -3  -6   7    3.26    0.13 
  -3  -6   7    3.35    0.14 
  -3   6   7    2.37    0.21 
  -3   6   7    2.35    0.18 
  -3   6   7    2.57    0.22 
   3   6  -7    2.47    0.17 
  -3   6   7    2.84    0.17 
  -2  -6   7    0.96    0.15 
   2  -6  -7    0.81    0.14 
  -2  -6   7    0.76    0.14 
   2  -6  -7    0.78    0.22 
   2   6  -7    0.36    0.10 
   2   6  -7    0.56    0.11 
  -2   6   7    0.52    0.17 
  -2   6   7    0.57    0.15 
  -2   6   7    0.57    0.12 
  -2   6   7    0.35    0.11 
   2   6  -7    0.52    0.08 
  -2   6   7    0.53    0.11 
  -2   6   7    0.44    0.09 
   1  -6  -7    1.11    0.15 
   1  -6  -7    1.04    0.31 
  -1  -6   7    1.09    0.16 
  -1  -6   7    1.15    0.17 
   1   6  -7    0.83    0.15 
  -1   6   7    0.58    0.16 
  -1   6   7    0.78    0.17 
  -1   6   7    0.65    0.18 
  -1   6   7    0.90    0.09 
   1   6  -7    0.82    0.16 
  -1   6   7    0.91    0.10 
  -1   6   7    0.98    0.13 
  -1   6   7    0.86    0.23 
   0  -6  -7    8.45    0.49 
   0  -6  -7    9.26    0.35 
   0  -6  -7   10.03    0.40 
   0  -6   7    9.19    0.32 
   0  -6  -7    9.07    0.27 
   0   6   7    9.42    0.38 
   0   6  -7    9.31    0.36 
   0   6  -7    8.57    0.42 
   0   6  -7    8.83    0.26 
   0   6  -7    9.55    0.29 
   0   6  -7    9.32    0.32 
   0   6   7    9.22    0.34 
   0   6  -7    9.19    0.35 
   0   6   7    9.24    0.44 
  -1  -6  -7    4.92    0.23 
  -1  -6  -7    5.02    0.25 
  -1  -6  -7    4.73    0.38 
   1  -6   7    4.78    0.20 
  -1   6  -7    5.12    0.25 
   1   6   7    5.23    0.24 
  -1   6  -7    4.77    0.15 
  -1   6  -7    4.86    0.24 
   1   6   7    5.14    0.31 
  -1   6  -7    5.27    0.18 
  -1   6  -7    4.98    0.22 
   1   6   7    5.03    0.23 
   1   6   7    5.10    0.16 
  -1   6  -7    5.38    0.29 
  -2  -6  -7    0.09    0.17 
  -2  -6  -7    0.35    0.06 
   2  -6   7    0.26    0.07 
  -2  -6  -7    0.46    0.13 
  -2   6  -7    0.71    0.13 
   2   6   7    0.66    0.09 
  -2   6  -7    0.66    0.14 
  -2   6  -7    0.85    0.12 
   2   6   7    0.67    0.18 
  -2   6  -7    0.85    0.11 
   2   6   7    0.68    0.11 
  -2  -7   7    2.85    0.10 
  -2  -7   7    2.88    0.12 
  -2  -7   7    2.83    0.12 
   2  -7  -7    3.00    0.13 
  -2  -7   7    2.69    0.12 
  -2   7   7    2.49    0.13 
  -2   7   7    2.77    0.19 
  -2   7   7    3.12    0.14 
   2   7  -7    2.63    0.13 
   2   7  -7    2.66    0.14 
  -2   7   7    3.16    0.18 
   1  -7  -7   10.64    0.35 
   1  -7  -7   10.04    0.41 
   1  -7  -7   10.75    0.28 
  -1  -7   7   10.54    0.34 
   1   7  -7   10.55    0.31 
  -1   7   7   11.33    0.33 
  -1   7   7   10.63    0.30 
  -1   7   7    9.52    0.43 
   1   7  -7   10.57    0.28 
  -1   7   7   11.05    0.38 
  -1   7   7   11.24    0.44 
   1   7  -7   10.65    0.38 
   0  -7   7    0.04    0.07 
   0  -7   7    0.18    0.06 
   0  -7  -7    0.03    0.07 
   0  -7   7    0.10    0.03 
   0   7   7    0.13    0.08 
   0   7  -7    0.15    0.04 
   0   7   7    0.17    0.04 
   0   7   7   -0.01    0.10 
   0   7  -7    0.21    0.08 
   0   7   7    0.15    0.05 
   0   7  -7   -0.05    0.08 
   0   7  -7    0.12    0.03 
  -7   0   8    1.89    0.17 
  -7   0   8    1.81    0.08 
  -6   0   8   10.79    0.29 
  -6   0   8   10.37    0.43 
  -6   0   8   10.59    0.35 
  -6   0   8   11.00    0.30 
  -5   0   8    6.94    0.23 
  -5   0   8    6.39    0.44 
  -5   0   8    7.13    0.44 
  -5   0   8    6.68    0.35 
  -5   0   8    7.14    0.22 
  -5   0   8    7.14    0.27 
   4   0  -8   47.67    1.51 
  -4   0   8   48.02    1.69 
  -4   0   8   50.20    1.78 
  -4   0   8   47.63    1.77 
  -4   0   8   46.83    1.62 
  -4   0   8   49.89    1.86 
  -3   0   8    1.94    0.26 
  -3   0   8    2.77    0.47 
   3   0  -8    2.33    0.26 
   3   0  -8    2.30    0.22 
  -3   0   8    2.03    0.30 
   2   0  -8    1.65    0.26 
   2   0  -8    1.51    0.23 
  -2   0   8    1.35    0.39 
   2   0  -8    1.22    0.20 
  -2   0   8    1.25    0.21 
  -2   0   8    1.46    0.22 
  -2   0   8    1.42    0.28 
  -1   0   8    0.12    0.15 
   1   0  -8    0.15    0.13 
  -1   0   8   -0.02    0.13 
   1   0  -8    0.01    0.11 
   1   0  -8   -0.17    0.17 
  -1   0   8    0.06    0.12 
   0   0  -8    6.70    0.32 
   0   0   8    6.37    0.37 
   0   0  -8    6.63    0.36 
   0   0  -8    6.57    0.32 
   0   0  -8    7.10    0.36 
   0   0  -8    6.78    0.40 
   0   0   8    6.77    0.37 
   0   0   8    6.98    0.36 
   1   0   8    1.68    0.25 
   1   0   8    1.32    0.21 
  -1   0  -8    0.13    0.17 
  -1   0  -8    0.92    0.21 
  -1   0  -8    1.02    0.21 
  -1   0  -8    0.67    0.15 
  -1   0  -8    0.92    0.19 
  -1   0  -8    0.49    0.14 
   1   0   8    0.59    0.17 
  -2   0  -8   23.74    0.94 
  -2   0  -8   22.87    0.98 
  -2   0  -8   22.35    0.84 
   2   0   8   22.13    0.89 
  -2   0  -8   22.82    0.95 
  -2   0  -8   22.75    0.77 
   2   0   8   22.41    0.80 
  -3   0  -8   13.42    0.57 
  -3   0  -8   12.26    0.50 
  -3   0  -8   13.48    0.53 
  -3   0  -8   14.15    0.67 
  -3   0  -8   14.49    0.61 
  -3   0  -8   14.66    0.67 
   3   0   8   13.85    0.56 
  -3   0  -8   12.68    0.51 
  -3   0  -8   13.83    0.47 
   3   0   8   13.67    0.61 
  -4   0  -8    3.01    0.19 
  -4   0  -8    3.14    0.32 
  -4   0  -8    2.96    0.16 
  -4   0  -8    2.69    0.19 
  -5   0  -8    3.20    0.12 
  -5   0  -8    3.60    0.24 
  -5   0  -8    2.98    0.14 
  -7  -1   8    4.54    0.16 
  -7  -1   8    4.70    0.16 
  -7  -1   8    4.68    0.16 
  -7   1   8    5.78    0.23 
  -7   1   8    4.28    0.15 
  -7   1   8    5.21    0.17 
  -6  -1   8    2.51    0.31 
  -6  -1   8    2.62    0.13 
  -6  -1   8    2.71    0.12 
  -6  -1   8    2.49    0.15 
  -6   1   8    2.44    0.14 
  -6   1   8    2.11    0.27 
  -6   1   8    2.52    0.11 
  -6   1   8    2.50    0.21 
  -6   1   8    2.21    0.11 
  -5  -1   8   29.96    0.92 
  -5  -1   8   29.44    1.28 
  -5  -1   8   28.38    1.03 
  -5  -1   8   31.15    1.19 
  -5  -1   8   31.08    1.13 
  -5  -1   8   29.57    1.11 
  -5  -1   8   30.92    0.76 
  -5  -1   8   30.83    1.10 
  -5   1   8   28.30    1.00 
  -5   1   8   29.82    0.73 
  -5   1   8   29.31    0.76 
  -5   1   8   29.32    0.89 
  -5   1   8   29.00    1.12 
  -4  -1   8   10.82    0.51 
   4  -1  -8   11.57    0.47 
   4  -1  -8   11.44    0.48 
  -4  -1   8   12.30    0.57 
  -4  -1   8   12.09    0.58 
  -4  -1   8   11.94    0.54 
  -4   1   8   11.58    0.57 
   4   1  -8   11.85    0.50 
   4   1  -8   12.51    0.57 
  -4   1   8   11.72    0.55 
  -4   1   8   12.47    0.59 
  -4   1   8   11.54    0.43 
   4   1  -8   12.19    0.49 
  -4   1   8   12.25    0.54 
   3  -1  -8   36.21    1.17 
  -3  -1   8   35.09    1.29 
   3  -1  -8   36.24    1.16 
  -3  -1   8   37.69    2.07 
  -3  -1   8   35.20    1.05 
  -3  -1   8   36.63    1.44 
  -3  -1   8   36.55    1.29 
  -3   1   8   36.65    2.06 
  -3   1   8   35.22    1.37 
  -3   1   8   36.26    1.44 
  -3   1   8   35.04    1.28 
   3   1  -8   37.31    1.18 
   3   1  -8   36.93    1.35 
   3   1  -8   37.31    1.18 
  -2  -1   8    2.32    0.44 
  -2  -1   8    2.57    0.26 
   2  -1  -8    2.55    0.25 
   2  -1  -8    2.27    0.23 
  -2  -1   8    2.69    0.25 
  -2  -1   8    2.18    0.31 
   2   1  -8    2.50    0.26 
  -2   1   8    2.31    0.29 
   2   1  -8    2.83    0.27 
  -2   1   8    2.77    0.22 
   2   1  -8    2.81    0.27 
   2   1  -8    2.95    0.29 
  -2   1   8    2.63    0.23 
  -1  -1   8    3.35    0.43 
   1  -1  -8    3.81    0.34 
  -1  -1   8    4.27    0.27 
   1  -1  -8    3.73    0.31 
   1  -1  -8    3.92    0.27 
   1   1  -8    2.95    0.28 
  -1   1   8    3.19    0.30 
  -1   1   8    2.48    0.25 
   1   1  -8    2.81    0.24 
   1   1  -8    3.33    0.26 
  -1   1   8    2.66    0.24 
   1   1  -8    2.74    0.24 
   0  -1  -8    1.91    0.23 
   0  -1  -8    2.06    0.23 
   0  -1   8    1.63    0.25 
   0  -1  -8    1.54    0.25 
   0  -1   8    2.01    0.24 
   0  -1  -8    2.04    0.29 
   0   1  -8    1.50    0.21 
   0   1  -8    1.57    0.21 
   0   1  -8    2.10    0.25 
   0   1   8    1.22    0.22 
   0   1   8    1.57    0.26 
   0   1   8    1.67    0.25 
   0   1  -8    1.75    0.23 
   0   1  -8    1.75    0.32 
  -1  -1  -8   24.30    0.83 
   1  -1   8   25.22    0.96 
  -1  -1  -8   24.19    0.87 
  -1  -1  -8   24.74    1.06 
   1  -1   8   25.76    0.86 
  -1  -1  -8   24.81    0.99 
  -1  -1  -8   25.19    0.87 
   1  -1   8   25.77    0.85 
  -1  -1  -8   24.57    0.75 
  -1   1  -8   21.57    0.75 
  -1   1  -8   23.55    0.75 
   1   1   8   22.35    0.79 
  -1   1  -8   21.58    0.95 
   1   1   8   21.89    0.78 
   1   1   8   22.94    0.84 
  -1   1  -8   22.25    0.85 
  -1   1  -8   23.62    0.69 
   1   1   8   22.88    0.89 
  -1   1  -8   22.45    0.90 
  -2  -1  -8    8.25    0.54 
   2  -1   8    8.68    0.43 
  -2  -1  -8    9.03    0.42 
  -2  -1  -8    8.70    0.43 
   2  -1   8    8.65    0.40 
   2  -1   8    8.87    0.45 
  -2  -1  -8    9.06    0.52 
  -2   1  -8    7.62    0.43 
  -2   1  -8    7.19    0.36 
  -2   1  -8    7.36    0.39 
  -2   1  -8    7.91    0.51 
  -2   1  -8    7.83    0.47 
   2   1   8    7.33    0.38 
   2   1   8    7.59    0.41 
   2   1   8    7.12    0.43 
  -3  -1  -8   11.36    0.40 
  -3  -1  -8   10.27    0.43 
  -3  -1  -8   10.96    0.50 
   3  -1   8   12.78    0.55 
  -3  -1  -8   10.60    0.38 
   3  -1   8    9.97    0.48 
  -3  -1  -8   10.56    0.44 
  -3  -1  -8   10.78    0.52 
  -3  -1  -8   10.45    0.42 
  -3  -1  -8   11.40    0.48 
  -3  -1  -8   11.22    0.58 
   3   1   8   13.36    0.62 
  -3   1  -8   12.25    0.52 
  -3   1  -8   12.01    0.43 
  -3   1  -8   12.10    0.46 
  -3   1  -8   12.55    0.64 
  -3   1  -8   12.41    0.47 
  -3   1  -8   12.58    0.55 
  -3   1  -8   12.93    0.61 
  -3   1  -8   12.00    0.59 
   3   1   8   11.99    0.53 
  -4  -1  -8    0.58    0.19 
  -4  -1  -8    0.55    0.10 
  -4  -1  -8    0.64    0.16 
  -4  -1  -8    0.62    0.14 
  -4   1  -8    0.32    0.09 
  -4   1  -8    0.28    0.20 
  -4   1  -8    0.56    0.14 
  -5  -1  -8   14.04    0.36 
  -5  -1  -8   13.44    0.42 
  -5   1  -8   14.00    0.60 
  -5   1  -8   14.66    0.48 
  -5   1  -8   15.29    0.47 
  -6  -2   8    4.91    0.20 
  -6  -2   8    4.85    0.17 
  -6  -2   8    5.05    0.34 
  -6  -2   8    4.56    0.16 
  -6   2   8    5.58    0.22 
  -6   2   8    5.44    0.28 
  -6   2   8    5.73    0.33 
  -6   2   8    5.65    0.17 
  -6   2   8    5.73    0.17 
  -5  -2   8    6.35    0.27 
  -5  -2   8    6.54    0.39 
  -5  -2   8    7.13    0.33 
  -5  -2   8    6.42    0.31 
  -5  -2   8    6.32    0.23 
  -5  -2   8    6.20    0.22 
  -5  -2   8    5.68    0.40 
  -5   2   8    6.62    0.22 
  -5   2   8    6.31    0.26 
  -5   2   8    6.54    0.39 
  -5   2   8    6.31    0.32 
  -5   2   8    6.50    0.21 
  -4  -2   8   54.39    1.83 
  -4  -2   8   46.42    1.76 
   4  -2  -8   52.63    1.62 
  -4  -2   8   54.49    1.93 
  -4  -2   8   55.01    2.02 
   4  -2  -8   50.76    1.64 
  -4   2   8   51.05    1.86 
   4   2  -8   50.08    1.84 
  -4   2   8   51.15    1.94 
   4   2  -8   50.29    1.61 
   4   2  -8   51.33    1.61 
  -3  -2   8    9.79    0.53 
  -3  -2   8    9.07    0.37 
   3  -2  -8    9.85    0.43 
  -3  -2   8    9.70    0.47 
  -3  -2   8    8.84    0.78 
  -3  -2   8    8.95    0.50 
   3  -2  -8    9.71    0.42 
   3   2  -8    8.59    0.48 
  -3   2   8    9.38    0.48 
   3   2  -8    8.84    0.41 
  -3   2   8    9.85    0.52 
  -3   2   8    9.08    0.38 
  -3   2   8    9.26    0.46 
   3   2  -8    9.67    0.44 
  -2  -2   8   13.56    0.58 
   2  -2  -8   13.36    0.54 
  -2  -2   8   14.28    0.98 
  -2  -2   8   13.98    0.52 
   2  -2  -8   13.84    0.54 
  -2  -2   8   13.71    0.57 
   2   2  -8   13.85    0.60 
  -2   2   8   14.42    0.49 
   2   2  -8   13.60    0.62 
   2   2  -8   14.66    0.57 
  -2   2   8   14.71    0.68 
  -2   2   8   14.04    0.51 
   1  -2  -8    5.75    0.33 
   1  -2  -8    5.21    0.36 
  -1  -2   8    5.04    0.33 
   1  -2  -8    5.23    0.35 
  -1  -2   8    5.35    0.54 
  -1   2   8    5.10    0.29 
   1   2  -8    4.92    0.34 
  -1   2   8    4.96    0.33 
   1   2  -8    5.37    0.29 
  -1   2   8    4.98    0.33 
   1   2  -8    5.22    0.30 
   0  -2  -8   62.18    1.74 
   0  -2  -8   61.13    2.01 
   0  -2   8   62.64    2.19 
   0  -2  -8   62.30    1.86 
   0  -2   8   63.62    1.93 
   0  -2  -8   60.47    2.17 
   0   2  -8   57.68    1.90 
   0   2  -8   58.04    2.06 
   0   2  -8   57.30    1.64 
   0   2  -8   58.49    1.95 
   0   2  -8   60.86    1.76 
   0   2   8   58.14    1.92 
  -1  -2  -8    5.94    0.30 
  -1  -2  -8    5.95    0.41 
  -1  -2  -8    5.92    0.35 
   1  -2   8    6.07    0.38 
   1  -2   8    6.00    0.38 
  -1  -2  -8    5.99    0.36 
   1  -2   8    5.70    0.33 
  -1  -2  -8    6.12    0.32 
  -1   2  -8    5.39    0.41 
  -1   2  -8    5.32    0.30 
   1   2   8    5.69    0.38 
   1   2   8    5.72    0.36 
  -1   2  -8    5.21    0.27 
   1   2   8    5.64    0.37 
  -1   2  -8    5.11    0.40 
  -2  -2  -8   15.19    0.76 
   2  -2   8   15.39    0.58 
  -2  -2  -8   16.09    0.61 
  -2  -2  -8   15.62    0.71 
  -2  -2  -8   14.20    0.63 
   2  -2   8   15.49    0.67 
   2  -2   8   15.94    0.62 
   2   2   8   16.36    0.64 
  -2   2  -8   16.41    0.78 
  -2   2  -8   16.56    0.76 
  -2   2  -8   16.99    0.61 
   2   2   8   16.95    0.73 
   2   2   8   17.29    0.66 
  -3  -2  -8    3.19    0.27 
  -3  -2  -8    2.95    0.21 
  -3  -2  -8    2.65    0.19 
   3  -2   8    2.96    0.31 
  -3  -2  -8    3.06    0.32 
  -3  -2  -8    2.63    0.24 
  -3  -2  -8    2.74    0.21 
  -3  -2  -8    2.88    0.24 
  -3  -2  -8    2.70    0.36 
  -3  -2  -8    3.21    0.29 
  -3   2  -8    3.03    0.24 
   3   2   8    3.05    0.21 
  -3   2  -8    3.26    0.17 
  -3   2  -8    3.38    0.25 
  -3   2  -8    3.65    0.35 
  -3   2  -8    3.81    0.41 
  -3   2  -8    3.22    0.25 
  -3   2  -8    3.78    0.31 
  -3   2  -8    3.32    0.20 
   3   2   8    3.63    0.33 
  -3   2  -8    2.89    0.20 
  -4  -2  -8    6.40    0.27 
  -4  -2  -8    6.36    0.22 
  -4   2  -8    6.34    0.25 
  -4   2  -8    6.72    0.40 
  -4   2  -8    7.02    0.22 
  -5  -2  -8    1.95    0.09 
  -5  -2  -8    1.93    0.09 
  -5  -2  -8    1.79    0.11 
  -5   2  -8    1.76    0.09 
  -5   2  -8    1.52    0.20 
  -5   2  -8    1.90    0.10 
  -6  -3   8    0.37    0.10 
  -6  -3   8    0.31    0.05 
  -6  -3   8    0.60    0.22 
  -6  -3   8    0.48    0.08 
  -6   3   8    0.42    0.08 
  -6   3   8    0.45    0.14 
  -6   3   8    0.35    0.07 
  -6   3   8    0.45    0.05 
  -6   3   8    0.24    0.11 
  -6   3   8    0.40    0.06 
  -5  -3   8    4.11    0.26 
  -5  -3   8    4.51    0.33 
  -5  -3   8    4.21    0.25 
  -5  -3   8    4.54    0.21 
  -5  -3   8    4.02    0.33 
  -5   3   8    3.86    0.16 
   5   3  -8    3.94    0.21 
  -5   3   8    3.82    0.19 
  -5   3   8    3.99    0.16 
  -5   3   8    3.98    0.33 
  -4  -3   8    6.45    0.29 
  -4  -3   8    6.60    0.25 
   4  -3  -8    7.34    0.37 
  -4  -3   8    8.11    0.47 
  -4  -3   8    7.14    0.37 
  -4  -3   8    6.83    0.22 
  -4  -3   8    6.55    0.42 
  -4  -3   8    7.12    0.41 
  -4  -3   8    6.72    0.29 
  -4   3   8    7.09    0.29 
  -4   3   8    6.92    0.24 
  -4   3   8    6.99    0.36 
   4   3  -8    6.45    0.38 
   4   3  -8    6.43    0.28 
  -4   3   8    7.53    0.41 
  -4   3   8    7.04    0.24 
  -4   3   8    7.00    0.41 
   3  -3  -8   40.89    1.31 
  -3  -3   8   42.63    1.47 
  -3  -3   8   41.26    1.19 
  -3  -3   8   38.69    1.62 
   3   3  -8   39.31    1.30 
  -3   3   8   41.22    1.37 
  -3   3   8   41.36    1.58 
   3   3  -8   38.13    1.47 
  -3   3   8   38.86    1.48 
  -2  -3   8    2.05    0.27 
   2  -3  -8    1.72    0.23 
  -2  -3   8    1.89    0.29 
  -2  -3   8    1.85    0.26 
  -2  -3   8    2.03    0.30 
  -2  -3   8    2.12    0.29 
   2  -3  -8    1.95    0.27 
   2  -3  -8    1.64    0.34 
   2   3  -8    1.71    0.27 
  -2   3   8    1.62    0.21 
  -2   3   8    1.47    0.35 
   2   3  -8    1.86    0.29 
   1  -3  -8   58.83    1.93 
  -1  -3   8   55.68    1.69 
  -1  -3   8   60.03    3.18 
   1  -3  -8   60.12    1.82 
   1  -3  -8   58.99    2.08 
  -1   3   8   56.96    1.61 
  -1   3   8   57.56    1.87 
   1   3  -8   56.23    1.62 
   1   3  -8   56.75    1.88 
  -1   3   8   56.84    1.91 
   1   3  -8   57.06    1.72 
   0  -3   8    4.59    0.36 
   0  -3   8    4.80    0.34 
   0  -3  -8    5.55    0.43 
   0  -3  -8    5.04    0.35 
   0  -3  -8    5.11    0.31 
   0   3   8    4.68    0.33 
   0   3  -8    4.64    0.28 
   0   3  -8    4.62    0.30 
   0   3  -8    4.44    0.28 
   0   3   8    4.61    0.35 
   0   3  -8    4.44    0.32 
  -1  -3  -8   39.10    1.10 
   1  -3   8   35.55    1.39 
  -1  -3  -8   39.82    1.29 
   1  -3   8   36.97    1.25 
  -1  -3  -8   39.41    1.22 
   1  -3   8   36.30    1.23 
  -1  -3  -8   35.80    1.28 
  -1  -3  -8   38.89    1.41 
   1   3   8   34.18    1.11 
  -1   3  -8   30.83    1.06 
  -1   3  -8   32.63    1.27 
   1   3   8   33.14    1.18 
  -1   3  -8   35.24    1.36 
  -2  -3  -8    9.39    0.44 
  -2  -3  -8    9.59    0.41 
  -2  -3  -8    9.86    0.34 
  -2  -3  -8    9.84    0.47 
   2  -3   8   10.67    0.48 
   2  -3   8   10.45    0.37 
  -2  -3  -8    9.17    0.37 
  -2  -3  -8    9.44    0.40 
   2  -3   8   10.39    0.50 
  -2  -3  -8   10.04    0.60 
  -2  -3  -8   10.64    0.49 
  -2  -3  -8   10.82    0.61 
  -2  -3  -8   10.28    0.39 
  -2   3  -8   10.64    0.49 
  -2   3  -8    9.65    0.40 
  -2   3  -8   10.21    0.52 
  -2   3  -8   10.50    0.37 
  -2   3  -8    9.55    0.32 
   2   3   8    9.86    0.37 
  -2   3  -8    9.89    0.43 
  -2   3  -8    9.44    0.38 
  -2   3  -8   11.23    0.55 
   2   3   8    9.82    0.48 
  -2   3  -8    9.88    0.40 
   2   3   8   10.65    0.53 
  -2   3  -8   10.74    0.45 
  -2   3  -8    9.37    0.29 
  -3  -3  -8    5.83    0.43 
  -3  -3  -8    5.74    0.39 
  -3  -3  -8    5.50    0.27 
  -3  -3  -8    5.96    0.45 
  -3  -3  -8    6.31    0.36 
  -3  -3  -8    6.29    0.28 
  -3  -3  -8    5.95    0.31 
  -3  -3  -8    5.98    0.30 
  -3   3  -8    6.80    0.27 
  -3   3  -8    6.55    0.38 
  -3   3  -8    6.64    0.30 
  -3   3  -8    6.24    0.32 
   3   3   8    6.58    0.28 
  -3   3  -8    6.81    0.28 
  -3   3  -8    6.98    0.40 
  -3   3  -8    6.53    0.30 
  -3   3  -8    6.60    0.23 
  -4  -3  -8    3.87    0.33 
  -4  -3  -8    4.30    0.20 
  -4  -3  -8    4.29    0.23 
   4   3   8    4.15    0.20 
  -4   3  -8    4.12    0.15 
  -4   3  -8    3.73    0.17 
  -4   3  -8    3.65    0.29 
  -6  -4   8    2.90    0.13 
  -5  -4   8    0.80    0.15 
  -5  -4   8    0.57    0.13 
   5   4  -8    0.63    0.13 
  -5   4   8    0.83    0.12 
  -5   4   8    0.76    0.10 
  -5   4   8    0.52    0.10 
  -5   4   8    0.61    0.16 
  -4  -4   8    4.47    0.22 
  -4  -4   8    4.72    0.38 
  -4  -4   8    4.69    0.29 
  -4  -4   8    4.56    0.19 
  -4  -4   8    5.21    0.36 
  -4  -4   8    4.69    0.16 
   4   4  -8    4.30    0.22 
  -4   4   8    4.51    0.26 
  -4   4   8    4.25    0.31 
  -4   4   8    4.34    0.19 
  -4   4   8    4.39    0.18 
  -4   4   8    4.14    0.23 
  -4   4   8    4.40    0.34 
   3  -4  -8    1.67    0.20 
   3  -4  -8    1.44    0.26 
  -3  -4   8    1.20    0.32 
  -3  -4   8    1.68    0.14 
  -3  -4   8    1.48    0.14 
  -3  -4   8    1.60    0.24 
  -3  -4   8    1.64    0.13 
  -3  -4   8    2.24    0.31 
  -3  -4   8    1.74    0.18 
  -3  -4   8    1.70    0.16 
   3   4  -8    1.72    0.31 
  -3   4   8    1.56    0.17 
   3   4  -8    1.37    0.26 
  -3   4   8    1.72    0.10 
   3   4  -8    1.72    0.18 
  -3   4   8    1.78    0.21 
  -3   4   8    1.89    0.19 
  -3   4   8    1.93    0.31 
  -3   4   8    1.67    0.13 
  -3   4   8    1.53    0.16 
  -3   4   8    1.75    0.23 
  -2  -4   8   48.05    1.66 
   2  -4  -8   50.55    1.82 
   2  -4  -8   52.65    1.49 
  -2  -4   8   52.15    1.49 
  -2  -4   8   50.26    1.27 
  -2  -4   8   48.89    1.51 
  -2  -4   8   53.21    1.78 
  -2  -4   8   51.36    1.86 
  -2  -4   8   47.28    1.71 
   2  -4  -8   52.27    1.60 
  -2   4   8   52.17    1.72 
   2   4  -8   49.03    1.49 
  -2   4   8   51.38    1.32 
  -2   4   8   50.58    1.40 
  -2   4   8   51.66    1.88 
  -2   4   8   51.46    1.56 
  -2   4   8   49.26    1.68 
   2   4  -8   52.64    1.73 
   2   4  -8   52.01    1.49 
  -2   4   8   53.36    2.01 
   2   4  -8   49.76    1.53 
   1  -4  -8    7.78    0.50 
   1  -4  -8    7.94    0.31 
  -1  -4   8    6.86    0.30 
  -1  -4   8    7.42    0.45 
  -1  -4   8    7.16    0.40 
   1  -4  -8    7.17    0.40 
   1  -4  -8    7.35    0.43 
  -1   4   8    6.87    0.34 
   1   4  -8    6.47    0.34 
  -1   4   8    6.35    0.38 
   1   4  -8    7.02    0.36 
  -1   4   8    6.18    0.39 
   1   4  -8    7.29    0.39 
  -1   4   8    6.94    0.20 
  -1   4   8    6.55    0.33 
  -1   4   8    7.40    0.33 
  -1   4   8    6.55    0.34 
  -1   4   8    6.74    0.28 
   1   4  -8    6.81    0.40 
   0  -4  -8   10.35    0.41 
   0  -4   8    9.60    0.35 
   0  -4  -8    9.86    0.48 
   0  -4  -8    9.06    0.43 
   0  -4   8    9.25    0.52 
   0  -4  -8    9.67    0.56 
   0  -4  -8    9.82    0.39 
   0  -4   8    9.91    0.49 
   0   4  -8    7.61    0.39 
   0   4   8    8.13    0.44 
   0   4  -8    8.78    0.36 
   0   4   8    8.20    0.37 
   0   4  -8    8.50    0.32 
   0   4  -8    7.85    0.36 
   0   4  -8    8.48    0.32 
   0   4   8    7.67    0.36 
   0   4   8    8.25    0.44 
   0   4   8    8.80    0.43 
   0   4   8    8.31    0.39 
   0   4   8    8.46    0.55 
  -1  -4  -8    2.74    0.22 
  -1  -4  -8    2.43    0.29 
  -1  -4  -8    2.84    0.30 
  -1  -4  -8    2.67    0.12 
  -1  -4  -8    2.38    0.16 
  -1  -4  -8    3.24    0.36 
  -1  -4  -8    2.22    0.23 
  -1  -4  -8    3.11    0.25 
  -1  -4  -8    2.59    0.25 
   1  -4   8    2.69    0.19 
   1  -4   8    3.38    0.32 
  -1  -4  -8    2.24    0.23 
   1   4   8    2.88    0.27 
  -1   4  -8    2.87    0.26 
  -1   4  -8    2.44    0.15 
  -1   4  -8    2.74    0.35 
  -1   4  -8    2.63    0.19 
  -1   4  -8    2.72    0.27 
  -1   4  -8    2.53    0.11 
  -1   4  -8    2.55    0.16 
   1   4   8    2.66    0.20 
  -1   4  -8    2.52    0.23 
   1   4   8    2.41    0.32 
  -1   4  -8    2.72    0.23 
  -2  -4  -8    9.47    0.34 
  -2  -4  -8    9.43    0.40 
   2  -4   8    8.88    0.33 
  -2  -4  -8    9.24    0.58 
  -2  -4  -8    9.76    0.38 
  -2  -4  -8    8.27    0.57 
  -2  -4  -8    9.13    0.48 
  -2  -4  -8    9.35    0.31 
  -2   4  -8    9.05    0.50 
  -2   4  -8    9.91    0.42 
   2   4   8    9.33    0.35 
  -2   4  -8    9.61    0.38 
  -2   4  -8    9.45    0.34 
  -2   4  -8    9.49    0.29 
  -2   4  -8    9.35    0.48 
  -2   4  -8    9.51    0.45 
  -2   4  -8    9.60    0.39 
  -2   4  -8    9.21    0.36 
  -3  -4  -8    6.84    0.33 
  -3  -4  -8    7.93    0.31 
  -3  -4  -8    8.31    0.49 
  -3  -4  -8    8.71    0.38 
  -3   4  -8    8.15    0.43 
  -3   4  -8    9.46    0.32 
   3   4   8    9.10    0.32 
  -3   4  -8    9.33    0.27 
  -3   4  -8    8.80    0.38 
  -3   4  -8    8.95    0.34 
  -3   4  -8    9.30    0.35 
  -4  -4  -8    6.67    0.29 
  -4  -4  -8    7.33    0.41 
  -4   4  -8    6.43    0.32 
   4   4   8    6.98    0.23 
  -4   4  -8    6.60    0.18 
  -4   4  -8    6.25    0.22 
   4   4   8    5.97    0.28 
  -5  -5   8    6.17    0.23 
  -5  -5   8    6.42    0.27 
   5   5  -8    4.39    0.17 
  -5   5   8    4.70    0.14 
  -5   5   8    4.82    0.14 
  -5   5   8    4.48    0.17 
   4  -5  -8    1.92    0.17 
  -4  -5   8    2.08    0.14 
  -4  -5   8    2.21    0.20 
  -4  -5   8    2.05    0.09 
  -4  -5   8    2.04    0.11 
  -4   5   8    1.95    0.12 
  -4   5   8    1.81    0.16 
  -4   5   8    1.82    0.17 
   4   5  -8    1.85    0.14 
  -4   5   8    2.06    0.12 
  -3  -5   8   23.55    0.80 
  -3  -5   8   22.84    0.66 
   3  -5  -8   23.55    0.72 
  -3  -5   8   23.28    0.62 
  -3  -5   8   23.47    0.71 
  -3  -5   8   23.39    0.80 
  -3   5   8   24.49    0.93 
  -3   5   8   25.65    0.78 
   3   5  -8   22.74    0.76 
  -3   5   8   25.20    0.76 
  -3   5   8   23.13    0.70 
  -3   5   8   23.96    0.81 
   3   5  -8   24.77    0.73 
  -2  -5   8    3.24    0.16 
  -2  -5   8    3.28    0.32 
   2  -5  -8    3.24    0.21 
  -2  -5   8    3.29    0.11 
  -2  -5   8    3.29    0.21 
   2  -5  -8    3.24    0.36 
  -2  -5   8    3.32    0.20 
  -2   5   8    2.60    0.34 
  -2   5   8    2.96    0.10 
  -2   5   8    3.05    0.15 
  -2   5   8    3.19    0.28 
  -2   5   8    2.86    0.22 
   2   5  -8    3.08    0.21 
  -2   5   8    2.93    0.24 
  -2   5   8    2.85    0.28 
  -2   5   8    3.42    0.21 
  -2   5   8    2.87    0.18 
  -1  -5   8   34.61    1.07 
  -1  -5   8   34.58    1.27 
   1  -5  -8   34.80    1.33 
  -1  -5   8   35.71    1.87 
   1  -5  -8   37.00    1.05 
  -1   5   8   40.49    1.45 
  -1   5   8   38.54    1.08 
   1   5  -8   36.24    1.28 
  -1   5   8   37.35    1.29 
  -1   5   8   38.80    1.19 
  -1   5   8   38.62    1.16 
   1   5  -8   39.22    1.16 
  -1   5   8   38.07    1.33 
   1   5  -8   40.68    1.41 
   1   5  -8   38.57    0.97 
   0  -5  -8    2.89    0.23 
   0  -5   8    3.01    0.18 
   0  -5  -8    2.78    0.38 
   0   5  -8    3.08    0.16 
   0   5  -8    3.28    0.17 
   0   5  -8    2.80    0.20 
   0   5  -8    3.13    0.18 
   0   5   8    3.09    0.18 
   0   5   8    2.69    0.22 
   0   5   8    3.17    0.29 
   0   5   8    3.25    0.24 
   0   5  -8    3.07    0.27 
   0   5  -8    3.10    0.14 
  -1  -5  -8    3.24    0.21 
  -1  -5  -8    3.18    0.40 
  -1  -5  -8    3.63    0.23 
   1  -5   8    3.26    0.18 
  -1  -5  -8    3.13    0.35 
   1   5   8    2.83    0.23 
  -1   5  -8    2.40    0.25 
   1   5   8    2.99    0.27 
  -1   5  -8    2.75    0.14 
  -1   5  -8    2.35    0.35 
  -1   5  -8    2.52    0.18 
  -1   5  -8    2.80    0.21 
  -1   5  -8    2.78    0.12 
  -1   5  -8    2.66    0.21 
   2  -5   8    5.62    0.22 
  -2  -5  -8    5.50    0.20 
  -2  -5  -8    5.16    0.25 
  -2  -5  -8    5.40    0.41 
  -2  -5  -8    5.53    0.31 
  -2  -5  -8    4.97    0.16 
  -2   5  -8    5.61    0.22 
   2   5   8    5.42    0.25 
   2   5   8    5.18    0.22 
  -2   5  -8    5.23    0.24 
   2   5   8    5.65    0.31 
  -2   5  -8    5.63    0.33 
  -2   5  -8    5.29    0.25 
  -2   5  -8    5.11    0.27 
  -3  -5  -8    7.71    0.43 
  -3  -5  -8    8.39    0.35 
  -3  -5  -8    7.78    0.29 
  -3   5  -8    7.90    0.29 
  -3   5  -8    8.26    0.27 
   3   5   8    8.38    0.35 
   3   5   8    8.21    0.27 
  -3   5  -8    8.04    0.23 
  -3  -6   8    1.76    0.09 
  -3  -6   8    1.68    0.13 
  -3  -6   8    1.62    0.06 
   3  -6  -8    1.70    0.13 
  -3   6   8    1.51    0.14 
  -3   6   8    1.92    0.14 
   3   6  -8    1.55    0.14 
  -3   6   8    1.37    0.16 
  -3   6   8    1.52    0.17 
   3   6  -8    1.58    0.08 
   3   6  -8    1.52    0.12 
  -2  -6   8   28.71    0.94 
  -2  -6   8   28.29    0.85 
   2  -6  -8   27.49    0.83 
   2   6  -8   29.99    0.91 
  -2   6   8   30.41    1.12 
  -2   6   8   29.13    1.12 
  -2   6   8   30.39    0.93 
  -2   6   8   30.58    0.87 
  -2   6   8   30.15    0.99 
  -1  -6   8    0.37    0.07 
  -1  -6   8    0.31    0.09 
   1  -6  -8    0.39    0.08 
   1  -6  -8    0.24    0.11 
  -1  -6   8    0.17    0.08 
   1   6  -8    0.34    0.09 
  -1   6   8    0.42    0.11 
   1   6  -8    0.40    0.10 
   1   6  -8    0.36    0.10 
   1   6  -8    0.38    0.09 
  -1   6   8    0.26    0.06 
   1   6  -8    0.37    0.10 
  -1   6   8    0.47    0.09 
  -1   6   8    0.33    0.14 
  -1   6   8    0.51    0.11 
  -1   6   8    0.42    0.15 
   0  -6  -8    4.93    0.15 
   0  -6   8    4.79    0.21 
   0  -6  -8    5.11    0.22 
   0  -6   8    4.99    0.20 
   0  -6   8    4.91    0.34 
   0  -6  -8    5.19    0.22 
   0   6  -8    5.27    0.17 
   0   6   8    5.24    0.22 
   0   6   8    5.37    0.29 
   0   6  -8    5.58    0.23 
   0   6  -8    5.38    0.20 
   0   6  -8    4.40    0.28 
   0   6   8    5.09    0.24 
   0   6   8    4.74    0.22 
  -1  -6  -8    2.02    0.13 
  -1  -6  -8    1.99    0.13 
  -1  -6  -8    1.78    0.16 
  -1  -6  -8    1.80    0.26 
  -1  -6  -8    1.88    0.14 
  -1  -6  -8    2.17    0.11 
   1  -6   8    2.09    0.13 
   1   6   8    2.00    0.15 
  -1   6  -8    1.81    0.15 
  -1   6  -8    1.77    0.15 
  -1   6  -8    2.01    0.18 
   1   6   8    1.98    0.20 
  -1   6  -8    1.70    0.13 
  -2  -6  -8    2.13    0.08 
  -2  -6  -8    2.09    0.13 
   2   6   8    2.18    0.17 
   2   6   8    2.36    0.13 
  -2   6  -8    2.32    0.15 
  -2   6  -8    2.35    0.12 
   2   6   8    2.30    0.08 
  -2   6  -8    2.49    0.15 
  -2   6  -8    2.07    0.12 
  -6   0   9    6.12    0.19 
  -6   0   9    6.35    0.28 
  -6   0   9    5.79    0.22 
  -6   0   9    6.20    0.19 
  -5   0   9    1.39    0.19 
  -5   0   9    1.28    0.22 
  -5   0   9    1.29    0.12 
  -5   0   9    1.43    0.29 
  -5   0   9    1.46    0.12 
  -5   0   9    1.78    0.25 
  -5   0   9    1.40    0.16 
  -5   0   9    1.48    0.27 
   4   0  -9    3.17    0.29 
  -4   0   9    2.60    0.18 
  -4   0   9    3.26    0.33 
  -4   0   9    2.94    0.31 
  -4   0   9    2.86    0.24 
  -4   0   9    2.76    0.13 
  -4   0   9    2.86    0.20 
  -4   0   9    2.74    0.11 
  -4   0   9    2.64    0.26 
  -4   0   9    2.14    0.31 
  -4   0   9    3.13    0.27 
   3   0  -9   18.71    0.70 
  -3   0   9   19.93    0.87 
  -3   0   9   19.64    0.78 
  -3   0   9   18.83    0.79 
   3   0  -9   19.83    0.70 
  -2   0   9   13.76    1.00 
  -2   0   9   15.52    0.54 
   2   0  -9   14.97    0.62 
  -2   0   9   15.61    0.59 
   2   0  -9   14.39    0.57 
  -2   0   9   15.33    0.72 
   1   0  -9   10.92    0.43 
   1   0  -9   11.45    0.50 
  -1   0   9   10.48    0.45 
   0   0   9   16.65    0.67 
   0   0  -9   16.98    0.61 
   0   0  -9   16.31    0.65 
   0   0  -9   16.87    0.73 
   0   0  -9   16.74    0.57 
   0   0  -9   17.38    0.65 
   0   0   9   15.91    0.63 
  -1   0  -9   19.68    0.93 
  -1   0  -9   21.73    0.74 
  -1   0  -9   22.06    0.90 
   1   0   9   20.98    0.86 
   1   0   9   21.65    0.77 
  -1   0  -9   21.93    0.67 
  -2   0  -9   22.97    0.87 
  -2   0  -9   21.73    0.76 
  -2   0  -9   21.92    0.70 
  -2   0  -9   21.18    0.73 
   2   0   9   22.89    0.88 
   2   0   9   20.77    0.67 
  -2   0  -9   24.53    0.94 
  -2   0  -9   24.30    0.97 
  -2   0  -9   20.29    0.78 
  -2   0  -9   20.65    0.95 
  -2   0  -9   20.20    0.76 
  -2   0  -9   21.35    0.68 
   2   0   9   21.97    0.79 
  -2   0  -9   22.15    0.62 
  -3   0  -9    2.85    0.21 
  -3   0  -9    3.39    0.35 
  -3   0  -9    2.65    0.26 
  -3   0  -9    2.63    0.23 
  -3   0  -9    3.03    0.20 
  -3   0  -9    3.25    0.26 
  -3   0  -9    2.58    0.38 
  -4   0  -9   12.39    0.43 
  -4   0  -9   11.78    0.40 
  -4   0  -9   12.49    0.35 
  -6  -1   9    2.58    0.14 
  -6  -1   9    2.66    0.12 
  -6  -1   9    2.51    0.11 
  -6   1   9    3.13    0.12 
  -6   1   9    2.85    0.12 
  -6   1   9    3.08    0.21 
  -6   1   9    2.78    0.14 
  -5  -1   9    4.17    0.23 
  -5  -1   9    3.91    0.24 
  -5  -1   9    3.91    0.18 
  -5  -1   9    3.93    0.20 
  -5  -1   9    4.12    0.26 
  -5  -1   9    3.90    0.32 
  -5  -1   9    4.14    0.16 
  -5  -1   9    3.99    0.35 
  -5   1   9    4.46    0.17 
  -5   1   9    4.47    0.22 
  -5   1   9    4.16    0.17 
  -5   1   9    4.38    0.28 
  -5   1   9    4.56    0.33 
  -4  -1   9   22.80    0.81 
  -4  -1   9   23.08    0.98 
  -4  -1   9   22.64    0.63 
  -4  -1   9   22.38    0.78 
  -4  -1   9   23.27    0.68 
  -4  -1   9   23.90    0.90 
  -4  -1   9   22.96    0.90 
  -4  -1   9   22.72    0.88 
   4  -1  -9   22.43    0.80 
  -4  -1   9   24.18    0.73 
  -4  -1   9   21.95    0.91 
  -4   1   9   23.07    0.91 
  -4   1   9   23.99    0.84 
  -4   1   9   23.47    0.75 
  -4   1   9   23.79    1.00 
   4   1  -9   23.11    0.84 
  -4   1   9   23.70    0.70 
  -4   1   9   24.12    0.94 
   4   1  -9   24.51    0.75 
  -4   1   9   24.55    0.83 
  -4   1   9   24.95    0.95 
   3  -1  -9    0.76    0.18 
  -3  -1   9    1.01    0.26 
  -3  -1   9    1.13    0.30 
  -3  -1   9    1.20    0.29 
   3  -1  -9    1.04    0.22 
  -3  -1   9    0.88    0.24 
  -3   1   9    0.90    0.19 
   3   1  -9    1.21    0.23 
   3   1  -9    0.78    0.18 
  -3   1   9    0.94    0.31 
   2  -1  -9    7.73    0.41 
  -2  -1   9    8.20    0.40 
   2  -1  -9    7.91    0.40 
  -2  -1   9    7.68    0.38 
  -2  -1   9    7.07    0.70 
  -2   1   9    8.54    0.51 
  -2   1   9    8.14    0.37 
   2   1  -9    8.33    0.42 
   2   1  -9    8.48    0.41 
  -2   1   9    8.28    0.37 
   1  -1  -9    2.84    0.26 
   1  -1  -9    3.35    0.31 
   1  -1  -9    3.19    0.28 
   1  -1  -9    3.11    0.32 
  -1  -1   9    3.18    0.29 
   1   1  -9    3.16    0.30 
  -1   1   9    3.27    0.29 
  -1   1   9    2.87    0.29 
  -1   1   9    3.48    0.27 
   1   1  -9    3.41    0.27 
   0  -1  -9    6.09    0.41 
   0  -1   9    6.03    0.37 
   0  -1  -9    6.58    0.32 
   0  -1  -9    5.89    0.35 
   0  -1  -9    5.95    0.34 
   0  -1  -9    6.22    0.37 
   0   1   9    7.62    0.43 
   0   1   9    7.88    0.37 
   0   1  -9    7.65    0.48 
   0   1  -9    8.02    0.37 
   0   1   9    7.62    0.41 
   0   1  -9    7.88    0.37 
   0   1  -9    8.04    0.38 
   0   1  -9    7.62    0.40 
   1  -1   9   17.59    0.75 
  -1  -1  -9   17.59    0.62 
   1  -1   9   18.43    0.66 
   1  -1   9   17.53    0.69 
  -1  -1  -9   16.99    0.65 
  -1  -1  -9   18.86    0.85 
  -1  -1  -9   17.92    0.78 
  -1  -1  -9   18.33    0.58 
  -1   1  -9   17.69    0.63 
   1   1   9   17.17    0.71 
   1   1   9   18.49    0.68 
   1   1   9   16.42    0.74 
  -1   1  -9   17.46    0.81 
  -1   1  -9   17.15    0.56 
  -1   1  -9   18.80    0.79 
  -2  -1  -9   25.91    0.87 
  -2  -1  -9   24.60    0.91 
  -2  -1  -9   24.85    0.79 
  -2  -1  -9   27.79    1.11 
  -2  -1  -9   25.51    0.88 
   2  -1   9   25.29    0.90 
   2  -1   9   26.01    1.00 
  -2  -1  -9   24.47    0.85 
  -2  -1  -9   25.81    0.73 
  -2  -1  -9   25.28    1.03 
  -2  -1  -9   25.55    1.00 
  -2  -1  -9   28.03    0.82 
  -2   1  -9   22.76    0.77 
  -2   1  -9   22.91    0.94 
  -2   1  -9   22.39    0.80 
  -2   1  -9   24.95    0.91 
   2   1   9   23.63    0.94 
  -2   1  -9   23.19    0.79 
   2   1   9   23.95    0.83 
  -2   1  -9   23.06    0.74 
   2   1   9   22.55    0.72 
  -2   1  -9   24.34    0.95 
  -2   1  -9   22.94    0.82 
  -2   1  -9   23.52    0.96 
  -2   1  -9   23.12    0.65 
  -2   1  -9   23.29    0.72 
  -3  -1  -9    1.32    0.31 
  -3  -1  -9    1.36    0.16 
  -3  -1  -9    1.44    0.20 
  -3  -1  -9    1.32    0.16 
  -3  -1  -9    1.19    0.18 
  -3  -1  -9    1.31    0.24 
  -3  -1  -9    1.26    0.21 
  -3  -1  -9    1.28    0.24 
  -3   1  -9    1.87    0.30 
  -3   1  -9    1.92    0.18 
   3   1   9    1.55    0.17 
  -3   1  -9    1.65    0.21 
  -3   1  -9    1.40    0.17 
  -3   1  -9    1.43    0.21 
  -3   1  -9    1.34    0.20 
  -3   1  -9    1.38    0.28 
  -3   1  -9    1.88    0.36 
  -4  -1  -9    2.74    0.17 
  -4  -1  -9    2.88    0.17 
  -4  -1  -9    2.71    0.14 
  -4   1  -9    2.31    0.25 
  -4   1  -9    2.11    0.15 
  -4   1  -9    2.38    0.13 
  -6  -2   9    1.74    0.11 
  -6  -2   9    1.68    0.13 
  -6  -2   9    1.79    0.10 
  -6   2   9    1.35    0.08 
  -6   2   9    1.02    0.21 
  -6   2   9    1.30    0.10 
  -6   2   9    1.18    0.08 
  -6   2   9    1.28    0.16 
  -5  -2   9    2.65    0.30 
  -5  -2   9    2.62    0.20 
  -5  -2   9    2.82    0.21 
  -5  -2   9    2.38    0.29 
  -5  -2   9    2.57    0.18 
  -5   2   9    2.23    0.17 
  -5   2   9    2.24    0.13 
  -5   2   9    2.20    0.13 
  -5   2   9    2.39    0.21 
  -5   2   9    2.23    0.27 
  -4  -2   9   10.10    0.39 
  -4  -2   9   10.27    0.52 
  -4  -2   9    9.76    0.30 
   4  -2  -9   10.58    0.46 
  -4  -2   9   10.66    0.51 
  -4  -2   9   10.41    0.38 
  -4  -2   9   10.38    0.47 
  -4  -2   9   10.97    0.57 
  -4  -2   9   10.20    0.33 
   4   2  -9   10.51    0.50 
  -4   2   9   11.31    0.46 
  -4   2   9   11.92    0.54 
  -4   2   9   11.43    0.57 
  -4   2   9   11.79    0.50 
   4   2  -9   11.41    0.40 
  -4   2   9   11.99    0.41 
   3  -2  -9   18.61    0.67 
  -3  -2   9   17.51    0.74 
  -3  -2   9   18.78    0.84 
  -3  -2   9   17.04    0.61 
   3  -2  -9   18.08    0.67 
  -3  -2   9   18.21    0.74 
  -3   2   9   17.87    0.74 
   3   2  -9   18.41    0.76 
  -3   2   9   17.91    0.82 
   3   2  -9   17.44    0.68 
  -3   2   9   18.21    0.66 
  -2  -2   9    6.28    0.35 
  -2  -2   9    6.22    0.37 
   2  -2  -9    5.63    0.36 
  -2  -2   9    5.74    0.36 
  -2   2   9    5.88    0.26 
  -2   2   9    7.14    0.46 
   2   2  -9    6.65    0.40 
  -2   2   9    6.35    0.32 
   2   2  -9    6.48    0.38 
   1  -2  -9   16.55    0.64 
  -1  -2   9   17.92    0.62 
   1  -2  -9   17.51    0.69 
   1  -2  -9   17.05    0.72 
  -1  -2   9   15.61    0.69 
  -1   2   9   20.34    0.77 
  -1   2   9   19.19    0.76 
   1   2  -9   20.55    0.68 
  -1   2   9   19.76    0.66 
   1   2  -9   20.37    0.77 
   0  -2   9   12.54    0.57 
   0  -2  -9   14.00    0.65 
   0  -2  -9   14.59    0.58 
   0  -2  -9   12.19    0.53 
   0  -2  -9   14.00    0.58 
   0  -2  -9   13.37    0.50 
   0   2  -9   12.35    0.60 
   0   2  -9   11.88    0.45 
   0   2  -9   12.52    0.52 
   0   2  -9   12.37    0.49 
   0   2   9   11.64    0.48 
   0   2   9   12.34    0.56 
   0   2  -9   12.44    0.50 
  -1  -2  -9   11.37    0.58 
  -1  -2  -9   12.21    0.44 
  -1  -2  -9   11.79    0.51 
   1  -2   9   11.13    0.49 
   1  -2   9   12.40    0.54 
  -1  -2  -9   11.62    0.45 
   1  -2   9   11.82    0.56 
  -1  -2  -9   11.39    0.50 
  -1   2  -9   11.27    0.47 
   1   2   9   11.06    0.51 
  -1   2  -9   11.14    0.59 
   1   2   9   10.53    0.53 
  -1   2  -9   12.16    0.60 
  -2  -2  -9    2.10    0.16 
  -2  -2  -9    2.20    0.20 
  -2  -2  -9    2.12    0.35 
  -2  -2  -9    2.39    0.38 
  -2  -2  -9    1.94    0.11 
  -2  -2  -9    1.98    0.23 
  -2  -2  -9    2.04    0.21 
  -2  -2  -9    2.27    0.28 
  -2  -2  -9    2.02    0.28 
  -2  -2  -9    1.87    0.23 
   2  -2   9    2.20    0.29 
  -2   2  -9    1.52    0.20 
  -2   2  -9    1.72    0.25 
   2   2   9    1.45    0.28 
  -2   2  -9    1.79    0.22 
  -2   2  -9    1.52    0.17 
  -2   2  -9    1.53    0.19 
  -2   2  -9    1.90    0.31 
  -2   2  -9    1.74    0.26 
  -2   2  -9    2.02    0.24 
  -2   2  -9    1.96    0.30 
  -2   2  -9    1.44    0.17 
  -2   2  -9    1.33    0.37 
   2   2   9    1.29    0.19 
  -3  -2  -9   12.31    0.45 
  -3  -2  -9   12.47    0.48 
  -3  -2  -9   12.30    0.41 
  -3  -2  -9   12.10    0.43 
  -3  -2  -9   11.73    0.62 
  -3  -2  -9   12.27    0.45 
  -3  -2  -9   12.52    0.56 
  -3  -2  -9   12.86    0.54 
  -3   2  -9   11.11    0.41 
  -3   2  -9   11.02    0.42 
  -3   2  -9   11.05    0.45 
  -3   2  -9   10.68    0.46 
   3   2   9   10.94    0.38 
  -3   2  -9   11.55    0.39 
  -3   2  -9   11.05    0.53 
  -4  -2  -9    3.77    0.18 
  -4  -2  -9    2.79    0.18 
  -4  -2  -9    3.77    0.15 
  -4   2  -9    3.40    0.16 
  -4   2  -9    3.61    0.26 
   4   2   9    3.77    0.17 
  -4   2  -9    3.79    0.14 
  -6  -3   9    5.40    0.16 
  -6  -3   9    5.38    0.20 
  -6  -3   9    5.27    0.16 
  -6   3   9    5.14    0.18 
  -6   3   9    4.92    0.14 
  -6   3   9    5.23    0.18 
  -6   3   9    5.13    0.14 
   6   3  -9    5.25    0.19 
  -5  -3   9    0.92    0.16 
  -5  -3   9    0.85    0.14 
  -5   3   9    0.89    0.11 
  -5   3   9    0.93    0.24 
   5   3  -9    0.88    0.14 
  -5   3   9    0.79    0.13 
  -5   3   9    0.80    0.10 
  -4  -3   9    4.47    0.18 
  -4  -3   9    4.59    0.35 
  -4  -3   9    4.84    0.29 
  -4  -3   9    4.10    0.24 
  -4  -3   9    4.65    0.22 
  -4  -3   9    4.86    0.38 
  -4  -3   9    3.86    0.32 
  -4  -3   9    4.40    0.16 
  -4   3   9    3.68    0.26 
  -4   3   9    4.37    0.32 
  -4   3   9    3.37    0.31 
  -4   3   9    3.50    0.20 
   4   3  -9    3.74    0.21 
  -3  -3   9    3.55    0.34 
   3  -3  -9    3.70    0.31 
  -3  -3   9    3.73    0.38 
  -3  -3   9    3.63    0.20 
  -3  -3   9    3.58    0.19 
   3  -3  -9    3.62    0.23 
  -3  -3   9    3.93    0.29 
  -3  -3   9    3.91    0.15 
  -3  -3   9    3.74    0.18 
  -3  -3   9    3.93    0.22 
   3   3  -9    3.85    0.32 
  -3   3   9    4.38    0.24 
  -3   3   9    4.49    0.18 
   3   3  -9    4.15    0.37 
  -3   3   9    4.58    0.19 
   3   3  -9    4.34    0.23 
  -3   3   9    4.50    0.25 
  -3   3   9    4.41    0.41 
  -3   3   9    4.47    0.31 
  -3   3   9    4.54    0.34 
  -3   3   9    4.18    0.24 
  -2  -3   9    1.84    0.26 
  -2  -3   9    1.36    0.18 
   2  -3  -9    2.11    0.35 
  -2  -3   9    1.57    0.27 
  -2  -3   9    2.29    0.28 
   2  -3  -9    1.34    0.28 
  -2  -3   9    1.65    0.10 
  -2  -3   9    1.81    0.18 
   2  -3  -9    1.52    0.21 
  -2  -3   9    1.85    0.26 
  -2  -3   9    1.31    0.14 
  -2  -3   9    1.63    0.29 
  -2   3   9    2.05    0.17 
   2   3  -9    2.16    0.22 
  -2   3   9    2.18    0.14 
   2   3  -9    2.96    0.32 
  -2   3   9    2.60    0.39 
  -2   3   9    2.46    0.17 
  -2   3   9    1.72    0.23 
  -2   3   9    2.03    0.22 
  -2   3   9    2.15    0.23 
  -2   3   9    2.49    0.32 
   2   3  -9    2.29    0.18 
   2   3  -9    1.65    0.29 
   1  -3  -9   17.84    0.69 
  -1  -3   9   18.29    0.66 
  -1  -3   9   18.01    0.76 
   1  -3  -9   19.45    0.74 
   1  -3  -9   18.56    0.81 
  -1   3   9   15.65    0.65 
   1   3  -9   16.20    0.58 
   1   3  -9   15.65    0.66 
  -1   3   9   16.55    0.63 
  -1   3   9   15.88    0.57 
   1   3  -9   17.19    0.67 
   0  -3  -9    5.53    0.30 
   0  -3  -9    5.47    0.31 
   0  -3   9    4.94    0.37 
   0  -3  -9    5.97    0.39 
   0  -3  -9    5.46    0.36 
   0  -3  -9    5.56    0.41 
   0  -3  -9    6.00    0.33 
   0   3   9    5.36    0.34 
   0   3   9    4.91    0.44 
   0   3   9    6.39    0.40 
   0   3   9    5.61    0.29 
   0   3  -9    5.89    0.33 
   0   3  -9    6.35    0.32 
   0   3  -9    5.63    0.28 
   0   3  -9    5.62    0.16 
   0   3  -9    5.56    0.35 
   0   3  -9    5.48    0.27 
  -1  -3  -9    3.10    0.38 
  -1  -3  -9    3.10    0.25 
  -1  -3  -9    2.72    0.43 
  -1  -3  -9    3.14    0.23 
   1  -3   9    2.71    0.31 
  -1  -3  -9    3.09    0.30 
  -1  -3  -9    2.94    0.28 
  -1  -3  -9    3.48    0.26 
  -1  -3  -9    2.77    0.19 
  -1  -3  -9    3.72    0.24 
  -1   3  -9    3.58    0.28 
  -1   3  -9    2.95    0.24 
  -1   3  -9    3.03    0.35 
   1   3   9    3.09    0.32 
  -1   3  -9    3.20    0.24 
   1   3   9    3.16    0.35 
  -1   3  -9    3.34    0.13 
  -1   3  -9    3.56    0.15 
  -1   3  -9    3.02    0.27 
  -1   3  -9    3.65    0.17 
   1   3   9    3.02    0.22 
  -1   3  -9    3.44    0.22 
  -2  -3  -9   22.20    0.64 
  -2  -3  -9   21.31    0.94 
  -2  -3  -9   22.69    0.74 
  -2  -3  -9   22.12    0.77 
  -2  -3  -9   21.80    0.99 
  -2  -3  -9   23.26    0.88 
  -2  -3  -9   21.13    1.01 
  -2  -3  -9   22.77    0.69 
  -2  -3  -9   21.96    0.79 
  -2   3  -9   22.07    0.70 
  -2   3  -9   22.15    0.74 
  -2   3  -9   22.34    0.95 
  -2   3  -9   21.92    0.92 
   2   3   9   22.51    0.69 
  -2   3  -9   23.52    0.87 
  -2   3  -9   22.63    0.89 
  -2   3  -9   22.38    0.76 
  -2   3  -9   22.51    0.79 
  -3  -3  -9    2.99    0.22 
  -3  -3  -9    3.04    0.21 
  -3  -3  -9    2.78    0.18 
  -3  -3  -9    2.89    0.33 
  -3  -3  -9    3.20    0.27 
  -3  -3  -9    3.21    0.20 
   3   3   9    3.02    0.19 
  -3   3  -9    2.85    0.21 
  -3   3  -9    2.67    0.17 
  -3   3  -9    2.98    0.20 
  -3   3  -9    3.02    0.14 
  -3   3  -9    2.53    0.27 
  -3   3  -9    2.94    0.17 
  -4  -3  -9    5.98    0.22 
   4   3   9    6.18    0.21 
  -4   3  -9    5.37    0.20 
  -4   3  -9    5.89    0.17 
  -4   3  -9    6.02    0.30 
  -5  -4   9   10.78    0.35 
  -5  -4   9   10.42    0.42 
  -5   4   9   10.40    0.27 
  -5   4   9   10.05    0.28 
   5   4  -9   10.18    0.33 
  -5   4   9   10.04    0.33 
  -5   4   9    9.90    0.43 
  -4  -4   9    1.73    0.09 
   4  -4  -9    1.83    0.17 
  -4  -4   9    2.27    0.21 
  -4  -4   9    1.91    0.12 
  -4  -4   9    1.59    0.14 
  -4   4   9    2.37    0.18 
   4   4  -9    2.45    0.17 
  -4   4   9    2.64    0.27 
  -4   4   9    2.36    0.20 
  -3  -4   9    2.03    0.25 
  -3  -4   9    1.44    0.28 
  -3  -4   9    1.94    0.11 
  -3  -4   9    1.69    0.15 
   3  -4  -9    1.89    0.18 
  -3  -4   9    1.78    0.13 
  -3  -4   9    1.95    0.17 
  -3  -4   9    1.86    0.13 
  -3   4   9    0.90    0.12 
   3   4  -9    1.11    0.15 
  -3   4   9    1.10    0.22 
  -3   4   9    1.33    0.31 
  -3   4   9    0.86    0.16 
  -3   4   9    1.08    0.08 
  -3   4   9    0.84    0.14 
  -3   4   9    1.06    0.19 
  -3   4   9    0.91    0.18 
  -2  -4   9    0.85    0.17 
   2  -4  -9    0.27    0.16 
  -2  -4   9    0.88    0.12 
  -2  -4   9    0.92    0.08 
  -2  -4   9    0.98    0.21 
   2  -4  -9    0.81    0.22 
  -2  -4   9    0.86    0.26 
  -2  -4   9    0.68    0.24 
  -2  -4   9    0.91    0.16 
  -2   4   9    1.06    0.24 
  -2   4   9    0.70    0.19 
  -2   4   9    0.63    0.09 
  -2   4   9    0.86    0.10 
  -2   4   9    0.40    0.21 
   2   4  -9    0.87    0.18 
  -2   4   9    0.82    0.19 
   2   4  -9    0.92    0.24 
  -2   4   9    1.08    0.14 
   1  -4  -9    0.44    0.11 
   1  -4  -9    0.33    0.16 
  -1  -4   9    0.59    0.23 
   1  -4  -9    0.90    0.24 
   1  -4  -9    0.72    0.23 
  -1  -4   9    1.23    0.29 
  -1  -4   9    0.59    0.12 
  -1  -4   9    0.82    0.22 
  -1   4   9    1.61    0.21 
   1   4  -9    1.56    0.19 
   1   4  -9    1.33    0.11 
   1   4  -9    1.14    0.14 
  -1   4   9    1.30    0.17 
  -1   4   9    0.90    0.21 
   1   4  -9    0.93    0.26 
   1   4  -9    1.06    0.18 
  -1   4   9    1.50    0.24 
   1   4  -9    1.49    0.22 
  -1   4   9    1.12    0.20 
  -1   4   9    1.38    0.26 
   0  -4  -9    5.06    0.28 
   0  -4  -9    5.70    0.21 
   0  -4  -9    5.82    0.43 
   0  -4  -9    5.20    0.29 
   0  -4  -9    5.29    0.36 
   0   4   9    4.56    0.17 
   0   4   9    4.74    0.27 
   0   4  -9    4.82    0.22 
   0   4   9    4.98    0.31 
   0   4  -9    4.74    0.25 
   0   4   9    4.29    0.33 
   0   4  -9    4.55    0.20 
  -1  -4  -9    6.23    0.28 
  -1  -4  -9    6.49    0.32 
   1  -4   9    6.51    0.26 
  -1  -4  -9    6.03    0.44 
  -1  -4  -9    6.27    0.46 
  -1  -4  -9    6.08    0.28 
  -1  -4  -9    6.48    0.31 
   1   4   9    5.43    0.24 
  -1   4  -9    5.70    0.32 
  -1   4  -9    5.47    0.21 
  -1   4  -9    5.61    0.41 
  -1   4  -9    5.01    0.27 
   1   4   9    5.37    0.43 
  -1   4  -9    5.22    0.28 
   1   4   9    5.67    0.29 
  -1   4  -9    5.61    0.26 
  -1   4  -9    5.60    0.20 
   1   4   9    5.36    0.34 
  -2  -4  -9    4.83    0.19 
  -2  -4  -9    4.19    0.39 
  -2  -4  -9    4.97    0.26 
  -2  -4  -9    5.06    0.32 
  -2  -4  -9    4.63    0.24 
  -2   4  -9    4.24    0.21 
  -2   4  -9    5.20    0.23 
  -2   4  -9    4.84    0.27 
  -2   4  -9    5.22    0.34 
  -2   4  -9    4.56    0.22 
  -2   4  -9    4.63    0.28 
  -2   4  -9    4.90    0.26 
   2   4   9    4.65    0.22 
  -3  -4  -9   12.47    0.44 
  -3  -4  -9   13.26    0.62 
  -3  -4  -9   13.08    0.52 
   3   4   9   13.93    0.44 
  -3   4  -9   14.34    0.59 
  -3   4  -9   13.98    0.47 
  -3   4  -9   14.10    0.44 
  -3   4  -9   13.84    0.48 
  -3   4  -9   13.99    0.38 
   3   4   9   14.03    0.55 
   4  -5  -9    0.80    0.12 
  -4  -5   9    0.84    0.06 
  -4  -5   9    1.10    0.15 
  -4  -5   9    0.73    0.10 
  -4   5   9    0.79    0.09 
  -4   5   9    0.51    0.11 
   4   5  -9    0.68    0.10 
  -4   5   9    0.59    0.12 
  -4   5   9    0.92    0.14 
  -3  -5   9    0.19    0.06 
  -3  -5   9    0.21    0.05 
  -3  -5   9    0.18    0.04 
  -3  -5   9    0.05    0.07 
   3  -5  -9    0.22    0.10 
  -3   5   9    0.13    0.10 
   3   5  -9    0.03    0.10 
  -3   5   9    0.20    0.11 
  -3   5   9    0.13    0.11 
  -3   5   9    0.19    0.08 
   2  -5  -9    6.84    0.27 
  -2  -5   9    6.94    0.26 
  -2  -5   9    6.89    0.29 
   2  -5  -9    6.71    0.42 
  -2   5   9    4.96    0.30 
  -2   5   9    5.58    0.26 
  -2   5   9    5.34    0.19 
  -2   5   9    5.31    0.26 
  -2   5   9    5.54    0.25 
   2   5  -9    5.30    0.25 
   2   5  -9    5.41    0.24 
   2   5  -9    5.50    0.17 
  -2   5   9    5.40    0.32 
  -2   5   9    5.54    0.21 
   1  -5  -9    1.42    0.21 
  -1  -5   9    1.66    0.15 
  -1  -5   9    1.13    0.25 
   1  -5  -9    1.52    0.33 
   1  -5  -9    1.46    0.14 
  -1  -5   9    1.34    0.09 
   1   5  -9    2.07    0.18 
   1   5  -9    2.10    0.17 
  -1   5   9    1.98    0.11 
  -1   5   9    2.10    0.14 
  -1   5   9    1.93    0.19 
  -1   5   9    2.11    0.14 
  -1   5   9    2.09    0.17 
  -1   5   9    2.21    0.25 
  -1   5   9    1.72    0.17 
   0  -5  -9    6.88    0.20 
   0  -5  -9    6.75    0.29 
   0  -5   9    6.50    0.36 
   0  -5  -9    6.28    0.42 
   0  -5  -9    7.23    0.29 
   0   5  -9    7.89    0.22 
   0   5   9    7.73    0.33 
   0   5  -9    7.32    0.37 
   0   5   9    7.78    0.38 
   0   5  -9    7.62    0.28 
   0   5  -9    7.46    0.25 
   0   5   9    7.66    0.31 
   0   5  -9    8.10    0.32 
  -1  -5  -9    3.49    0.18 
  -1  -5  -9    3.65    0.21 
  -1  -5  -9    3.86    0.17 
  -1  -5  -9    3.65    0.18 
  -1  -5  -9    2.81    0.32 
  -1   5  -9    3.77    0.21 
  -1   5  -9    3.96    0.24 
   1   5   9    3.84    0.22 
   1   5   9    3.58    0.13 
  -1   5  -9    3.76    0.21 
  -1   5  -9    3.57    0.18 
  -1   5  -9    3.75    0.14 
   1   5   9    3.97    0.20 
   1   5   9    3.41    0.26 
  -2  -5  -9    5.31    0.22 
  -2  -5  -9    4.67    0.16 
  -2  -5  -9    4.29    0.34 
  -2  -5  -9    4.95    0.27 
   2   5   9    5.51    0.17 
  -2   5  -9    5.32    0.21 
  -2   5  -9    5.02    0.25 
  -2   5  -9    5.47    0.22 
   2   5   9    5.64    0.28 
  -2   5  -9    5.33    0.30 
  -2   5  -9    5.58    0.23 
   2   5   9    5.71    0.23 
   3  -6  -9    2.24    0.12 
  -3  -6   9    2.48    0.09 
   3   6  -9    2.25    0.11 
  -3   6   9    1.88    0.14 
  -3   6   9    2.03    0.12 
   2  -6  -9    1.06    0.10 
  -2  -6   9    0.97    0.10 
  -2  -6   9    1.02    0.08 
  -2  -6   9    0.92    0.07 
  -2  -6   9    0.98    0.10 
   2   6  -9    0.98    0.11 
   2   6  -9    0.98    0.11 
  -2   6   9    0.90    0.11 
  -2   6   9    0.81    0.11 
  -2   6   9    0.93    0.06 
  -2   6   9    1.03    0.15 
  -2   6   9    0.82    0.15 
  -1  -6   9   10.70    0.34 
   1  -6  -9   10.14    0.41 
   1  -6  -9   10.43    0.35 
   1  -6  -9   10.84    0.28 
  -1   6   9    9.77    0.31 
   1   6  -9    9.35    0.33 
  -1   6   9    9.71    0.28 
   1   6  -9    9.94    0.35 
  -1   6   9    9.40    0.40 
   1   6  -9    9.76    0.26 
  -1   6   9    9.82    0.36 
   0  -6  -9    0.52    0.19 
   0  -6   9    0.49    0.11 
   0  -6   9    0.31    0.05 
   0  -6  -9    0.67    0.12 
   0   6  -9    0.76    0.09 
   0   6   9    0.67    0.10 
   0   6   9    0.76    0.07 
   0   6  -9    0.58    0.14 
   0   6   9    0.84    0.15 
   0   6   9    0.61    0.07 
   0   6   9    0.76    0.12 
   0   6  -9    0.58    0.06 
   0   6   9    0.53    0.09 
   0   6  -9    0.84    0.11 
   1  -6   9    2.27    0.19 
   1   6   9    1.79    0.14 
  -1   6  -9    1.89    0.14 
  -1   6  -9    2.32    0.13 
  -6   0  10    2.21    0.10 
  -6   0  10    2.31    0.10 
  -6   0  10    1.96    0.16 
  -6   0  10    2.07    0.12 
  -5   0  10    5.36    0.19 
  -5   0  10    5.24    0.32 
  -5   0  10    5.73    0.23 
  -5   0  10    5.09    0.20 
  -5   0  10    5.36    0.28 
  -5   0  10    5.58    0.29 
  -4   0  10    3.41    0.21 
   4   0 -10    3.48    0.30 
  -4   0  10    3.75    0.20 
  -4   0  10    3.62    0.27 
  -4   0  10    3.47    0.15 
  -4   0  10    3.67    0.26 
  -4   0  10    3.47    0.35 
   4   0 -10    3.31    0.22 
  -4   0  10    3.22    0.20 
  -4   0  10    4.08    0.29 
  -4   0  10    3.97    0.33 
  -4   0  10    3.61    0.32 
  -3   0  10    4.66    0.25 
   3   0 -10    4.60    0.34 
  -3   0  10    5.08    0.42 
   3   0 -10    4.96    0.25 
  -3   0  10    5.08    0.20 
  -3   0  10    4.92    0.16 
  -3   0  10    4.76    0.21 
  -3   0  10    4.86    0.32 
  -3   0  10    4.91    0.30 
  -3   0  10    4.77    0.35 
   2   0 -10    0.18    0.17 
   2   0 -10    0.73    0.23 
  -2   0  10    0.43    0.15 
  -2   0  10    0.53    0.16 
  -2   0  10    0.50    0.17 
   1   0 -10   20.04    0.76 
  -1   0  10   19.19    0.77 
  -1   0  10   19.16    0.67 
   0   0 -10   -0.01    0.13 
   0   0 -10   -0.03    0.17 
   0   0 -10   -0.27    0.18 
   0   0 -10    0.21    0.15 
   0   0  10   -0.05    0.16 
   0   0 -10   -0.28    0.13 
  -1   0 -10   26.92    0.91 
  -1   0 -10   26.97    0.75 
  -1   0 -10   26.20    0.81 
  -1   0 -10   27.29    1.13 
  -1   0 -10   25.80    1.01 
   1   0  10   23.76    1.02 
  -1   0 -10   25.26    0.81 
   1   0  10   27.46    0.92 
   1   0  10   26.61    0.80 
  -1   0 -10   26.07    0.88 
  -1   0 -10   26.52    0.86 
  -1   0 -10   26.12    1.05 
   1   0  10   24.48    0.97 
  -1   0 -10   27.76    0.81 
  -2   0 -10    7.63    0.34 
  -2   0 -10    8.04    0.51 
  -2   0 -10    7.58    0.48 
   2   0  10    7.43    0.30 
  -2   0 -10    7.79    0.34 
  -2   0 -10    7.30    0.43 
  -2   0 -10    7.85    0.32 
  -2   0 -10    7.51    0.33 
  -2   0 -10    8.01    0.41 
  -2   0 -10    7.54    0.25 
  -2   0 -10    7.68    0.30 
  -3   0 -10    0.64    0.16 
  -3   0 -10    0.65    0.18 
  -3   0 -10    0.81    0.19 
   3   0  10    0.81    0.14 
  -3   0 -10    0.54    0.15 
  -4   0 -10    3.64    0.14 
   4   0  10    3.53    0.15 
  -4   0 -10    3.09    0.15 
  -6  -1  10    3.21    0.12 
  -6  -1  10    3.35    0.12 
  -6  -1  10    3.24    0.15 
  -6   1  10    2.82    0.14 
  -6   1  10    2.75    0.11 
  -6   1  10    2.62    0.17 
  -6   1  10    2.96    0.11 
  -5  -1  10    0.27    0.12 
  -5  -1  10    0.23    0.10 
  -5  -1  10    0.10    0.08 
  -5  -1  10    0.08    0.11 
  -5   1  10    0.13    0.10 
  -5   1  10    0.29    0.15 
  -5   1  10    0.07    0.06 
   5   1 -10    0.30    0.10 
  -5   1  10    0.19    0.12 
  -5   1  10    0.18    0.07 
  -5   1  10    0.24    0.08 
  -4  -1  10   13.01    0.60 
  -4  -1  10   13.14    0.65 
   4  -1 -10   12.58    0.45 
  -4  -1  10   13.24    0.51 
  -4  -1  10   13.75    0.59 
  -4  -1  10   12.70    0.40 
  -4  -1  10   13.03    0.45 
  -4  -1  10   13.39    0.37 
  -4  -1  10   13.13    0.58 
  -4  -1  10   12.57    0.47 
  -4  -1  10   13.15    0.55 
  -4   1  10   13.89    0.42 
  -4   1  10   14.60    0.62 
  -4   1  10   14.01    0.61 
  -4   1  10   13.24    0.50 
  -4   1  10   14.50    0.67 
  -4   1  10   14.84    0.50 
  -4   1  10   14.13    0.59 
  -4   1  10   14.90    0.55 
   4   1 -10   13.73    0.47 
  -4   1  10   14.21    0.48 
  -3  -1  10    7.84    0.30 
   3  -1 -10    8.28    0.42 
  -3  -1  10    7.86    0.33 
  -3  -1  10    7.76    0.24 
  -3  -1  10    8.03    0.40 
  -3  -1  10    7.71    0.38 
  -3  -1  10    8.07    0.27 
   3  -1 -10    8.28    0.32 
  -3  -1  10    8.06    0.42 
  -3  -1  10    8.11    0.51 
   3   1 -10    7.33    0.42 
   3   1 -10    8.84    0.33 
  -3   1  10    8.48    0.28 
  -3   1  10    8.53    0.40 
  -3   1  10    8.43    0.25 
  -3   1  10    8.90    0.53 
  -3   1  10    8.48    0.30 
  -3   1  10    8.69    0.45 
  -3   1  10    8.72    0.31 
  -3   1  10    8.82    0.43 
  -3   1  10    8.35    0.35 
  -2  -1  10    9.71    0.47 
  -2  -1  10   10.64    0.46 
   2  -1 -10    9.37    0.50 
  -2  -1  10   10.14    0.43 
   2  -1 -10    8.61    0.45 
  -2   1  10    9.13    0.40 
  -2   1  10    9.62    0.39 
   2   1 -10    9.30    0.49 
   2   1 -10    9.71    0.45 
  -2   1  10    9.80    0.47 
  -1  -1  10    1.81    0.26 
  -1  -1  10    1.65    0.29 
   1  -1 -10    1.97    0.30 
   1  -1 -10    1.28    0.31 
   1  -1 -10    1.95    0.25 
  -1   1  10    1.08    0.25 
   1   1 -10    1.44    0.28 
  -1   1  10    1.16    0.28 
   1   1 -10    1.49    0.26 
  -1   1  10    1.37    0.26 
   0  -1 -10   21.58    0.81 
   0  -1  10   22.54    0.80 
   0  -1 -10   22.76    0.82 
   0  -1 -10   22.54    0.77 
   0  -1  10   20.72    0.86 
   0  -1 -10   21.92    0.89 
   0  -1 -10   21.80    0.71 
   0   1 -10   20.89    0.74 
   0   1  10   19.05    0.69 
   0   1 -10   19.61    0.66 
   0   1  10   21.33    0.80 
   0   1 -10   19.26    0.76 
   0   1 -10   21.08    0.72 
   0   1 -10   21.33    0.86 
  -1  -1 -10    2.62    0.29 
  -1  -1 -10    2.48    0.29 
   1  -1  10    2.26    0.19 
  -1  -1 -10    1.81    0.24 
  -1  -1 -10    2.04    0.33 
  -1  -1 -10    2.00    0.20 
  -1  -1 -10    2.51    0.39 
   1  -1  10    2.69    0.33 
   1  -1  10    2.49    0.29 
  -1  -1 -10    1.94    0.20 
  -1  -1 -10    2.36    0.18 
  -1  -1 -10    2.40    0.22 
  -1  -1 -10    1.97    0.22 
  -1   1 -10    1.90    0.26 
  -1   1 -10    1.62    0.16 
  -1   1 -10    1.57    0.21 
   1   1  10    1.83    0.18 
  -1   1 -10    1.56    0.21 
  -1   1 -10    1.85    0.25 
  -1   1 -10    1.94    0.38 
  -1   1 -10    1.52    0.34 
   1   1  10    1.58    0.30 
  -1   1 -10    2.00    0.20 
  -1   1 -10    1.91    0.21 
  -1   1 -10    1.70    0.15 
   1   1  10    1.43    0.29 
  -2  -1 -10    4.60    0.26 
  -2  -1 -10    4.62    0.28 
  -2  -1 -10    4.89    0.43 
  -2  -1 -10    4.89    0.42 
  -2  -1 -10    4.97    0.32 
   2  -1  10    4.60    0.22 
  -2  -1 -10    4.89    0.18 
  -2  -1 -10    4.80    0.23 
  -2  -1 -10    4.90    0.27 
  -2   1 -10    5.80    0.43 
  -2   1 -10    5.27    0.18 
  -2   1 -10    5.34    0.28 
  -2   1 -10    5.68    0.27 
  -2   1 -10    5.06    0.35 
  -2   1 -10    5.28    0.33 
   2   1  10    5.32    0.24 
  -2   1 -10    5.62    0.24 
  -2   1 -10    4.89    0.26 
  -2   1 -10    5.00    0.43 
  -2   1 -10    5.82    0.26 
  -3  -1 -10    0.13    0.10 
  -3  -1 -10    0.35    0.10 
  -3  -1 -10    0.17    0.09 
   3  -1  10    0.24    0.09 
  -3  -1 -10    0.64    0.20 
  -3  -1 -10    0.42    0.15 
  -3   1 -10    0.20    0.15 
  -3   1 -10    0.27    0.16 
   3   1  10    0.14    0.10 
  -3   1 -10    0.21    0.11 
  -3   1 -10    0.06    0.09 
  -3   1 -10    0.29    0.10 
  -4  -1 -10   12.43    0.35 
  -4  -1 -10   13.69    0.41 
  -4   1 -10   12.62    0.39 
  -4   1 -10   12.43    0.34 
   4   1  10   13.08    0.39 
  -6  -2  10    0.23    0.06 
  -6  -2  10    0.34    0.07 
  -6  -2  10    0.32    0.07 
  -6   2  10    0.17    0.05 
  -6   2  10    0.19    0.08 
  -6   2  10    0.23    0.04 
  -6   2  10    0.18    0.04 
  -5  -2  10    6.72    0.32 
  -5  -2  10    7.20    0.27 
  -5   2  10    6.31    0.20 
  -5   2  10    5.94    0.20 
  -5   2  10    6.48    0.28 
   5   2 -10    6.60    0.25 
  -5   2  10    5.99    0.25 
  -5   2  10    5.90    0.35 
  -4  -2  10    3.27    0.18 
   4  -2 -10    3.30    0.21 
  -4  -2  10    3.28    0.13 
  -4  -2  10    3.12    0.14 
  -4  -2  10    2.79    0.31 
  -4  -2  10    3.26    0.35 
  -4  -2  10    3.32    0.25 
  -4  -2  10    2.78    0.27 
  -4  -2  10    3.23    0.20 
  -4   2  10    3.20    0.33 
  -4   2  10    3.00    0.19 
  -4   2  10    2.91    0.25 
  -4   2  10    3.27    0.31 
   4   2 -10    3.17    0.19 
  -4   2  10    3.44    0.24 
  -3  -2  10    7.91    0.34 
  -3  -2  10    6.39    0.41 
  -3  -2  10    7.91    0.24 
  -3  -2  10    8.53    0.52 
  -3  -2  10    8.10    0.27 
  -3  -2  10    8.05    0.30 
   3  -2 -10    7.91    0.32 
  -3  -2  10    8.06    0.42 
   3  -2 -10    7.72    0.40 
  -3  -2  10    8.08    0.40 
  -3   2  10    9.19    0.45 
  -3   2  10    8.78    0.24 
  -3   2  10    9.78    0.53 
  -3   2  10    9.13    0.29 
  -3   2  10    9.08    0.44 
  -3   2  10    9.19    0.31 
  -3   2  10    8.89    0.35 
   3   2 -10    7.70    0.47 
  -3   2  10    9.11    0.35 
  -3   2  10    8.83    0.37 
   3   2 -10    8.86    0.33 
   3   2 -10    7.33    0.43 
  -2  -2  10    0.79    0.17 
  -2  -2  10    0.96    0.09 
  -2  -2  10    0.84    0.15 
   2  -2 -10    1.19    0.20 
  -2  -2  10    0.74    0.11 
  -2  -2  10    0.80    0.19 
  -2  -2  10    0.76    0.18 
   2  -2 -10    1.08    0.20 
  -2  -2  10    0.93    0.24 
  -2  -2  10    0.74    0.16 
   2  -2 -10    1.36    0.26 
  -2   2  10    0.82    0.18 
   2   2 -10    0.72    0.18 
  -2   2  10    1.10    0.34 
  -2   2  10    0.50    0.14 
  -2   2  10    1.15    0.19 
   2   2 -10    0.91    0.17 
  -2   2  10    1.08    0.15 
   2   2 -10    0.79    0.22 
  -2   2  10    0.69    0.18 
  -1  -2  10   32.16    1.77 
  -1  -2  10   31.78    1.01 
   1  -2 -10   34.39    1.26 
   1  -2 -10   31.74    0.99 
   1  -2 -10   34.60    1.17 
  -1  -2  10   37.53    1.26 
   1  -2 -10   31.10    1.01 
   1  -2 -10   32.45    1.02 
  -1   2  10   31.25    1.06 
  -1   2  10   30.42    0.96 
  -1   2  10   32.00    1.11 
   1   2 -10   30.56    1.12 
   1   2 -10   32.31    0.96 
  -1   2  10   31.89    0.80 
   1   2 -10   31.86    0.96 
  -1   2  10   30.06    1.17 
  -1   2  10   31.21    1.10 
  -1   2  10   31.92    0.96 
  -1   2  10   29.25    0.98 
   1   2 -10   32.89    1.11 
   0  -2 -10    2.74    0.24 
   0  -2 -10    2.46    0.31 
   0  -2 -10    2.73    0.27 
   0  -2 -10    2.70    0.23 
   0  -2 -10    2.63    0.27 
   0  -2 -10    2.84    0.23 
   0  -2  10    2.94    0.30 
   0  -2  10    2.21    0.30 
   0  -2 -10    2.78    0.16 
   0  -2 -10    3.18    0.38 
   0   2 -10    2.05    0.19 
   0   2  10    1.91    0.23 
   0   2  10    2.10    0.30 
   0   2 -10    2.32    0.09 
   0   2 -10    2.35    0.21 
   0   2  10    1.86    0.28 
   0   2  10    1.64    0.32 
   0   2 -10    2.87    0.36 
   0   2 -10    1.97    0.22 
   0   2 -10    2.17    0.17 
   0   2 -10    2.06    0.25 
   0   2 -10    1.60    0.26 
  -1  -2 -10    9.50    0.39 
   1  -2  10    7.70    0.45 
  -1  -2 -10    9.70    0.39 
  -1  -2 -10    9.26    0.35 
  -1  -2 -10    9.10    0.53 
  -1  -2 -10    8.19    0.43 
  -1  -2 -10    9.35    0.35 
  -1  -2 -10    9.35    0.32 
   1  -2  10    9.61    0.47 
   1   2  10    9.55    0.34 
   1   2  10    7.60    0.48 
  -1   2 -10    9.78    0.39 
  -1   2 -10   10.07    0.31 
  -1   2 -10    9.69    0.35 
  -1   2 -10    9.68    0.54 
  -1   2 -10    9.79    0.55 
  -1   2 -10    9.18    0.42 
  -1   2 -10    9.38    0.40 
  -1   2 -10    9.67    0.38 
   1   2  10    9.07    0.46 
  -1   2 -10   10.18    0.46 
  -2  -2 -10    4.37    0.30 
  -2  -2 -10    4.23    0.22 
  -2  -2 -10    3.92    0.25 
  -2  -2 -10    4.08    0.17 
  -2  -2 -10    3.81    0.39 
  -2  -2 -10    3.45    0.37 
  -2  -2 -10    3.59    0.24 
  -2  -2 -10    4.25    0.24 
  -2   2 -10    4.72    0.23 
  -2   2 -10    4.60    0.30 
  -2   2 -10    5.00    0.25 
  -2   2 -10    4.61    0.35 
  -2   2 -10    5.24    0.26 
  -2   2 -10    4.07    0.30 
  -2   2 -10    4.42    0.37 
  -2   2 -10    4.94    0.24 
  -2   2 -10    4.88    0.42 
  -2   2 -10    4.74    0.21 
   2   2  10    4.97    0.23 
  -3  -2 -10    6.52    0.25 
  -3  -2 -10    6.09    0.27 
  -3  -2 -10    5.65    0.25 
  -3  -2 -10    5.73    0.32 
   3  -2  10    6.33    0.23 
  -3  -2 -10    6.69    0.28 
  -3   2 -10    6.39    0.31 
  -3   2 -10    6.91    0.28 
   3   2  10    6.94    0.25 
  -3   2 -10    6.78    0.26 
  -3   2 -10    6.85    0.29 
  -3   2 -10    7.03    0.36 
  -5  -3  10    0.56    0.12 
  -5  -3  10    0.17    0.08 
   5   3 -10    0.32    0.08 
  -5   3  10    0.29    0.06 
  -5   3  10    0.27    0.07 
  -5   3  10    0.54    0.10 
  -5   3  10    0.50    0.13 
  -4  -3  10    5.61    0.20 
  -4  -3  10    5.05    0.33 
  -4  -3  10    5.49    0.17 
  -4  -3  10    5.43    0.30 
  -4  -3  10    5.69    0.25 
   4  -3 -10    5.78    0.24 
   4   3 -10    4.62    0.22 
  -4   3  10    5.22    0.33 
  -4   3  10    4.97    0.28 
  -4   3  10    5.09    0.24 
  -4   3  10    4.98    0.25 
   3  -3 -10    1.50    0.18 
  -3  -3  10    1.40    0.17 
  -3  -3  10    1.74    0.28 
  -3  -3  10    1.82    0.18 
  -3  -3  10    1.68    0.12 
  -3  -3  10    1.67    0.10 
  -3  -3  10    1.69    0.27 
  -3  -3  10    1.77    0.24 
  -3  -3  10    1.66    0.13 
  -3   3  10    1.72    0.27 
  -3   3  10    1.53    0.17 
  -3   3  10    1.93    0.26 
  -3   3  10    1.91    0.13 
  -3   3  10    1.97    0.20 
   3   3 -10    1.84    0.16 
  -3   3  10    1.83    0.19 
  -3   3  10    2.06    0.11 
  -3   3  10    1.71    0.18 
  -3   3  10    1.49    0.33 
  -2  -3  10   23.28    0.58 
   2  -3 -10   20.43    0.80 
  -2  -3  10   23.93    0.85 
  -2  -3  10   24.28    0.89 
   2  -3 -10   23.52    0.71 
  -2  -3  10   22.63    0.86 
  -2  -3  10   21.79    0.82 
  -2  -3  10   22.15    0.79 
  -2  -3  10   23.28    0.71 
   2  -3 -10   21.63    0.89 
   2   3 -10   21.55    0.89 
  -2   3  10   24.45    0.68 
  -2   3  10   24.28    0.94 
  -2   3  10   24.65    0.83 
  -2   3  10   24.18    0.77 
   2   3 -10   23.90    0.75 
  -2   3  10   23.34    0.82 
   2   3 -10   23.40    0.73 
  -2   3  10   25.15    1.05 
  -2   3  10   24.13    0.64 
   1  -3 -10    0.02    0.13 
  -1  -3  10   -0.02    0.14 
  -1  -3  10   -0.01    0.17 
  -1  -3  10    0.28    0.20 
   1  -3 -10    0.20    0.21 
  -1  -3  10    0.02    0.11 
   1  -3 -10    0.13    0.11 
   1  -3 -10    0.12    0.21 
  -1   3  10    0.14    0.12 
  -1   3  10    0.04    0.06 
   1   3 -10    0.15    0.11 
   1   3 -10    0.04    0.09 
  -1   3  10    0.03    0.13 
  -1   3  10   -0.03    0.12 
   1   3 -10   -0.04    0.07 
   1   3 -10    0.00    0.12 
  -1   3  10    0.03    0.07 
   1   3 -10    0.21    0.14 
  -1   3  10    0.12    0.17 
   1   3 -10    0.24    0.18 
  -1   3  10   -0.01    0.14 
   0  -3 -10   27.16    0.93 
   0  -3 -10   28.44    1.08 
   0  -3 -10   28.71    0.74 
   0  -3  10   30.93    1.11 
   0  -3 -10   28.59    1.02 
   0  -3 -10   29.96    0.90 
   0  -3 -10   28.16    1.12 
   0   3  10   27.24    1.46 
   0   3 -10   27.86    0.78 
   0   3  10   26.36    0.85 
   0   3 -10   26.97    0.83 
   0   3 -10   28.01    0.93 
  -1  -3 -10    0.92    0.19 
  -1  -3 -10    1.33    0.22 
   1  -3  10    1.24    0.26 
  -1  -3 -10    1.00    0.18 
  -1  -3 -10    0.89    0.23 
  -1  -3 -10    0.84    0.19 
  -1  -3 -10    1.12    0.17 
  -1  -3 -10    1.15    0.16 
  -1   3 -10    0.83    0.11 
  -1   3 -10    0.78    0.17 
   1   3  10    0.60    0.15 
  -1   3 -10    1.02    0.23 
  -1   3 -10    0.80    0.18 
  -1   3 -10    0.85    0.28 
  -1   3 -10    0.74    0.13 
  -1   3 -10    0.89    0.16 
   1   3  10    0.74    0.16 
  -2  -3 -10    8.66    0.28 
  -2  -3 -10    8.85    0.36 
  -2  -3 -10    8.67    0.35 
  -2  -3 -10    9.07    0.43 
  -2  -3 -10    9.12    0.38 
  -2  -3 -10    9.27    0.33 
  -2   3 -10   10.40    0.38 
  -2   3 -10   10.40    0.34 
  -2   3 -10    9.96    0.48 
   2   3  10    9.72    0.35 
  -2   3 -10   10.44    0.35 
  -2   3 -10    9.49    0.37 
  -2   3 -10   10.22    0.39 
  -2   3 -10   10.20    0.44 
  -3  -3 -10    0.59    0.14 
  -3  -3 -10    0.74    0.13 
   3  -3  10    0.51    0.11 
  -3  -3 -10    0.65    0.14 
  -3  -3 -10    0.65    0.10 
   3   3  10    0.85    0.12 
  -3   3 -10    0.82    0.10 
  -3   3 -10    0.71    0.19 
  -3   3 -10    0.61    0.13 
  -3   3 -10    0.70    0.09 
  -3   3 -10    1.00    0.11 
  -5  -4  10    4.15    0.20 
  -5   4  10    3.03    0.11 
  -5   4  10    3.24    0.11 
  -5   4  10    2.99    0.13 
   5   4 -10    3.06    0.13 
  -4  -4  10    0.74    0.12 
  -4  -4  10    0.89    0.07 
  -4  -4  10    0.79    0.17 
   4  -4 -10    0.83    0.13 
  -4   4  10    1.00    0.18 
  -4   4  10    1.00    0.15 
  -4   4  10    0.95    0.13 
   4   4 -10    0.84    0.12 
  -4   4  10    0.90    0.14 
   3  -4 -10   10.57    0.36 
  -3  -4  10   10.51    0.39 
  -3  -4  10   10.59    0.37 
  -3  -4  10   10.89    0.32 
  -3  -4  10   10.62    0.29 
   3   4 -10   10.63    0.37 
   3   4 -10   11.06    0.36 
  -3   4  10   10.26    0.40 
  -3   4  10   10.93    0.39 
  -3   4  10   11.01    0.39 
  -3   4  10   11.23    0.47 
  -3   4  10   10.84    0.33 
   2  -4 -10    1.51    0.16 
  -2  -4  10    1.47    0.15 
  -2  -4  10    1.46    0.24 
  -2  -4  10    1.69    0.16 
   2  -4 -10    1.33    0.29 
  -2   4  10    1.76    0.18 
  -2   4  10    1.70    0.23 
  -2   4  10    1.43    0.18 
   2   4 -10    1.33    0.11 
  -2   4  10    1.38    0.13 
  -2   4  10    1.59    0.08 
  -2   4  10    1.64    0.15 
  -2   4  10    1.43    0.16 
   2   4 -10    1.60    0.17 
  -1  -4  10    4.34    0.21 
   1  -4 -10    4.80    0.39 
   1  -4 -10    4.12    0.26 
  -1  -4  10    4.14    0.32 
  -1  -4  10    4.59    0.30 
   1  -4 -10    4.12    0.21 
  -1   4  10    4.24    0.24 
  -1   4  10    4.49    0.23 
   1   4 -10    3.93    0.21 
   1   4 -10    3.91    0.23 
  -1   4  10    3.92    0.22 
   0  -4 -10    1.13    0.19 
   0  -4  10    0.83    0.25 
   0  -4 -10    1.23    0.20 
   0  -4 -10    0.83    0.09 
   0  -4  10    1.09    0.15 
   0  -4 -10    0.73    0.12 
   0  -4 -10    0.31    0.18 
   0   4  10    0.69    0.14 
   0   4 -10    0.95    0.21 
   0   4 -10    0.68    0.12 
   0   4 -10    0.92    0.09 
   0   4  10    0.92    0.22 
   0   4 -10    0.77    0.15 
   0   4 -10    0.90    0.11 
   0   4  10    0.71    0.09 
   0   4  10    0.64    0.11 
  -1  -4 -10    7.50    0.31 
  -1  -4 -10    7.15    0.27 
  -1  -4 -10    7.52    0.29 
  -1  -4 -10    6.70    0.30 
  -1  -4 -10    6.76    0.43 
  -1  -4 -10    7.47    0.26 
   1  -4  10    7.12    0.37 
  -1   4 -10    6.98    0.28 
   1   4  10    7.18    0.36 
  -1   4 -10    7.13    0.30 
  -1   4 -10    7.04    0.29 
  -1   4 -10    7.51    0.35 
   1   4  10    7.30    0.29 
  -1   4 -10    6.78    0.21 
  -1   4 -10    7.27    0.24 
  -1   4 -10    6.21    0.37 
  -2  -4 -10    3.03    0.26 
   2  -4  10    2.64    0.23 
  -2  -4 -10    3.17    0.12 
  -2  -4 -10    3.01    0.21 
  -2  -4 -10    3.02    0.17 
  -2  -4 -10    3.23    0.18 
  -2   4 -10    4.01    0.18 
   2   4  10    3.67    0.30 
   2   4  10    3.74    0.23 
   2   4  10    3.51    0.17 
   2   4  10    2.96    0.19 
  -2   4 -10    3.90    0.22 
  -2   4 -10    3.98    0.17 
  -2   4 -10    3.67    0.26 
  -2   4 -10    4.05    0.19 
  -3  -5  10    0.40    0.07 
  -3  -5  10    0.39    0.07 
  -3  -5  10    0.34    0.08 
   3  -5 -10    0.28    0.08 
  -3   5  10    0.34    0.10 
  -3   5  10    0.36    0.10 
   3   5 -10    0.38    0.09 
   3   5 -10    0.58    0.12 
   3   5 -10    0.33    0.06 
  -3   5  10    0.46    0.10 
  -2  -5  10   14.64    0.45 
  -2  -5  10   15.02    0.50 
   2  -5 -10   13.81    0.45 
  -2   5  10   16.03    0.55 
  -2   5  10   16.16    0.63 
  -2   5  10   16.04    0.47 
  -2   5  10   15.10    0.50 
   2   5 -10   16.03    0.50 
  -2   5  10   15.25    0.44 
  -1  -5  10    0.81    0.12 
  -1  -5  10    0.66    0.09 
  -1  -5  10    0.74    0.06 
   1  -5 -10    0.82    0.12 
   1  -5 -10    0.64    0.13 
  -1  -5  10    0.33    0.11 
   1  -5 -10    0.66    0.09 
   1   5 -10    0.52    0.11 
  -1   5  10    0.49    0.07 
  -1   5  10    0.50    0.14 
  -1   5  10    0.57    0.07 
  -1   5  10    0.48    0.10 
   1   5 -10    0.42    0.07 
   1   5 -10    0.59    0.13 
  -1   5  10    0.65    0.18 
   1   5 -10    0.50    0.10 
   1   5 -10    0.45    0.07 
   0  -5  10    3.47    0.17 
   0  -5  10    3.15    0.24 
   0  -5  10    3.76    0.25 
   0  -5 -10    2.82    0.29 
   0  -5 -10    3.41    0.18 
   0   5 -10    3.63    0.14 
   0   5 -10    3.68    0.15 
   0   5 -10    3.91    0.18 
   0   5  10    3.42    0.17 
   0   5 -10    3.54    0.23 
   0   5  10    3.65    0.23 
   0   5  10    3.24    0.19 
  -1  -5 -10    3.42    0.11 
  -1  -5 -10    3.65    0.17 
  -1  -5 -10    3.52    0.14 
   1  -5  10    3.65    0.27 
  -1  -5 -10    2.63    0.28 
  -1   5 -10    3.41    0.17 
  -1   5 -10    3.42    0.21 
  -1   5 -10    3.60    0.17 
   1   5  10    3.31    0.21 
   1   5  10    3.70    0.17 
  -1   5 -10    3.78    0.18 
  -1   5 -10    3.10    0.23 
  -5   0  11    1.37    0.17 
  -5   0  11    1.65    0.15 
  -5   0  11    2.09    0.22 
  -5   0  11    1.78    0.18 
   5   0 -11    1.63    0.14 
  -4   0  11    9.88    0.36 
  -4   0  11    9.10    0.51 
  -4   0  11    8.70    0.45 
  -4   0  11    9.80    0.40 
  -4   0  11    9.49    0.36 
  -4   0  11    9.67    0.35 
   4   0 -11    9.89    0.35 
  -4   0  11    9.90    0.46 
  -4   0  11   10.21    0.44 
  -4   0  11    9.28    0.30 
  -3   0  11   13.07    0.40 
  -3   0  11   13.24    0.68 
  -3   0  11   13.15    0.36 
   3   0 -11   13.69    0.45 
  -3   0  11   14.08    0.58 
  -3   0  11   13.45    0.60 
  -3   0  11   13.28    0.49 
  -3   0  11   13.57    0.52 
  -3   0  11   13.29    0.46 
  -2   0  11   36.13    1.27 
  -2   0  11   34.74    1.14 
   2   0 -11   34.32    1.01 
  -2   0  11   30.89    1.12 
  -2   0  11   33.85    1.02 
   2   0 -11   33.26    1.19 
  -2   0  11   33.50    1.13 
   1   0 -11    0.36    0.19 
  -1   0  11    0.74    0.20 
  -1   0  11    0.41    0.15 
  -1   0  11    0.74    0.19 
   1   0 -11    0.96    0.15 
  -1   0  11    0.72    0.19 
  -1   0  11    0.87    0.12 
   0   0  11   13.88    0.49 
   0   0 -11   14.34    0.67 
   0   0  11   14.75    0.47 
   0   0 -11   15.12    0.48 
   0   0 -11   12.91    0.57 
   0   0 -11   14.61    0.54 
   0   0 -11   14.42    0.37 
   0   0 -11   14.73    0.57 
   0   0 -11   13.24    0.52 
   0   0 -11   13.97    0.48 
  -1   0 -11   20.05    0.64 
  -1   0 -11   20.24    0.86 
  -1   0 -11   20.92    0.71 
  -1   0 -11   20.78    0.82 
   1   0  11   20.26    0.64 
  -1   0 -11   20.68    0.72 
  -1   0 -11   20.89    0.93 
  -1   0 -11   20.75    0.59 
  -1   0 -11   20.39    0.69 
   2   0  11   13.14    0.43 
  -2   0 -11   12.18    0.47 
  -2   0 -11   13.50    0.55 
  -2   0 -11   11.44    0.63 
  -2   0 -11   13.87    0.47 
  -2   0 -11   13.31    0.49 
  -2   0 -11   13.90    0.43 
  -3   0 -11    0.42    0.09 
  -3   0 -11    0.31    0.13 
   3   0  11    0.22    0.08 
  -3   0 -11    0.15    0.08 
  -3   0 -11    0.36    0.10 
   5  -1 -11   12.66    0.40 
  -5  -1  11   12.07    0.49 
  -5  -1  11   12.71    0.41 
  -5  -1  11   12.51    0.46 
  -5   1  11   12.42    0.39 
  -5   1  11   11.54    0.46 
   5   1 -11   12.26    0.39 
  -5   1  11   12.32    0.44 
  -5   1  11   11.22    0.49 
  -5   1  11   11.87    0.32 
   4  -1 -11    1.30    0.17 
  -4  -1  11    1.31    0.17 
  -4  -1  11    1.30    0.15 
  -4  -1  11    1.13    0.22 
  -4  -1  11    0.98    0.20 
  -4  -1  11    1.08    0.10 
  -4  -1  11    1.38    0.21 
  -4  -1  11    1.32    0.25 
  -4   1  11    1.49    0.14 
  -4   1  11    1.43    0.20 
  -4   1  11    1.15    0.06 
  -4   1  11    1.29    0.22 
  -4   1  11    1.36    0.20 
  -4   1  11    1.80    0.16 
  -4   1  11    1.62    0.25 
   4   1 -11    1.47    0.16 
   3  -1 -11   14.19    0.47 
  -3  -1  11   14.47    0.43 
  -3  -1  11   13.37    0.70 
  -3  -1  11   14.68    0.52 
  -3  -1  11   14.18    0.60 
  -3  -1  11   14.80    0.61 
  -3  -1  11   14.42    0.50 
  -3  -1  11   13.81    0.39 
  -3  -1  11   14.44    0.54 
  -3   1  11   14.56    0.55 
  -3   1  11   14.82    0.43 
  -3   1  11   14.49    0.46 
  -3   1  11   14.97    0.53 
  -3   1  11   14.43    0.39 
   3   1 -11   14.59    0.48 
  -3   1  11   14.16    0.55 
  -3   1  11   15.02    0.73 
  -3   1  11   14.79    0.62 
  -3   1  11   14.86    0.63 
   2  -1 -11   12.43    0.58 
  -2  -1  11   13.83    0.59 
  -2  -1  11   13.75    0.45 
   2  -1 -11   13.44    0.45 
   2  -1 -11   13.37    0.55 
  -2  -1  11   13.71    0.52 
  -2  -1  11   11.87    0.50 
  -2  -1  11   13.65    0.34 
  -2  -1  11   13.04    0.49 
  -2   1  11   13.70    0.52 
   2   1 -11   13.20    0.47 
  -2   1  11   13.37    0.50 
  -2   1  11   13.61    0.58 
   2   1 -11   12.91    0.59 
  -2   1  11   13.68    0.45 
   2   1 -11   13.31    0.45 
  -1  -1  11   14.58    0.60 
  -1  -1  11   14.36    0.78 
  -1  -1  11   14.06    0.47 
   1  -1 -11   13.83    0.48 
  -1  -1  11   12.41    0.60 
   1  -1 -11   13.16    0.59 
   1  -1 -11   13.87    0.65 
  -1   1  11   13.86    0.48 
  -1   1  11   13.81    0.52 
  -1   1  11   14.63    0.38 
  -1   1  11   13.65    0.52 
   1   1 -11   13.00    0.58 
  -1   1  11   13.97    0.58 
   1   1 -11   14.68    0.48 
  -1   1  11   14.14    0.55 
   1   1 -11   12.81    0.58 
   0  -1 -11    3.15    0.22 
   0  -1 -11    2.31    0.21 
   0  -1 -11    3.52    0.36 
   0  -1  11    2.84    0.19 
   0  -1 -11    2.82    0.16 
   0  -1 -11    2.72    0.23 
   0  -1  11    2.67    0.22 
   0  -1 -11    3.12    0.21 
   0  -1 -11    2.72    0.12 
   0  -1 -11    2.58    0.23 
   0   1 -11    2.52    0.20 
   0   1 -11    2.59    0.36 
   0   1 -11    2.34    0.22 
   0   1 -11    2.50    0.22 
   0   1  11    2.61    0.19 
   0   1  11    2.43    0.32 
   0   1  11    2.68    0.21 
   1  -1  11   15.03    0.49 
  -1  -1 -11   14.09    0.69 
  -1  -1 -11   15.94    0.55 
  -1  -1 -11   15.92    0.65 
  -1  -1 -11   15.40    0.56 
  -1  -1 -11   14.71    0.54 
  -1  -1 -11   15.76    0.46 
  -1  -1 -11   14.94    0.50 
  -1   1 -11   11.46    0.45 
  -1   1 -11   13.06    0.51 
  -1   1 -11   13.85    0.57 
  -1   1 -11   13.69    0.49 
  -1   1 -11   13.73    0.45 
  -1   1 -11   14.21    0.50 
   1   1  11   13.53    0.44 
  -1   1 -11   13.53    0.64 
   2  -1  11    4.45    0.21 
  -2  -1 -11    4.27    0.23 
  -2  -1 -11    4.32    0.21 
  -2  -1 -11    4.71    0.25 
  -2  -1 -11    4.45    0.29 
  -2  -1 -11    4.10    0.14 
  -2  -1 -11    4.57    0.24 
  -2   1 -11    4.30    0.27 
  -2   1 -11    4.45    0.24 
  -2   1 -11    4.45    0.25 
  -2   1 -11    4.45    0.20 
  -2   1 -11    4.12    0.22 
   2   1  11    4.22    0.21 
  -2   1 -11    4.37    0.21 
  -3  -1 -11    7.49    0.28 
  -3  -1 -11    7.07    0.32 
  -3  -1 -11    7.43    0.26 
   3  -1  11    7.63    0.25 
  -3  -1 -11    7.40    0.29 
  -3   1 -11    6.67    0.24 
  -3   1 -11    6.42    0.29 
  -3   1 -11    6.61    0.27 
  -3   1 -11    7.10    0.26 
   3   1  11    7.02    0.24 
  -5  -2  11    5.52    0.26 
   5  -2 -11    5.50    0.21 
  -5  -2  11    5.70    0.22 
  -5   2  11    5.59    0.18 
  -5   2  11    5.32    0.24 
  -5   2  11    5.26    0.29 
   5   2 -11    5.73    0.21 
  -5   2  11    5.39    0.18 
  -5   2  11    5.72    0.22 
  -4  -2  11   16.33    0.56 
  -4  -2  11   16.58    0.65 
  -4  -2  11   15.96    0.65 
  -4  -2  11   16.33    0.49 
   4  -2 -11   16.63    0.52 
  -4   2  11   16.32    0.64 
   4   2 -11   15.97    0.50 
  -4   2  11   15.69    0.52 
  -4   2  11   16.03    0.65 
  -4   2  11   16.39    0.57 
  -3  -2  11    5.03    0.20 
  -3  -2  11    5.20    0.24 
   3  -2 -11    4.74    0.24 
  -3  -2  11    4.88    0.28 
  -3  -2  11    5.28    0.20 
  -3  -2  11    5.04    0.32 
  -3  -2  11    3.94    0.40 
  -3  -2  11    4.76    0.31 
  -3  -2  11    5.07    0.16 
  -3   2  11    5.22    0.32 
   3   2 -11    5.58    0.24 
  -3   2  11    5.69    0.26 
  -3   2  11    5.43    0.33 
  -3   2  11    5.52    0.19 
  -3   2  11    5.57    0.42 
  -3   2  11    5.44    0.21 
  -3   2  11    5.40    0.26 
  -2  -2  11   10.28    0.43 
  -2  -2  11   10.97    0.38 
  -2  -2  11   10.17    0.27 
  -2  -2  11   10.53    0.41 
   2  -2 -11   10.97    0.38 
  -2  -2  11   10.69    0.50 
  -2   2  11   12.32    0.57 
  -2   2  11   12.47    0.45 
  -2   2  11   12.38    0.35 
   2   2 -11   12.13    0.41 
  -2   2  11   12.09    0.46 
  -2   2  11   12.57    0.38 
  -2   2  11   12.88    0.42 
   2   2 -11   11.60    0.43 
  -1  -2  11    7.96    0.31 
  -1  -2  11    8.21    0.49 
   1  -2 -11    8.44    0.33 
  -1  -2  11    7.42    0.41 
   1  -2 -11    7.59    0.47 
   1   2 -11    8.20    0.34 
  -1   2  11    7.51    0.33 
  -1   2  11    7.70    0.22 
  -1   2  11    7.19    0.30 
   1   2 -11    7.64    0.31 
  -1   2  11    7.70    0.32 
  -1   2  11    7.92    0.32 
   1   2 -11    7.86    0.23 
   0  -2  11    4.86    0.22 
   0  -2 -11    4.94    0.22 
   0  -2 -11    5.45    0.41 
   0  -2 -11    4.57    0.25 
   0  -2  11    4.94    0.32 
   0  -2 -11    4.73    0.27 
   0  -2  11    5.01    0.24 
   0  -2 -11    4.74    0.27 
   0  -2 -11    4.76    0.16 
   0   2 -11    5.27    0.24 
   0   2 -11    5.34    0.23 
   0   2 -11    5.22    0.26 
   0   2  11    5.16    0.27 
   0   2  11    5.01    0.39 
  -1  -2 -11    2.46    0.32 
   1  -2  11    2.33    0.17 
  -1  -2 -11    2.31    0.19 
  -1  -2 -11    2.56    0.16 
  -1  -2 -11    2.32    0.21 
  -1  -2 -11    2.14    0.22 
  -1  -2 -11    2.45    0.19 
  -1   2 -11    1.91    0.13 
  -1   2 -11    2.27    0.19 
  -1   2 -11    1.91    0.15 
  -1   2 -11    2.15    0.25 
   1   2  11    2.17    0.16 
  -1   2 -11    2.07    0.18 
  -1   2 -11    2.41    0.34 
  -1   2 -11    1.91    0.18 
  -1   2 -11    2.12    0.26 
  -1   2 -11    1.93    0.20 
   1   2  11    2.20    0.20 
  -2  -2 -11    8.56    0.35 
   2  -2  11    8.94    0.30 
  -2  -2 -11    8.66    0.30 
  -2  -2 -11    8.57    0.33 
  -2  -2 -11    8.45    0.40 
  -2  -2 -11    8.86    0.33 
  -2  -2 -11    7.82    0.24 
  -2   2 -11    8.15    0.31 
  -2   2 -11    7.61    0.30 
  -2   2 -11    7.80    0.36 
  -2   2 -11    7.95    0.29 
  -2   2 -11    8.05    0.32 
  -2   2 -11    7.83    0.38 
  -2   2 -11    7.70    0.27 
   2   2  11    7.43    0.28 
  -3  -2 -11    7.69    0.27 
  -3  -2 -11    7.26    0.28 
   3  -2  11    7.56    0.25 
  -3  -2 -11    7.15    0.31 
  -3   2 -11    7.05    0.26 
  -3   2 -11    6.59    0.24 
  -3   2 -11    7.21    0.27 
   3   2  11    7.00    0.24 
  -5  -3  11    4.91    0.22 
  -5   3  11    4.86    0.18 
  -5   3  11    4.88    0.15 
   5   3 -11    4.63    0.17 
  -5   3  11    4.42    0.15 
  -4  -3  11    0.94    0.07 
  -4  -3  11    0.99    0.12 
  -4  -3  11    0.83    0.17 
   4  -3 -11    0.86    0.13 
  -4   3  11    0.97    0.20 
  -4   3  11    0.98    0.16 
  -4   3  11    1.25    0.14 
  -4   3  11    1.02    0.14 
   4   3 -11    0.70    0.12 
  -3  -3  11    4.76    0.29 
  -3  -3  11    4.70    0.30 
  -3  -3  11    5.10    0.18 
   3  -3 -11    4.70    0.23 
  -3  -3  11    4.97    0.19 
  -3  -3  11    5.11    0.23 
  -3  -3  11    5.13    0.15 
  -3   3  11    5.29    0.17 
  -3   3  11    5.49    0.24 
  -3   3  11    5.38    0.24 
  -3   3  11    5.62    0.24 
  -3   3  11    5.51    0.31 
   3   3 -11    5.29    0.22 
  -3   3  11    5.49    0.19 
   3   3 -11    5.39    0.23 
  -2  -3  11    5.22    0.23 
   2  -3 -11    5.26    0.23 
  -2  -3  11    4.96    0.32 
  -2  -3  11    5.01    0.25 
  -2   3  11    4.89    0.20 
  -2   3  11    4.91    0.24 
   2   3 -11    4.85    0.18 
  -2   3  11    5.03    0.16 
  -2   3  11    4.96    0.20 
  -2   3  11    4.69    0.32 
  -2   3  11    5.04    0.25 
   2   3 -11    5.14    0.23 
   1  -3 -11    2.99    0.22 
  -1  -3  11    3.47    0.19 
  -1  -3  11    3.18    0.13 
  -1  -3  11    3.29    0.27 
   1  -3 -11    3.30    0.34 
   1   3 -11    3.72    0.21 
   1   3 -11    3.85    0.21 
   1   3 -11    3.34    0.10 
  -1   3  11    3.81    0.22 
  -1   3  11    3.78    0.22 
   0  -3 -11    4.16    0.24 
   0  -3  11    3.82    0.28 
   0  -3 -11    4.01    0.24 
   0  -3 -11    3.91    0.22 
   0  -3 -11    3.36    0.35 
   0  -3  11    3.73    0.20 
   0  -3  11    4.16    0.33 
   0  -3  11    3.86    0.19 
   0   3 -11    4.22    0.19 
   0   3  11    4.21    0.15 
   0   3 -11    4.07    0.20 
   0   3  11    4.13    0.21 
   0   3  11    4.12    0.24 
   0   3 -11    4.56    0.18 
   0   3 -11    4.43    0.23 
   1  -3  11    9.37    0.32 
  -1  -3 -11    9.33    0.33 
  -1  -3 -11    9.35    0.34 
  -1  -3 -11    9.52    0.36 
   1  -3  11    9.28    0.42 
  -1  -3 -11    9.50    0.30 
  -1  -3 -11    9.17    0.37 
  -1   3 -11    9.63    0.33 
  -1   3 -11    9.35    0.35 
   1   3  11    9.43    0.35 
  -1   3 -11    9.81    0.46 
  -1   3 -11    9.03    0.36 
  -1   3 -11    9.46    0.31 
  -1   3 -11    9.48    0.37 
   1   3  11    9.32    0.42 
   1   3  11    9.65    0.57 
  -1   3 -11   10.22    0.43 
  -2  -3 -11    7.35    0.29 
  -2  -3 -11    7.26    0.29 
   2  -3  11    7.63    0.25 
  -2  -3 -11    7.60    0.31 
  -2  -3 -11    7.52    0.35 
  -2   3 -11    7.30    0.28 
  -2   3 -11    7.29    0.27 
   2   3  11    6.82    0.32 
  -2   3 -11    7.43    0.26 
   2   3  11    6.94    0.24 
  -2   3 -11    6.63    0.31 
   2   3  11    6.61    0.45 
  -2   3 -11    7.42    0.34 
  -4  -4  11    3.26    0.19 
   4  -4 -11    3.37    0.15 
  -4  -4  11    3.54    0.15 
  -4   4  11    3.24    0.18 
  -4   4  11    3.69    0.16 
   4   4 -11    3.55    0.15 
  -4   4  11    3.55    0.16 
  -3  -4  11    0.06    0.08 
  -3  -4  11    0.12    0.07 
  -3  -4  11    0.12    0.03 
   3  -4 -11    0.16    0.08 
  -3  -4  11    0.11    0.05 
  -3   4  11    0.13    0.07 
   3   4 -11    0.14    0.06 
   3   4 -11    0.20    0.08 
  -3   4  11    0.22    0.10 
   3   4 -11    0.08    0.07 
  -3   4  11    0.12    0.09 
  -2  -4  11    5.32    0.20 
  -2  -4  11    4.79    0.29 
   2  -4 -11    5.23    0.21 
  -2  -4  11    4.94    0.22 
  -2   4  11    5.63    0.25 
   2   4 -11    5.31    0.15 
  -2   4  11    5.50    0.19 
   2   4 -11    5.72    0.23 
  -2   4  11    5.14    0.25 
  -2   4  11    5.57    0.31 
  -2   4  11    5.56    0.20 
  -2   4  11    5.82    0.24 
   1  -4 -11    0.41    0.13 
  -1  -4  11    0.25    0.05 
   1  -4 -11    0.33    0.07 
  -1  -4  11    0.40    0.09 
  -1  -4  11    0.45    0.09 
   1  -4 -11    0.15    0.11 
  -1  -4  11    0.36    0.13 
  -1   4  11    0.14    0.10 
  -1   4  11    0.20    0.07 
   1   4 -11    0.09    0.08 
  -1   4  11    0.13    0.09 
  -1   4  11    0.13    0.05 
   1   4 -11    0.15    0.07 
  -1   4  11    0.02    0.07 
   1   4 -11    0.18    0.09 
   0  -4  11    2.59    0.22 
   0  -4  11    2.03    0.22 
   0  -4  11    2.53    0.15 
   0  -4  11    2.49    0.14 
   0  -4 -11    2.18    0.16 
   0   4 -11    1.74    0.12 
   0   4 -11    1.83    0.21 
   0   4 -11    1.92    0.15 
   0   4 -11    1.71    0.11 
   0   4  11    1.51    0.16 
  -1  -4 -11    6.57    0.26 
  -1  -4 -11    6.95    0.21 
   1  -4  11    6.77    0.23 
   1  -4  11    6.26    0.42 
  -1   4 -11    7.44    0.34 
  -1   4 -11    6.73    0.31 
   1   4  11    6.86    0.27 
  -1   4 -11    6.56    0.26 
   1   4  11    6.60    0.31 
   1   4  11    6.86    0.26 
  -1   4 -11    6.99    0.27 
   1   4  11    6.98    0.19 
  -1   4 -11    7.36    0.24 
  -1   4 -11    6.97    0.26 
  -2  -5  11    1.05    0.06 
   2  -5 -11    1.05    0.08 
  -2  -5  11    0.96    0.08 
  -2  -5  11    1.09    0.06 
   2  -5 -11    0.76    0.11 
   2   5 -11    1.32    0.10 
  -2   5  11    1.26    0.12 
  -2   5  11    1.28    0.15 
  -2   5  11    1.35    0.07 
   2   5 -11    1.50    0.10 
  -1  -5  11    6.46    0.22 
   1  -5 -11    6.46    0.23 
  -1   5  11    5.88    0.23 
  -1   5  11    5.56    0.20 
   1   5 -11    6.07    0.23 
   1   5 -11    5.54    0.18 
  -1   5  11    5.69    0.18 
   0  -5 -11    2.68    0.13 
   0  -5  11    2.79    0.09 
   0   5  11    3.04    0.12 
   5   0 -12    0.17    0.07 
  -5   0  12    0.09    0.07 
  -5   0  12    0.11    0.06 
  -5   0  12    0.15    0.06 
   4   0 -12   -0.06    0.09 
  -4   0  12   -0.05    0.12 
  -4   0  12    0.04    0.08 
  -4   0  12   -0.04    0.10 
  -4   0  12   -0.15    0.11 
  -4   0  12    0.02    0.08 
  -3   0  12    0.17    0.06 
  -3   0  12   -0.05    0.15 
  -3   0  12    0.10    0.07 
  -3   0  12    0.02    0.03 
  -3   0  12    0.09    0.09 
  -3   0  12   -0.11    0.13 
  -3   0  12    0.02    0.11 
   3   0 -12   -0.01    0.09 
   2   0 -12   17.54    0.54 
  -2   0  12   17.49    0.55 
  -2   0  12   17.52    0.71 
  -2   0  12   16.36    0.63 
   2   0 -12   17.30    0.57 
  -2   0  12   17.98    0.63 
  -2   0  12   17.21    0.61 
  -1   0  12    4.46    0.15 
  -1   0  12    4.60    0.24 
   1   0 -12    4.73    0.23 
   1   0 -12    4.58    0.17 
   1   0 -12    4.69    0.24 
  -1   0  12    4.75    0.22 
  -1   0  12    4.28    0.26 
   0   0 -12   19.43    0.84 
   0   0 -12   21.47    0.66 
   0   0  12   21.05    0.66 
   0   0 -12   21.06    0.65 
   0   0  12   20.36    1.14 
   0   0 -12   22.40    0.74 
   1   0  12    4.58    0.38 
  -1   0 -12    4.63    0.18 
  -1   0 -12    4.96    0.24 
  -1   0 -12    4.90    0.22 
  -1   0 -12    4.80    0.24 
  -1   0 -12    4.66    0.29 
   1   0  12    4.56    0.20 
   2   0  12    0.71    0.11 
  -2   0 -12    0.67    0.14 
  -2   0 -12    0.77    0.11 
  -2   0 -12    0.65    0.13 
  -2   0 -12    0.92    0.11 
  -2   0 -12    0.93    0.17 
   5  -1 -12    2.15    0.12 
  -5  -1  12    2.13    0.13 
  -5  -1  12    1.80    0.14 
   5   1 -12    2.55    0.13 
  -5   1  12    2.64    0.16 
  -5   1  12    2.67    0.14 
  -4  -1  12    1.62    0.07 
  -4  -1  12    2.34    0.20 
   4  -1 -12    1.79    0.15 
  -4  -1  12    1.68    0.21 
  -4  -1  12    1.62    0.16 
  -4  -1  12    1.79    0.14 
   4   1 -12    1.76    0.15 
  -4   1  12    1.99    0.20 
  -4   1  12    1.98    0.18 
  -4   1  12    1.81    0.16 
  -4   1  12    1.76    0.13 
  -4   1  12    1.98    0.21 
  -3  -1  12    2.34    0.09 
   3  -1 -12    2.16    0.18 
  -3  -1  12    2.54    0.13 
  -3  -1  12    2.06    0.22 
  -3  -1  12    1.75    0.25 
  -3  -1  12    2.23    0.13 
  -3  -1  12    2.67    0.23 
  -3  -1  12    2.46    0.18 
  -3   1  12    2.30    0.13 
  -3   1  12    2.01    0.24 
  -3   1  12    2.42    0.18 
  -3   1  12    2.38    0.21 
  -3   1  12    2.22    0.12 
  -3   1  12    2.20    0.24 
  -3   1  12    1.81    0.17 
   3   1 -12    2.13    0.17 
  -2  -1  12    3.89    0.29 
   2  -1 -12    3.69    0.20 
  -2  -1  12    3.74    0.25 
  -2  -1  12    3.58    0.20 
  -2  -1  12    3.91    0.22 
   2  -1 -12    3.67    0.22 
  -2   1  12    3.74    0.20 
  -2   1  12    3.85    0.18 
  -2   1  12    3.92    0.15 
   2   1 -12    3.63    0.22 
  -2   1  12    3.61    0.18 
  -2   1  12    3.67    0.24 
  -2   1  12    3.14    0.28 
  -2   1  12    3.56    0.22 
  -1  -1  12    8.73    0.40 
  -1  -1  12    8.75    0.32 
  -1  -1  12    8.26    0.35 
   1  -1 -12    8.20    0.25 
  -1  -1  12    8.61    0.36 
   1  -1 -12    8.41    0.36 
   1  -1 -12    8.35    0.33 
  -1  -1  12    8.44    0.24 
  -1   1  12    8.57    0.35 
   1   1 -12    8.79    0.24 
  -1   1  12    8.56    0.33 
  -1   1  12    8.64    0.23 
  -1   1  12    8.41    0.33 
  -1   1  12    8.24    0.36 
   1   1 -12    8.30    0.33 
   1   1 -12    8.42    0.34 
   0  -1 -12    0.73    0.20 
   0  -1  12    0.88    0.21 
   0  -1 -12    0.91    0.16 
   0  -1 -12    0.83    0.17 
   0  -1 -12    1.05    0.17 
   0  -1  12    0.61    0.16 
   0   1 -12    0.63    0.14 
   0   1 -12    0.73    0.15 
   0   1 -12    0.51    0.13 
   0   1  12    0.52    0.08 
   0   1  12    0.54    0.12 
   0   1 -12    0.34    0.08 
   0   1 -12    0.67    0.12 
  -1  -1 -12    3.25    0.18 
  -1  -1 -12    3.16    0.21 
  -1  -1 -12    2.94    0.19 
   1  -1  12    3.33    0.17 
  -1  -1 -12    3.27    0.14 
  -1  -1 -12    3.41    0.25 
  -1   1 -12    3.15    0.21 
   1   1  12    3.22    0.19 
  -1   1 -12    2.89    0.13 
   1   1  12    2.67    0.30 
  -1   1 -12    2.98    0.19 
   1   1  12    2.94    0.16 
  -1   1 -12    3.39    0.24 
  -1   1 -12    3.24    0.18 
  -2  -1 -12   -0.03    0.12 
  -2  -1 -12    0.08    0.08 
  -2  -1 -12    0.16    0.08 
  -2  -1 -12    0.08    0.08 
  -2  -1 -12    0.25    0.11 
   2  -1  12    0.13    0.07 
  -2   1 -12    0.12    0.10 
  -2   1 -12    0.28    0.10 
   2   1  12    0.19    0.07 
  -2   1 -12    0.11    0.12 
   2   1  12    0.19    0.14 
  -2   1 -12    0.11    0.07 
  -2   1 -12    0.13    0.07 
  -4  -2  12    0.92    0.11 
   4  -2 -12    1.14    0.13 
  -4  -2  12    1.12    0.16 
  -4   2  12    1.16    0.14 
  -4   2  12    0.93    0.17 
  -4   2  12    1.05    0.13 
  -4   2  12    1.04    0.14 
  -4   2  12    0.98    0.16 
   4   2 -12    0.87    0.12 
  -3  -2  12    0.32    0.14 
   3  -2 -12    0.55    0.10 
  -3  -2  12    0.53    0.05 
  -3  -2  12    0.56    0.14 
  -3  -2  12    0.61    0.17 
  -3  -2  12    0.43    0.11 
  -3  -2  12    0.30    0.11 
  -3  -2  12    0.57    0.10 
  -3   2  12    0.47    0.14 
   3   2 -12    0.34    0.10 
  -3   2  12    0.65    0.07 
  -3   2  12    0.31    0.12 
  -3   2  12    0.46    0.09 
  -3   2  12    0.72    0.15 
  -3   2  12    0.55    0.13 
  -3   2  12    0.43    0.13 
   3   2 -12    0.54    0.12 
   2  -2 -12    5.75    0.26 
  -2  -2  12    5.70    0.23 
  -2  -2  12    5.74    0.27 
   2  -2 -12    5.42    0.23 
  -2  -2  12    5.86    0.26 
  -2  -2  12    5.64    0.33 
  -2   2  12    6.39    0.27 
  -2   2  12    6.25    0.26 
   2   2 -12    6.33    0.19 
   2   2 -12    5.10    0.29 
   2   2 -12    6.15    0.27 
  -2   2  12    6.32    0.19 
  -2   2  12    6.14    0.22 
  -2   2  12    6.73    0.24 
  -1  -2  12    2.03    0.24 
  -1  -2  12    1.87    0.10 
  -1  -2  12    1.93    0.19 
  -1  -2  12    1.90    0.16 
   1  -2 -12    2.01    0.11 
  -1  -2  12    1.91    0.13 
   1  -2 -12    2.09    0.15 
   1  -2 -12    1.81    0.18 
  -1   2  12    1.85    0.17 
   1   2 -12    1.85    0.17 
   1   2 -12    1.75    0.18 
  -1   2  12    1.84    0.16 
   0  -2 -12    4.24    0.22 
   0  -2 -12    3.93    0.20 
   0  -2 -12    3.67    0.20 
   0  -2 -12    4.35    0.23 
   0  -2  12    3.72    0.30 
   0  -2  12    3.93    0.19 
   0  -2  12    3.21    0.25 
   0  -2  12    3.60    0.20 
   0   2  12    4.55    0.15 
   0   2  12    4.49    0.22 
   0   2 -12    4.72    0.19 
   0   2 -12    4.48    0.22 
   0   2 -12    4.65    0.19 
   0   2 -12    4.90    0.24 
   1  -2  12    2.54    0.26 
   1  -2  12    2.56    0.15 
  -1  -2 -12    2.49    0.13 
  -1  -2 -12    2.85    0.20 
  -1  -2 -12    2.54    0.17 
  -1  -2 -12    2.46    0.22 
  -1  -2 -12    2.66    0.17 
  -1   2 -12    3.33    0.17 
   1   2  12    2.79    0.18 
   1   2  12    3.59    0.26 
  -1   2 -12    3.27    0.19 
  -1   2 -12    2.99    0.11 
  -1   2 -12    3.38    0.20 
  -1   2 -12    3.26    0.18 
  -1   2 -12    3.15    0.23 
  -2  -2 -12    1.65    0.15 
  -2  -2 -12    1.67    0.11 
  -2  -2 -12    1.85    0.16 
  -2  -2 -12    1.86    0.14 
   2  -2  12    1.87    0.11 
  -2   2 -12    2.25    0.14 
   2   2  12    2.32    0.20 
  -2   2 -12    1.69    0.15 
  -2   2 -12    2.46    0.14 
   2   2  12    1.98    0.12 
  -4  -3  12    0.52    0.09 
  -4  -3  12    0.47    0.12 
   4  -3 -12    0.40    0.09 
  -4   3  12    0.38    0.11 
   4   3 -12    0.37    0.08 
  -4   3  12    0.25    0.08 
  -4   3  12    0.45    0.10 
  -3  -3  12    1.48    0.17 
  -3  -3  12    1.91    0.13 
   3  -3 -12    1.46    0.13 
  -3  -3  12    1.74    0.10 
  -3  -3  12    1.41    0.20 
  -3  -3  12    1.75    0.09 
  -3   3  12    2.03    0.13 
  -3   3  12    2.01    0.20 
   3   3 -12    1.80    0.15 
  -3   3  12    2.09    0.14 
   3   3 -12    2.18    0.10 
  -3   3  12    2.03    0.08 
   3   3 -12    2.08    0.14 
  -2  -3  12    4.81    0.27 
   2  -3 -12    4.71    0.20 
  -2  -3  12    5.12    0.20 
  -2  -3  12    4.70    0.20 
  -2  -3  12    5.15    0.22 
   2  -3 -12    5.09    0.23 
  -2   3  12    5.48    0.23 
  -2   3  12    5.73    0.25 
   2   3 -12    5.48    0.22 
  -2   3  12    5.21    0.25 
  -2   3  12    5.64    0.20 
  -2   3  12    5.51    0.31 
  -2   3  12    5.71    0.19 
   2   3 -12    5.45    0.16 
   2   3 -12    5.67    0.23 
  -1  -3  12    6.01    0.24 
  -1  -3  12    6.36    0.25 
  -1  -3  12    5.81    0.31 
  -1  -3  12    6.12    0.17 
   1  -3 -12    6.42    0.26 
   1  -3 -12    6.03    0.26 
   1  -3 -12    6.15    0.18 
  -1   3  12    4.74    0.16 
   1   3 -12    5.09    0.23 
  -1   3  12    4.88    0.23 
   1   3 -12    4.77    0.22 
   1   3 -12    4.79    0.21 
   1   3 -12    4.61    0.21 
  -1   3  12    4.78    0.21 
  -1   3  12    4.82    0.21 
  -1   3  12    5.09    0.19 
   0  -3 -12    2.90    0.18 
   0  -3 -12    2.84    0.18 
   0  -3  12    2.77    0.16 
   0  -3  12    2.69    0.11 
   0  -3 -12    2.87    0.16 
   0  -3  12    2.82    0.21 
   0  -3 -12    2.73    0.17 
   0   3 -12    2.54    0.16 
   0   3 -12    2.77    0.25 
   0   3  12    2.42    0.17 
   0   3 -12    2.19    0.23 
   0   3 -12    2.46    0.13 
   0   3 -12    2.40    0.12 
   0   3 -12    2.52    0.16 
   1  -3  12    4.64    0.18 
   1  -3  12    4.88    0.32 
  -1  -3 -12    4.94    0.21 
  -1  -3 -12    4.81    0.16 
  -1  -3 -12    4.98    0.21 
  -1  -3 -12    5.05    0.19 
  -1   3 -12    6.26    0.28 
   1   3  12    6.23    0.17 
  -1   3 -12    6.19    0.25 
  -1   3 -12    5.37    0.23 
  -1   3 -12    6.22    0.24 
  -1   3 -12    5.98    0.29 
   1   3  12    6.24    0.24 
  -1   3 -12    6.12    0.21 
   1   3  12    6.00    0.23 
  -2  -4  12    0.40    0.05 
  -2  -4  12    0.45    0.09 
   2  -4 -12    0.35    0.09 
  -2  -4  12    0.40    0.07 
   2  -4 -12    0.46    0.09 
  -2  -4  12    0.40    0.08 
  -2  -4  12    0.41    0.05 
   2  -4 -12    0.59    0.07 
  -2   4  12    0.32    0.10 
   2   4 -12    0.15    0.07 
  -2   4  12    0.22    0.05 
  -2   4  12    0.17    0.05 
  -2   4  12    0.21    0.08 
   2   4 -12    0.09    0.06 
  -1  -4  12    1.64    0.11 
   1  -4 -12    1.46    0.13 
  -1   4  12    1.51    0.09 
   1   4 -12    1.75    0.12 
   1   4 -12    1.54    0.10 
  -1   4  12    1.41    0.06 
   1   4 -12    1.28    0.12 
  -1   4  12    1.51    0.12 
   0  -4  12    1.14    0.06 
   0  -4  12    1.13    0.08 
   0  -4 -12    1.14    0.07 
   0   4 -12    1.18    0.08 
   0   4 -12    1.08    0.11 
   0   4  12    1.01    0.08 
   0   4 -12    1.17    0.17 
   0   4  12    0.91    0.10 
   0   4 -12    1.30    0.10 
  -4   0  13    1.08    0.10 
   4   0 -13    0.92    0.10 
  -4   0  13    0.96    0.14 
  -4   0  13    0.98    0.14 
  -3   0  13   10.66    0.40 
   3   0 -13   10.33    0.34 
  -3   0  13   11.45    0.33 
  -3   0  13   10.70    0.39 
  -3   0  13   10.81    0.30 
  -3   0  13   10.38    0.44 
  -3   0  13   10.65    0.45 
  -3   0  13   11.15    0.38 
   3   0 -13    9.63    0.36 
  -2   0  13    5.39    0.29 
  -2   0  13    5.08    0.26 
  -2   0  13    5.34    0.21 
   2   0 -13    5.52    0.23 
   2   0 -13    5.33    0.17 
  -2   0  13    5.52    0.21 
  -2   0  13    5.28    0.17 
  -2   0  13    5.82    0.20 
  -2   0  13    5.48    0.24 
   2   0 -13    5.49    0.25 
  -1   0  13   14.03    0.46 
   1   0 -13   14.28    0.46 
  -1   0  13   14.91    0.52 
   0   0  13    3.10    0.19 
   0   0  13    3.19    0.17 
   0   0 -13    3.37    0.14 
   0   0 -13    3.55    0.19 
   0   0 -13    3.46    0.17 
   0   0 -13    3.19    0.13 
   0   0  13    3.40    0.18 
   0   0  13    3.16    0.11 
   1   0  13    9.62    0.35 
  -1   0 -13    9.59    0.41 
  -1   0 -13   10.08    0.32 
   1   0  13    9.99    0.33 
   1   0  13    9.59    0.27 
  -1   0 -13   10.13    0.34 
  -1   0 -13   10.37    0.36 
  -1   0 -13    9.82    0.38 
  -4  -1  13    1.38    0.12 
   4  -1 -13    1.56    0.10 
  -4  -1  13    1.58    0.15 
  -4   1  13    2.01    0.15 
   4   1 -13    1.79    0.11 
  -4   1  13    1.97    0.14 
  -4   1  13    1.90    0.12 
  -3  -1  13    3.39    0.14 
  -3  -1  13    3.54    0.17 
   3  -1 -13    3.61    0.16 
  -3  -1  13    3.51    0.24 
  -3  -1  13    3.49    0.20 
  -3  -1  13    3.38    0.23 
  -3  -1  13    3.40    0.12 
  -3   1  13    3.28    0.17 
  -3   1  13    3.20    0.24 
   3   1 -13    3.26    0.18 
  -3   1  13    3.13    0.22 
  -3   1  13    3.18    0.18 
  -3   1  13    3.40    0.13 
  -3   1  13    2.89    0.10 
  -3   1  13    3.11    0.16 
  -3   1  13    3.53    0.17 
   3   1 -13    2.83    0.15 
  -2  -1  13   15.45    0.41 
  -2  -1  13   15.23    0.48 
  -2  -1  13   15.96    0.53 
   2  -1 -13   15.49    0.49 
  -2  -1  13   15.43    0.53 
   2  -1 -13   15.59    0.41 
   2  -1 -13   15.13    0.59 
  -2  -1  13   14.91    0.61 
  -2  -1  13   15.50    0.45 
  -2  -1  13   15.49    0.54 
  -2   1  13   15.21    0.39 
  -2   1  13   15.06    0.52 
  -2   1  13   15.11    0.52 
   2   1 -13   15.22    0.47 
  -2   1  13   12.81    0.50 
   2   1 -13   15.36    0.56 
  -2   1  13   15.00    0.43 
   2   1 -13   14.84    0.38 
   1  -1 -13    5.00    0.22 
  -1  -1  13    5.04    0.27 
  -1  -1  13    4.94    0.20 
  -1  -1  13    4.97    0.24 
  -1   1  13    5.16    0.24 
  -1   1  13    5.01    0.22 
   1   1 -13    5.44    0.25 
   1   1 -13    5.39    0.22 
  -1   1  13    5.25    0.23 
   0  -1 -13    6.24    0.23 
   0  -1 -13    6.61    0.25 
   0  -1 -13    6.70    0.24 
   0  -1 -13    6.76    0.22 
   0  -1 -13    6.94    0.27 
   0  -1  13    6.62    0.19 
   0  -1  13    6.63    0.27 
   0  -1  13    6.69    0.27 
   0  -1  13    6.70    0.25 
   0   1 -13    6.55    0.24 
   0   1 -13    6.38    0.21 
   0   1  13    6.27    0.17 
   0   1 -13    6.60    0.27 
   0   1  13    6.39    0.25 
  -1  -1 -13    0.23    0.08 
  -1  -1 -13    0.21    0.10 
   1  -1  13    0.18    0.05 
  -1  -1 -13    0.41    0.11 
  -1  -1 -13    0.26    0.07 
  -1   1 -13    0.23    0.07 
   1   1  13    0.18    0.08 
  -1   1 -13    0.12    0.09 
  -1   1 -13    0.24    0.08 
   1   1  13    0.15    0.05 
   1   1  13    0.16    0.06 
   3  -2 -13    3.49    0.15 
  -3  -2  13    3.59    0.12 
  -3  -2  13    3.66    0.13 
  -3  -2  13    3.60    0.22 
  -3  -2  13    3.88    0.17 
  -3  -2  13    3.25    0.17 
  -3   2  13    3.83    0.17 
   3   2 -13    3.69    0.17 
  -3   2  13    4.01    0.17 
   3   2 -13    3.85    0.12 
   3   2 -13    3.92    0.17 
  -3   2  13    3.62    0.22 
   2  -2 -13    6.95    0.28 
  -2  -2  13    6.90    0.25 
  -2  -2  13    6.77    0.22 
  -2  -2  13    6.79    0.28 
   2  -2 -13    6.88    0.26 
  -2  -2  13    6.83    0.26 
  -2  -2  13    6.94    0.19 
  -2  -2  13    6.80    0.23 
   2  -2 -13    6.88    0.19 
  -2  -2  13    5.94    0.32 
   2   2 -13    7.13    0.26 
  -2   2  13    7.03    0.27 
  -2   2  13    7.13    0.22 
  -2   2  13    6.71    0.23 
  -1  -2  13    7.52    0.29 
  -1  -2  13    7.63    0.26 
   1  -2 -13    7.44    0.27 
  -1  -2  13    7.03    0.34 
  -1   2  13    7.67    0.28 
  -1   2  13    7.19    0.25 
  -1   2  13    7.67    0.26 
  -1   2  13    7.63    0.22 
   1   2 -13    7.78    0.30 
   1   2 -13    7.75    0.28 
   1   2 -13    8.05    0.25 
   1   2 -13    7.46    0.26 
  -1   2  13    7.42    0.30 
   0  -2  13    1.98    0.14 
   0  -2  13    1.88    0.13 
   0  -2  13    1.93    0.07 
   0  -2 -13    2.03    0.13 
   0  -2  13    1.67    0.10 
   0  -2 -13    2.11    0.11 
   0  -2 -13    1.64    0.12 
   0  -2 -13    1.49    0.07 
   0  -2 -13    2.06    0.15 
   0   2 -13    2.38    0.15 
   0   2 -13    2.24    0.13 
   0   2  13    2.26    0.14 
   0   2 -13    2.27    0.10 
  -2  -3  13    7.00    0.18 
   2  -3 -13    6.64    0.18 
  -2   3  13    7.76    0.23 
  -2   3  13    7.36    0.27 
   2   3 -13    7.02    0.25 
   1  -3 -13    4.37    0.17 
  -1  -3  13    4.23    0.16 
   1   3 -13    4.44    0.15 
  -1   3  13    4.52    0.15 
  -1   3  13    4.55    0.12 
  -2   0  14    5.40    0.17 
   0   0   0    0.00    0.00 
;
_shelx_hkl_checksum              25170
#END Tags that were not found in dictionaries
loop_
_space_group_symop_operation_xyz
'x, y, z'
'-x, y+1/2, -z'
loop_
_atom_site_label
_atom_site_type_symbol
_atom_site_fract_x
_atom_site_fract_y
_atom_site_fract_z
_atom_site_U_iso_or_equiv
_atom_site_adp_type
_atom_site_occupancy
_atom_site_site_symmetry_order
_atom_site_calc_flag
_atom_site_refinement_flags_posn
_atom_site_refinement_flags_adp
C1 C 0.5402(4) 0.2460(4) 0.6944(2) 0.0210(5) Uani 1 1 d . .
H1 H 0.6289 0.2756 0.6356 0.025 Uiso 1 1 calc R U
C2 C 0.3424(5) 0.1362(4) 0.6341(3) 0.0273(6) Uani 1 1 d . .
H2A H 0.3807 0.0278 0.5873 0.033 Uiso 1 1 calc R U
H2B H 0.2664 0.0843 0.6931 0.033 Uiso 1 1 calc R U
C3 C 0.2058(5) 0.2817(5) 0.5551(3) 0.0352(7) Uani 1 1 d . .
H3A H 0.0545 0.2473 0.5439 0.042 Uiso 1 1 calc R U
H3B H 0.2453 0.2882 0.4774 0.042 Uiso 1 1 calc R U
C4 C 0.6138(4) 0.5764(4) 0.7796(3) 0.0274(6) Uani 1 1 d . .
H4A H 0.7005 0.5328 0.8541 0.041 Uiso 1 1 calc R U
H4B H 0.5409 0.6958 0.7924 0.041 Uiso 1 1 calc R U
H4C H 0.7042 0.6000 0.7230 0.041 Uiso 1 1 calc R U
C5 C 0.6703(4) 0.1357(4) 0.7955(2) 0.0199(5) Uani 1 1 d . .
C6 C 0.8520(4) 0.0412(4) 0.7800(2) 0.0240(6) Uani 1 1 d . .
H6 H 0.8968 0.0527 0.7075 0.029 Uiso 1 1 calc R U
C7 C 0.9684(4) -0.0695(4) 0.8692(3) 0.0268(6) Uani 1 1 d . .
H7 H 1.0908 -0.1354 0.8571 0.032 Uiso 1 1 calc R U
C8 C 0.9068(4) -0.0842(4) 0.9759(3) 0.0261(6) Uani 1 1 d . .
H8 H 0.9874 -0.1593 1.0373 0.031 Uiso 1 1 calc R U
C9 C 0.7270(4) 0.0111(5) 0.9932(2) 0.0251(5) Uani 1 1 d . .
H9 H 0.6854 0.0025 1.0667 0.030 Uiso 1 1 calc R U
C10 C 0.6075(4) 0.1195(4) 0.9027(2) 0.0224(6) Uani 1 1 d . .
H10 H 0.4829 0.1825 0.9141 0.027 Uiso 1 1 calc R U
N1 N 0.4574(3) 0.4276(3) 0.73352(19) 0.0206(5) Uani 1 1 d . .
O1 O 0.3262(4) 0.6466(3) 0.55624(18) 0.0364(5) Uani 1 1 d . .
O2 O 0.0889(4) 0.5641(4) 0.6856(2) 0.0510(8) Uani 1 1 d . .
S1 S 0.25792(9) 0.50601(9) 0.63137(5) 0.0236(2) Uani 1 1 d . .
loop_
_atom_site_aniso_label
_atom_site_aniso_U_11
_atom_site_aniso_U_22
_atom_site_aniso_U_33
_atom_site_aniso_U_23
_atom_site_aniso_U_13
_atom_site_aniso_U_12
C1 0.0199(13) 0.0219(13) 0.0211(12) -0.0017(10) 0.0043(10) -0.0014(10)
C2 0.0259(15) 0.0224(13) 0.0305(14) -0.0019(11) -0.0014(11) -0.0032(11)
C3 0.0335(18) 0.0316(16) 0.0333(16) -0.0023(12) -0.0102(13) -0.0053(14)
C4 0.0246(15) 0.0203(12) 0.0348(15) -0.0021(11) 0.0001(11) -0.0019(10)
C5 0.0195(14) 0.0141(11) 0.0253(13) -0.0018(9) 0.0024(10) -0.0023(10)
C6 0.0196(12) 0.0254(16) 0.0277(12) -0.0038(11) 0.0069(9) -0.0019(11)
C7 0.0196(14) 0.0204(12) 0.0393(15) -0.0035(12) 0.0033(11) 0.0028(11)
C8 0.0252(14) 0.0177(12) 0.0319(14) 0.0019(11) -0.0029(11) -0.0010(12)
C9 0.0303(13) 0.0207(11) 0.0238(11) 0.0015(13) 0.0046(9) -0.0049(14)
C10 0.0204(14) 0.0198(13) 0.0278(13) -0.0013(10) 0.0068(11) 0.0001(11)
N1 0.0175(11) 0.0194(10) 0.0229(11) 0.0023(9) -0.0004(9) 0.0012(9)
O1 0.0474(14) 0.0316(11) 0.0269(11) 0.0062(9) 0.0000(9) -0.0017(10)
O2 0.0283(12) 0.091(2) 0.0342(11) 0.0025(12) 0.0067(9) 0.0250(12)
S1 0.0207(3) 0.0276(3) 0.0217(3) 0.0021(3) 0.0025(2) 0.0048(3)
loop_
_atom_type_symbol
_atom_type_description
_atom_type_scat_dispersion_real
_atom_type_scat_dispersion_imag
_atom_type_scat_source
C C 0.0181 0.0091 'International Tables Vol C Tables 4.2.6.8 and 6.1.1.4'
H H 0.0000 0.0000 'International Tables Vol C Tables 4.2.6.8 and 6.1.1.4'
N N 0.0311 0.0180 'International Tables Vol C Tables 4.2.6.8 and 6.1.1.4'
O O 0.0492 0.0322 'International Tables Vol C Tables 4.2.6.8 and 6.1.1.4'
S S 0.3331 0.5567 'International Tables Vol C Tables 4.2.6.8 and 6.1.1.4'
loop_
_geom_angle_atom_site_label_1
_geom_angle_atom_site_label_2
_geom_angle_atom_site_label_3
_geom_angle
N1 C1 C5 111.9(2)
N1 C1 C2 104.1(2)
C5 C1 C2 112.7(2)
N1 C1 H1 109.3
C5 C1 H1 109.3
C2 C1 H1 109.3
C3 C2 C1 105.9(2)
C3 C2 H2A 110.5
C1 C2 H2A 110.5
C3 C2 H2B 110.5
C1 C2 H2B 110.5
H2A C2 H2B 108.7
C2 C3 S1 104.46(19)
C2 C3 H3A 110.9
S1 C3 H3A 110.9
C2 C3 H3B 110.9
S1 C3 H3B 110.9
H3A C3 H3B 108.9
N1 C4 H4A 109.5
N1 C4 H4B 109.5
H4A C4 H4B 109.5
N1 C4 H4C 109.5
H4A C4 H4C 109.5
H4B C4 H4C 109.5
C6 C5 C10 119.2(2)
C6 C5 C1 119.4(2)
C10 C5 C1 121.4(2)
C7 C6 C5 120.7(2)
C7 C6 H6 119.7
C5 C6 H6 119.7
C6 C7 C8 120.1(3)
C6 C7 H7 119.9
C8 C7 H7 119.9
C7 C8 C9 119.9(3)
C7 C8 H8 120.1
C9 C8 H8 120.1
C8 C9 C10 120.0(2)
C8 C9 H9 120.0
C10 C9 H9 120.0
C5 C10 C9 120.1(2)
C5 C10 H10 119.9
C9 C10 H10 119.9
C4 N1 C1 116.5(2)
C4 N1 S1 114.10(18)
C1 N1 S1 109.72(16)
O2 S1 O1 115.80(16)
O2 S1 N1 109.26(12)
O1 S1 N1 111.58(13)
O2 S1 C3 112.41(17)
O1 S1 C3 109.79(15)
N1 S1 C3 96.35(13)
loop_
_geom_bond_atom_site_label_1
_geom_bond_atom_site_label_2
_geom_bond_distance
C1 N1 1.477(3)
C1 C5 1.509(3)
C1 C2 1.532(4)
C1 H1 1.0000
C2 C3 1.522(4)
C2 H2A 0.9900
C2 H2B 0.9900
C3 S1 1.790(3)
C3 H3A 0.9900
C3 H3B 0.9900
C4 N1 1.469(3)
C4 H4A 0.9800
C4 H4B 0.9800
C4 H4C 0.9800
C5 C6 1.390(4)
C5 C10 1.393(4)
C6 C7 1.384(4)
C6 H6 0.9500
C7 C8 1.384(4)
C7 H7 0.9500
C8 C9 1.388(4)
C8 H8 0.9500
C9 C10 1.394(4)
C9 H9 0.9500
C10 H10 0.9500
N1 S1 1.658(2)
O1 S1 1.439(2)
O2 S1 1.428(2)
