#------------------------------------------------------------------------------
#$Date: 2016-03-21 05:27:59 +0200 (Mon, 21 Mar 2016) $
#$Revision: 178479 $
#$URL: svn://www.crystallography.net/cod/cif/4/03/00/4030058.cif $
#------------------------------------------------------------------------------
#
# This file is available in the Crystallography Open Database (COD),
# http://www.crystallography.net/
#
# All data on this site have been placed in the public domain by the
# contributors.
#
data_4030058
loop_
_publ_author_name
'Li, Dan'
'Rao, Weidong'
'Tay, Guan Liang'
'Ayers, Benjamin James'
'Chan, Philip Wai Hong'
_publ_section_title
;
 Gold-catalyzed cycloisomerization of 1,6-diyne esters to
 1H-cyclopenta[b]naphthalenes, cis-cyclopenten-2-yl \d-diketones, and
 bicyclo[3.2.0]hepta-1,5-dienes.
;
_journal_issue                   23
_journal_name_full               'The Journal of organic chemistry'
_journal_page_first              11301
_journal_page_last               11315
_journal_paper_doi               10.1021/jo5020195
_journal_volume                  79
_journal_year                    2014
_chemical_formula_sum            'C23 H16 S'
_chemical_formula_weight         324.42
_space_group_crystal_system      triclinic
_space_group_IT_number           2
_space_group_name_Hall           '-P 1'
_space_group_name_H-M_alt        'P -1'
_symmetry_space_group_name_Hall  '-P 1'
_symmetry_space_group_name_H-M   'P -1'
_atom_sites_solution_hydrogens   geom
_cell_angle_alpha                73.841(3)
_cell_angle_beta                 65.703(3)
_cell_angle_gamma                68.117(3)
_cell_formula_units_Z            2
_cell_length_a                   9.3084(4)
_cell_length_b                   9.4005(4)
_cell_length_c                   10.9628(5)
_cell_measurement_reflns_used    5077
_cell_measurement_temperature    183.(2)
_cell_measurement_theta_max      30.3003
_cell_measurement_theta_min      2.5125
_cell_volume                     802.42(7)
_computing_cell_refinement       'SAINT V8.34A (Bruker AXS Inc., 2013)'
_computing_data_collection       'APEX2 (Bruker AXS Inc., 2013)'
_computing_data_reduction        'SAINT V8.34A (Bruker AXS Inc., 2013)'
_computing_molecular_graphics    'XP (Bruker AXS Inc., 2013)'
_computing_publication_material  'APEX2 (Bruker AXS Inc., 2013)'
_computing_structure_refinement  'SHELXL-2013 (Sheldrick, 2013)'
_diffrn_ambient_temperature      183.(2)
_diffrn_detector_area_resol_mean 8.3333
_diffrn_measured_fraction_theta_full 0.998
_diffrn_measured_fraction_theta_max 0.998
_diffrn_measurement_device_type  'CCD area detector'
_diffrn_measurement_method       'phi and omega scans'
_diffrn_radiation_monochromator  graphite
_diffrn_radiation_type           MoK\a
_diffrn_radiation_wavelength     0.71073
_diffrn_reflns_av_R_equivalents  0.0626
_diffrn_reflns_av_unetI/netI     0.0476
_diffrn_reflns_limit_h_max       13
_diffrn_reflns_limit_h_min       -13
_diffrn_reflns_limit_k_max       13
_diffrn_reflns_limit_k_min       -13
_diffrn_reflns_limit_l_max       15
_diffrn_reflns_limit_l_min       -15
_diffrn_reflns_number            27032
_diffrn_reflns_theta_full        31.11
_diffrn_reflns_theta_max         31.11
_diffrn_reflns_theta_min         2.51
_diffrn_source                   'fine-focus sealed tube'
_exptl_absorpt_coefficient_mu    0.201
_exptl_absorpt_correction_T_max  0.96
_exptl_absorpt_correction_T_min  0.75
_exptl_absorpt_correction_type   multi-scan
_exptl_absorpt_process_details   'SADABS V2012/1 (Bruker AXS Inc.)'
_exptl_crystal_colour            colourless
_exptl_crystal_density_diffrn    1.343
_exptl_crystal_density_method    'not measured'
_exptl_crystal_description       block
_exptl_crystal_F_000             340
_exptl_crystal_size_max          0.400
_exptl_crystal_size_mid          0.340
_exptl_crystal_size_min          0.220
_refine_diff_density_max         0.389
_refine_diff_density_min         -0.255
_refine_ls_extinction_method     none
_refine_ls_goodness_of_fit_ref   1.037
_refine_ls_hydrogen_treatment    constr
_refine_ls_matrix_type           full
_refine_ls_number_parameters     236
_refine_ls_number_reflns         5164
_refine_ls_number_restraints     60
_refine_ls_restrained_S_all      1.047
_refine_ls_R_factor_all          0.0745
_refine_ls_R_factor_gt           0.0509
_refine_ls_shift/su_max          0.002
_refine_ls_shift/su_mean         0.000
_refine_ls_structure_factor_coef Fsqd
_refine_ls_weighting_details
'w=1/[\s^2^(Fo^2^)+(0.0542P)^2^+0.4058P] where P=(Fo^2^+2Fc^2^)/3'
_refine_ls_weighting_scheme      calc
_refine_ls_wR_factor_gt          0.1247
_refine_ls_wR_factor_ref         0.1396
_reflns_number_gt                3823
_reflns_number_total             5164
_reflns_threshold_expression     'I > 2\s(I)'
_cod_data_source_file            jo5020195_si_007.cif
_cod_data_source_block           I
_cod_depositor_comments
'Adding full bibliography for 4030057--4030064.cif.'
_cod_database_code               4030058
#BEGIN Tags that were not found in dictionaries:
_shelx_res_file
;
TITL chan272 in P-1
CELL 0.71073   9.30840   9.40050  10.96280  73.8412  65.7030  68.1169
ZERR    2.00   0.00040   0.00040   0.00050   0.0027   0.0028   0.0026
LATT 1
SFAC C  H  S
UNIT 46  32  2
omit 0 0 1
L.S. 4
ACTA
BOND
FMAP 2
PLAN 5
SIZE 0.22 0.34 0.40
SIMU 0.005 S1 > C1A
ISOR 0.005 S1 > C1A
TEMP -90
WGHT    0.054200    0.405800
FVAR       0.26451   0.57604
PART 1  21.00
S1    3    0.748471    0.664386    0.173489    21.00000    0.02752    0.04296 =
         0.02039   -0.01146   -0.00694   -0.00288
C1    1    0.822318    0.809238    0.173965    21.00000    0.02876    0.03677 =
         0.01543   -0.00480   -0.00707   -0.01441
AFIX  43
H1    2    0.890305    0.864724    0.101837    21.00000   -1.20000
PART 2  -21.00
AFIX   0
S1A   3    0.812143    0.800900    0.182131   -21.00000    0.03115    0.05011 =
         0.03864    0.00550   -0.00591   -0.01226
C1A   1    0.726665    0.654477    0.202980   -21.00000    0.03463    0.04065 =
         0.03201   -0.00724   -0.00921   -0.00749
AFIX  43
H1A   2    0.738324    0.603371    0.134420   -21.00000   -1.20000
PART 0
AFIX   0
C2    1    0.739289    0.821208    0.336355    11.00000    0.02567    0.02823 =
         0.02085   -0.00027   -0.00520   -0.01219
AFIX  43
H2    2    0.755949    0.890917    0.373984    11.00000   -1.20000
AFIX   0
C3    1    0.642172    0.722289    0.416352    11.00000    0.01458    0.01913 =
         0.01681   -0.00335   -0.00407   -0.00303
C4    1    0.638669    0.628596    0.339881    11.00000    0.02161    0.02404 =
         0.02293   -0.00890   -0.00721   -0.00265
AFIX  43
H4    2    0.581071    0.552940    0.376904    11.00000   -1.20000
AFIX   0
C5    1    0.550300    0.719963    0.564172    11.00000    0.01718    0.01464 =
         0.01558   -0.00314   -0.00363   -0.00514
C6    1    0.640116    0.669587    0.656470    11.00000    0.01852    0.01571 =
         0.01636   -0.00367   -0.00448   -0.00525
C7    1    0.815055    0.622613    0.611255    11.00000    0.01864    0.02193 =
         0.01880   -0.00494   -0.00418   -0.00538
AFIX  43
H7    2    0.875769    0.625355    0.517042    11.00000   -1.20000
AFIX   0
C8    1    0.898347    0.573347    0.700631    11.00000    0.01998    0.02581 =
         0.02488   -0.00500   -0.00779   -0.00580
AFIX  43
H8    2    1.015530    0.541757    0.667844    11.00000   -1.20000
AFIX   0
C9    1    0.811105    0.569290    0.840923    11.00000    0.02709    0.02686 =
         0.02340   -0.00415   -0.01261   -0.00642
AFIX  43
H9    2    0.869442    0.535428    0.902353    11.00000   -1.20000
AFIX   0
C10   1    0.642306    0.614197    0.888450    11.00000    0.02725    0.02425 =
         0.01716   -0.00370   -0.00708   -0.00703
AFIX  43
H10   2    0.584330    0.611807    0.983035    11.00000   -1.20000
AFIX   0
C11   1    0.552599    0.664200    0.798879    11.00000    0.02153    0.01780 =
         0.01729   -0.00333   -0.00477   -0.00603
C12   1    0.377889    0.708169    0.848462    11.00000    0.02176    0.02253 =
         0.01546   -0.00406   -0.00079   -0.00704
AFIX  43
H12   2    0.318988    0.704425    0.943003    11.00000   -1.20000
AFIX   0
C13   1    0.294929    0.755660    0.760464    11.00000    0.01834    0.02042 =
         0.01902   -0.00457   -0.00203   -0.00485
C14   1    0.111650    0.805090    0.790014    11.00000    0.01864    0.03318 =
         0.02210   -0.00550   -0.00113   -0.00569
AFIX  23
H14A  2    0.063375    0.720278    0.845574    11.00000   -1.20000
H14B  2    0.054795    0.897285    0.837112    11.00000   -1.20000
AFIX   0
C15   1    0.101693    0.842125    0.651233    11.00000    0.01732    0.03001 =
         0.02601   -0.00522   -0.00588   -0.00480
AFIX  43
H15   2    0.001052    0.877725    0.633958    11.00000   -1.20000
AFIX   0
C16   1    0.251743    0.819217    0.553593    11.00000    0.01899    0.01725 =
         0.02268   -0.00343   -0.00644   -0.00456
C17   1    0.379560    0.763495    0.617130    11.00000    0.01687    0.01617 =
         0.01809   -0.00441   -0.00378   -0.00471
C18   1    0.273836    0.847466    0.407910    11.00000    0.01644    0.01774 =
         0.02231   -0.00423   -0.00601   -0.00283
C19   1    0.347298    0.958772    0.316346    11.00000    0.02091    0.01857 =
         0.02579   -0.00334   -0.00714   -0.00628
AFIX  43
H19   2    0.390064    1.014825    0.346178    11.00000   -1.20000
AFIX   0
C20   1    0.358095    0.987842    0.182021    11.00000    0.02528    0.02190 =
         0.02442   -0.00041   -0.00492   -0.00611
AFIX  43
H20   2    0.406955    1.064585    0.120661    11.00000   -1.20000
AFIX   0
C21   1    0.298003    0.905530    0.137128    11.00000    0.02774    0.03355 =
         0.02159   -0.00574   -0.00767   -0.00562
AFIX  43
H21   2    0.306597    0.925139    0.044942    11.00000   -1.20000
AFIX   0
C22   1    0.225357    0.794604    0.226554    11.00000    0.03182    0.03673 =
         0.02813   -0.00889   -0.00991   -0.01397
AFIX  43
H22   2    0.183766    0.738276    0.195873    11.00000   -1.20000
AFIX   0
C23   1    0.213362    0.765755    0.361427    11.00000    0.02501    0.02652 =
         0.02663   -0.00432   -0.00596   -0.01218
AFIX  43
H23   2    0.163425    0.689557    0.422486    11.00000   -1.20000
AFIX   0
HKLF 4

REM  chan272 in P-1
REM R1 =  0.0509 for    3823 Fo > 4sig(Fo)  and  0.0745 for all    5164 data
REM    236 parameters refined using     60 restraints

END

WGHT      0.0547      0.3865

REM Highest difference peak  0.389,  deepest hole -0.255,  1-sigma level  0.058
Q1    1   0.5917  0.6172  0.8468  11.00000  0.05    0.39
Q2    1   0.3195  0.9981  0.2544  11.00000  0.05    0.33
Q3    1   0.8433  0.6338  0.6605  11.00000  0.05    0.33
Q4    1   0.3244  0.7885  0.5805  11.00000  0.05    0.33
Q5    1   0.5963  0.6987  0.6062  11.00000  0.05    0.32
;
_shelx_res_checksum              70177
_shelx_hkl_file
;
   1   0   0   58.36    3.53
  -2   0   0  547.69   30.45
  -2   0   0  563.05   30.45
  -2   0   0  608.89   32.95
  -2   0   0  534.08   30.99
   2   0   0  500.65   30.94
   2   0   0  590.60   30.45
   2   0   0  558.33   30.49
   2   0   0  577.66   32.94
  -3   0   0   24.58    1.54
  -3   0   0   22.16    1.38
  -3   0   0   24.48    1.39
  -3   0   0   21.29    1.39
   3   0   0   23.71    1.39
   3   0   0   23.87    1.38
   3   0   0   22.43    1.40
   3   0   0   22.94    1.52
  -4   0   0   17.22    1.16
   4   0   0   18.48    1.14
   4   0   0   18.12    1.14
  -5   0   0    5.03    0.44
  -5   0   0    5.20    0.54
   5   0   0    4.68    0.49
   5   0   0    4.85    0.50
  -6   0   0    2.07    0.41
  -6   0   0    2.51    0.33
   6   0   0    2.49    0.34
   6   0   0    2.45    0.37
   6   0   0    2.17    0.35
  -7   0   0   11.80    0.98
  -7   0   0   12.59    0.95
  -7   0   0   12.23    1.02
   7   0   0   12.06    0.99
   7   0   0   14.40    1.03
   7   0   0   12.81    1.00
  -8   0   0    9.04    0.74
  -8   0   0    9.72    0.97
  -8   0   0    7.24    0.83
   8   0   0    8.45    0.90
   8   0   0    7.62    0.76
   8   0   0    7.98    0.86
   8   0   0    9.54    0.78
  -9   0   0    0.59    0.40
  -9   0   0    0.21    0.31
   9   0   0    0.32    0.26
   9   0   0    0.42    0.33
   9   0   0    0.51    0.24
 -10   0   0    2.12    0.55
 -10   0   0    2.21    0.54
  10   0   0    0.97    0.42
  10   0   0    0.52    0.41
  10   0   0    1.74    0.49
 -11   0   0   26.68    2.01
 -11   0   0   30.63    2.18
  11   0   0   24.34    2.29
  11   0   0   29.60    2.09
  11   0   0   27.55    2.06
  11  -1   0    9.10    1.40
  11  -1   0   11.59    1.27
  11  -1   0   10.73    1.24
 -11   1   0   12.35    1.37
 -11   1   0   11.72    1.25
  10  -1   0    0.32    0.38
  10  -1   0    0.90    0.41
  10  -1   0    0.41    0.31
 -10   1   0    0.93    0.39
 -10   1   0    0.35    0.43
   9  -1   0    2.22    0.52
   9  -1   0    2.53    0.53
  -9   1   0    2.04    0.46
  -9   1   0    2.10    0.49
  -9   1   0    1.82    0.54
   8  -1   0    0.90    0.35
   8  -1   0    0.38    0.29
   8  -1   0    0.19    0.22
   8  -1   0    0.94    0.25
  -8   1   0    0.45    0.30
  -8   1   0    0.91    0.29
  -8   1   0    0.40    0.27
   7  -1   0   12.80    1.01
   7  -1   0   14.56    1.00
   7  -1   0   10.98    1.06
   7  -1   0   13.79    1.03
  -7   1   0   12.02    1.00
  -7   1   0   13.66    1.07
   6  -1   0    2.22    0.38
   6  -1   0    2.47    0.31
   6  -1   0    2.95    0.42
  -6   1   0    1.49    0.37
  -6   1   0    2.71    0.38
   5  -1   0    9.15    0.66
   5  -1   0    7.36    0.65
   5  -1   0    9.25    0.67
  -5   1   0    7.51    0.70
  -5   1   0    8.82    0.70
   4  -1   0   18.35    1.18
   4  -1   0   19.39    1.27
   4  -1   0   17.87    1.18
  -4   1   0   19.34    1.34
  -4   1   0   17.90    1.22
   3  -1   0   31.57    1.96
   3  -1   0   34.84    2.21
   3  -1   0   32.51    2.15
   3  -1   0   34.20    2.00
   3  -1   0   35.92    2.02
  -3   1   0   35.70    2.18
  -3   1   0   34.87    2.00
  -3   1   0   33.96    1.98
  -3   1   0   32.10    2.00
   2  -1   0   44.21    2.47
   2  -1   0   44.15    2.51
   2  -1   0   43.82    2.69
   2  -1   0   45.93    2.82
   2  -1   0   44.19    2.50
  -2   1   0   41.86    2.47
  -2   1   0   42.80    2.69
  -2   1   0   45.29    2.51
  -2   1   0   42.67    2.49
   1  -1   0    1.86    0.20
   1  -1   0    2.19    0.20
   1  -1   0    2.23    0.18
   1  -1   0    2.29    0.19
  -1   1   0    2.01    0.19
  -1   1   0    2.39    0.17
  -1   1   0    2.51    0.20
  -1   1   0    2.44    0.21
  -1   1   0    2.65    0.21
  -1  -1   0    1.24    0.11
  -1  -1   0    1.17    0.09
  -1  -1   0    1.42    0.10
  -1  -1   0    1.21    0.09
   1   1   0    0.68    0.09
   1   1   0    0.71    0.09
   1   1   0    0.88    0.10
  -2  -1   0    0.23    0.08
  -2  -1   0    0.08    0.08
  -2  -1   0    0.23    0.08
   2   1   0    0.07    0.08
   2   1   0    0.03    0.06
   2   1   0    0.15    0.08
   2   1   0   -0.04    0.11
  -3  -1   0    6.08    0.42
  -3  -1   0    6.41    0.43
  -3  -1   0    5.26    0.43
   3   1   0    5.00    0.41
   3   1   0    6.30    0.45
   3   1   0    5.52    0.50
   3   1   0    5.85    0.42
  -4  -1   0   78.75    4.53
   4   1   0   77.73    4.54
   4   1   0   80.93    4.51
   4   1   0   82.94    4.57
  -5  -1   0    4.44    0.35
  -5  -1   0    5.00    0.51
   5   1   0    4.30    0.45
   5   1   0    4.55    0.42
  -6  -1   0    2.49    0.28
  -6  -1   0    2.42    0.41
  -6  -1   0    2.59    0.40
   6   1   0    2.51    0.36
   6   1   0    1.94    0.34
  -7  -1   0    6.52    0.74
  -7  -1   0    6.62    0.53
  -7  -1   0    7.03    0.76
   7   1   0    6.90    0.63
   7   1   0    7.20    0.73
  -8  -1   0    0.90    0.31
  -8  -1   0    0.97    0.20
   8   1   0    0.70    0.26
   8   1   0    0.71    0.27
   8   1   0    0.99    0.29
  -9  -1   0    2.34    0.51
  -9  -1   0    2.59    0.57
   9   1   0    3.10    0.49
   9   1   0    2.31    0.52
   9   1   0    2.80    0.53
 -10  -1   0    2.01    0.57
 -10  -1   0    4.09    0.71
  10   1   0    3.82    0.58
  10   1   0    3.04    0.58
  10   1   0    3.62    0.65
 -11  -1   0    4.37    0.75
 -11  -1   0    5.02    0.88
  11   1   0    3.29    0.77
  11   1   0    3.39    0.71
  11   1   0    3.22    0.69
 -12  -1   0    6.67    0.96
  12   1   0    2.97    0.80
  12   1   0    5.23    0.86
  11  -2   0    0.83    0.43
  11  -2   0    1.91    0.57
  11  -2   0    1.34    0.58
 -11   2   0    0.95    0.44
 -11   2   0    1.15    0.54
  10  -2   0    1.07    0.39
  10  -2   0   -0.07    0.42
  10  -2   0    1.84    0.52
 -10   2   0    2.09    0.53
 -10   2   0    2.19    0.57
   9  -2   0    2.19    0.51
   9  -2   0    2.44    0.51
   9  -2   0    1.23    0.55
  -9   2   0    2.23    0.49
  -9   2   0    2.82    0.54
  -9   2   0    1.96    0.55
   8  -2   0    0.68    0.35
   8  -2   0    0.66    0.35
   8  -2   0    0.29    0.30
  -8   2   0    1.17    0.43
  -8   2   0    0.77    0.33
  -8   2   0    0.77    0.34
   7  -2   0    4.35    0.61
   7  -2   0    5.26    0.47
   7  -2   0    4.77    0.62
   7  -2   0    5.42    0.72
  -7   2   0    5.29    0.69
  -7   2   0    5.37    0.67
   6  -2   0   12.92    1.01
   6  -2   0   15.16    1.03
   6  -2   0   11.59    1.12
   6  -2   0   14.80    0.98
  -6   2   0   13.77    1.08
  -6   2   0   12.60    1.03
   5  -2   0    6.35    0.56
   5  -2   0    6.35    0.53
   5  -2   0    6.04    0.47
   5  -2   0    5.55    0.69
  -5   2   0    5.52    0.61
  -5   2   0    5.91    0.65
  -5   2   0    5.79    0.69
   4  -2   0   26.91    1.55
   4  -2   0   27.01    1.66
   4  -2   0   22.28    1.81
   4  -2   0   24.72    1.56
  -4   2   0   23.32    1.67
  -4   2   0   24.46    1.71
  -4   2   0   26.00    1.60
   3  -2   0    0.96    0.20
   3  -2   0    0.98    0.12
   3  -2   0    1.24    0.23
   3  -2   0    1.06    0.18
  -3   2   0    1.08    0.19
  -3   2   0    1.18    0.24
  -3   2   0    1.11    0.21
  -3   2   0    1.22    0.22
   2  -2   0  134.45    7.70
   2  -2   0  118.04    8.45
   2  -2   0  129.47    7.14
   2  -2   0  132.54    7.25
   2  -2   0  121.87    8.21
   2  -2   0  133.05    7.11
  -2   2   0  127.48    7.14
  -2   2   0  130.75    7.12
  -2   2   0  130.87    7.71
  -2   2   0  137.28    7.25
  -2   2   0  127.71    8.20
   1  -2   0  326.18   18.23
   1  -2   0  354.09   19.77
   1  -2   0  336.90   18.32
   1  -2   0  334.07   18.30
   1  -2   0  311.43   21.68
  -1   2   0  329.48   21.31
  -1   2   0  342.20   19.78
  -1   2   0  354.12   18.62
  -1   2   0  335.04   18.30
  -1   2   0  338.20   18.28
   0  -2   0  470.65   25.26
   0  -2   0  446.59   29.89
   0  -2   0  469.09   25.21
   0   2   0  465.53   25.28
   0   2   0  471.40   25.27
  -1  -2   0  681.72   45.15
  -1  -2   0  740.40   38.10
   1   2   0  685.54   41.13
  -2  -2   0   19.65    1.33
  -2  -2   0   19.79    1.14
  -2  -2   0   20.53    1.14
   2   2   0   20.32    1.13
   2   2   0   19.53    1.18
   2   2   0   20.20    1.14
   2   2   0   18.09    1.19
  -3  -2   0   19.55    1.16
  -3  -2   0   19.77    1.18
  -3  -2   0   20.33    1.20
   3   2   0   20.47    1.33
   3   2   0   19.59    1.20
   3   2   0   18.99    1.18
   3   2   0   18.76    1.17
  -4  -2   0    0.60    0.18
  -4  -2   0    0.51    0.17
   4   2   0    0.30    0.12
   4   2   0    0.29    0.13
   4   2   0    0.24    0.12
  -5  -2   0    3.25    0.40
  -5  -2   0    4.18    0.45
   5   2   0    2.73    0.37
   5   2   0    3.52    0.44
   5   2   0    3.16    0.39
  -6  -2   0    4.09    0.51
  -6  -2   0    3.95    0.50
   6   2   0    4.51    0.51
   6   2   0    4.09    0.48
  -7  -2   0    5.22    0.63
  -7  -2   0    3.66    0.55
   7   2   0    4.11    0.52
   7   2   0    4.73    0.57
  -8  -2   0   15.16    1.24
  -8  -2   0   17.84    1.30
   8   2   0   15.47    1.23
   8   2   0   17.39    1.25
  -9  -2   0    6.88    0.83
  -9  -2   0    4.22    0.70
   9   2   0    4.22    0.65
   9   2   0    4.31    0.64
   9   2   0    5.29    0.70
 -10  -2   0   -0.06    0.33
 -10  -2   0    0.12    0.34
  10   2   0   -0.03    0.29
  10   2   0    0.23    0.37
  10   2   0    0.50    0.29
 -11  -2   0    3.36    0.73
 -11  -2   0    2.85    0.65
  11   2   0    3.76    0.62
  11   2   0    2.26    0.58
  11   2   0    1.65    0.58
  11   2   0    3.19    0.69
 -12  -2   0   18.77    1.57
 -12  -2   0   18.98    1.64
  12   2   0   12.89    1.73
  12   2   0   19.59    1.53
  12   2   0   14.20    1.59
  10  -3   0   12.13    1.24
  10  -3   0    9.51    1.14
  10  -3   0    8.41    1.38
 -10   3   0   11.73    1.29
   9  -3   0   -0.68    0.31
   9  -3   0    0.28    0.33
   9  -3   0    0.25    0.33
  -9   3   0   -0.36    0.19
  -9   3   0    0.19    0.32
  -9   3   0   -0.32    0.21
   8  -3   0    0.13    0.30
   8  -3   0    0.32    0.29
   8  -3   0    0.00    0.27
   8  -3   0    0.36    0.43
  -8   3   0    0.56    0.36
  -8   3   0   -0.20    0.23
  -8   3   0    0.08    0.29
   7  -3   0   16.67    1.21
   7  -3   0   14.12    1.38
   7  -3   0   15.96    1.23
  -7   3   0   18.62    1.36
  -7   3   0   15.38    1.28
   6  -3   0   13.70    1.30
   6  -3   0   14.48    1.02
   6  -3   0   14.85    1.13
   6  -3   0   14.22    1.07
  -6   3   0   19.79    1.31
  -6   3   0   17.85    1.22
   5  -3   0    1.47    0.29
   5  -3   0    0.88    0.33
   5  -3   0    1.73    0.16
   5  -3   0    1.73    0.31
  -5   3   0    1.26    0.36
  -5   3   0    1.69    0.34
  -5   3   0    1.34    0.37
   4  -3   0   22.38    1.88
   4  -3   0   23.93    1.64
   4  -3   0   25.97    1.56
   4  -3   0   26.72    1.62
  -4   3   0   28.56    1.76
  -4   3   0   25.62    1.75
  -4   3   0   26.09    1.63
   3  -3   0   49.02    2.76
   3  -3   0   49.26    2.68
   3  -3   0   41.75    3.22
   3  -3   0   48.07    2.90
  -3   3   0   47.67    2.73
  -3   3   0   44.88    2.69
  -3   3   0   46.88    2.92
  -3   3   0   44.94    2.95
   2  -3   0   35.67    2.09
   2  -3   0   29.82    2.36
   2  -3   0   32.79    1.93
  -2   3   0   31.78    1.96
  -2   3   0   35.44    2.16
  -2   3   0   33.21    2.10
  -2   3   0   33.11    1.94
  -2   3   0   35.55    2.00
   1  -3   0   20.14    1.59
   1  -3   0   24.56    1.37
   1  -3   0   21.05    1.26
   1  -3   0   21.29    1.29
   1  -3   0   21.63    1.30
  -1   3   0   22.38    1.27
  -1   3   0   20.47    1.45
  -1   3   0   23.24    1.33
  -1   3   0   21.35    1.37
  -1   3   0   23.53    1.30
   0  -3   0    8.30    0.68
   0  -3   0    9.16    0.77
   0  -3   0    9.53    0.58
   0  -3   0   10.82    0.63
   0   3   0    8.79    0.69
   0   3   0    9.88    0.57
   0   3   0   10.51    0.63
   0   3   0    9.45    0.58
  -1  -3   0  539.49   29.20
  -1  -3   0  507.57   34.59
  -1  -3   0  554.32   29.21
  -1  -3   0  526.67   29.13
   1   3   0  518.58   31.45
   1   3   0  549.05   29.24
   1   3   0  567.24   29.24
  -2  -3   0    1.48    0.23
  -2  -3   0    1.59    0.21
  -2  -3   0    1.87    0.15
   2   3   0    1.96    0.16
   2   3   0    1.57    0.20
   2   3   0    2.02    0.17
  -3  -3   0   59.45    3.34
  -3  -3   0   63.42    3.35
  -3  -3   0   61.17    3.92
   3   3   0   55.81    3.53
   3   3   0   61.84    3.43
   3   3   0   58.27    3.33
   3   3   0   58.43    3.35
  -4  -3   0   13.96    0.91
  -4  -3   0   13.97    0.94
   4   3   0   14.67    0.94
   4   3   0   14.41    0.84
   4   3   0   13.49    0.91
   4   3   0   12.83    0.89
  -5  -3   0   18.15    1.11
  -5  -3   0   16.90    1.11
   5   3   0   16.40    1.10
   5   3   0   16.27    1.07
   5   3   0   14.66    1.08
  -6  -3   0    0.14    0.19
  -6  -3   0    0.17    0.17
   6   3   0   -0.07    0.10
   6   3   0   -0.24    0.16
  -7  -3   0   -0.03    0.15
  -7  -3   0   -0.09    0.15
   7   3   0   -0.04    0.13
   7   3   0   -0.16    0.20
  -8  -3   0    3.70    0.57
  -8  -3   0    2.38    0.49
   8   3   0    2.82    0.47
   8   3   0    3.12    0.47
  -9  -3   0    0.25    0.34
  -9  -3   0    1.02    0.36
   9   3   0    0.76    0.30
   9   3   0    0.85    0.39
 -10  -3   0   16.18    1.30
 -10  -3   0   11.43    1.28
  10   3   0   14.45    1.21
  10   3   0   12.64    1.19
  10   3   0   12.92    1.24
 -11  -3   0    1.15    0.43
 -11  -3   0   -0.27    0.38
  11   3   0    1.06    0.48
  11   3   0   -0.20    0.36
  11   3   0    0.84    0.44
  11   3   0    0.59    0.36
 -12  -3   0    0.03    0.34
  12   3   0    0.41    0.41
  12   3   0   -0.46    0.25
  12   3   0    0.24    0.32
  10  -4   0    1.03    0.51
  10  -4   0    0.84    0.52
 -10   4   0    1.91    0.65
   9  -4   0    5.03    1.02
   9  -4   0    6.09    0.85
   9  -4   0    5.87    0.82
  -9   4   0    6.23    0.93
  -9   4   0    5.77    0.92
   8  -4   0    1.77    0.44
   8  -4   0    0.89    0.38
   8  -4   0    1.32    0.57
   8  -4   0    1.95    0.54
  -8   4   0    1.76    0.51
  -8   4   0    2.41    0.56
   7  -4   0   15.36    1.14
   7  -4   0   15.03    1.20
   7  -4   0   14.22    1.44
   7  -4   0   13.63    1.37
  -7   4   0   16.31    1.35
  -7   4   0   15.60    1.26
   6  -4   0    0.00    0.23
   6  -4   0    0.28    0.23
   6  -4   0    0.19    0.27
   6  -4   0    0.21    0.30
  -6   4   0   -0.25    0.23
  -6   4   0    0.11    0.28
   5  -4   0   36.06    2.18
   5  -4   0   31.31    2.63
  -5   4   0   36.11    2.46
  -5   4   0   35.38    2.24
  -5   4   0   39.46    2.43
   4  -4   0    2.09    0.46
   4  -4   0    1.88    0.30
  -4   4   0    1.85    0.34
  -4   4   0    0.95    0.34
  -4   4   0    2.61    0.40
   3  -4   0    0.30    0.24
   3  -4   0    0.19    0.12
   3  -4   0    0.10    0.12
  -3   4   0    0.12    0.21
  -3   4   0   -0.04    0.11
  -3   4   0    0.22    0.18
  -3   4   0    0.12    0.16
   2  -4   0    0.44    0.12
   2  -4   0    0.25    0.11
   2  -4   0    0.38    0.16
   2  -4   0    0.03    0.15
  -2   4   0    0.21    0.13
  -2   4   0    0.24    0.08
  -2   4   0    0.22    0.12
  -2   4   0    0.35    0.15
  -2   4   0    0.01    0.14
   1  -4   0    0.95    0.27
   1  -4   0    1.01    0.19
   1  -4   0    1.49    0.28
   1  -4   0    1.12    0.19
   1  -4   0    1.24    0.16
  -1   4   0    1.04    0.24
  -1   4   0    1.20    0.18
  -1   4   0    1.21    0.17
  -1   4   0    1.25    0.19
  -1   4   0    1.50    0.19
   0  -4   0    2.58    0.31
   0  -4   0    2.40    0.28
   0  -4   0    1.56    0.33
   0   4   0    2.43    0.20
   0   4   0    2.21    0.19
   0   4   0    2.68    0.22
   0   4   0    1.93    0.32
  -1  -4   0   19.43    1.06
  -1  -4   0   18.22    1.15
  -1  -4   0   17.48    1.40
  -1  -4   0   18.82    1.23
  -1  -4   0   19.61    1.06
   1   4   0   19.38    1.07
   1   4   0   17.83    1.26
   1   4   0   19.03    1.07
  -2  -4   0   20.23    1.18
  -2  -4   0   20.62    1.09
  -2  -4   0   19.32    1.08
  -2  -4   0   18.22    1.40
   2   4   0   18.95    1.10
   2   4   0   19.88    1.11
   2   4   0   16.75    1.25
  -3  -4   0    2.12    0.17
  -3  -4   0    2.18    0.27
  -3  -4   0    1.89    0.27
   3   4   0    1.37    0.19
   3   4   0    1.57    0.20
   3   4   0    1.52    0.21
  -4  -4   0    5.95    0.51
  -4  -4   0    5.48    0.48
  -4  -4   0    6.23    0.48
  -4  -4   0    6.64    0.47
   4   4   0    6.48    0.52
   4   4   0    5.73    0.42
   4   4   0    5.83    0.47
   4   4   0    5.76    0.45
  -5  -4   0   11.02    0.75
  -5  -4   0   11.32    0.77
  -5  -4   0   10.15    0.79
   5   4   0   10.58    0.77
   5   4   0    9.00    0.72
   5   4   0   10.52    0.78
  -6  -4   0   14.44    1.07
  -6  -4   0   16.55    1.07
  -6  -4   0   14.89    1.00
   6   4   0   15.04    1.03
   6   4   0   13.81    1.05
   6   4   0   14.77    1.07
  -7  -4   0    5.23    0.62
  -7  -4   0    4.03    0.55
   7   4   0    5.13    0.57
   7   4   0    4.37    0.56
  -8  -4   0    0.87    0.35
  -8  -4   0    0.75    0.33
   8   4   0    0.29    0.21
   8   4   0    0.78    0.29
  -9  -4   0    5.80    0.74
  -9  -4   0    5.19    0.72
   9   4   0    5.19    0.70
   9   4   0    4.20    0.67
 -10  -4   0    1.44    0.47
 -10  -4   0    0.65    0.43
  10   4   0    0.35    0.31
  10   4   0    0.95    0.39
 -11  -4   0    0.07    0.42
  11   4   0    0.21    0.42
  11   4   0    0.36    0.39
  11   4   0   -0.08    0.28
  11   4   0   -0.19    0.32
 -12  -4   0    1.77    0.65
  12   4   0    2.00    0.59
  12   4   0    2.74    0.69
  12   4   0    2.99    0.74
  12   4   0    2.79    0.65
   9  -5   0    1.74    0.64
   9  -5   0    1.20    0.55
  -9   5   0    1.77    0.55
  -9   5   0    2.66    0.68
   8  -5   0   -0.22    0.32
   8  -5   0    0.29    0.39
   8  -5   0   -0.23    0.25
  -8   5   0    0.07    0.30
  -8   5   0    0.25    0.39
   7  -5   0    4.25    0.60
   7  -5   0    5.07    0.85
   7  -5   0    2.72    0.72
  -7   5   0    4.15    0.65
  -7   5   0    3.54    0.70
   6  -5   0    1.96    0.60
   6  -5   0    2.79    0.45
   6  -5   0    1.45    0.50
  -6   5   0    3.42    0.56
  -6   5   0    3.92    0.64
   5  -5   0    3.88    0.68
   5  -5   0    4.30    0.52
   5  -5   0    4.51    0.76
  -5   5   0    3.75    0.55
  -5   5   0    3.12    0.61
  -5   5   0    3.33    0.51
   4  -5   0    1.22    0.45
   4  -5   0    1.33    0.43
   4  -5   0    1.86    0.30
  -4   5   0    1.40    0.42
  -4   5   0    1.59    0.31
  -4   5   0    1.36    0.33
   3  -5   0    1.54    0.24
   3  -5   0    1.01    0.31
   3  -5   0    1.51    0.25
   3  -5   0    0.85    0.37
  -3   5   0    0.95    0.34
  -3   5   0    1.70    0.29
  -3   5   0    0.92    0.26
  -3   5   0    0.77    0.25
   2  -5   0    1.32    0.25
   2  -5   0    1.19    0.36
   2  -5   0    1.41    0.35
   2  -5   0    1.49    0.22
  -2   5   0    1.15    0.22
  -2   5   0    1.54    0.34
  -2   5   0    1.38    0.25
  -2   5   0    1.75    0.27
  -2   5   0    1.47    0.19
   1  -5   0    3.92    0.30
   1  -5   0    3.67    0.59
   1  -5   0    4.00    0.43
   1  -5   0    3.55    0.48
  -1   5   0    3.51    0.49
  -1   5   0    3.32    0.36
  -1   5   0    3.74    0.33
  -1   5   0    3.77    0.34
  -1   5   0    3.83    0.32
   0  -5   0   37.28    2.64
   0  -5   0   40.62    2.37
   0  -5   0   37.52    2.88
   0  -5   0   42.72    2.30
   0   5   0   42.59    2.49
   0   5   0   39.23    2.62
   0   5   0   40.05    2.29
   0   5   0   43.38    2.29
  -1  -5   0  115.52    6.55
  -1  -5   0  122.32    6.44
  -1  -5   0  115.02    7.32
  -1  -5   0  116.86    7.85
  -1  -5   0  123.22    6.44
   1   5   0  117.69    6.47
   1   5   0  121.12    6.47
   1   5   0  112.03    7.11
  -2  -5   0  164.38    8.88
  -2  -5   0  157.81   10.56
   2   5   0  165.91    8.79
   2   5   0  163.55    8.79
   2   5   0  152.76    9.57
  -3  -5   0   42.63    2.34
  -3  -5   0   42.15    2.91
  -3  -5   0   38.96    2.45
  -3  -5   0   42.98    2.46
  -3  -5   0   45.19    2.36
   3   5   0   42.73    2.38
   3   5   0   40.83    2.62
   3   5   0   41.50    2.38
  -4  -5   0    0.79    0.21
  -4  -5   0    0.62    0.20
  -4  -5   0    0.76    0.09
  -4  -5   0    0.63    0.20
   4   5   0    0.95    0.17
   4   5   0    1.57    0.21
   4   5   0    0.81    0.23
   4   5   0    1.03    0.18
  -5  -5   0    1.38    0.25
  -5  -5   0    0.85    0.24
  -5  -5   0    0.64    0.19
  -5  -5   0    1.17    0.22
   5   5   0    1.12    0.26
   5   5   0    0.74    0.14
   5   5   0    1.19    0.23
   5   5   0    1.20    0.23
  -6  -5   0   16.92    1.07
  -6  -5   0   14.82    1.12
  -6  -5   0   15.16    1.06
   6   5   0   15.14    1.05
   6   5   0   14.51    1.06
   6   5   0   15.71    1.13
  -7  -5   0    4.72    0.57
  -7  -5   0    5.33    0.57
  -7  -5   0    4.75    0.62
   7   5   0    5.10    0.57
   7   5   0    4.18    0.57
  -8  -5   0   -0.10    0.20
  -8  -5   0    0.04    0.16
  -8  -5   0   -0.17    0.19
   8   5   0   -0.19    0.19
   8   5   0   -0.01    0.19
  -9  -5   0    4.43    0.72
  -9  -5   0    5.78    0.73
  -9  -5   0    4.01    0.59
   9   5   0    4.29    0.62
   9   5   0    5.08    0.69
 -10  -5   0    0.10    0.28
 -10  -5   0    0.48    0.33
  10   5   0    0.14    0.37
  10   5   0    0.11    0.21
 -11  -5   0    0.05    0.40
 -11  -5   0   -0.43    0.24
  11   5   0    0.01    0.35
  11   5   0    0.41    0.34
 -12  -5   0   -0.02    0.38
 -12  -5   0    0.45    0.51
  12   5   0    0.62    0.41
  12   5   0   -0.28    0.42
  12   5   0    0.92    0.47
   8  -6   0    8.95    1.29
   8  -6   0    9.21    1.38
  -8   6   0   11.19    1.33
  -8   6   0   10.63    1.19
   7  -6   0    1.29    0.54
   7  -6   0    0.23    0.44
  -7   6   0    0.64    0.36
  -7   6   0    0.26    0.45
   6  -6   0    2.95    0.70
   6  -6   0    2.41    0.43
   6  -6   0    1.37    0.57
  -6   6   0    1.18    0.42
  -6   6   0    2.13    0.53
   5  -6   0    1.22    0.53
   5  -6   0    1.35    0.31
   5  -6   0    2.61    0.66
  -5   6   0    2.04    0.41
  -5   6   0    1.83    0.42
  -5   6   0    1.30    0.46
   4  -6   0    2.36    0.36
   4  -6   0    2.28    0.60
  -4   6   0    1.68    0.48
  -4   6   0    2.59    0.44
  -4   6   0    2.39    0.41
   3  -6   0    0.90    0.33
   3  -6   0    1.00    0.43
   3  -6   0    1.18    0.23
  -3   6   0    0.84    0.27
  -3   6   0    0.94    0.34
  -3   6   0    0.91    0.27
   2  -6   0    1.68    0.32
   2  -6   0    1.64    0.41
   2  -6   0    2.18    0.28
   2  -6   0    1.35    0.46
  -2   6   0    1.34    0.41
  -2   6   0    1.86    0.24
  -2   6   0    2.28    0.33
  -2   6   0    2.13    0.31
  -2   6   0    1.71    0.29
   1  -6   0   -0.03    0.16
   1  -6   0   -0.04    0.15
   1  -6   0    0.03    0.21
   1  -6   0    0.01    0.09
  -1   6   0    0.13    0.12
  -1   6   0    0.29    0.27
  -1   6   0    0.05    0.10
  -1   6   0    0.12    0.14
  -1   6   0    0.01    0.11
   0  -6   0    8.00    0.65
   0  -6   0    7.96    0.70
   0  -6   0    7.58    0.95
   0   6   0    8.36    0.56
   0   6   0    8.82    0.56
   0   6   0    7.43    0.74
   0   6   0    8.62    0.61
  -1  -6   0    0.68    0.07
  -1  -6   0    0.78    0.07
  -1  -6   0    0.82    0.33
  -1  -6   0    0.88    0.22
  -1  -6   0    0.76    0.18
   1   6   0    0.69    0.12
   1   6   0    0.81    0.27
   1   6   0    0.70    0.13
  -2  -6   0    6.31    0.46
  -2  -6   0    5.38    0.71
  -2  -6   0    6.46    0.49
  -2  -6   0    6.69    0.55
   2   6   0    6.62    0.41
   2   6   0    5.87    0.59
   2   6   0    5.98    0.41
  -3  -6   0    0.52    0.24
  -3  -6   0    0.39    0.20
  -3  -6   0    0.83    0.18
   3   6   0    0.78    0.13
   3   6   0    0.70    0.22
  -4  -6   0    6.23    0.56
  -4  -6   0    7.72    0.47
  -4  -6   0    6.78    0.57
  -4  -6   0    7.24    0.68
   4   6   0    6.47    0.49
   4   6   0    6.74    0.57
   4   6   0    6.95    0.51
  -5  -6   0    0.13    0.14
  -5  -6   0    0.33    0.07
  -5  -6   0    0.22    0.05
  -5  -6   0    0.30    0.19
  -5  -6   0    0.44    0.20
   5   6   0    0.25    0.15
   5   6   0    0.28    0.24
   5   6   0    0.22    0.12
   5   6   0    0.13    0.13
  -6  -6   0   13.21    0.99
  -6  -6   0   13.84    0.94
  -6  -6   0   13.39    1.01
  -6  -6   0   15.14    1.08
   6   6   0   14.67    0.98
   6   6   0   13.26    0.94
   6   6   0   13.35    0.87
   6   6   0   11.85    1.02
  -7  -6   0    0.17    0.27
  -7  -6   0    0.13    0.22
  -7  -6   0    0.82    0.25
   7   6   0    0.05    0.26
   7   6   0   -0.13    0.20
  -8  -6   0    0.33    0.26
  -8  -6   0    0.10    0.24
  -8  -6   0    0.12    0.24
   8   6   0    0.25    0.24
   8   6   0   -0.02    0.21
  -9  -6   0    1.54    0.42
  -9  -6   0    1.04    0.35
   9   6   0    1.05    0.41
   9   6   0    1.24    0.36
 -10  -6   0    0.83    0.44
 -10  -6   0    0.05    0.28
  10   6   0    0.07    0.29
  10   6   0    0.37    0.40
 -11  -6   0    0.74    0.41
 -11  -6   0    1.29    0.45
  11   6   0    1.56    0.50
  11   6   0    0.93    0.41
 -12  -6   0    1.85    0.67
 -12  -6   0    1.58    0.52
  12   6   0    1.09    0.52
  12   6   0    0.90    0.54
  12   6   0    1.40    0.50
   8  -7   0    0.79    0.59
   8  -7   0    1.03    0.57
  -8   7   0    0.92    0.55
   7  -7   0    0.41    0.47
   7  -7   0    0.97    0.56
  -7   7   0   -0.11    0.25
  -7   7   0    0.42    0.49
   6  -7   0    0.71    0.54
   6  -7   0    0.64    0.41
  -6   7   0    1.16    0.47
  -6   7   0    0.47    0.39
   5  -7   0    0.79    0.53
   5  -7   0   -0.01    0.42
  -5   7   0    0.65    0.40
  -5   7   0    0.69    0.33
   4  -7   0    4.33    0.78
   4  -7   0    3.51    0.76
  -4   7   0    4.53    0.60
  -4   7   0    6.39    0.86
   3  -7   0    2.12    0.53
   3  -7   0    2.10    0.32
   3  -7   0    1.49    0.50
  -3   7   0    2.23    0.55
  -3   7   0    2.28    0.36
  -3   7   0    2.04    0.37
   2  -7   0    4.77    0.40
   2  -7   0    3.45    0.62
   2  -7   0    4.79    0.80
   2  -7   0    4.40    0.55
  -2   7   0    3.82    0.65
  -2   7   0    3.94    0.47
  -2   7   0    4.19    0.47
   1  -7   0    0.42    0.24
   1  -7   0    0.64    0.43
   1  -7   0    0.40    0.27
  -1   7   0    0.68    0.23
  -1   7   0    0.79    0.31
  -1   7   0    0.59    0.19
  -1   7   0    0.86    0.20
  -1   7   0    0.39    0.18
   0  -7   0    1.45    0.31
   0  -7   0    1.21    0.16
   0  -7   0    1.21    0.45
   0  -7   0    0.81    0.27
   0   7   0    1.25    0.20
   0   7   0    0.91    0.30
   0   7   0    0.95    0.18
   0   7   0    1.07    0.21
  -1  -7   0    1.43    0.30
  -1  -7   0    1.44    0.26
  -1  -7   0    1.68    0.44
   1   7   0    1.81    0.26
   1   7   0    1.35    0.35
   1   7   0    1.61    0.19
   1   7   0    1.79    0.21
  -2  -7   0   12.86    0.86
  -2  -7   0   13.46    0.89
  -2  -7   0   12.94    0.93
  -2  -7   0   13.34    1.21
   2   7   0   12.68    0.77
   2   7   0   12.40    1.04
   2   7   0   12.85    0.78
  -3  -7   0   12.38    0.86
  -3  -7   0   13.72    1.15
  -3  -7   0   12.66    0.93
   3   7   0   11.13    0.97
   3   7   0   12.81    0.76
  -4  -7   0    0.71    0.29
  -4  -7   0    0.81    0.28
  -4  -7   0    0.78    0.24
   4   7   0    0.92    0.18
   4   7   0    1.06    0.17
   4   7   0    0.69    0.24
  -5  -7   0   18.75    1.28
  -5  -7   0   18.27    1.46
  -5  -7   0   19.51    1.30
  -5  -7   0   20.00    1.11
   5   7   0   18.18    1.31
   5   7   0   17.69    1.17
   5   7   0   18.64    1.28
   5   7   0   18.34    1.17
  -6  -7   0    0.24    0.23
  -6  -7   0    0.13    0.22
  -6  -7   0   -0.07    0.20
   6   7   0    0.18    0.18
   6   7   0   -0.02    0.24
   6   7   0    0.03    0.12
  -7  -7   0    0.09    0.26
  -7  -7   0    0.08    0.08
  -7  -7   0    0.42    0.25
   7   7   0    0.21    0.22
   7   7   0    0.05    0.18
  -8  -7   0    2.47    0.48
  -8  -7   0    1.52    0.42
   8   7   0    2.80    0.50
   8   7   0    2.74    0.44
  -9  -7   0    0.85    0.37
  -9  -7   0    1.35    0.39
   9   7   0    1.32    0.37
   9   7   0    1.30    0.40
 -10  -7   0   -0.05    0.26
 -10  -7   0    0.23    0.30
  10   7   0   -0.26    0.34
  10   7   0   -0.12    0.27
 -11  -7   0    0.08    0.46
 -11  -7   0    0.15    0.35
  11   7   0   -0.24    0.26
  11   7   0    0.14    0.32
   7  -8   0    0.35    0.48
   7  -8   0    0.00    0.45
  -7   8   0   -0.16    0.50
  -7   8   0    0.29    0.41
   6  -8   0    2.29    0.73
   6  -8   0    2.40    0.73
  -6   8   0    1.63    0.48
  -6   8   0    1.06    0.57
   5  -8   0    0.02    0.32
   5  -8   0    0.16    0.44
  -5   8   0   -0.04    0.30
  -5   8   0   -0.57    0.29
   4  -8   0    1.75    0.68
   4  -8   0    1.76    0.60
  -4   8   0    4.70    0.81
  -4   8   0    3.11    0.51
   3  -8   0    6.57    1.08
   3  -8   0    7.13    0.96
  -3   8   0    5.58    0.66
  -3   8   0    6.49    0.96
   2  -8   0    1.13    0.35
   2  -8   0    1.61    0.59
   2  -8   0    1.22    0.41
  -2   8   0    1.21    0.28
  -2   8   0    1.19    0.45
   1  -8   0    5.99    0.73
   1  -8   0    7.07    0.84
   1  -8   0    7.89    1.09
  -1   8   0    7.07    0.59
  -1   8   0    6.28    0.87
  -1   8   0    8.18    0.60
   0  -8   0    2.30    0.57
   0  -8   0    2.10    0.38
   0  -8   0    2.14    0.40
   0   8   0    2.18    0.51
   0   8   0    1.96    0.27
   0   8   0    1.77    0.28
  -1  -8   0    0.33    0.16
  -1  -8   0    0.49    0.25
  -1  -8   0    0.63    0.20
  -1  -8   0    0.52    0.34
   1   8   0    0.48    0.14
   1   8   0    0.43    0.14
   1   8   0    0.35    0.25
   1   8   0    0.30    0.14
  -2  -8   0    0.24    0.19
  -2  -8   0   -0.11    0.14
  -2  -8   0    0.00    0.24
  -2  -8   0    0.10    0.12
   2   8   0    0.00    0.09
   2   8   0    0.12    0.09
   2   8   0   -0.29    0.20
  -3  -8   0    7.04    0.56
  -3  -8   0    5.16    0.81
  -3  -8   0    5.99    0.66
   3   8   0    6.38    0.74
   3   8   0    5.86    0.41
  -4  -8   0    0.97    0.36
  -4  -8   0    0.20    0.18
  -4  -8   0    0.22    0.20
   4   8   0    0.28    0.23
   4   8   0    0.27    0.13
  -5  -8   0    0.20    0.22
  -5  -8   0    0.30    0.26
  -5  -8   0    0.45    0.28
   5   8   0    0.37    0.20
   5   8   0    0.10    0.26
   5   8   0    0.21    0.15
  -6  -8   0    3.51    0.54
  -6  -8   0    2.82    0.48
  -6  -8   0    2.97    0.49
   6   8   0    3.43    0.41
   6   8   0    3.40    0.41
   6   8   0    2.99    0.50
  -7  -8   0    3.50    0.55
  -7  -8   0    2.25    0.44
  -7  -8   0    3.30    0.51
   7   8   0    2.54    0.41
   7   8   0    2.60    0.51
  -8  -8   0   -0.10    0.26
  -8  -8   0   -0.13    0.27
   8   8   0    0.01    0.30
   8   8   0   -0.06    0.19
  -9  -8   0    0.46    0.30
  -9  -8   0   -0.23    0.26
   9   8   0    0.49    0.37
   9   8   0    0.21    0.27
 -10  -8   0    0.14    0.38
 -10  -8   0    0.27    0.37
  10   8   0    0.13    0.32
  10   8   0    0.20    0.29
 -11  -8   0    2.71    0.60
 -11  -8   0    1.05    0.46
  11   8   0    2.06    0.64
  11   8   0    2.06    0.51
   6  -9   0    0.09    0.49
   6  -9   0    0.01    0.49
  -6   9   0    0.03    0.50
  -6   9   0   -0.10    0.31
   5  -9   0    0.01    0.46
   5  -9   0   -0.48    0.41
  -5   9   0    0.93    0.56
  -5   9   0    0.23    0.30
   4  -9   0   -0.37    0.32
   4  -9   0    0.72    0.49
  -4   9   0    0.19    0.31
  -4   9   0    0.46    0.50
   3  -9   0    0.30    0.37
   3  -9   0    0.15    0.37
  -3   9   0    0.02    0.32
  -3   9   0    0.21    0.24
   2  -9   0    0.06    0.31
   2  -9   0    0.64    0.42
  -2   9   0    0.88    0.50
  -2   9   0    0.29    0.23
   1  -9   0    0.33    0.50
   1  -9   0    0.63    0.32
   1  -9   0    0.62    0.31
  -1   9   0    0.01    0.37
  -1   9   0    0.59    0.22
   0  -9   0   -0.05    0.18
   0  -9   0   -0.08    0.21
   0  -9   0    0.16    0.33
   0   9   0   -0.08    0.32
   0   9   0   -0.14    0.14
  -1  -9   0    3.90    0.82
  -1  -9   0    3.20    0.45
  -1  -9   0    2.54    0.46
   1   9   0    3.94    0.34
   1   9   0    3.26    0.41
   1   9   0    3.09    0.64
  -2  -9   0   -0.04    0.26
  -2  -9   0    0.09    0.14
  -2  -9   0   -0.11    0.15
   2   9   0    0.29    0.16
   2   9   0    0.17    0.28
   2   9   0    0.06    0.11
  -3  -9   0    0.69    0.22
  -3  -9   0    0.98    0.34
  -3  -9   0    0.49    0.32
   3   9   0    1.38    0.40
  -4  -9   0    0.87    0.42
  -4  -9   0    0.81    0.25
  -4  -9   0    2.06    0.43
   4   9   0    1.16    0.35
   4   9   0    0.91    0.17
  -5  -9   0   -0.26    0.20
  -5  -9   0   -0.16    0.18
  -5  -9   0   -0.12    0.25
   5   9   0    0.07    0.19
   5   9   0    0.13    0.19
   5   9   0    0.00    0.13
  -6  -9   0    0.17    0.25
  -6  -9   0   -0.19    0.13
  -6  -9   0   -0.18    0.23
   6   9   0    0.03    0.16
   6   9   0   -0.29    0.14
   6   9   0    0.10    0.22
  -7  -9   0    0.67    0.32
  -7  -9   0    0.38    0.33
  -7  -9   0    0.58    0.32
   7   9   0    0.22    0.21
   7   9   0    0.49    0.31
  -8  -9   0    0.15    0.28
  -8  -9   0    0.14    0.33
   8   9   0    0.47    0.28
   8   9   0    0.31    0.27
  -9  -9   0    0.01    0.29
  -9  -9   0    0.51    0.33
   9   9   0    0.42    0.32
   9   9   0    0.21    0.31
 -10  -9   0   -0.20    0.33
 -10  -9   0   -0.26    0.33
  10   9   0    0.62    0.39
  10   9   0   -0.03    0.36
 -11  -9   0    0.50    0.48
 -11  -9   0    0.81    0.47
  11   9   0    0.95    0.57
  11   9   0    0.80    0.41
   4 -10   0   -0.04    0.45
   4 -10   0    0.29    0.58
  -4  10   0   -0.24    0.23
  -4  10   0   -0.05    0.33
   3 -10   0    1.29    0.67
   3 -10   0    0.72    0.47
  -3  10   0    1.01    0.38
  -3  10   0   -0.10    0.48
   2 -10   0    5.25    0.87
   2 -10   0    4.29    0.97
  -2  10   0    4.69    0.88
  -2  10   0    4.35    0.55
   1 -10   0    0.24    0.33
   1 -10   0    0.28    0.51
   1 -10   0    0.12    0.29
  -1  10   0   -0.16    0.16
  -1  10   0    0.57    0.37
   0 -10   0   -0.07    0.28
   0 -10   0   -0.10    0.46
   0 -10   0    0.41    0.33
   0  10   0    0.16    0.17
   0  10   0    0.67    0.39
  -1 -10   0    0.43    0.32
  -1 -10   0    1.20    0.57
   1  10   0    1.47    0.23
   1  10   0    0.99    0.49
  -2 -10   0    3.31    0.76
  -2 -10   0    2.07    0.44
   2  10   0    2.83    0.29
   2  10   0    2.13    0.58
  -3 -10   0    0.06    0.40
  -3 -10   0    0.20    0.18
  -3 -10   0    0.36    0.31
   3  10   0   -0.40    0.22
  -4 -10   0    2.71    0.49
  -4 -10   0    3.05    0.70
  -4 -10   0    1.40    0.33
   4  10   0    1.57    0.21
   4  10   0    3.03    0.54
  -5 -10   0    0.48    0.37
  -5 -10   0    0.15    0.21
  -5 -10   0    0.34    0.30
   5  10   0    0.15    0.23
   5  10   0    0.02    0.12
  -6 -10   0    7.25    0.88
  -6 -10   0    7.83    1.00
  -6 -10   0    7.23    0.81
   6  10   0    7.58    0.58
   6  10   0    7.24    0.90
  -7 -10   0    0.76    0.39
  -7 -10   0    0.35    0.34
  -7 -10   0    0.36    0.30
   7  10   0    0.70    0.38
   7  10   0    0.05    0.19
  -8 -10   0    0.80    0.38
  -8 -10   0    0.73    0.40
   8  10   0    0.53    0.42
   8  10   0    0.75    0.28
  -9 -10   0    0.41    0.38
  -9 -10   0    0.27    0.34
   9  10   0    0.66    0.31
   9  10   0    0.36    0.36
 -10 -10   0   -0.32    0.35
 -10 -10   0   -0.53    0.25
  10  10   0    0.17    0.43
  10  10   0    0.09    0.31
   3 -11   0   -0.33    0.40
   3 -11   0    0.21    0.43
  -3  11   0    0.19    0.29
  -3  11   0    0.38    0.51
   2 -11   0   -0.10    0.32
   2 -11   0   -0.07    0.33
  -2  11   0    0.07    0.44
  -2  11   0   -0.53    0.19
   1 -11   0   -0.13    0.35
   1 -11   0   -0.18    0.43
  -1  11   0   -0.05    0.43
  -1  11   0    0.08    0.22
   0 -11   0    0.62    0.61
   0 -11   0    0.26    0.33
   0  11   0    0.82    0.24
   0  11   0    1.14    0.56
  -1 -11   0   -0.20    0.43
  -1 -11   0    0.54    0.30
   1  11   0   -0.30    0.33
  -2 -11   0   -0.30    0.40
  -2 -11   0    0.22    0.34
   2  11   0    0.40    0.42
  -3 -11   0   -0.33    0.26
  -3 -11   0   -0.15    0.37
   3  11   0   -0.21    0.27
  -4 -11   0   -0.33    0.36
  -4 -11   0    0.14    0.23
  -4 -11   0    0.21    0.24
   4  11   0   -0.23    0.28
  -5 -11   0    0.16    0.26
  -5 -11   0   -0.09    0.23
  -5 -11   0    0.42    0.40
   5  11   0    0.27    0.32
  -6 -11   0    0.01    0.28
  -6 -11   0   -0.13    0.33
  -6 -11   0   -0.31    0.21
   6  11   0    0.11    0.31
  -7 -11   0   -0.32    0.25
  -7 -11   0    0.22    0.34
  -7 -11   0   -0.10    0.35
   7  11   0    0.51    0.33
  -8 -11   0    0.47    0.38
  -8 -11   0    0.77    0.43
   8  11   0    0.62    0.39
  -9 -11   0    0.52    0.43
  -9 -11   0    0.76    0.46
   9  11   0    0.21    0.42
   1 -12   0    1.18    0.78
  -1  12   0    1.40    0.70
   0 -12   0    0.82    0.58
   0 -12   0    1.04    0.40
   0  12   0    0.27    0.49
  -1 -12   0    1.47    0.50
  -1 -12   0    1.86    0.76
   1  12   0    1.62    0.62
  -2 -12   0   -0.20    0.30
  -2 -12   0   -0.14    0.29
   2  12   0    0.53    0.44
  -3 -12   0    0.11    0.26
  -3 -12   0    0.21    0.50
   3  12   0    0.11    0.38
  -4 -12   0    3.91    0.67
  -4 -12   0    6.16    1.02
   4  12   0    5.00    0.82
  -5 -12   0    5.56    1.00
  -5 -12   0    4.46    0.64
  -5 -12   0    5.08    0.78
  -6 -12   0    2.75    0.52
  -6 -12   0    2.73    0.63
  -6 -12   0    2.93    0.72
   6  12   0    3.07    0.65
  -7 -12   0    1.16    0.58
  -7 -12   0    1.01    0.43
  -7 -12   0    0.93    0.41
   7  12   0    1.45    0.47
  -8 -12   0   -0.48    0.32
  -8 -12   0    0.17    0.33
   8  12   0    0.97    0.46
  -2 -13   0   -0.14    0.33
  -3 -13   0    1.12    0.66
  -3 -13   0    0.64    0.36
   3  13   0    0.39    0.53
  -4 -13   0   -0.23    0.45
  -4 -13   0    0.04    0.28
   4  13   0   -0.17    0.37
  -5 -13   0   -0.50    0.36
  -5 -13   0   -0.08    0.36
   5  13   0    0.52    0.37
   7  12  -1    0.48    0.42
  -7 -12   1    0.24    0.38
  -7 -12   1    0.72    0.45
  -7 -12   1   -0.30    0.39
   6  12  -1    0.29    0.38
  -6 -12   1   -0.12    0.38
  -6 -12   1   -0.44    0.29
  -6 -12   1    0.04    0.31
   5  12  -1    1.79    0.48
  -5 -12   1    1.77    0.45
  -5 -12   1    1.61    0.63
  -5 -12   1    0.87    0.44
   4  12  -1    0.49    0.38
  -4 -12   1    1.57    0.40
  -4 -12   1    1.26    0.65
  -4 -12   1    1.14    0.45
   3  12  -1    0.12    0.42
  -3 -12   1    0.25    0.48
  -3 -12   1    0.78    0.36
   2  12  -1    0.80    0.55
  -2 -12   1    0.41    0.55
  -2 -12   1    0.75    0.39
   1  12  -1    2.30    0.70
  -1 -12   1    1.14    0.46
  -1 -12   1    0.58    0.56
   0  12  -1    0.24    0.48
   0 -12   1    0.68    0.70
   0 -12   1    0.92    0.46
  -1  12  -1   -0.21    0.46
   1 -12   1   -1.17    0.38
   8  11  -1    4.05    0.73
  -8 -11   1    2.76    0.58
  -8 -11   1    3.50    0.64
   7  11  -1    0.69    0.35
  -7 -11   1   -0.33    0.39
  -7 -11   1   -0.32    0.29
  -7 -11   1   -0.41    0.29
   6  11  -1    0.90    0.44
  -6 -11   1    0.55    0.39
  -6 -11   1    0.86    0.48
  -6 -11   1    0.94    0.37
   5  11  -1    0.73    0.40
  -5 -11   1    0.68    0.34
  -5 -11   1    0.33    0.35
  -5 -11   1    0.41    0.41
   4  11  -1   -0.08    0.28
  -4 -11   1    0.56    0.29
  -4 -11   1    0.69    0.48
  -4 -11   1    0.00    0.30
   3  11  -1    0.40    0.36
  -3 -11   1    0.35    0.34
  -3 -11   1    0.56    0.26
  -3 -11   1    0.64    0.44
   2  11  -1   -0.16    0.30
  -2 -11   1   -0.31    0.38
  -2 -11   1    0.01    0.31
   1  11  -1    0.39    0.41
  -1 -11   1    0.00    0.35
  -1 -11   1    0.59    0.31
   0  11  -1    3.17    0.72
   0 -11   1    1.99    0.52
   0 -11   1    2.01    0.77
  -1  11  -1    0.16    0.44
   1 -11   1   -0.35    0.19
   1 -11   1    0.03    0.53
  -2  11  -1    0.41    0.51
   2 -11   1    0.12    0.34
   2 -11   1   -0.35    0.33
  -3  11  -1    0.02    0.27
  -3  11  -1    0.21    0.43
   3 -11   1    0.69    0.54
   3 -11   1    0.66    0.50
   9  10  -1    1.23    0.50
   9  10  -1    0.82    0.29
  -9 -10   1    0.94    0.45
  -9 -10   1    0.22    0.31
   8  10  -1    1.38    0.30
   8  10  -1    0.55    0.42
  -8 -10   1    0.43    0.39
  -8 -10   1    1.32    0.46
   7  10  -1    2.34    0.56
  -7 -10   1    2.24    0.47
  -7 -10   1    2.68    0.56
  -7 -10   1    3.80    0.70
   6  10  -1   -0.22    0.28
  -6 -10   1    0.07    0.25
  -6 -10   1   -0.21    0.34
  -6 -10   1    0.29    0.36
   5  10  -1   -0.18    0.14
   5  10  -1    0.20    0.24
  -5 -10   1    0.05    0.25
  -5 -10   1   -0.08    0.30
  -5 -10   1   -0.08    0.26
   4  10  -1    0.23    0.27
  -4 -10   1    0.44    0.31
  -4 -10   1    0.77    0.29
  -4 -10   1    0.16    0.37
   3  10  -1    0.18    0.29
  -3 -10   1    0.27    0.28
  -3 -10   1   -0.06    0.19
  -3 -10   1    0.28    0.45
   2  10  -1    0.13    0.18
   2  10  -1   -0.34    0.29
  -2 -10   1   -0.06    0.18
  -2 -10   1   -0.20    0.18
  -2 -10   1   -0.16    0.35
   1  10  -1    3.30    0.69
  -1 -10   1    2.76    0.79
  -1 -10   1    3.62    0.59
   0  10  -1    4.09    0.37
   0  10  -1    4.30    0.81
   0 -10   1    3.68    0.84
   0 -10   1    4.21    0.63
  -1  10  -1    0.08    0.16
  -1  10  -1    0.51    0.34
   1 -10   1    0.48    0.34
   1 -10   1   -0.50    0.41
   1 -10   1    0.17    0.29
  -2  10  -1   -0.14    0.20
  -2  10  -1    0.14    0.39
   2 -10   1    0.15    0.37
   2 -10   1   -0.41    0.25
  -3  10  -1    4.92    0.96
  -3  10  -1    4.38    0.58
   3 -10   1    4.11    0.81
   3 -10   1    4.05    0.98
  -4  10  -1   10.06    1.40
  -4  10  -1   13.15    1.05
   4 -10   1   11.61    1.47
   4 -10   1   11.19    1.62
  10   9  -1   -0.26    0.27
  10   9  -1    0.11    0.42
 -10  -9   1    0.04    0.39
 -10  -9   1    0.03    0.34
   9   9  -1    0.58    0.30
   9   9  -1    0.79    0.46
  -9  -9   1    0.78    0.37
  -9  -9   1    0.81    0.38
   8   9  -1    9.28    1.09
   8   9  -1   12.05    0.87
  -8  -9   1    8.68    1.05
  -8  -9   1   10.90    0.98
   7   9  -1    8.57    0.66
   7   9  -1    7.47    0.91
  -7  -9   1    7.75    0.89
  -7  -9   1    6.36    0.84
   6   9  -1    0.64    0.19
   6   9  -1    1.14    0.38
  -6  -9   1    0.36    0.24
  -6  -9   1    0.33    0.23
  -6  -9   1   -0.15    0.25
   5   9  -1    1.20    0.18
   5   9  -1    1.13    0.40
   5   9  -1    0.92    0.30
  -5  -9   1    1.24    0.42
  -5  -9   1    1.52    0.37
  -5  -9   1    0.80    0.28
   4   9  -1    3.34    0.53
   4   9  -1    3.25    0.24
  -4  -9   1    3.08    0.47
  -4  -9   1    4.32    0.72
  -4  -9   1    3.79    0.54
   3   9  -1    0.32    0.29
  -3  -9   1   -0.20    0.22
  -3  -9   1    0.60    0.24
  -3  -9   1    0.57    0.39
   2   9  -1    0.49    0.35
   2   9  -1    1.34    0.29
  -2  -9   1    0.82    0.40
  -2  -9   1    1.48    0.37
  -2  -9   1    1.57    0.32
   1   9  -1    0.15    0.09
   1   9  -1    0.26    0.18
   1   9  -1    0.54    0.35
  -1  -9   1    0.58    0.25
  -1  -9   1    0.12    0.19
  -1  -9   1   -0.41    0.33
   0   9  -1    3.41    0.34
   0   9  -1    3.75    0.47
   0   9  -1    3.11    0.64
   0  -9   1    3.57    0.53
   0  -9   1    2.38    0.46
   0  -9   1    3.38    0.75
  -1   9  -1   -0.65    0.28
  -1   9  -1   -0.04    0.16
   1  -9   1   -0.05    0.26
   1  -9   1   -0.08    0.23
   1  -9   1   -0.07    0.32
  -2   9  -1    4.60    0.85
  -2   9  -1    4.90    0.53
   2  -9   1    3.67    0.86
   2  -9   1    4.32    0.74
  -3   9  -1    3.53    0.51
  -3   9  -1    3.13    0.70
   3  -9   1    3.56    0.86
   3  -9   1    3.13    0.69
  -4   9  -1   11.12    0.94
  -4   9  -1   10.83    1.37
   4  -9   1    8.03    1.30
   4  -9   1    9.50    1.28
  -5   9  -1   -0.36    0.39
  -5   9  -1    0.46    0.33
   5  -9   1    0.16    0.45
   5  -9   1    0.32    0.54
  -6   9  -1    1.11    0.46
  -6   9  -1    1.65    0.70
   6  -9   1    1.26    0.62
   6  -9   1    0.57    0.56
  11   8  -1    1.61    0.48
  11   8  -1    0.98    0.46
 -11  -8   1    3.06    0.61
 -11  -8   1    1.04    0.48
  10   8  -1    0.48    0.35
  10   8  -1   -0.32    0.36
 -10  -8   1    0.45    0.35
 -10  -8   1   -0.30    0.23
   9   8  -1    1.01    0.34
   9   8  -1    1.18    0.42
  -9  -8   1    1.05    0.40
  -9  -8   1    2.45    0.51
   8   8  -1    0.15    0.24
   8   8  -1    0.06    0.33
  -8  -8   1    0.54    0.31
  -8  -8   1    0.07    0.31
   7   8  -1   -0.10    0.18
   7   8  -1    0.15    0.29
  -7  -8   1    0.09    0.27
  -7  -8   1    0.01    0.25
   6   8  -1    0.76    0.21
   6   8  -1    0.41    0.30
  -6  -8   1    0.64    0.31
  -6  -8   1    1.09    0.34
  -6  -8   1    0.54    0.33
   5   8  -1    0.12    0.19
   5   8  -1   -0.06    0.12
   5   8  -1    0.36    0.20
  -5  -8   1   -0.10    0.23
  -5  -8   1    0.61    0.27
  -5  -8   1    0.37    0.27
   4   8  -1    1.33    0.17
   4   8  -1    1.21    0.31
  -4  -8   1    1.32    0.35
  -4  -8   1    1.24    0.38
  -4  -8   1    1.20    0.27
   3   8  -1    1.00    0.33
   3   8  -1    0.56    0.08
   3   8  -1    0.72    0.10
  -3  -8   1    0.83    0.24
  -3  -8   1    0.76    0.33
  -3  -8   1    0.86    0.30
   2   8  -1    0.34    0.07
   2   8  -1    0.56    0.29
  -2  -8   1    0.28    0.14
  -2  -8   1    0.25    0.24
  -2  -8   1    0.60    0.40
  -2  -8   1    0.19    0.17
   1   8  -1    6.82    0.45
   1   8  -1    6.15    0.59
   1   8  -1    6.52    0.45
   1   8  -1    6.19    0.82
  -1  -8   1    6.83    0.61
  -1  -8   1    7.67    1.01
  -1  -8   1    8.29    0.69
  -1  -8   1    7.29    0.56
   0   8  -1    0.07    0.15
   0   8  -1   -0.02    0.10
   0   8  -1    0.30    0.25
   0  -8   1   -0.20    0.13
   0  -8   1   -0.15    0.14
   0  -8   1   -0.05    0.27
   0  -8   1    0.05    0.23
  -1   8  -1   -0.12    0.17
  -1   8  -1    0.31    0.26
  -1   8  -1    0.13    0.15
   1  -8   1    0.32    0.34
   1  -8   1   -0.07    0.17
   1  -8   1    0.17    0.22
  -2   8  -1    2.75    0.58
  -2   8  -1    3.15    0.41
  -2   8  -1    2.41    0.39
   2  -8   1    1.93    0.42
   2  -8   1    2.32    0.68
   2  -8   1    2.80    0.56
  -3   8  -1    0.36    0.39
  -3   8  -1    0.09    0.24
   3  -8   1   -0.13    0.28
   3  -8   1   -0.14    0.31
  -4   8  -1   15.44    1.14
  -4   8  -1   13.14    1.33
   4  -8   1   14.07    1.48
   4  -8   1   13.80    1.39
  -5   8  -1    2.92    0.51
  -5   8  -1    1.72    0.55
   5  -8   1    2.57    0.74
   5  -8   1    2.34    0.68
  -6   8  -1    4.12    0.85
  -6   8  -1    5.85    0.79
   6  -8   1    4.21    0.92
   6  -8   1    5.37    0.99
  -7   8  -1    0.65    0.42
  -7   8  -1    0.18    0.50
   7  -8   1   -0.81    0.42
   7  -8   1    0.15    0.45
  11   7  -1   -0.28    0.43
  11   7  -1    0.01    0.34
 -11  -7   1    0.65    0.49
 -11  -7   1   -0.13    0.33
  10   7  -1    0.43    0.33
  10   7  -1   -0.15    0.28
 -10  -7   1   -0.26    0.33
 -10  -7   1    0.16    0.34
   9   7  -1    1.61    0.41
   9   7  -1    0.69    0.44
  -9  -7   1    0.82    0.36
  -9  -7   1    1.62    0.50
   8   7  -1    0.30    0.23
   8   7  -1    0.13    0.31
  -8  -7   1    0.26    0.26
  -8  -7   1    0.74    0.37
   7   7  -1    5.25    0.59
   7   7  -1    6.43    0.75
  -7  -7   1    5.89    0.71
  -7  -7   1    6.30    0.71
   6   7  -1    1.56    0.29
   6   7  -1    1.51    0.39
   6   7  -1    1.83    0.24
  -6  -7   1    1.86    0.37
  -6  -7   1    1.73    0.38
  -6  -7   1    1.83    0.39
   5   7  -1    0.04    0.15
   5   7  -1    0.28    0.25
   5   7  -1    0.17    0.14
  -5  -7   1    0.10    0.21
  -5  -7   1   -0.02    0.18
  -5  -7   1    0.51    0.24
   4   7  -1    4.01    0.50
   4   7  -1    4.63    0.34
   4   7  -1    4.37    0.34
   4   7  -1    3.73    0.53
  -4  -7   1    3.37    0.50
  -4  -7   1    3.87    0.58
  -4  -7   1    4.59    0.53
   3   7  -1    0.32    0.09
   3   7  -1    0.26    0.21
   3   7  -1    0.41    0.08
  -3  -7   1    0.01    0.24
  -3  -7   1    0.22    0.21
  -3  -7   1   -0.03    0.15
   2   7  -1    6.34    0.76
   2   7  -1    7.49    0.44
  -2  -7   1    7.38    0.56
  -2  -7   1    7.13    0.90
  -2  -7   1    7.37    0.58
  -2  -7   1    6.97    0.64
   1   7  -1    0.33    0.09
   1   7  -1    0.13    0.24
   1   7  -1    0.42    0.17
   1   7  -1    0.29    0.09
   1   7  -1    0.33    0.09
  -1  -7   1    0.32    0.26
  -1  -7   1    0.00    0.15
  -1  -7   1    0.41    0.17
  -1  -7   1    0.37    0.16
   0   7  -1   11.18    0.76
   0   7  -1   13.15    0.76
   0   7  -1   11.02    0.87
   0   7  -1   11.29    1.05
   0   7  -1   11.98    0.79
   0  -7   1   13.51    1.24
   0  -7   1   12.11    0.91
   0  -7   1   12.32    0.83
   0  -7   1   12.89    0.97
  -1   7  -1    0.06    0.27
  -1   7  -1    0.01    0.15
  -1   7  -1    0.36    0.15
  -1   7  -1   -0.17    0.10
   1  -7   1    0.19    0.09
   1  -7   1   -0.05    0.13
   1  -7   1   -0.08    0.22
   1  -7   1    0.00    0.14
   1  -7   1    0.01    0.19
  -2   7  -1    5.83    0.84
  -2   7  -1    6.91    0.56
  -2   7  -1    6.40    0.61
   2  -7   1    6.73    0.85
   2  -7   1    7.23    1.04
   2  -7   1    6.16    0.70
  -3   7  -1    2.26    0.37
  -3   7  -1    2.02    0.37
  -3   7  -1    1.67    0.46
   3  -7   1    1.31    0.50
   3  -7   1    1.65    0.48
  -4   7  -1    4.89    0.83
  -4   7  -1    6.82    0.71
  -4   7  -1    4.53    0.61
   4  -7   1    5.35    0.87
   4  -7   1    6.79    1.00
  -5   7  -1    3.73    0.75
  -5   7  -1    5.24    0.68
   5  -7   1    5.12    0.90
   5  -7   1    3.30    0.82
  -6   7  -1   -0.23    0.27
  -6   7  -1    0.38    0.45
   6  -7   1    0.02    0.41
   6  -7   1   -0.13    0.43
  -7   7  -1   -0.16    0.34
  -7   7  -1    0.08    0.39
   7  -7   1    0.12    0.46
   7  -7   1   -0.19    0.39
  -8   7  -1   -0.14    0.35
  -8   7  -1    0.33    0.44
   8  -7   1   -0.35    0.37
   8  -7   1    0.01    0.32
  11   6  -1    0.38    0.46
  11   6  -1   -0.07    0.41
  11   6  -1   -0.19    0.31
 -11  -6   1    0.53    0.40
 -11  -6   1   -0.29    0.35
  10   6  -1   -0.47    0.24
  10   6  -1   -0.13    0.27
 -10  -6   1   -0.44    0.22
 -10  -6   1   -0.22    0.29
   9   6  -1   -0.20    0.20
   9   6  -1   -0.42    0.29
  -9  -6   1   -0.13    0.23
  -9  -6   1   -0.32    0.25
   8   6  -1    1.81    0.38
   8   6  -1    1.52    0.45
  -8  -6   1    2.51    0.46
  -8  -6   1    1.53    0.45
   7   6  -1    7.60    0.69
   7   6  -1    9.49    0.85
  -7  -6   1    9.11    0.75
  -7  -6   1    8.76    0.70
  -7  -6   1    7.75    0.60
  -7  -6   1    8.71    0.79
   6   6  -1    0.39    0.08
   6   6  -1    0.24    0.20
   6   6  -1    0.45    0.29
  -6  -6   1    0.45    0.13
  -6  -6   1    0.20    0.19
  -6  -6   1    0.57    0.19
  -6  -6   1    0.18    0.16
   5   6  -1    5.35    0.46
   5   6  -1    5.74    0.48
   5   6  -1    5.23    0.48
   5   6  -1    4.90    0.60
  -5  -6   1    6.16    0.38
  -5  -6   1    5.33    0.62
  -5  -6   1    6.65    0.64
  -5  -6   1    7.33    0.64
   4   6  -1    0.09    0.13
   4   6  -1    0.10    0.10
   4   6  -1    0.03    0.09
   4   6  -1   -0.25    0.16
  -4  -6   1   -0.07    0.15
  -4  -6   1    0.07    0.17
  -4  -6   1   -0.08    0.16
  -4  -6   1    0.00    0.03
  -4  -6   1    0.07    0.03
   3   6  -1    0.46    0.10
   3   6  -1    0.37    0.09
   3   6  -1    0.28    0.16
  -3  -6   1    0.07    0.15
  -3  -6   1   -0.03    0.15
  -3  -6   1    0.33    0.19
   2   6  -1    0.76    0.25
   2   6  -1    0.87    0.10
  -2  -6   1    1.16    0.26
  -2  -6   1    1.21    0.23
  -2  -6   1    1.16    0.17
  -2  -6   1    1.40    0.35
   1   6  -1   26.38    1.47
   1   6  -1   27.23    1.46
   1   6  -1   26.33    1.47
   1   6  -1   22.71    1.78
  -1  -6   1   25.03    1.99
  -1  -6   1   26.99    1.74
  -1  -6   1   25.44    1.62
  -1  -6   1   26.67    1.57
   0   6  -1   16.04    0.97
   0   6  -1   16.53    0.97
   0   6  -1   16.35    1.11
   0   6  -1   15.56    1.25
   0  -6   1   16.79    1.42
   0  -6   1   16.74    1.04
   0  -6   1   16.08    1.10
   0  -6   1   16.26    1.19
  -1   6  -1   14.64    0.92
  -1   6  -1   15.07    0.92
  -1   6  -1   14.12    1.18
  -1   6  -1   14.34    1.02
   1  -6   1   14.17    1.01
   1  -6   1   14.76    1.31
   1  -6   1   14.10    1.13
  -2   6  -1   19.99    1.57
  -2   6  -1   20.74    1.29
  -2   6  -1   19.46    1.41
  -2   6  -1   20.94    1.31
  -2   6  -1   19.46    1.40
   2  -6   1   20.48    1.58
   2  -6   1   21.07    1.38
   2  -6   1   22.54    1.25
   2  -6   1   21.58    1.75
  -3   6  -1    2.66    0.39
  -3   6  -1    2.47    0.40
  -3   6  -1    2.76    0.53
   3  -6   1    3.43    0.36
   3  -6   1    2.85    0.57
   3  -6   1    3.64    0.69
  -4   6  -1    1.23    0.39
  -4   6  -1    1.68    0.35
  -4   6  -1    1.43    0.36
   4  -6   1    2.20    0.59
   4  -6   1    1.28    0.43
   4  -6   1    1.84    0.30
  -5   6  -1    0.98    0.35
  -5   6  -1    0.85    0.31
  -5   6  -1    1.57    0.45
   5  -6   1    0.95    0.47
   5  -6   1    1.48    0.52
   5  -6   1    1.21    0.29
  -6   6  -1    0.22    0.37
  -6   6  -1   -0.18    0.26
  -6   6  -1   -0.06    0.26
   6  -6   1   -0.31    0.34
   6  -6   1   -0.07    0.35
  -7   6  -1    1.04    0.44
  -7   6  -1    0.34    0.43
   7  -6   1    0.60    0.40
   7  -6   1    0.56    0.42
  -8   6  -1    1.91    0.53
  -8   6  -1    1.88    0.60
   8  -6   1    0.70    0.48
   8  -6   1    0.41    0.52
  11   5  -1   -0.25    0.40
  11   5  -1    0.17    0.35
  11   5  -1   -0.12    0.31
 -11  -5   1    0.54    0.38
 -11  -5   1    0.14    0.38
  10   5  -1    0.55    0.35
  10   5  -1    0.02    0.27
 -10  -5   1   -0.42    0.31
 -10  -5   1    0.39    0.31
   9   5  -1   -0.36    0.22
   9   5  -1   -0.40    0.31
  -9  -5   1   -0.01    0.22
  -9  -5   1   -0.12    0.22
   8   5  -1    0.90    0.32
   8   5  -1    1.27    0.34
  -8  -5   1    1.89    0.39
  -8  -5   1    1.11    0.35
  -8  -5   1    1.04    0.36
   7   5  -1    0.59    0.25
   7   5  -1    0.73    0.28
  -7  -5   1    0.58    0.25
  -7  -5   1    0.57    0.26
  -7  -5   1    0.62    0.26
   6   5  -1   -0.21    0.14
   6   5  -1   -0.09    0.15
   6   5  -1    0.10    0.17
  -6  -5   1    0.10    0.15
  -6  -5   1   -0.09    0.20
  -6  -5   1    0.17    0.18
   5   5  -1    4.34    0.46
   5   5  -1    3.85    0.29
   5   5  -1    3.83    0.41
   5   5  -1    3.52    0.48
  -5  -5   1    3.25    0.43
  -5  -5   1    4.15    0.36
  -5  -5   1    3.13    0.46
  -5  -5   1    3.91    0.31
   4   5  -1    6.71    0.53
   4   5  -1    7.03    0.52
   4   5  -1    7.56    0.63
   4   5  -1    6.43    0.54
  -4  -5   1    7.56    0.59
  -4  -5   1    7.58    0.62
  -4  -5   1    8.22    0.46
  -4  -5   1    7.76    0.67
   3   5  -1    0.29    0.14
   3   5  -1    0.40    0.10
   3   5  -1    0.32    0.09
  -3  -5   1    0.48    0.17
  -3  -5   1    0.17    0.16
  -3  -5   1    0.06    0.12
   2   5  -1    6.10    0.54
   2   5  -1    6.01    0.37
   2   5  -1    6.14    0.38
  -2  -5   1    6.34    0.45
  -2  -5   1    6.42    0.48
  -2  -5   1    6.25    0.49
  -2  -5   1    5.54    0.61
   1   5  -1    2.13    0.17
   1   5  -1    2.13    0.15
   1   5  -1    2.30    0.16
  -1  -5   1    1.81    0.37
  -1  -5   1    2.46    0.28
  -1  -5   1    3.33    0.36
   0   5  -1    0.40    0.09
   0   5  -1    0.53    0.10
   0   5  -1    0.16    0.12
   0  -5   1    0.67    0.25
   0  -5   1    0.63    0.19
   0  -5   1    0.49    0.17
  -1   5  -1    2.49    0.27
  -1   5  -1    2.52    0.27
  -1   5  -1    3.19    0.35
   1  -5   1    2.30    0.32
   1  -5   1    3.08    0.53
   1  -5   1    2.75    0.41
  -2   5  -1    0.42    0.15
  -2   5  -1    0.22    0.15
  -2   5  -1    0.36    0.11
  -2   5  -1    0.66    0.18
   2  -5   1    0.59    0.21
   2  -5   1    0.55    0.25
   2  -5   1    0.36    0.11
   2  -5   1    0.35    0.24
  -3   5  -1    0.18    0.16
  -3   5  -1    0.70    0.25
  -3   5  -1    0.88    0.23
   3  -5   1    0.79    0.36
   3  -5   1    1.12    0.33
   3  -5   1    1.14    0.20
  -4   5  -1   -0.08    0.20
  -4   5  -1    0.02    0.25
  -4   5  -1    0.27    0.21
   4  -5   1   -0.11    0.25
   4  -5   1    0.29    0.16
   4  -5   1    0.06    0.29
  -5   5  -1    3.96    0.65
  -5   5  -1    3.07    0.50
  -5   5  -1    3.66    0.56
   5  -5   1    3.46    0.64
   5  -5   1    3.24    0.65
   5  -5   1    3.31    0.44
  -6   5  -1   -0.50    0.22
  -6   5  -1    0.01    0.26
  -6   5  -1    0.19    0.23
   6  -5   1    0.12    0.20
   6  -5   1   -0.32    0.20
   6  -5   1    0.17    0.34
  -7   5  -1    6.83    0.96
  -7   5  -1    6.57    0.82
   7  -5   1    5.32    0.96
   7  -5   1    6.81    0.76
   7  -5   1    7.67    1.04
  -8   5  -1    0.46    0.32
  -8   5  -1    0.87    0.44
   8  -5   1   -0.04    0.35
   8  -5   1    0.32    0.30
   8  -5   1    0.34    0.37
  -9   5  -1    3.18    0.75
  -9   5  -1    4.49    0.78
   9  -5   1    4.28    0.91
   9  -5   1    3.66    0.86
  11   4  -1    0.12    0.29
  11   4  -1    0.18    0.37
  11   4  -1    0.21    0.43
 -11  -4   1   -0.60    0.31
 -11  -4   1    0.38    0.39
  10   4  -1   -0.11    0.26
  10   4  -1    0.09    0.29
  10   4  -1    0.59    0.37
 -10  -4   1   -0.11    0.24
 -10  -4   1    0.29    0.38
   9   4  -1   -0.09    0.22
   9   4  -1    0.03    0.21
  -9  -4   1   -0.17    0.25
  -9  -4   1   -0.02    0.23
  -9  -4   1   -0.17    0.29
   8   4  -1   15.89    1.28
   8   4  -1   16.70    1.23
  -8  -4   1   17.70    1.18
  -8  -4   1   16.26    1.25
  -8  -4   1   15.62    1.28
   7   4  -1    0.57    0.27
   7   4  -1    0.13    0.25
  -7  -4   1    0.08    0.27
  -7  -4   1    0.38    0.26
  -7  -4   1    0.28    0.21
   6   4  -1   12.59    0.91
   6   4  -1   11.62    0.94
   6   4  -1   11.27    0.93
  -6  -4   1   13.09    0.89
  -6  -4   1   13.33    0.99
  -6  -4   1   14.28    0.95
   5   4  -1   15.98    1.14
   5   4  -1   16.61    1.08
   5   4  -1   15.17    1.09
  -5  -4   1   18.04    1.09
  -5  -4   1   16.20    1.07
  -5  -4   1   17.57    1.16
   4   4  -1    2.32    0.36
   4   4  -1    3.16    0.33
   4   4  -1    2.87    0.34
   4   4  -1    3.03    0.24
  -4  -4   1    2.79    0.30
  -4  -4   1    3.02    0.38
  -4  -4   1    3.27    0.39
  -4  -4   1    2.91    0.35
   3   4  -1   20.50    1.29
   3   4  -1   20.40    1.20
   3   4  -1   18.36    1.28
   3   4  -1   19.45    1.19
  -3  -4   1   19.95    1.24
  -3  -4   1   19.97    1.46
  -3  -4   1   21.60    1.15
  -3  -4   1   21.11    1.16
  -3  -4   1   20.57    1.27
   2   4  -1    1.39    0.15
   2   4  -1    1.77    0.15
  -2  -4   1    1.70    0.24
  -2  -4   1    1.72    0.30
   1   4  -1   24.57    1.32
   1   4  -1   23.50    1.32
   1   4  -1   24.44    1.33
  -1  -4   1   23.34    1.43
  -1  -4   1   22.59    1.73
  -1  -4   1   24.31    1.55
   0   4  -1    8.57    0.59
   0   4  -1    7.75    0.49
   0   4  -1    8.15    0.49
   0  -4   1    7.49    0.62
   0  -4   1    8.31    0.74
   0  -4   1    8.88    0.59
  -1   4  -1   17.50    1.18
  -1   4  -1   17.16    1.07
  -1   4  -1   17.51    1.06
   1  -4   1   19.67    1.08
   1  -4   1   18.53    1.42
   1  -4   1   18.73    1.13
   1  -4   1   16.88    1.27
  -2   4  -1    0.15    0.07
  -2   4  -1    0.26    0.14
  -2   4  -1    0.18    0.13
  -2   4  -1    0.17    0.11
   2  -4   1    0.18    0.12
   2  -4   1    0.36    0.20
   2  -4   1    0.23    0.09
   2  -4   1    0.31    0.14
   2  -4   1    0.20    0.19
  -3   4  -1    4.31    0.45
  -3   4  -1    2.96    0.44
  -3   4  -1    3.92    0.42
   3  -4   1    4.27    0.36
   3  -4   1    3.54    0.55
   3  -4   1    4.09    0.39
   3  -4   1    3.78    0.59
  -4   4  -1    4.84    0.57
  -4   4  -1    4.64    0.53
   4  -4   1    4.24    0.66
   4  -4   1    4.68    0.48
   4  -4   1    4.75    0.67
  -5   4  -1    5.99    0.78
  -5   4  -1    6.59    0.77
  -5   4  -1    6.82    0.72
   5  -4   1    7.50    0.94
   5  -4   1    6.39    0.89
   5  -4   1    8.74    0.64
  -6   4  -1    0.50    0.32
  -6   4  -1    0.62    0.27
  -6   4  -1    0.40    0.35
   6  -4   1    0.59    0.42
   6  -4   1    0.29    0.18
   6  -4   1    0.58    0.33
  -7   4  -1    1.63    0.47
  -7   4  -1    1.44    0.46
  -7   4  -1    1.16    0.36
   7  -4   1    1.41    0.49
   7  -4   1    1.87    0.39
   7  -4   1    0.75    0.39
  -8   4  -1    0.20    0.28
  -8   4  -1    0.47    0.34
   8  -4   1    0.10    0.31
   8  -4   1    0.25    0.31
   8  -4   1    0.15    0.26
  -9   4  -1    6.12    0.90
  -9   4  -1    8.48    1.01
   9  -4   1    5.97    1.07
   9  -4   1    4.97    0.72
 -10   4  -1    0.67    0.49
  10  -4   1    0.80    0.58
  11   3  -1    1.14    0.41
  11   3  -1    1.11    0.50
  11   3  -1   -0.44    0.36
 -11  -3   1    0.41    0.45
  10   3  -1    0.00    0.29
  10   3  -1    0.53    0.37
  10   3  -1   -0.36    0.30
 -10  -3   1    0.38    0.38
 -10  -3   1   -0.07    0.31
   9   3  -1    1.94    0.45
   9   3  -1    1.99    0.51
   9   3  -1    2.69    0.55
  -9  -3   1    1.26    0.44
  -9  -3   1    2.02    0.52
   8   3  -1   -0.01    0.26
   8   3  -1    0.31    0.28
  -8  -3   1    0.53    0.27
  -8  -3   1    0.55    0.31
   7   3  -1    1.32    0.33
   7   3  -1    1.42    0.33
  -7  -3   1    0.76    0.34
  -7  -3   1    0.76    0.31
   6   3  -1   12.02    0.92
   6   3  -1   13.11    0.96
  -6  -3   1   12.56    0.98
  -6  -3   1   14.49    0.98
   5   3  -1    2.68    0.37
   5   3  -1    1.61    0.29
   5   3  -1    2.02    0.31
  -5  -3   1    1.85    0.32
  -5  -3   1    2.60    0.35
   4   3  -1   12.43    0.87
   4   3  -1   12.25    0.84
   4   3  -1   12.56    0.89
  -4  -3   1   13.84    0.85
  -4  -3   1   13.74    0.86
  -4  -3   1   13.17    0.89
   3   3  -1    3.19    0.30
   3   3  -1    3.13    0.26
   3   3  -1    3.97    0.36
   3   3  -1    3.48    0.29
  -3  -3   1    4.19    0.36
  -3  -3   1    3.81    0.30
  -3  -3   1    4.31    0.41
  -3  -3   1    3.26    0.30
  -3  -3   1    3.60    0.28
   2   3  -1    1.29    0.15
   2   3  -1    0.95    0.12
   2   3  -1    0.94    0.17
  -2  -3   1    1.69    0.20
  -2  -3   1    1.30    0.11
  -2  -3   1    0.92    0.18
  -2  -3   1    1.29    0.11
   1   3  -1  120.32    6.87
   1   3  -1  132.83    6.85
  -1  -3   1  122.31    8.25
  -1  -3   1  132.34    7.79
  -1  -3   1  124.26    6.93
   0   3  -1   17.37    0.97
   0   3  -1   17.77    0.97
   0  -3   1   17.84    1.04
   0  -3   1   16.52    1.15
   0  -3   1   16.38    1.27
  -1   3  -1    5.23    0.36
  -1   3  -1    5.29    0.37
  -1   3  -1    5.10    0.41
   1  -3   1    5.15    0.47
   1  -3   1    5.66    0.37
   1  -3   1    5.03    0.52
   1  -3   1    5.16    0.40
  -2   3  -1   51.29    2.93
  -2   3  -1   50.52    3.19
  -2   3  -1   55.94    3.00
  -2   3  -1   51.48    2.95
  -2   3  -1   51.32    3.30
  -2   3  -1   49.14    3.31
   2  -3   1   48.18    3.37
   2  -3   1   54.51    2.92
   2  -3   1   54.86    2.97
   2  -3   1   47.46    3.54
   2  -3   1   57.39    3.19
  -3   3  -1   67.16    3.63
  -3   3  -1   63.25    3.60
  -3   3  -1   60.68    3.90
   3  -3   1   67.40    3.58
   3  -3   1   54.65    4.10
   3  -3   1   60.64    4.30
   3  -3   1   68.79    3.90
  -4   3  -1   31.61    2.02
  -4   3  -1   35.80    2.21
  -4   3  -1   35.38    2.02
   4  -3   1   31.23    2.31
   4  -3   1   33.43    1.97
   4  -3   1   30.20    2.38
   4  -3   1   33.65    2.02
  -5   3  -1   17.12    1.24
  -5   3  -1   15.41    1.13
   5  -3   1   15.38    1.09
   5  -3   1   14.69    1.29
   5  -3   1   14.80    1.29
   5  -3   1   16.39    1.08
  -6   3  -1   10.66    1.01
  -6   3  -1   10.60    0.98
  -6   3  -1   12.57    0.94
   6  -3   1   11.88    0.86
   6  -3   1   10.99    1.23
   6  -3   1    9.97    0.86
   6  -3   1   10.49    1.03
  -7   3  -1    5.13    0.75
  -7   3  -1    5.03    0.68
  -7   3  -1    4.73    0.70
   7  -3   1    4.00    0.73
   7  -3   1    4.01    0.66
   7  -3   1    5.17    0.63
   7  -3   1    5.32    0.64
  -8   3  -1    2.27    0.50
  -8   3  -1    4.43    0.70
   8  -3   1    2.46    0.66
   8  -3   1    2.67    0.52
   8  -3   1    4.02    0.58
   8  -3   1    3.07    0.59
  -9   3  -1    3.43    0.69
  -9   3  -1    2.70    0.58
   9  -3   1    2.53    0.74
   9  -3   1    2.63    0.51
   9  -3   1    2.84    0.57
 -10   3  -1    0.24    0.36
 -10   3  -1   -0.48    0.20
  10  -3   1    0.33    0.28
  10  -3   1    0.10    0.32
  10  -3   1   -0.04    0.44
  11   2  -1   -0.05    0.30
  11   2  -1    0.32    0.34
  11   2  -1   -0.54    0.32
 -11  -2   1    0.38    0.44
 -11  -2   1   -0.56    0.36
  10   2  -1    3.82    0.72
  10   2  -1    4.54    0.70
  10   2  -1    4.45    0.69
 -10  -2   1    7.51    0.95
 -10  -2   1    3.16    0.66
   9   2  -1    0.81    0.37
   9   2  -1    0.78    0.32
   9   2  -1    0.10    0.33
  -9  -2   1    1.58    0.48
  -9  -2   1    0.75    0.39
   8   2  -1   19.34    1.35
   8   2  -1   17.92    1.46
   8   2  -1   17.65    1.36
  -8  -2   1   18.03    1.36
  -8  -2   1   17.51    1.37
   7   2  -1    1.59    0.38
   7   2  -1    1.24    0.31
  -7  -2   1    1.22    0.32
  -7  -2   1    1.29    0.33
   6   2  -1   14.38    1.03
   6   2  -1   13.58    1.03
  -6  -2   1   14.70    1.07
  -6  -2   1   15.75    1.08
   5   2  -1   22.23    1.48
   5   2  -1   24.96    1.53
   5   2  -1   21.87    1.52
  -5  -2   1   26.17    1.54
  -5  -2   1   23.99    1.51
   4   2  -1   28.33    1.76
   4   2  -1   29.41    1.77
   4   2  -1   29.28    1.72
  -4  -2   1   29.07    1.74
  -4  -2   1   28.83    1.76
   3   2  -1    9.23    0.64
   3   2  -1    9.84    0.61
   3   2  -1    8.42    0.62
  -3  -2   1    9.30    0.63
  -3  -2   1    8.89    0.61
  -3  -2   1    9.03    0.60
   2   2  -1    3.63    0.25
   2   2  -1    3.32    0.28
   2   2  -1    3.10    0.25
  -2  -2   1    2.93    0.24
  -2  -2   1    3.11    0.29
  -2  -2   1    3.30    0.24
  -2  -2   1    2.87    0.23
   1   2  -1   81.04    4.40
   1   2  -1   80.28    4.42
   1   2  -1   77.44    4.42
  -1  -2   1   83.98    4.45
  -1  -2   1   84.63    4.41
  -1  -2   1   79.03    4.41
  -1  -2   1   82.23    4.40
  -1  -2   1   79.65    5.29
   0   2  -1    6.39    0.36
   0   2  -1    5.92    0.36
   0   2  -1    6.71    0.39
   0  -2   1    6.09    0.41
   0  -2   1    6.31    0.46
   0  -2   1    6.64    0.52
  -1   2  -1  113.39    6.59
  -1   2  -1  105.64    6.08
  -1   2  -1  110.20    6.07
   1  -2   1  112.71    6.08
   1  -2   1  105.02    7.24
   1  -2   1  112.43    6.08
   1  -2   1  124.42    6.59
   1  -2   1  102.92    6.88
  -2   2  -1   20.14    1.33
  -2   2  -1   19.66    1.22
  -2   2  -1   21.11    1.22
  -2   2  -1   20.40    1.21
   2  -2   1   20.03    1.47
   2  -2   1   21.76    1.24
   2  -2   1   21.71    1.32
   2  -2   1   18.15    1.40
   2  -2   1   20.45    1.20
  -3   2  -1   11.74    0.76
  -3   2  -1   11.48    0.72
  -3   2  -1   10.39    0.73
  -3   2  -1   10.71    0.81
   3  -2   1   10.42    0.70
   3  -2   1   11.37    0.73
   3  -2   1    9.97    0.86
   3  -2   1    8.74    0.84
   3  -2   1   12.02    0.81
  -4   2  -1   15.45    1.08
  -4   2  -1   14.51    0.95
  -4   2  -1   14.23    0.97
   4  -2   1   11.88    1.08
   4  -2   1   15.50    0.95
   4  -2   1   14.53    0.94
   4  -2   1   12.49    1.10
  -5   2  -1   -0.03    0.17
  -5   2  -1    0.23    0.18
   5  -2   1    0.09    0.18
   5  -2   1    0.09    0.16
   5  -2   1    0.25    0.06
   5  -2   1    0.06    0.15
  -6   2  -1    5.61    0.66
  -6   2  -1    7.03    0.79
   6  -2   1    5.05    0.76
   6  -2   1    6.90    0.58
   6  -2   1    5.73    0.60
   6  -2   1    6.21    0.45
   6  -2   1    5.49    0.70
  -7   2  -1    0.53    0.33
  -7   2  -1    1.22    0.34
  -7   2  -1    1.10    0.41
   7  -2   1    0.76    0.29
   7  -2   1    1.31    0.34
   7  -2   1    0.88    0.30
   7  -2   1    0.82    0.15
   7  -2   1    0.72    0.39
  -8   2  -1    7.99    0.84
  -8   2  -1    5.97    0.79
   8  -2   1    6.82    0.76
   8  -2   1    4.60    0.87
   8  -2   1    6.54    0.81
   8  -2   1    6.55    0.75
  -9   2  -1   -0.42    0.30
  -9   2  -1    0.09    0.26
   9  -2   1    0.15    0.31
   9  -2   1   -0.46    0.30
   9  -2   1    0.02    0.28
 -10   2  -1   -0.31    0.35
 -10   2  -1    0.29    0.34
  10  -2   1    0.49    0.32
  10  -2   1   -0.19    0.42
  10  -2   1    0.00    0.32
 -11   2  -1    0.79    0.48
 -11   2  -1    1.21    0.55
  11  -2   1    0.94    0.46
  11  -2   1    0.85    0.57
  11  -2   1    0.74    0.44
  11   1  -1    0.14    0.46
  11   1  -1    0.05    0.42
 -11  -1   1    0.30    0.38
 -11  -1   1   -0.67    0.36
  10   1  -1    4.43    0.67
  10   1  -1    4.74    0.75
  10   1  -1    3.84    0.67
 -10  -1   1    4.63    0.75
 -10  -1   1    4.29    0.75
   9   1  -1   11.29    0.95
   9   1  -1    8.21    0.99
   9   1  -1   10.47    0.96
  -9  -1   1   10.69    1.12
  -9  -1   1    8.76    1.02
   8   1  -1    1.95    0.47
   8   1  -1    1.77    0.42
   8   1  -1    2.26    0.42
  -8  -1   1    2.18    0.46
  -8  -1   1    2.12    0.49
   7   1  -1    2.76    0.45
   7   1  -1    2.43    0.43
   7   1  -1    2.87    0.46
  -7  -1   1    3.36    0.54
  -7  -1   1    3.46    0.29
  -7  -1   1    3.16    0.51
   6   1  -1    7.40    0.63
   6   1  -1    6.04    0.63
   6   1  -1    6.53    0.60
  -6  -1   1    5.79    0.65
  -6  -1   1    6.98    0.47
  -6  -1   1    7.00    0.71
   5   1  -1   27.17    1.71
   5   1  -1   27.81    1.74
  -5  -1   1   29.29    1.74
  -5  -1   1   27.67    1.74
  -5  -1   1   27.40    1.68
   4   1  -1   29.47    1.79
   4   1  -1   29.83    1.77
   4   1  -1   26.88    1.79
  -4  -1   1   29.62    1.76
  -4  -1   1   30.09    1.79
  -4  -1   1   31.28    1.79
   3   1  -1   12.19    0.81
   3   1  -1   12.58    0.82
   3   1  -1   12.70    0.80
  -3  -1   1   13.22    0.76
  -3  -1   1   12.47    0.82
  -3  -1   1   12.47    0.81
  -3  -1   1   11.74    0.79
   2   1  -1    0.26    0.10
   2   1  -1    0.22    0.03
   2   1  -1    0.26    0.08
   2   1  -1    0.15    0.08
  -2  -1   1    0.32    0.07
  -2  -1   1    0.04    0.07
  -2  -1   1    0.26    0.08
   1   1  -1   19.24    1.09
   1   1  -1   18.30    1.06
   1   1  -1   18.76    1.06
  -1  -1   1   18.73    1.09
  -1  -1   1   17.51    1.05
  -1  -1   1   18.25    1.05
  -1  -1   1   20.76    1.27
  -1  -1   1   18.77    1.06
   0   1  -1    0.93    0.07
   0   1  -1    0.93    0.07
   0   1  -1    1.00    0.09
   0  -1   1    1.08    0.06
   0  -1   1    0.95    0.10
   0  -1   1    1.21    0.11
   0  -1   1    1.14    0.14
  -1   1  -1   -0.09    0.06
  -1   1  -1    0.02    0.03
  -1   1  -1   -0.02    0.05
  -1   1  -1   -0.09    0.06
  -1   1  -1    0.04    0.05
   1  -1   1   -0.06    0.06
   1  -1   1   -0.08    0.06
   1  -1   1   -0.09    0.06
   1  -1   1   -0.03    0.08
   1  -1   1    0.27    0.07
  -2   1  -1  891.98   50.63
  -2   1  -1  915.31   54.73
  -2   1  -1  902.52   51.42
  -2   1  -1  994.54   50.64
   2  -1   1 1000.00   50.60
   2  -1   1  851.14   56.88
   2  -1   1  924.80   50.57
   2  -1   1  890.15   59.78
   2  -1   1  942.60   51.45
   2  -1   1  985.73   54.75
  -3   1  -1    0.14    0.15
  -3   1  -1   -0.29    0.07
  -3   1  -1    0.05    0.08
  -3   1  -1    0.02    0.08
   3  -1   1    0.05    0.11
   3  -1   1    0.01    0.10
   3  -1   1    0.02    0.10
   3  -1   1   -0.06    0.06
   3  -1   1   -0.11    0.07
  -4   1  -1  253.71   14.49
  -4   1  -1  248.61   13.53
  -4   1  -1  238.01   13.35
  -4   1  -1  247.83   13.38
   4  -1   1  234.75   13.33
   4  -1   1  251.21   13.54
   4  -1   1  227.59   15.72
  -5   1  -1    0.21    0.24
  -5   1  -1    0.62    0.24
   5  -1   1    0.15    0.15
   5  -1   1    0.10    0.11
   5  -1   1   -0.05    0.14
   5  -1   1    0.07    0.08
  -6   1  -1    2.01    0.42
  -6   1  -1    0.70    0.29
   6  -1   1    1.39    0.30
   6  -1   1    1.74    0.23
   6  -1   1    1.31    0.30
   6  -1   1    1.45    0.27
  -7   1  -1   -0.04    0.15
  -7   1  -1    0.03    0.19
   7  -1   1   -0.25    0.15
   7  -1   1    0.29    0.21
   7  -1   1    0.23    0.14
   7  -1   1    0.19    0.23
  -8   1  -1    0.82    0.37
  -8   1  -1    1.10    0.34
   8  -1   1    0.79    0.21
   8  -1   1    1.14    0.34
   8  -1   1    1.02    0.30
   8  -1   1    0.21    0.36
   8  -1   1    0.96    0.34
  -9   1  -1    0.92    0.36
  -9   1  -1    1.60    0.40
   9  -1   1    0.45    0.35
   9  -1   1    1.25    0.52
   9  -1   1    1.86    0.46
 -10   1  -1    1.92    0.59
 -10   1  -1    2.04    0.52
  10  -1   1    2.71    0.71
  10  -1   1    2.68    0.53
  10  -1   1    2.94    0.57
 -11   1  -1    1.74    0.56
 -11   1  -1    1.93    0.60
  11  -1   1    1.61    0.51
  11  -1   1    2.43    0.60
  11  -1   1    1.93    0.64
  11   0  -1    3.52    0.76
  11   0  -1    4.11    0.75
  11   0  -1    2.41    0.68
 -11   0   1    3.75    0.71
 -11   0   1    3.42    0.76
  10   0  -1    5.01    0.76
  10   0  -1    4.06    0.71
 -10   0   1    4.48    0.80
 -10   0   1    4.09    0.72
   9   0  -1    1.68    0.38
   9   0  -1    1.01    0.42
   9   0  -1    1.19    0.41
  -9   0   1    2.58    0.54
  -9   0   1    1.71    0.43
   8   0  -1   12.49    1.06
   8   0  -1   14.95    1.09
   8   0  -1   13.07    1.09
  -8   0   1   12.93    1.10
  -8   0   1   12.26    0.94
  -8   0   1   13.27    1.07
   7   0  -1   17.34    1.35
   7   0  -1   18.71    1.33
   7   0  -1   18.62    1.43
  -7   0   1   20.11    1.30
  -7   0   1   18.71    1.35
  -7   0   1   20.70    1.41
   6   0  -1    3.28    0.43
   6   0  -1    3.33    0.48
   6   0  -1    3.57    0.46
  -6   0   1    4.05    0.51
  -6   0   1    3.50    0.49
  -6   0   1    3.60    0.39
   5   0  -1    2.48    0.35
   5   0  -1    2.44    0.34
   5   0  -1    2.13    0.33
  -5   0   1    2.67    0.39
  -5   0   1    2.01    0.27
  -5   0   1    2.55    0.36
   4   0  -1    8.26    0.58
   4   0  -1    7.09    0.58
   4   0  -1    6.98    0.56
  -4   0   1    7.08    0.53
  -4   0   1    6.91    0.57
  -4   0   1    6.78    0.55
   3   0  -1    2.43    0.33
   3   0  -1    3.36    0.35
   3   0  -1    2.34    0.29
   3   0  -1    2.48    0.26
   3   0  -1    2.70    0.29
  -3   0   1    2.77    0.29
  -3   0   1    2.21    0.27
  -3   0   1    2.70    0.23
  -3   0   1    2.26    0.28
   2   0  -1    5.88    0.41
   2   0  -1    5.60    0.42
   2   0  -1    5.78    0.41
   2   0  -1    5.78    0.43
   2   0  -1    5.82    0.46
  -2   0   1    6.12    0.41
  -2   0   1    6.49    0.43
  -2   0   1    6.27    0.43
  -2   0   1    6.20    0.41
   1   0  -1    0.26    0.06
   1   0  -1    0.03    0.04
   1   0  -1    0.03    0.05
   1   0  -1    0.02    0.05
   1   0  -1    0.11    0.04
  -1   0   1    0.02    0.06
  -1   0   1    0.08    0.05
  -1   0   1    0.12    0.04
  -1   0   1    0.03    0.04
  -1   0   1    0.00    0.04
   0   0  -1   -0.62    0.01
   0   0  -1   -0.63    0.01
   0   0  -1   -0.63    0.01
   0   0  -1   -0.63    0.01
   0   0  -1   -0.64    0.01
   0   0  -1   -0.62    0.01
   0   0   1   -0.58    0.02
   1   0   1    9.35    0.63
   1   0   1    8.62    0.61
  -2   0  -1   18.50    1.03
  -2   0  -1   17.38    1.05
  -2   0  -1   17.67    1.16
  -2   0  -1   18.44    1.04
   2   0   1   18.17    1.06
   2   0   1   19.37    1.04
   2   0   1   16.40    1.18
   2   0   1   16.62    1.18
   2   0   1   17.70    1.15
   2   0   1   16.90    1.04
  -3   0  -1    9.88    0.69
  -3   0  -1    9.95    0.67
  -3   0  -1   10.10    0.76
  -3   0  -1   10.80    0.66
   3   0   1   10.99    0.66
   3   0   1    9.37    0.73
   3   0   1    9.83    0.76
   3   0   1   10.80    0.68
   3   0   1   10.60    0.70
  -4   0  -1   14.71    1.00
  -4   0  -1   16.66    1.16
  -4   0  -1   16.65    0.99
  -4   0  -1   15.44    1.03
   4   0   1   16.00    1.14
   4   0   1   14.63    1.00
   4   0   1   16.07    0.99
   4   0   1   14.05    1.09
   4   0   1   17.44    1.11
  -5   0  -1    2.42    0.42
  -5   0  -1    2.90    0.40
   5   0   1    2.91    0.34
   5   0   1    2.20    0.32
   5   0   1    2.44    0.32
  -6   0  -1    0.19    0.27
  -6   0  -1   -0.07    0.19
   6   0   1    0.26    0.16
   6   0   1    0.20    0.14
   6   0   1    0.46    0.20
  -7   0  -1   10.60    0.86
   7   0   1    9.18    0.75
   7   0   1    8.88    0.78
   7   0   1    7.87    0.73
  -8   0  -1    0.97    0.34
  -8   0  -1    1.04    0.28
   8   0   1    1.02    0.26
   8   0   1    1.34    0.34
   8   0   1    0.64    0.31
   8   0   1    1.23    0.34
  -9   0  -1   -0.37    0.24
  -9   0  -1    0.13    0.21
  -9   0  -1    0.03    0.21
   9   0   1    0.19    0.19
   9   0   1    0.48    0.27
   9   0   1    0.18    0.28
   9   0   1    0.06    0.29
 -10   0  -1    0.33    0.42
 -10   0  -1   -0.09    0.27
  10   0   1    0.09    0.27
  10   0   1   -0.11    0.30
  10   0   1    0.20    0.33
 -11   0  -1    0.70    0.43
 -11   0  -1    0.68    0.41
  11   0   1    0.42    0.47
  11   0   1    0.81    0.42
  11   0   1    1.65    0.49
 -12   0  -1    0.42    0.42
  12   0   1   -0.60    0.31
  12   0   1    0.31    0.48
  12   0   1   -0.42    0.38
  11  -1  -1    2.53    0.79
  11  -1  -1    2.09    0.65
  11  -1  -1    2.68    0.60
 -11   1   1    2.75    0.74
 -11   1   1    2.45    0.60
  10  -1  -1    0.95    0.39
  10  -1  -1    0.52    0.36
 -10   1   1    0.89    0.42
 -10   1   1    0.63    0.38
   9  -1  -1    1.26    0.47
   9  -1  -1    0.65    0.36
  -9   1   1    0.95    0.40
  -9   1   1    0.88    0.37
   8  -1  -1    0.52    0.35
   8  -1  -1    0.59    0.32
   8  -1  -1    0.04    0.18
  -8   1   1    0.13    0.23
  -8   1   1    0.24    0.23
  -8   1   1    0.34    0.28
   7  -1  -1    9.40    0.87
   7  -1  -1   10.68    0.88
   7  -1  -1   10.37    0.84
  -7   1   1    9.58    0.83
  -7   1   1    7.27    0.89
  -7   1   1   10.91    0.85
   6  -1  -1    6.94    0.70
   6  -1  -1    6.43    0.58
   6  -1  -1    5.86    0.63
  -6   1   1    6.38    0.60
  -6   1   1    6.64    0.60
  -6   1   1    5.54    0.68
   5  -1  -1   24.86    1.53
   5  -1  -1   23.88    1.54
   5  -1  -1   24.79    1.66
  -5   1   1   23.46    1.58
  -5   1   1   24.11    1.51
  -5   1   1   21.73    1.55
   4  -1  -1   58.29    3.53
   4  -1  -1   65.20    4.04
   4  -1  -1   59.66    3.60
  -4   1   1   64.24    3.78
  -4   1   1   61.89    3.58
   3  -1  -1  100.77    5.35
   3  -1  -1  100.81    6.17
   3  -1  -1   95.53    5.38
   3  -1  -1   96.65    5.44
   3  -1  -1   92.34    5.80
  -3   1   1   99.10    5.45
  -3   1   1   88.02    5.34
  -3   1   1   95.99    5.73
  -3   1   1   94.89    5.38
   2  -1  -1  268.95   14.85
   2  -1  -1  263.13   14.61
   2  -1  -1  269.44   14.59
   2  -1  -1  263.52   15.79
   2  -1  -1  284.42   16.98
  -2   1   1  255.71   14.61
  -2   1   1  266.77   16.97
  -2   1   1  280.87   14.85
  -2   1   1  257.76   15.69
  -2   1   1  262.60   14.59
   1  -1  -1   35.03    2.30
   1  -1  -1   41.21    2.47
   1  -1  -1   38.21    2.18
   1  -1  -1   36.97    2.15
   1  -1  -1   39.26    2.14
   1  -1  -1   37.60    2.30
  -1   1   1   39.28    2.15
  -1   1   1   39.86    2.18
  -1   1   1   35.97    2.30
  -1   1   1   36.62    2.13
  -1   1   1   40.15    2.47
   0  -1  -1    5.57    0.36
   0  -1  -1    4.83    0.30
   0  -1  -1    5.07    0.30
   0  -1  -1    4.40    0.33
   0   1   1    4.17    0.34
   0   1   1    4.65    0.30
   0   1   1    4.24    0.29
   0   1   1    4.24    0.33
   0   1   1    5.50    0.31
  -1  -1  -1    0.95    0.10
  -1  -1  -1    1.03    0.11
  -1  -1  -1    1.20    0.10
  -1  -1  -1    0.99    0.12
   1   1   1    0.86    0.09
   1   1   1    0.70    0.10
   1   1   1    0.72    0.09
   1   1   1    0.73    0.12
  -2  -1  -1   27.86    1.59
  -2  -1  -1   27.03    1.57
  -2  -1  -1   27.25    1.58
  -2  -1  -1   28.70    1.65
  -2  -1  -1   27.59    1.73
   2   1   1   27.34    1.58
   2   1   1   28.69    1.59
   2   1   1   27.59    1.73
   2   1   1   26.92    1.57
  -3  -1  -1   49.44    2.77
  -3  -1  -1   49.23    2.79
  -3  -1  -1   49.64    3.04
  -3  -1  -1   46.46    2.78
   3   1   1   50.37    3.04
   3   1   1   49.18    2.79
   3   1   1   45.26    2.76
   3   1   1   52.33    2.80
  -4  -1  -1   19.50    1.22
  -4  -1  -1   21.48    1.38
  -4  -1  -1   18.50    1.19
  -4  -1  -1   18.61    1.17
   4   1   1   17.69    1.18
   4   1   1   18.87    1.34
   4   1   1   20.40    1.23
   4   1   1   19.30    1.18
  -5  -1  -1    1.47    0.27
  -5  -1  -1    0.60    0.27
   5   1   1    1.10    0.21
   5   1   1    1.05    0.22
  -6  -1  -1   -0.12    0.19
   6   1   1    0.06    0.17
   6   1   1    0.18    0.10
   6   1   1    0.41    0.20
  -7  -1  -1    0.99    0.34
   7   1   1    0.97    0.20
   7   1   1    0.87    0.28
   7   1   1    0.50    0.27
  -8  -1  -1    4.11    0.61
  -8  -1  -1    4.82    0.46
   8   1   1    4.32    0.59
   8   1   1    5.08    0.64
  -9  -1  -1    6.68    0.84
  -9  -1  -1    7.07    0.87
  -9  -1  -1    7.28    0.61
   9   1   1    7.25    0.83
   9   1   1    6.27    0.77
   9   1   1    4.80    0.84
   9   1   1    7.12    0.69
 -10  -1  -1    0.66    0.38
 -10  -1  -1    0.59    0.42
  10   1   1    0.73    0.36
  10   1   1    0.71    0.40
  10   1   1    0.88    0.31
  10   1   1    0.24    0.38
 -11  -1  -1    0.00    0.37
 -11  -1  -1   -0.03    0.41
  11   1   1    0.15    0.29
  11   1   1    0.05    0.26
  11   1   1    0.36    0.37
 -12  -1  -1    3.80    0.79
 -12  -1  -1    4.47    0.82
  12   1   1    4.03    0.91
  12   1   1    2.65    0.64
  12   1   1    4.01    0.80
  10  -2  -1    6.17    1.10
  10  -2  -1    7.30    0.98
  10  -2  -1    8.27    1.02
 -10   2   1    8.72    1.11
 -10   2   1    8.17    0.94
   9  -2  -1   -0.16    0.22
   9  -2  -1    0.01    0.31
  -9   2   1    0.51    0.33
  -9   2   1    0.11    0.28
   8  -2  -1    3.89    0.66
   8  -2  -1    3.80    0.61
   8  -2  -1    4.60    0.66
  -8   2   1    5.03    0.66
  -8   2   1    4.31    0.68
  -8   2   1    5.48    0.67
   7  -2  -1    5.90    0.71
   7  -2  -1    5.34    0.54
   7  -2  -1    4.83    0.64
  -7   2   1    5.88    0.70
  -7   2   1    6.86    0.70
  -7   2   1    5.45    0.70
   6  -2  -1   11.61    0.86
   6  -2  -1   11.09    0.86
   6  -2  -1   10.19    0.86
  -6   2   1    9.74    0.92
  -6   2   1   10.74    0.83
  -6   2   1   11.83    0.93
   5  -2  -1    5.34    0.46
   5  -2  -1    5.15    0.57
   5  -2  -1    4.78    0.54
  -5   2   1    3.74    0.53
  -5   2   1    5.28    0.59
   4  -2  -1    3.06    0.29
   4  -2  -1    2.36    0.34
   4  -2  -1    2.54    0.33
  -4   2   1    2.49    0.37
  -4   2   1    2.29    0.37
   3  -2  -1    9.30    0.62
   3  -2  -1    9.12    0.63
   3  -2  -1    7.89    0.66
   3  -2  -1    7.91    0.62
  -3   2   1    7.89    0.64
  -3   2   1    8.61    0.68
  -3   2   1    8.19    0.61
   2  -2  -1   41.99    2.38
   2  -2  -1   42.13    2.68
   2  -2  -1   39.76    2.40
   2  -2  -1   40.95    2.53
   2  -2  -1   40.67    2.35
  -2   2   1   42.30    2.67
  -2   2   1   39.62    2.35
  -2   2   1   40.55    2.38
  -2   2   1   46.09    2.42
  -2   2   1   38.14    2.55
   1  -2  -1   86.49    4.97
   1  -2  -1   88.41    5.24
   1  -2  -1   85.65    5.65
   1  -2  -1   87.57    4.84
   1  -2  -1   89.83    4.86
   1  -2  -1   89.36    4.89
  -1   2   1   95.11    5.65
  -1   2   1   80.39    5.26
  -1   2   1   87.63    4.88
  -1   2   1   94.98    4.98
  -1   2   1   85.72    4.86
   0  -2  -1  358.04   18.95
   0  -2  -1  357.60   18.89
   0  -2  -1  347.73   20.42
   0  -2  -1  322.79   22.12
   0  -2  -1  344.13   19.01
   0   2   1  343.52   20.42
   0   2   1  340.13   19.00
   0   2   1  367.54   18.98
   0   2   1  356.57   22.12
  -1  -2  -1  674.55   37.39
  -1  -2  -1  684.37   37.51
  -1  -2  -1  696.46   37.63
  -1  -2  -1  667.51   40.48
  -1  -2  -1  712.66   37.63
   1   2   1  741.28   40.73
   1   2   1  682.41   37.63
   1   2   1  697.30   37.63
   1   2   1  670.45   40.48
  -2  -2  -1   17.96    1.29
  -2  -2  -1   19.35    1.11
  -2  -2  -1   19.93    1.18
  -2  -2  -1   18.49    1.08
  -2  -2  -1   19.66    1.12
   2   2   1   19.59    1.24
   2   2   1   19.04    1.11
   2   2   1   19.15    1.12
   2   2   1   19.34    1.17
  -3  -2  -1   28.54    1.75
  -3  -2  -1   27.95    1.70
  -3  -2  -1   29.70    1.90
   3   2   1   30.03    1.75
   3   2   1   28.53    1.88
   3   2   1   31.15    1.72
   3   2   1   30.27    1.70
   3   2   1   27.22    1.70
  -4  -2  -1   27.18    1.59
  -4  -2  -1   26.87    1.60
  -4  -2  -1   26.74    1.59
  -4  -2  -1   27.47    1.58
   4   2   1   25.34    1.57
   4   2   1   25.48    1.60
   4   2   1   24.65    1.76
   4   2   1   26.97    1.59
  -5  -2  -1  109.09    6.16
  -5  -2  -1  111.29    6.45
   5   2   1  111.43    6.18
   5   2   1  103.52    6.13
   5   2   1  112.52    6.22
  -6  -2  -1    0.86    0.27
  -6  -2  -1    1.17    0.14
   6   2   1    0.72    0.21
   6   2   1    1.01    0.24
  -7  -2  -1   -0.21    0.21
  -7  -2  -1    0.06    0.09
   7   2   1    0.25    0.17
   7   2   1   -0.07    0.19
  -8  -2  -1    2.84    0.30
  -8  -2  -1    2.79    0.48
  -8  -2  -1    2.92    0.52
   8   2   1    2.81    0.47
   8   2   1    1.84    0.44
  -9  -2  -1    0.33    0.32
  -9  -2  -1    0.40    0.30
   9   2   1    0.10    0.28
   9   2   1    0.39    0.24
   9   2   1   -0.05    0.27
 -10  -2  -1    5.29    0.79
 -10  -2  -1    6.62    0.86
  10   2   1    5.86    0.91
  10   2   1    5.61    0.75
  10   2   1    7.74    0.89
 -11  -2  -1    1.57    0.55
 -11  -2  -1    1.55    0.57
  11   2   1    2.65    0.54
  11   2   1    1.75    0.58
  11   2   1    2.19    0.50
  11   2   1    2.26    0.54
 -12  -2  -1   19.46    1.62
 -12  -2  -1   16.56    1.49
  12   2   1   12.48    1.46
  12   2   1   21.08    1.57
  12   2   1   13.73    1.71
  10  -3  -1    0.34    0.45
  10  -3  -1    0.73    0.57
  10  -3  -1    0.65    0.33
 -10   3   1    0.33    0.37
   9  -3  -1    0.65    0.33
   9  -3  -1    0.57    0.33
  -9   3   1    0.37    0.34
   8  -3  -1    0.99    0.40
   8  -3  -1    0.93    0.38
   8  -3  -1    0.27    0.33
  -8   3   1    1.00    0.39
  -8   3   1    1.09    0.39
  -8   3   1    0.92    0.34
   7  -3  -1   15.18    1.23
   7  -3  -1   13.87    1.39
   7  -3  -1   18.02    1.26
  -7   3   1   16.22    1.29
  -7   3   1   18.97    1.37
  -7   3   1   16.57    1.18
   6  -3  -1   15.91    1.14
   6  -3  -1   16.52    1.21
   6  -3  -1   13.59    1.33
   6  -3  -1   17.54    1.18
  -6   3   1   15.64    1.10
  -6   3   1   17.47    1.30
  -6   3   1   15.33    1.22
   5  -3  -1   43.54    2.85
   5  -3  -1   47.30    3.09
   5  -3  -1   49.85    2.81
  -5   3   1   46.84    2.86
  -5   3   1   47.47    3.06
   4  -3  -1    2.02    0.32
   4  -3  -1    1.47    0.22
   4  -3  -1    1.72    0.29
  -4   3   1    1.63    0.33
  -4   3   1    1.49    0.30
   3  -3  -1  234.20   13.15
   3  -3  -1  229.49   14.95
   3  -3  -1  241.45   12.91
   3  -3  -1  231.21   13.94
  -3   3   1  227.37   13.93
  -3   3   1  247.18   12.96
   2  -3  -1   19.17    1.13
   2  -3  -1   16.56    1.24
   2  -3  -1   18.46    1.19
  -2   3   1   18.63    1.28
  -2   3   1   19.31    1.23
  -2   3   1   18.83    1.21
  -2   3   1   18.66    1.16
  -2   3   1   18.23    1.13
   1  -3  -1   19.28    1.17
   1  -3  -1   20.23    1.17
   1  -3  -1   21.11    1.22
   1  -3  -1   20.36    1.20
   1  -3  -1   17.37    1.33
  -1   3   1   19.67    1.19
  -1   3   1   19.25    1.17
  -1   3   1   20.64    1.23
  -1   3   1   17.53    1.31
  -1   3   1   20.97    1.34
  -1   3   1   20.72    1.23
   0  -3  -1    8.44    0.54
   0  -3  -1    7.98    0.55
   0  -3  -1    8.75    0.53
   0  -3  -1    8.32    0.64
   0   3   1    7.93    0.63
   0   3   1    8.79    0.53
   0   3   1    8.91    0.53
   0   3   1    8.56    0.65
   0   3   1    8.73    0.54
  -1  -3  -1  137.39    7.75
  -1  -3  -1  148.06    7.74
  -1  -3  -1  132.23    9.23
  -1  -3  -1  149.09    7.74
  -1  -3  -1  136.55    8.38
   1   3   1  136.06    8.38
   1   3   1  146.16    7.74
   1   3   1  144.62    7.68
   1   3   1  143.12    7.74
  -2  -3  -1    1.88    0.20
  -2  -3  -1    2.37    0.29
  -2  -3  -1    1.96    0.24
  -2  -3  -1    2.19    0.14
  -2  -3  -1    2.44    0.26
  -2  -3  -1    2.35    0.18
   2   3   1    2.09    0.26
   2   3   1    1.72    0.22
   2   3   1    2.08    0.19
   2   3   1    2.26    0.19
  -3  -3  -1    2.81    0.25
  -3  -3  -1    2.60    0.23
  -3  -3  -1    2.65    0.28
  -3  -3  -1    3.07    0.30
  -3  -3  -1    2.78    0.26
   3   3   1    3.04    0.25
   3   3   1    2.70    0.28
   3   3   1    2.59    0.33
   3   3   1    2.61    0.23
  -4  -3  -1   22.51    1.36
  -4  -3  -1   22.53    1.47
  -4  -3  -1   21.80    1.36
  -4  -3  -1   20.92    1.36
   4   3   1   21.46    1.34
   4   3   1   21.39    1.36
   4   3   1   23.06    1.37
   4   3   1   22.62    1.34
  -5  -3  -1    7.21    0.61
  -5  -3  -1    7.81    0.61
  -5  -3  -1    7.66    0.50
   5   3   1    6.98    0.59
   5   3   1    7.68    0.60
   5   3   1    7.73    0.59
  -6  -3  -1   16.20    1.16
  -6  -3  -1   17.56    1.03
  -6  -3  -1   17.22    1.18
   6   3   1   16.02    1.14
   6   3   1   16.50    1.14
  -7  -3  -1    0.66    0.30
  -7  -3  -1    1.02    0.31
   7   3   1    0.74    0.23
   7   3   1    0.80    0.27
  -8  -3  -1   40.47    2.53
  -8  -3  -1   39.65    2.54
   8   3   1   40.54    2.50
   8   3   1   38.91    2.49
  -9  -3  -1    4.32    0.68
  -9  -3  -1    6.67    0.81
   9   3   1    5.48    0.68
   9   3   1    3.60    0.65
   9   3   1    5.80    0.70
 -10  -3  -1    1.15    0.48
 -10  -3  -1    0.81    0.41
  10   3   1    0.43    0.31
  10   3   1    0.51    0.37
  10   3   1    0.68    0.32
 -11  -3  -1    1.09    0.52
 -11  -3  -1    0.17    0.29
  11   3   1   -0.20    0.32
  11   3   1   -0.05    0.29
  11   3   1    0.17    0.29
  11   3   1    0.58    0.36
 -12  -3  -1    8.00    1.11
 -12  -3  -1    9.63    1.16
  12   3   1   10.06    1.17
  12   3   1    6.20    1.06
  12   3   1   10.56    1.18
   9  -4  -1    0.90    0.36
   9  -4  -1    1.26    0.48
   9  -4  -1    0.86    0.50
  -9   4   1    0.50    0.48
   8  -4  -1    0.13    0.31
   8  -4  -1    0.25    0.34
   8  -4  -1   -0.34    0.25
  -8   4   1   -0.26    0.34
  -8   4   1   -0.66    0.24
   7  -4  -1    1.90    0.54
   7  -4  -1    1.74    0.45
   7  -4  -1    2.10    0.45
  -7   4   1    2.03    0.51
  -7   4   1    2.64    0.57
   6  -4  -1    0.67    0.37
   6  -4  -1    0.87    0.30
   6  -4  -1    1.34    0.38
  -6   4   1    1.09    0.34
  -6   4   1    0.45    0.34
   5  -4  -1    2.49    0.39
   5  -4  -1    2.05    0.51
   5  -4  -1    2.52    0.42
   5  -4  -1    2.28    0.25
  -5   4   1    2.23    0.44
  -5   4   1    2.22    0.48
   4  -4  -1    2.22    0.36
   4  -4  -1    1.98    0.32
   4  -4  -1    1.86    0.45
   4  -4  -1    1.44    0.21
  -4   4   1    1.76    0.41
  -4   4   1    1.68    0.35
   3  -4  -1    0.56    0.17
   3  -4  -1    1.26    0.23
   3  -4  -1    0.62    0.28
  -3   4   1    0.56    0.26
  -3   4   1    1.03    0.23
  -3   4   1    0.91    0.24
  -3   4   1    0.76    0.12
   2  -4  -1    2.63    0.29
   2  -4  -1    2.97    0.27
   2  -4  -1    2.36    0.31
   2  -4  -1    1.87    0.41
  -2   4   1    3.23    0.34
  -2   4   1    2.44    0.33
  -2   4   1    2.72    0.42
  -2   4   1    2.61    0.31
  -2   4   1    2.98    0.26
   1  -4  -1    1.54    0.23
   1  -4  -1    1.65    0.20
   1  -4  -1    1.47    0.14
   1  -4  -1    1.15    0.32
  -1   4   1    1.60    0.22
  -1   4   1    1.76    0.21
  -1   4   1    1.59    0.31
  -1   4   1    1.73    0.23
  -1   4   1    1.63    0.19
   0  -4  -1    0.77    0.15
   0  -4  -1    0.61    0.24
   0  -4  -1    0.50    0.11
   0  -4  -1    0.63    0.13
   0   4   1    0.24    0.09
   0   4   1    0.49    0.08
   0   4   1    0.53    0.11
   0   4   1    0.65    0.20
   0   4   1    0.49    0.15
  -1  -4  -1  214.86   11.87
  -1  -4  -1  200.82   14.13
  -1  -4  -1  229.38   11.85
   1   4   1  201.87   12.83
   1   4   1  220.57   11.86
   1   4   1  234.15   11.86
  -2  -4  -1   44.28    2.52
  -2  -4  -1   47.94    2.46
  -2  -4  -1   40.37    2.99
  -2  -4  -1   44.59    2.72
   2   4   1   45.22    2.47
   2   4   1   44.29    2.46
   2   4   1   40.73    2.70
  -3  -4  -1    8.01    0.58
  -3  -4  -1    8.04    0.52
  -3  -4  -1    8.29    0.55
  -3  -4  -1    8.40    0.60
  -3  -4  -1    8.39    0.47
  -3  -4  -1    7.19    0.64
   3   4   1    8.10    0.59
   3   4   1    7.68    0.54
   3   4   1    7.80    0.64
  -4  -4  -1    9.28    0.64
  -4  -4  -1    8.75    0.68
  -4  -4  -1    8.33    0.63
  -4  -4  -1    9.02    0.63
  -4  -4  -1    9.11    0.66
   4   4   1    9.77    0.67
   4   4   1    9.31    0.61
   4   4   1    8.36    0.63
   4   4   1    8.83    0.62
  -5  -4  -1   95.75    5.17
  -5  -4  -1   86.86    5.18
  -5  -4  -1   93.40    5.95
  -5  -4  -1   94.13    5.42
  -5  -4  -1   87.45    5.12
   5   4   1   90.82    5.25
   5   4   1   89.35    5.16
   5   4   1   89.42    5.14
   5   4   1   94.82    5.40
  -6  -4  -1    0.06    0.17
  -6  -4  -1    0.06    0.18
   6   4   1   -0.14    0.13
   6   4   1    0.22    0.19
   6   4   1    0.01    0.14
  -7  -4  -1    9.74    0.81
  -7  -4  -1    8.71    0.80
   7   4   1    8.93    0.75
   7   4   1    9.60    0.79
  -8  -4  -1   15.24    1.19
  -8  -4  -1   14.93    1.20
   8   4   1   15.68    1.17
   8   4   1   15.63    1.17
  -9  -4  -1    2.04    0.48
  -9  -4  -1    1.18    0.36
   9   4   1    1.71    0.40
   9   4   1    2.02    0.46
   9   4   1    1.02    0.38
 -10  -4  -1    1.10    0.39
 -10  -4  -1    2.76    0.58
  10   4   1    0.95    0.42
  10   4   1    1.24    0.37
  10   4   1    1.96    0.45
 -11  -4  -1    5.34    0.83
 -11  -4  -1    4.02    0.74
  11   4   1    5.86    0.78
  11   4   1    3.83    0.70
  11   4   1    3.67    0.72
 -12  -4  -1    5.07    0.90
  12   4   1    3.64    0.78
  12   4   1    5.41    0.89
  12   4   1    6.03    0.87
  12   4   1    7.07    0.95
   9  -5  -1    4.40    0.98
  -9   5   1    4.65    0.83
   8  -5  -1    4.05    0.66
   8  -5  -1    3.62    0.81
   8  -5  -1    3.49    0.77
  -8   5   1    4.39    0.78
  -8   5   1    4.09    0.76
   7  -5  -1    2.60    0.64
   7  -5  -1    1.65    0.54
   7  -5  -1    2.81    0.48
  -7   5   1    2.44    0.59
  -7   5   1    3.63    0.63
   6  -5  -1   48.58    3.77
   6  -5  -1   51.68    3.12
  -6   5   1   52.67    3.23
  -6   5   1   53.33    3.50
   5  -5  -1    2.18    0.38
   5  -5  -1    0.66    0.37
  -5   5   1    1.71    0.43
  -5   5   1    1.50    0.39
   4  -5  -1   20.38    1.81
   4  -5  -1   22.75    1.43
  -4   5   1   21.94    1.67
  -4   5   1   23.45    1.52
   3  -5  -1    0.66    0.34
   3  -5  -1    0.86    0.18
   3  -5  -1    0.71    0.19
  -3   5   1    1.13    0.28
  -3   5   1    0.34    0.28
  -3   5   1    0.78    0.12
  -3   5   1    0.94    0.23
   2  -5  -1   19.79    1.21
   2  -5  -1   19.61    1.25
   2  -5  -1   21.94    1.25
   2  -5  -1   16.46    1.57
  -2   5   1   19.10    1.28
  -2   5   1   19.00    1.44
  -2   5   1   19.61    1.33
  -2   5   1   19.32    1.26
  -2   5   1   19.29    1.23
   1  -5  -1    4.65    0.68
   1  -5  -1    5.68    0.41
   1  -5  -1    4.98    0.45
  -1   5   1    5.19    0.44
  -1   5   1    5.81    0.41
  -1   5   1    4.83    0.59
  -1   5   1    5.13    0.47
  -1   5   1    5.68    0.43
   0  -5  -1    7.11    0.55
   0  -5  -1    7.92    0.50
   0  -5  -1    6.39    0.71
   0   5   1    7.69    0.50
   0   5   1    7.01    0.49
   0   5   1    6.11    0.64
   0   5   1    7.71    0.63
   0   5   1    7.80    0.52
  -1  -5  -1    1.37    0.22
  -1  -5  -1    0.78    0.27
  -1  -5  -1    0.97    0.23
  -1  -5  -1    1.51    0.18
   1   5   1    1.83    0.19
   1   5   1    1.48    0.28
   1   5   1    1.40    0.18
  -2  -5  -1   43.07    3.26
  -2  -5  -1   50.10    2.64
  -2  -5  -1   47.31    2.73
   2   5   1   48.54    2.65
   2   5   1   45.52    2.95
   2   5   1   47.58    2.57
   2   5   1   47.47    2.65
  -3  -5  -1    2.38    0.37
  -3  -5  -1    2.51    0.32
  -3  -5  -1    2.33    0.21
   3   5   1    2.53    0.25
   3   5   1    2.09    0.24
   3   5   1    2.26    0.30
  -4  -5  -1   19.01    1.06
  -4  -5  -1   19.66    1.17
  -4  -5  -1   18.64    1.20
  -4  -5  -1   20.12    1.22
  -4  -5  -1   18.73    1.38
   4   5   1   18.62    1.23
   4   5   1   17.79    1.15
   4   5   1   18.72    1.16
  -5  -5  -1   42.29    2.59
  -5  -5  -1   40.57    2.55
  -5  -5  -1   45.41    2.94
  -5  -5  -1   46.73    2.57
   5   5   1   45.01    2.64
   5   5   1   41.74    2.54
   5   5   1   42.96    2.56
   5   5   1   44.45    2.65
  -6  -5  -1    4.72    0.56
  -6  -5  -1    6.00    0.52
  -6  -5  -1    4.63    0.53
   6   5   1    4.55    0.43
   6   5   1    4.61    0.51
   6   5   1    5.67    0.58
   6   5   1    5.05    0.36
   6   5   1    4.89    0.56
  -7  -5  -1   11.88    0.85
  -7  -5  -1   10.50    0.89
  -7  -5  -1   12.77    0.92
   7   5   1   12.01    0.93
   7   5   1    9.89    0.86
   7   5   1   11.05    0.87
  -8  -5  -1    0.17    0.25
  -8  -5  -1    0.11    0.27
  -8  -5  -1    0.46    0.22
   8   5   1    0.14    0.20
   8   5   1   -0.18    0.21
   8   5   1    0.20    0.25
  -9  -5  -1   12.26    1.04
  -9  -5  -1   12.77    1.02
   9   5   1   11.14    0.98
   9   5   1   10.59    0.94
   9   5   1    7.68    0.89
 -10  -5  -1    4.20    0.65
 -10  -5  -1    2.20    0.58
  10   5   1    2.56    0.50
  10   5   1    3.03    0.57
  10   5   1    3.13    0.61
 -11  -5  -1   -0.15    0.38
  11   5   1   -0.02    0.26
  11   5   1    0.27    0.29
  11   5   1    0.37    0.34
 -12  -5  -1    0.46    0.51
 -12  -5  -1    0.13    0.35
  12   5   1    0.22    0.37
  12   5   1   -0.36    0.40
   8  -6  -1    0.61    0.47
   8  -6  -1   -0.48    0.39
  -8   6   1    0.29    0.47
  -8   6   1    1.30    0.54
   7  -6  -1    0.17    0.45
   7  -6  -1    0.27    0.43
  -7   6   1    0.06    0.36
  -7   6   1    0.51    0.39
   6  -6  -1    2.38    0.65
   6  -6  -1    2.41    0.46
   6  -6  -1    2.34    0.60
  -6   6   1    3.32    0.62
  -6   6   1    2.25    0.61
   5  -6  -1    0.51    0.25
   5  -6  -1    0.83    0.40
   5  -6  -1    0.76    0.39
  -5   6   1    0.75    0.34
  -5   6   1    1.23    0.47
   4  -6  -1    0.61    0.42
   4  -6  -1    0.12    0.18
  -4   6   1    0.62    0.36
  -4   6   1    0.28    0.24
   3  -6  -1    5.55    0.84
   3  -6  -1    6.26    0.52
   3  -6  -1    6.11    0.47
  -3   6   1    4.78    0.70
  -3   6   1    4.73    0.58
   2  -6  -1   46.32    3.84
   2  -6  -1   54.38    3.11
   2  -6  -1   53.63    3.17
  -2   6   1   56.22    3.15
  -2   6   1   51.64    3.53
  -2   6   1   55.69    3.54
  -2   6   1   58.11    3.18
  -2   6   1   55.45    3.31
   1  -6  -1    4.02    0.36
   1  -6  -1    4.58    0.59
   1  -6  -1    3.63    0.64
   1  -6  -1    4.59    0.50
  -1   6   1    4.14    0.36
  -1   6   1    4.86    0.39
  -1   6   1    3.91    0.42
  -1   6   1    3.57    0.56
  -1   6   1    4.56    0.44
   0  -6  -1   10.09    0.91
   0  -6  -1   12.79    0.76
   0  -6  -1   11.47    0.84
   0  -6  -1   12.01    1.10
   0   6   1   11.91    0.77
   0   6   1   12.33    0.78
   0   6   1   12.61    0.77
   0   6   1   12.09    0.95
   0   6   1   10.39    0.95
  -1  -6  -1    0.42    0.29
  -1  -6  -1    0.15    0.13
  -1  -6  -1    0.12    0.13
   1   6   1    0.02    0.06
   1   6   1   -0.20    0.17
   1   6   1   -0.03    0.07
   1   6   1    0.03    0.10
  -2  -6  -1  105.67    5.80
  -2  -6  -1  107.99    5.69
  -2  -6  -1   96.11    6.92
   2   6   1   96.52    6.27
   2   6   1  110.72    5.71
   2   6   1   99.59    5.70
   2   6   1  105.65    5.61
  -3  -6  -1   39.64    2.81
  -3  -6  -1   40.30    2.31
  -3  -6  -1   41.66    2.36
   3   6   1   38.23    2.25
   3   6   1   40.58    2.25
   3   6   1   37.71    2.51
  -4  -6  -1    1.77    0.34
  -4  -6  -1    1.55    0.30
  -4  -6  -1    1.70    0.28
   4   6   1    1.39    0.22
   4   6   1    1.39    0.25
   4   6   1    1.61    0.23
  -5  -6  -1   47.77    2.55
  -5  -6  -1   43.74    2.99
  -5  -6  -1   43.54    2.59
  -5  -6  -1   43.18    2.39
  -5  -6  -1   41.51    2.59
   5   6   1   44.75    2.55
   5   6   1   42.80    2.65
   5   6   1   41.38    2.53
   5   6   1   43.48    2.68
  -6  -6  -1    1.05    0.24
  -6  -6  -1    0.79    0.24
  -6  -6  -1    1.26    0.31
  -6  -6  -1    1.03    0.26
  -6  -6  -1    0.82    0.15
   6   6   1    1.14    0.27
   6   6   1    1.32    0.19
   6   6   1    0.75    0.23
   6   6   1    0.89    0.25
  -7  -6  -1   28.97    1.84
  -7  -6  -1   28.77    1.91
  -7  -6  -1   33.31    1.88
   7   6   1   27.60    1.83
   7   6   1   26.94    1.89
  -8  -6  -1    0.00    0.27
  -8  -6  -1    0.19    0.25
  -8  -6  -1   -0.15    0.20
   8   6   1    0.00    0.20
   8   6   1    0.07    0.21
  -9  -6  -1    0.22    0.33
  -9  -6  -1    0.33    0.29
  -9  -6  -1    0.40    0.24
   9   6   1    0.44    0.33
   9   6   1    0.31    0.27
 -10  -6  -1   -0.21    0.20
 -10  -6  -1   -0.15    0.25
  10   6   1    0.01    0.24
  10   6   1    0.06    0.31
 -11  -6  -1   -0.15    0.31
 -11  -6  -1    0.42    0.45
  11   6   1    1.46    0.47
  11   6   1    0.49    0.42
 -12  -6  -1    0.08    0.34
 -12  -6  -1   -0.96    0.34
  12   6   1    0.34    0.45
  12   6   1    0.20    0.40
   7  -7  -1    0.34    0.51
   7  -7  -1    0.39    0.51
  -7   7   1    0.46    0.45
  -7   7   1    0.74    0.42
   6  -7  -1    0.51    0.48
   6  -7  -1   -0.27    0.35
  -6   7   1    0.86    0.50
  -6   7   1   -0.26    0.31
   5  -7  -1    8.18    1.18
   5  -7  -1   10.23    1.36
  -5   7   1   11.82    1.00
  -5   7   1   10.14    1.24
   4  -7  -1    0.39    0.38
   4  -7  -1   -0.06    0.16
   4  -7  -1   -0.15    0.32
  -4   7   1    0.14    0.26
  -4   7   1   -0.03    0.32
   3  -7  -1    0.68    0.39
   3  -7  -1    0.20    0.32
   3  -7  -1    2.17    0.33
  -3   7   1    0.65    0.34
  -3   7   1    1.41    0.34
   2  -7  -1    1.05    0.22
   2  -7  -1    0.39    0.28
   2  -7  -1    0.85    0.26
   2  -7  -1    0.71    0.39
  -2   7   1    0.88    0.40
  -2   7   1    0.76    0.24
  -2   7   1    0.76    0.18
   1  -7  -1    9.58    1.04
   1  -7  -1   11.10    0.69
   1  -7  -1    9.83    0.76
   1  -7  -1    9.36    0.89
  -1   7   1    9.19    0.67
  -1   7   1   10.31    0.71
  -1   7   1    8.67    0.71
  -1   7   1    9.98    0.97
  -1   7   1    9.49    0.80
   0  -7  -1    0.45    0.15
   0  -7  -1    0.41    0.19
   0  -7  -1   -0.06    0.22
   0  -7  -1    0.11    0.21
   0   7   1    0.50    0.25
   0   7   1    0.84    0.19
   0   7   1    0.28    0.16
   0   7   1    0.63    0.14
  -1  -7  -1   10.34    0.87
  -1  -7  -1   11.27    0.84
  -1  -7  -1   10.49    1.11
   1   7   1   11.99    0.75
   1   7   1   12.45    0.79
   1   7   1   12.00    0.99
   1   7   1   11.64    0.76
  -2  -7  -1   48.65    2.54
  -2  -7  -1   44.22    2.85
  -2  -7  -1   46.30    3.28
  -2  -7  -1   42.12    2.67
   2   7   1   43.41    2.56
   2   7   1   43.06    2.92
   2   7   1   45.46    2.47
   2   7   1   47.17    2.56
  -3  -7  -1   14.22    0.97
  -3  -7  -1   14.22    0.81
  -3  -7  -1   13.92    0.90
  -3  -7  -1   12.30    1.17
   3   7   1   12.61    0.84
   3   7   1   14.25    0.84
   3   7   1   11.36    1.01
  -4  -7  -1    0.43    0.18
  -4  -7  -1    0.40    0.12
  -4  -7  -1    0.38    0.24
  -4  -7  -1    0.55    0.21
   4   7   1    0.08    0.19
   4   7   1    0.11    0.11
  -5  -7  -1    2.21    0.36
  -5  -7  -1    2.21    0.41
  -5  -7  -1    2.04    0.37
   5   7   1    2.41    0.31
   5   7   1    2.14    0.31
   5   7   1    2.34    0.34
  -6  -7  -1   21.97    1.49
  -6  -7  -1   22.05    1.64
  -6  -7  -1   24.68    1.42
  -6  -7  -1   20.54    1.46
   6   7   1   23.07    1.43
   6   7   1   20.98    1.51
   6   7   1   21.73    1.44
  -7  -7  -1    4.30    0.52
  -7  -7  -1    4.04    0.58
  -7  -7  -1    5.03    0.62
  -7  -7  -1    5.63    0.52
   7   7   1    4.58    0.39
   7   7   1    5.44    0.58
   7   7   1    5.23    0.63
  -8  -7  -1    0.96    0.37
  -8  -7  -1    1.19    0.36
   8   7   1    0.75    0.30
   8   7   1    0.24    0.23
  -9  -7  -1    4.12    0.67
  -9  -7  -1    4.09    0.63
   9   7   1    4.72    0.70
   9   7   1    4.78    0.62
 -10  -7  -1    2.06    0.50
 -10  -7  -1    1.77    0.53
  10   7   1    1.50    0.46
  10   7   1    1.89    0.49
 -11  -7  -1    0.12    0.33
 -11  -7  -1    0.13    0.40
  11   7   1   -0.34    0.22
  11   7   1    0.66    0.37
 -12  -7  -1    0.78    0.47
 -12  -7  -1    0.89    0.44
  12   7   1    1.00    0.48
  12   7   1    0.68    0.53
   6  -8  -1   -0.10    0.44
   6  -8  -1    0.19    0.44
  -6   8   1   -0.19    0.41
  -6   8   1   -0.15    0.34
   5  -8  -1    1.04    0.56
   5  -8  -1    0.60    0.45
  -5   8   1    0.57    0.37
  -5   8   1    1.47    0.59
   4  -8  -1   -0.72    0.25
   4  -8  -1    0.20    0.37
  -4   8   1    0.10    0.40
  -4   8   1    0.03    0.23
   3  -8  -1    0.30    0.29
   3  -8  -1    0.86    0.53
  -3   8   1    1.23    0.44
  -3   8   1    0.62    0.30
   2  -8  -1   10.50    1.10
   2  -8  -1   11.20    1.45
   2  -8  -1   11.74    0.97
  -2   8   1   11.37    1.29
  -2   8   1   14.49    0.95
   1  -8  -1    2.74    0.36
   1  -8  -1    3.03    0.46
   1  -8  -1    2.53    0.64
   1  -8  -1    2.52    0.49
  -1   8   1    2.81    0.60
  -1   8   1    2.36    0.36
   0  -8  -1    5.82    0.62
   0  -8  -1    4.64    0.60
   0  -8  -1    4.82    0.84
   0   8   1    3.71    0.63
   0   8   1    4.94    0.43
   0   8   1    4.02    0.37
  -1  -8  -1    7.39    0.48
  -1  -8  -1    6.24    0.70
  -1  -8  -1    6.73    0.96
  -1  -8  -1    6.64    0.61
   1   8   1    7.07    0.86
   1   8   1    6.98    0.53
   1   8   1    6.34    0.52
  -2  -8  -1    0.31    0.20
  -2  -8  -1    0.57    0.38
  -2  -8  -1    0.21    0.08
  -2  -8  -1    0.14    0.13
  -2  -8  -1    0.02    0.14
   2   8   1    0.01    0.11
   2   8   1    0.27    0.05
   2   8   1    0.17    0.27
   2   8   1    0.15    0.13
  -3  -8  -1   38.21    2.32
  -3  -8  -1   39.51    2.43
  -3  -8  -1   38.50    2.94
   3   8   1   39.62    2.63
   3   8   1   41.49    2.26
   3   8   1   39.70    2.27
  -4  -8  -1    4.22    0.48
  -4  -8  -1    3.88    0.52
  -4  -8  -1    3.52    0.62
   4   8   1    4.32    0.36
   4   8   1    3.68    0.52
  -5  -8  -1    4.57    0.65
  -5  -8  -1    4.82    0.54
  -5  -8  -1    5.12    0.60
   5   8   1    4.10    0.52
   5   8   1    4.11    0.44
  -6  -8  -1    1.22    0.35
  -6  -8  -1    0.89    0.32
  -6  -8  -1    0.92    0.27
   6   8   1    1.02    0.30
   6   8   1    0.97    0.25
   6   8   1    1.28    0.26
  -7  -8  -1    1.13    0.32
  -7  -8  -1    1.91    0.37
  -7  -8  -1    1.24    0.36
   7   8   1    1.32    0.37
   7   8   1    1.08    0.28
  -8  -8  -1   -0.20    0.24
  -8  -8  -1   -0.16    0.19
   8   8   1   -0.26    0.21
   8   8   1    0.51    0.32
  -9  -8  -1    0.53    0.37
  -9  -8  -1    0.32    0.33
   9   8   1    0.52    0.38
   9   8   1    0.20    0.24
 -10  -8  -1    6.30    0.85
 -10  -8  -1    6.79    0.93
  10   8   1    7.32    0.96
  10   8   1    8.74    0.92
 -11  -8  -1    0.50    0.39
 -11  -8  -1    0.26    0.37
  11   8   1    0.26    0.43
  11   8   1    1.36    0.44
   5  -9  -1    0.59    0.54
   5  -9  -1    0.55    0.59
  -5   9   1    1.79    0.48
  -5   9   1    1.03    0.60
   4  -9  -1   -0.29    0.30
   4  -9  -1    0.21    0.42
  -4   9   1    1.02    0.57
  -4   9   1    0.56    0.31
   3  -9  -1    3.11    0.72
   3  -9  -1    3.72    0.90
  -3   9   1    3.97    0.57
  -3   9   1    2.90    0.68
   2  -9  -1    1.44    0.61
   2  -9  -1    2.20    0.55
  -2   9   1    1.80    0.36
  -2   9   1    2.40    0.64
   1  -9  -1    0.24    0.23
   1  -9  -1    0.01    0.43
   1  -9  -1    0.99    0.37
  -1   9   1    0.16    0.20
  -1   9   1    0.52    0.42
   0  -9  -1    7.54    1.19
   0  -9  -1    8.95    0.81
   0  -9  -1    9.28    0.86
   0   9   1    9.80    1.11
   0   9   1    8.89    0.68
  -1  -9  -1    4.00    0.78
  -1  -9  -1    3.91    0.50
  -1  -9  -1    4.19    0.58
   1   9   1    3.82    0.68
   1   9   1    3.67    0.40
  -2  -9  -1    0.55    0.24
  -2  -9  -1    1.31    0.51
   2   9   1    0.63    0.17
   2   9   1    0.33    0.15
   2   9   1    0.94    0.39
  -3  -9  -1    3.43    0.41
  -3  -9  -1    3.22    0.67
  -3  -9  -1    3.28    0.50
   3   9   1    3.61    0.36
   3   9   1    3.30    0.55
  -4  -9  -1    2.14    0.53
  -4  -9  -1    1.57    0.39
  -4  -9  -1    0.98    0.25
   4   9   1    1.42    0.36
  -5  -9  -1    0.96    0.29
  -5  -9  -1    1.17    0.31
  -5  -9  -1    0.56    0.33
   5   9   1    1.19    0.24
   5   9   1    0.95    0.30
  -6  -9  -1    0.89    0.36
  -6  -9  -1    1.24    0.30
  -6  -9  -1    1.17    0.41
   6   9   1    1.76    0.40
   6   9   1    1.57    0.29
   6   9   1    1.42    0.33
  -7  -9  -1    1.23    0.38
  -7  -9  -1    1.59    0.39
  -7  -9  -1    2.05    0.44
   7   9   1    2.15    0.47
   7   9   1    1.19    0.31
  -8  -9  -1    8.90    0.97
  -8  -9  -1    8.50    0.95
   8   9   1    8.58    0.78
   8   9   1    8.83    0.98
  -9  -9  -1    0.23    0.31
  -9  -9  -1    0.94    0.40
   9   9   1    0.92    0.34
   9   9   1    1.13    0.42
 -10  -9  -1    5.82    0.81
 -10  -9  -1    4.09    0.75
  10   9   1    4.52    0.77
  10   9   1    5.78    0.74
 -11  -9  -1    0.15    0.40
 -11  -9  -1    0.25    0.37
  11   9   1   -0.09    0.29
  11   9   1    0.30    0.33
   4 -10  -1   -0.13    0.42
   4 -10  -1   -0.03    0.53
  -4  10   1    0.10    0.43
  -4  10   1   -0.33    0.30
   3 -10  -1    0.32    0.55
   3 -10  -1    0.93    0.47
  -3  10   1   -0.21    0.40
  -3  10   1    0.03    0.30
   2 -10  -1    4.89    0.96
   2 -10  -1    3.20    0.71
  -2  10   1    3.37    0.77
  -2  10   1    5.62    0.65
   1 -10  -1    1.03    0.62
   1 -10  -1    1.60    0.40
   1 -10  -1    1.30    0.47
  -1  10   1    1.81    0.37
  -1  10   1    0.90    0.54
   0 -10  -1    1.37    0.40
   0 -10  -1    1.00    0.58
   0 -10  -1    0.73    0.30
   0  10   1    1.49    0.30
   0  10   1    0.92    0.41
  -1 -10  -1    0.74    0.53
  -1 -10  -1    1.32    0.38
   1  10   1    1.11    0.26
   1  10   1    1.03    0.45
  -2 -10  -1   -0.11    0.27
  -2 -10  -1    0.10    0.23
   2  10   1   -0.24    0.29
   2  10   1   -0.07    0.16
  -3 -10  -1    0.85    0.24
  -3 -10  -1    1.25    0.55
  -3 -10  -1    0.82    0.35
   3  10   1    0.72    0.40
   3  10   1    0.76    0.18
  -4 -10  -1   -0.02    0.20
  -4 -10  -1    0.13    0.40
  -4 -10  -1    0.14    0.18
   4  10   1    0.45    0.32
  -5 -10  -1   -0.26    0.16
  -5 -10  -1    0.14    0.29
  -5 -10  -1   -0.24    0.30
   5  10   1   -0.29    0.20
   5  10   1   -0.01    0.15
  -6 -10  -1   -0.37    0.24
  -6 -10  -1    0.20    0.21
  -6 -10  -1    0.57    0.36
   6  10   1    0.09    0.18
   6  10   1    0.12    0.24
   6  10   1    0.00    0.25
  -7 -10  -1    2.22    0.53
  -7 -10  -1    1.71    0.47
  -7 -10  -1    3.04    0.51
   7  10   1    2.45    0.40
   7  10   1    2.70    0.58
  -8 -10  -1    0.38    0.27
  -8 -10  -1    1.02    0.41
   8  10   1    0.67    0.39
   8  10   1   -0.06    0.23
  -9 -10  -1   -0.23    0.27
  -9 -10  -1    0.38    0.35
   9  10   1    0.59    0.39
   9  10   1    0.01    0.26
 -10 -10  -1    0.88    0.43
 -10 -10  -1    0.37    0.40
  10  10   1    0.16    0.31
  10  10   1    0.90    0.40
   3 -11  -1    0.14    0.43
   3 -11  -1   -0.06    0.38
  -3  11   1    0.40    0.34
  -3  11   1    0.38    0.52
   2 -11  -1   -0.03    0.36
   2 -11  -1    0.21    0.52
  -2  11   1   -0.07    0.34
  -2  11   1   -0.08    0.26
   1 -11  -1    4.97    1.01
   1 -11  -1    3.46    0.65
  -1  11   1    6.14    1.00
  -1  11   1    5.38    0.60
   0 -11  -1    0.66    0.61
   0 -11  -1    0.29    0.37
   0  11   1    0.64    0.26
   0  11   1    1.05    0.49
  -1 -11  -1    6.64    0.85
  -1 -11  -1    5.77    1.07
   1  11   1    6.56    1.02
   1  11   1    8.32    0.62
  -2 -11  -1    0.17    0.24
  -2 -11  -1   -0.57    0.20
   2  11   1    0.14    0.38
   2  11   1    0.13    0.16
  -3 -11  -1    0.45    0.46
  -3 -11  -1    0.36    0.32
   3  11   1    0.65    0.40
   3  11   1    0.21    0.15
  -4 -11  -1    7.47    0.74
  -4 -11  -1    6.70    0.80
  -4 -11  -1    6.45    1.05
   4  11   1    5.67    0.49
   4  11   1    6.44    0.87
  -5 -11  -1   -0.06    0.22
  -5 -11  -1    0.31    0.24
  -5 -11  -1   -0.12    0.36
   5  11   1    0.16    0.17
   5  11   1    0.31    0.32
  -6 -11  -1    3.77    0.74
  -6 -11  -1    4.14    0.58
  -6 -11  -1    3.14    0.58
   6  11   1    4.50    0.47
   6  11   1    5.05    0.68
   6  11   1    4.97    0.74
  -7 -11  -1    5.68    0.82
  -7 -11  -1    4.47    0.64
  -7 -11  -1    3.67    0.67
   7  11   1    3.78    0.47
   7  11   1    3.66    0.65
  -8 -11  -1    3.12    0.61
  -8 -11  -1    4.51    0.73
   8  11   1    4.35    0.72
   8  11   1    4.48    0.54
  -9 -11  -1    0.68    0.44
  -9 -11  -1    1.86    0.52
   9  11   1    2.47    0.60
   9  11   1    1.45    0.37
 -10 -11  -1    1.16    0.42
  10  11   1    0.64    0.49
   1 -12  -1    2.16    0.87
  -1  12   1    3.05    0.46
  -1  12   1    3.59    0.83
   0 -12  -1    0.71    0.44
   0 -12  -1    0.57    0.51
   0  12   1   -0.50    0.39
  -1 -12  -1   -0.19    0.20
  -1 -12  -1    0.39    0.60
   1  12   1    0.32    0.48
  -2 -12  -1    1.03    0.46
  -2 -12  -1    1.46    0.69
   2  12   1    1.64    0.59
  -3 -12  -1    0.34    0.51
  -3 -12  -1   -0.26    0.30
   3  12   1   -0.50    0.38
  -4 -12  -1    0.66    0.32
  -4 -12  -1    0.81    0.58
   4  12   1    0.11    0.35
  -5 -12  -1    0.74    0.51
  -5 -12  -1    0.91    0.38
   5  12   1    1.23    0.49
  -6 -12  -1    1.14    0.38
  -6 -12  -1    1.16    0.51
  -6 -12  -1    0.25    0.40
   6  12   1    1.03    0.45
  -7 -12  -1    1.70    0.55
  -7 -12  -1    0.84    0.35
  -7 -12  -1    0.79    0.46
   7  12   1    0.74    0.35
  -8 -12  -1    0.59    0.45
  -8 -12  -1    0.10    0.33
   8  12   1    1.02    0.47
  -2 -13  -1   -0.14    0.34
  -2 -13  -1   -0.52    0.44
   2  13   1   -0.29    0.43
  -3 -13  -1    1.28    0.47
  -3 -13  -1    1.77    0.66
   3  13   1    2.17    0.68
  -4 -13  -1    1.40    0.67
  -4 -13  -1    0.62    0.36
   4  13   1    0.72    0.46
  -5 -13  -1    1.61    0.66
  -5 -13  -1    1.59    0.51
  -6 -13  -1    0.94    0.53
  -6 -13  -1   -0.20    0.35
   6  13   1    0.67    0.42
   6  12  -2   -0.50    0.30
  -6 -12   2   -0.14    0.31
  -6 -12   2   -0.35    0.26
  -6 -12   2   -0.91    0.37
   5  12  -2    2.12    0.59
  -5 -12   2    1.47    0.52
  -5 -12   2    1.83    0.69
  -5 -12   2    1.92    0.46
   4  12  -2    4.79    0.78
  -4 -12   2    4.25    0.97
  -4 -12   2    4.72    0.69
  -4 -12   2    5.19    0.82
   3  12  -2    0.13    0.37
  -3 -12   2    0.57    0.39
  -3 -12   2    0.12    0.28
  -3 -12   2   -0.12    0.45
   2  12  -2    2.21    0.62
  -2 -12   2    1.27    0.68
  -2 -12   2    0.75    0.43
   1  12  -2    2.04    0.64
  -1 -12   2    0.54    0.61
  -1 -12   2    1.08    0.48
   0  12  -2    0.93    0.50
   0 -12   2    1.77    0.54
   0 -12   2    2.23    0.85
   7  11  -2    1.49    0.52
  -7 -11   2    1.54    0.48
  -7 -11   2    2.00    0.48
   6  11  -2    0.32    0.37
  -6 -11   2   -0.69    0.32
  -6 -11   2   -0.20    0.28
  -6 -11   2   -0.12    0.33
   5  11  -2    1.81    0.50
  -5 -11   2    0.88    0.37
  -5 -11   2    1.19    0.55
  -5 -11   2    2.63    0.54
   4  11  -2   -0.02    0.32
   4  11  -2    0.40    0.33
  -4 -11   2   -0.15    0.41
  -4 -11   2   -0.29    0.21
  -4 -11   2   -0.43    0.29
   3  11  -2   -0.03    0.29
  -3 -11   2    0.05    0.33
  -3 -11   2    0.09    0.24
  -3 -11   2    0.28    0.52
   2  11  -2   -0.48    0.30
  -2 -11   2   -0.07    0.28
  -2 -11   2   -0.04    0.29
  -2 -11   2   -0.18    0.24
   1  11  -2   -0.03    0.36
  -1 -11   2    0.79    0.58
  -1 -11   2    0.84    0.42
   0  11  -2    0.86    0.53
   0 -11   2    1.20    0.41
   0 -11   2    1.89    0.76
  -1  11  -2    0.92    0.55
   1 -11   2    1.43    0.60
  -2  11  -2    1.02    0.60
   2 -11   2    2.05    0.79
  -3  11  -2    9.38    1.36
   3 -11   2    8.49    1.42
   3 -11   2    7.43    1.07
   9  10  -2    3.47    0.73
  -9 -10   2    2.28    0.58
  -9 -10   2    2.31    0.64
   8  10  -2   13.13    1.44
  -8 -10   2   15.33    1.29
  -8 -10   2   17.26    1.37
   7  10  -2    2.89    0.63
  -7 -10   2    3.26    0.61
  -7 -10   2    2.61    0.59
   6  10  -2    1.06    0.39
  -6 -10   2    0.41    0.40
  -6 -10   2    0.16    0.33
  -6 -10   2    0.16    0.34
   5  10  -2   -0.19    0.29
  -5 -10   2   -0.34    0.22
  -5 -10   2    0.14    0.29
  -5 -10   2   -0.29    0.33
   4  10  -2   10.55    0.99
   4  10  -2   10.53    1.09
  -4 -10   2   12.19    1.24
  -4 -10   2   10.94    0.97
  -4 -10   2    9.23    0.88
   3  10  -2    7.46    0.93
  -3 -10   2    7.36    1.08
  -3 -10   2    6.53    0.74
  -3 -10   2    6.87    0.83
   2  10  -2    1.08    0.44
   2  10  -2    0.62    0.23
  -2 -10   2    0.32    0.25
  -2 -10   2    0.60    0.49
  -2 -10   2    0.19    0.23
   1  10  -2    3.41    0.70
  -1 -10   2    1.54    0.34
  -1 -10   2    1.49    0.44
  -1 -10   2    2.21    0.63
   0  10  -2    0.27    0.38
   0 -10   2    0.34    0.49
   0 -10   2    0.59    0.29
  -1  10  -2    0.73    0.47
   1 -10   2   -0.27    0.29
   1 -10   2   -0.30    0.26
   1 -10   2    0.68    0.32
  -2  10  -2    0.84    0.54
  -2  10  -2    1.53    0.30
   2 -10   2    1.42    0.66
   2 -10   2    1.82    0.54
  -3  10  -2    2.91    0.45
  -3  10  -2    2.07    0.63
   3 -10   2    1.78    0.68
   3 -10   2    3.61    0.73
  -4  10  -2    1.95    0.43
  -4  10  -2    2.75    0.78
   4 -10   2    1.17    0.57
   4 -10   2    1.88    0.62
   9   9  -2    0.66    0.30
   9   9  -2   -0.23    0.37
  -9  -9   2    1.15    0.46
  -9  -9   2    0.69    0.37
   8   9  -2    0.11    0.28
   8   9  -2    0.08    0.21
  -8  -9   2    0.11    0.38
  -8  -9   2    0.10    0.30
   7   9  -2    1.18    0.45
   7   9  -2    1.18    0.26
  -7  -9   2    1.46    0.44
  -7  -9   2    0.95    0.40
   6   9  -2    0.33    0.32
   6   9  -2    0.20    0.13
  -6  -9   2    0.01    0.20
  -6  -9   2    0.30    0.31
  -6  -9   2    0.27    0.36
   5   9  -2   -0.06    0.19
   5   9  -2    0.39    0.28
  -5  -9   2    0.08    0.30
  -5  -9   2    0.09    0.28
  -5  -9   2   -0.19    0.24
   4   9  -2    2.92    0.49
   4   9  -2    2.68    0.46
  -4  -9   2    2.52    0.45
  -4  -9   2    2.19    0.46
  -4  -9   2    3.30    0.63
   3   9  -2    3.50    0.58
  -3  -9   2    3.98    0.50
  -3  -9   2    2.18    0.43
   2   9  -2    0.50    0.23
   2   9  -2    0.54    0.34
  -2  -9   2    1.13    0.30
  -2  -9   2    0.72    0.40
  -2  -9   2    0.62    0.31
   1   9  -2    1.09    0.46
   1   9  -2    1.36    0.31
  -1  -9   2    1.69    0.34
  -1  -9   2    0.64    0.28
  -1  -9   2    1.31    0.55
   0   9  -2    5.17    0.62
   0   9  -2    4.43    0.75
   0   9  -2    5.16    0.37
   0  -9   2    4.74    0.67
   0  -9   2    5.55    0.60
   0  -9   2    4.50    0.86
   0  -9   2    5.11    0.65
  -1   9  -2    6.68    0.97
  -1   9  -2    6.26    0.51
   1  -9   2    8.28    0.79
   1  -9   2    6.78    1.09
   1  -9   2    5.88    0.77
  -2   9  -2    0.07    0.16
  -2   9  -2    0.02    0.25
   2  -9   2   -0.59    0.40
   2  -9   2   -0.02    0.31
  -3   9  -2    0.71    0.47
  -3   9  -2    0.32    0.23
   3  -9   2    0.04    0.36
   3  -9   2   -0.21    0.31
  -4   9  -2    2.75    0.68
  -4   9  -2    2.35    0.46
   4  -9   2    2.60    0.75
   4  -9   2    3.17    0.73
  -5   9  -2    1.77    0.64
  -5   9  -2    0.68    0.38
   5  -9   2    0.72    0.55
   5  -9   2    0.15    0.37
  -6   9  -2    1.13    0.45
  -6   9  -2    0.60    0.60
   6  -9   2    1.32    0.67
   6  -9   2    1.58    0.70
  10   8  -2    0.15    0.33
  10   8  -2    0.66    0.43
  10   8  -2    0.64    0.36
 -10  -8   2    0.42    0.38
 -10  -8   2    0.04    0.32
   9   8  -2    0.57    0.46
   9   8  -2    1.23    0.37
  -9  -8   2    0.51    0.43
  -9  -8   2    0.79    0.38
   8   8  -2    1.99    0.38
   8   8  -2    2.19    0.56
  -8  -8   2    1.81    0.51
  -8  -8   2    2.26    0.48
   7   8  -2    9.55    0.70
   7   8  -2    6.69    0.90
  -7  -8   2    9.51    0.99
  -7  -8   2    8.04    0.88
   6   8  -2    3.05    0.57
   6   8  -2    2.99    0.35
  -6  -8   2    3.42    0.56
  -6  -8   2    2.64    0.50
   5   8  -2    2.03    0.43
   5   8  -2    1.39    0.20
   5   8  -2    1.29    0.29
  -5  -8   2    1.44    0.39
  -5  -8   2    1.78    0.42
  -5  -8   2    1.31    0.42
   4   8  -2    0.49    0.22
   4   8  -2    1.06    0.12
   4   8  -2    1.37    0.35
  -4  -8   2    0.94    0.29
  -4  -8   2    1.51    0.36
  -4  -8   2    0.89    0.36
   3   8  -2    6.88    0.79
  -3  -8   2    6.86    0.63
  -3  -8   2    5.93    0.70
  -3  -8   2    8.22    0.98
   2   8  -2   11.32    1.02
  -2  -8   2   10.10    0.83
  -2  -8   2   10.75    1.12
  -2  -8   2   10.85    0.88
  -2  -8   2   12.69    0.85
   1   8  -2    0.37    0.29
   1   8  -2    0.55    0.21
  -1  -8   2    0.27    0.19
  -1  -8   2    0.37    0.31
  -1  -8   2    0.63    0.29
  -1  -8   2    0.51    0.21
   0   8  -2   19.40    1.33
   0   8  -2   18.39    1.06
   0   8  -2   15.92    1.43
   0  -8   2   17.75    1.21
   0  -8   2   18.23    1.68
   0  -8   2   17.08    1.28
   0  -8   2   18.71    1.37
  -1   8  -2   -0.06    0.18
  -1   8  -2    0.20    0.14
  -1   8  -2    0.32    0.27
   1  -8   2    0.10    0.27
   1  -8   2    0.09    0.17
   1  -8   2    0.20    0.25
   1  -8   2   -0.08    0.26
  -2   8  -2    4.73    0.74
  -2   8  -2    4.09    0.45
  -2   8  -2    3.68    0.53
   2  -8   2    4.01    0.69
   2  -8   2    3.68    0.78
  -3   8  -2    0.07    0.20
  -3   8  -2   -0.04    0.22
  -3   8  -2    0.24    0.36
   3  -8   2   -0.19    0.24
   3  -8   2    0.11    0.33
  -4   8  -2    6.36    0.99
  -4   8  -2    8.36    0.74
   4  -8   2    7.18    1.05
   4  -8   2    8.07    1.21
  -5   8  -2    7.57    1.10
  -5   8  -2    8.83    0.92
   5  -8   2    8.48    1.23
   5  -8   2    8.21    1.22
  -6   8  -2    0.15    0.44
  -6   8  -2    0.52    0.37
   6  -8   2    0.49    0.52
   6  -8   2    0.21    0.48
  -7   8  -2    0.04    0.35
  -7   8  -2    0.73    0.53
   7  -8   2    0.18    0.55
   7  -8   2    0.40    0.47
  10   7  -2    0.77    0.53
  10   7  -2    1.08    0.52
  10   7  -2    1.02    0.40
 -10  -7   2    1.05    0.41
 -10  -7   2    0.98    0.51
   9   7  -2    0.57    0.35
   9   7  -2    0.65    0.35
  -9  -7   2    0.23    0.32
  -9  -7   2    1.13    0.46
   8   7  -2    0.84    0.43
   8   7  -2    1.07    0.31
  -8  -7   2    1.43    0.40
  -8  -7   2    1.11    0.37
   7   7  -2   13.28    1.18
   7   7  -2   16.38    1.07
  -7  -7   2   14.62    1.13
  -7  -7   2   15.10    1.21
   6   7  -2    0.18    0.16
   6   7  -2    0.20    0.25
  -6  -7   2    0.26    0.26
  -6  -7   2    0.13    0.25
   5   7  -2    0.01    0.13
   5   7  -2    0.02    0.16
   5   7  -2    0.16    0.13
  -5  -7   2    0.36    0.27
  -5  -7   2   -0.02    0.16
  -5  -7   2    0.11    0.22
   4   7  -2    0.20    0.23
   4   7  -2    0.20    0.09
   4   7  -2    0.03    0.16
   4   7  -2    0.06    0.09
  -4  -7   2    0.34    0.23
  -4  -7   2   -0.20    0.17
  -4  -7   2   -0.11    0.21
   3   7  -2   22.14    1.62
   3   7  -2   24.04    1.29
   3   7  -2   23.22    1.29
   3   7  -2   21.25    1.53
  -3  -7   2   24.20    1.52
  -3  -7   2   24.45    1.86
  -3  -7   2   22.95    1.51
   2   7  -2    5.05    0.65
  -2  -7   2    4.48    0.56
  -2  -7   2    5.90    0.53
  -2  -7   2    6.33    0.49
  -2  -7   2    5.77    0.80
   1   7  -2    5.09    0.35
   1   7  -2    4.86    0.55
   1   7  -2    4.84    0.66
  -1  -7   2    4.22    0.54
  -1  -7   2    4.73    0.52
  -1  -7   2    5.47    0.49
  -1  -7   2    5.45    0.77
   0   7  -2    2.11    0.19
   0   7  -2    1.80    0.20
   0   7  -2    1.47    0.38
   0   7  -2    1.58    0.30
   0  -7   2    2.09    0.50
   0  -7   2    2.10    0.38
   0  -7   2    2.12    0.37
   0  -7   2    1.88    0.32
  -1   7  -2   23.89    1.87
  -1   7  -2   25.73    1.73
  -1   7  -2   24.77    1.55
  -1   7  -2   27.29    1.52
   1  -7   2   25.40    1.85
   1  -7   2   28.75    2.17
   1  -7   2   25.52    1.66
   1  -7   2   24.01    1.58
  -2   7  -2    3.79    0.35
  -2   7  -2    3.24    0.48
  -2   7  -2    4.71    0.68
  -2   7  -2    3.39    0.40
   2  -7   2    3.24    0.50
   2  -7   2    4.41    0.79
   2  -7   2    4.18    0.64
  -3   7  -2    7.53    0.98
  -3   7  -2    6.62    0.76
  -3   7  -2    7.53    0.63
   3  -7   2    7.95    1.08
   3  -7   2    7.90    1.00
  -4   7  -2    6.60    0.94
  -4   7  -2    6.14    0.76
  -4   7  -2    7.82    0.76
   4  -7   2    7.00    0.97
   4  -7   2    6.17    1.00
  -5   7  -2    1.27    0.38
  -5   7  -2    1.73    0.55
   5  -7   2    0.53    0.48
   5  -7   2    0.71    0.52
  -6   7  -2    0.13    0.30
  -6   7  -2    0.16    0.36
   6  -7   2    0.07    0.45
   6  -7   2    0.23    0.34
  -7   7  -2    1.54    0.51
  -7   7  -2    0.61    0.40
   7  -7   2    1.74    0.66
   7  -7   2    1.52    0.56
  -8   7  -2    2.35    0.69
  -8   7  -2    1.23    0.50
   8  -7   2    1.38    0.60
   8  -7   2    0.56    0.53
  11   6  -2    2.94    0.74
  11   6  -2    3.85    0.67
  11   6  -2    2.94    0.79
 -11  -6   2    3.45    0.78
 -11  -6   2    5.68    0.80
  10   6  -2    0.20    0.43
  10   6  -2    2.05    0.47
  10   6  -2    1.57    0.54
 -10  -6   2    1.44    0.44
 -10  -6   2    1.29    0.49
   9   6  -2    0.60    0.32
   9   6  -2    1.12    0.41
  -9  -6   2    1.49    0.42
  -9  -6   2    1.31    0.42
   8   6  -2    1.09    0.41
   8   6  -2    0.47    0.25
  -8  -6   2    0.20    0.26
  -8  -6   2    1.11    0.38
  -8  -6   2    0.50    0.24
   7   6  -2    2.10    0.37
   7   6  -2    2.59    0.50
  -7  -6   2    2.69    0.44
  -7  -6   2    2.58    0.33
  -7  -6   2    2.28    0.49
   6   6  -2    3.09    0.39
   6   6  -2    3.13    0.50
  -6  -6   2    3.08    0.46
  -6  -6   2    3.69    0.34
  -6  -6   2    2.89    0.51
   5   6  -2    1.43    0.22
   5   6  -2    1.95    0.40
   5   6  -2    1.73    0.25
  -5  -6   2    1.92    0.20
  -5  -6   2    1.84    0.20
  -5  -6   2    2.44    0.38
  -5  -6   2    1.87    0.35
   4   6  -2    1.26    0.30
   4   6  -2    0.87    0.16
   4   6  -2    1.30    0.24
   4   6  -2    1.07    0.19
  -4  -6   2    0.89    0.26
  -4  -6   2    0.43    0.20
  -4  -6   2    1.09    0.32
  -4  -6   2    0.76    0.10
   3   6  -2   11.96    0.88
   3   6  -2   10.98    0.69
   3   6  -2   11.54    0.68
   3   6  -2   10.20    0.86
  -3  -6   2   11.48    0.84
  -3  -6   2   11.85    1.03
  -3  -6   2   12.61    0.85
  -2  -6   2    7.09    0.58
  -2  -6   2    7.17    0.60
  -2  -6   2    7.28    0.56
  -2  -6   2    7.20    0.74
   1   6  -2    2.88    0.23
  -1  -6   2    3.48    0.39
  -1  -6   2    3.07    0.53
  -1  -6   2    3.36    0.39
  -1  -6   2    2.75    0.38
   0   6  -2    8.89    0.69
   0   6  -2    8.11    0.57
   0   6  -2    8.34    0.51
   0   6  -2    8.21    0.52
   0  -6   2    8.58    0.68
   0  -6   2    8.35    0.70
   0  -6   2    8.04    0.86
   0  -6   2    8.49    0.63
  -1   6  -2   11.55    0.73
  -1   6  -2   11.95    0.87
  -1   6  -2   10.93    0.73
   1  -6   2   10.81    0.94
   1  -6   2   12.03    0.80
   1  -6   2   10.94    0.85
   1  -6   2   11.39    1.10
  -2   6  -2   -0.13    0.12
  -2   6  -2   -0.01    0.12
  -2   6  -2   -0.05    0.15
  -2   6  -2    0.17    0.10
   2  -6   2    0.06    0.18
   2  -6   2   -0.27    0.17
   2  -6   2    0.07    0.14
  -3   6  -2   -0.19    0.16
  -3   6  -2   -0.04    0.17
   3  -6   2   -0.14    0.19
   3  -6   2    0.21    0.13
   3  -6   2    0.08    0.30
  -4   6  -2    2.70    0.42
  -4   6  -2    2.65    0.48
   4  -6   2    3.22    0.67
   4  -6   2    4.09    0.70
   4  -6   2    2.49    0.33
  -5   6  -2   19.93    1.56
  -5   6  -2   20.78    1.45
  -5   6  -2   20.28    1.69
   5  -6   2   20.05    1.77
   5  -6   2   22.40    1.86
  -6   6  -2    0.53    0.32
  -6   6  -2    0.36    0.31
  -6   6  -2    0.51    0.36
   6  -6   2   -0.10    0.34
   6  -6   2    0.36    0.43
  -7   6  -2    0.90    0.46
  -7   6  -2   -0.54    0.25
   7  -6   2    0.21    0.43
   7  -6   2    0.48    0.38
  -8   6  -2    0.10    0.38
  -8   6  -2    0.23    0.38
   8  -6   2    0.40    0.43
   8  -6   2    0.60    0.55
  -9   6  -2    1.92    0.66
   9  -6   2    0.62    0.59
   9  -6   2    2.70    0.69
  11   5  -2   -0.03    0.50
  11   5  -2    0.47    0.38
  11   5  -2    0.75    0.42
 -11  -5   2    0.13    0.45
  10   5  -2   -0.51    0.26
  10   5  -2    1.14    0.41
  10   5  -2    0.21    0.36
 -10  -5   2    0.04    0.30
 -10  -5   2    0.58    0.35
   9   5  -2    1.02    0.39
   9   5  -2    1.39    0.40
   9   5  -2    1.41    0.49
  -9  -5   2    1.16    0.45
  -9  -5   2    2.40    0.45
   8   5  -2    0.04    0.31
   8   5  -2   -0.03    0.20
  -8  -5   2   -0.17    0.29
  -8  -5   2    0.66    0.27
   7   5  -2   13.86    0.96
   7   5  -2   11.25    1.00
  -7  -5   2   12.03    0.87
  -7  -5   2   12.10    1.01
  -7  -5   2   14.09    0.96
  -7  -5   2   11.55    0.92
   6   5  -2    2.97    0.39
   6   5  -2    1.83    0.39
  -6  -5   2    3.05    0.42
  -6  -5   2    3.10    0.38
  -6  -5   2    2.24    0.45
  -6  -5   2    2.35    0.31
   5   5  -2   -0.11    0.14
   5   5  -2    0.05    0.07
   5   5  -2   -0.06    0.12
   5   5  -2    0.05    0.15
  -5  -5   2    0.07    0.17
  -5  -5   2    0.09    0.12
  -5  -5   2    0.11    0.10
  -5  -5   2   -0.08    0.18
   4   5  -2    6.70    0.63
   4   5  -2    7.39    0.52
   4   5  -2    7.18    0.55
   4   5  -2    6.88    0.54
  -4  -5   2    6.83    0.62
  -4  -5   2    7.66    0.60
  -4  -5   2    8.64    0.72
  -4  -5   2    7.52    0.49
   3   5  -2   11.17    0.83
   3   5  -2   11.82    0.70
   3   5  -2   11.43    0.84
   3   5  -2   10.96    0.72
  -3  -5   2   11.54    0.68
  -3  -5   2   11.34    0.80
  -3  -5   2   12.10    0.98
  -3  -5   2   12.08    0.84
   2   5  -2    5.17    0.32
   2   5  -2    5.54    0.32
  -2  -5   2    5.14    0.45
  -2  -5   2    4.53    0.43
  -2  -5   2    5.58    0.43
  -2  -5   2    5.67    0.59
   1   5  -2    5.05    0.35
  -1  -5   2    5.91    0.45
  -1  -5   2    5.38    0.45
  -1  -5   2    5.50    0.46
  -1  -5   2    4.85    0.63
   0   5  -2    2.26    0.25
   0   5  -2    2.79    0.20
   0   5  -2    2.22    0.19
   0   5  -2    3.11    0.36
   0  -5   2    3.01    0.48
   0  -5   2    2.62    0.33
   0  -5   2    3.73    0.36
   0  -5   2    2.87    0.36
  -1   5  -2   20.10    1.29
  -1   5  -2   21.42    1.34
  -1   5  -2   22.01    1.47
  -1   5  -2   21.60    1.30
   1  -5   2   23.24    1.23
   1  -5   2   21.46    1.72
   1  -5   2   21.61    1.35
   1  -5   2   20.36    1.55
   1  -5   2   24.28    1.25
   1  -5   2   22.42    1.39
  -2   5  -2    2.94    0.39
  -2   5  -2    2.85    0.27
  -2   5  -2    3.11    0.34
  -2   5  -2    3.45    0.36
   2  -5   2    2.96    0.40
   2  -5   2    2.73    0.54
   2  -5   2    3.12    0.50
  -3   5  -2    9.01    0.81
  -3   5  -2   10.12    0.73
  -3   5  -2   10.15    0.75
   3  -5   2   10.10    1.02
   3  -5   2    9.47    0.93
   3  -5   2   10.63    0.69
  -4   5  -2    3.02    0.46
  -4   5  -2    2.28    0.42
  -4   5  -2    2.59    0.40
   4  -5   2    3.14    0.37
   4  -5   2    2.24    0.50
   4  -5   2    2.92    0.55
  -5   5  -2    3.30    0.53
  -5   5  -2    3.40    0.50
   5  -5   2    2.72    0.57
   5  -5   2    3.44    0.68
   5  -5   2    3.54    0.43
  -6   5  -2    3.64    0.67
  -6   5  -2    2.89    0.50
  -6   5  -2    4.15    0.64
   6  -5   2    2.46    0.62
   6  -5   2    4.61    0.54
   6  -5   2    4.68    0.78
  -7   5  -2    0.89    0.34
  -7   5  -2    1.65    0.48
  -7   5  -2    0.27    0.37
   7  -5   2    1.71    0.52
   7  -5   2    1.26    0.49
   7  -5   2    1.68    0.39
  -8   5  -2    0.74    0.43
  -8   5  -2    1.11    0.45
  -8   5  -2    0.25    0.42
   8  -5   2    1.25    0.59
   8  -5   2    1.31    0.47
  -9   5  -2    1.56    0.54
  -9   5  -2    2.17    0.61
   9  -5   2    1.09    0.57
   9  -5   2    0.84    0.47
  11   4  -2    0.83    0.47
  11   4  -2    0.52    0.50
  11   4  -2    1.23    0.49
 -11  -4   2   -0.02    0.43
  10   4  -2    0.13    0.34
  10   4  -2   -0.05    0.33
  10   4  -2   -0.31    0.38
 -10  -4   2   -0.06    0.30
 -10  -4   2    0.00    0.26
   9   4  -2    3.96    0.72
   9   4  -2    4.51    0.69
   9   4  -2    4.76    0.64
  -9  -4   2    3.24    0.64
  -9  -4   2    4.20    0.58
   8   4  -2    0.94    0.34
   8   4  -2    0.91    0.33
   8   4  -2    0.71    0.30
  -8  -4   2    0.45    0.26
  -8  -4   2    1.22    0.36
  -8  -4   2    0.87    0.29
   7   4  -2   11.87    0.92
   7   4  -2   12.24    1.02
  -7  -4   2   10.29    0.98
  -7  -4   2   12.46    0.96
  -7  -4   2   12.40    0.89
   6   4  -2    0.43    0.22
   6   4  -2    0.38    0.20
   6   4  -2    0.12    0.17
  -6  -4   2    0.07    0.18
  -6  -4   2    0.15    0.24
  -6  -4   2   -0.18    0.14
   5   4  -2    4.86    0.57
   5   4  -2    5.56    0.48
   5   4  -2    5.71    0.58
  -5  -4   2    5.68    0.48
  -5  -4   2    5.32    0.48
  -5  -4   2    6.35    0.65
   4   4  -2   11.29    0.78
   4   4  -2   11.52    0.75
   4   4  -2   11.14    0.84
   4   4  -2    9.95    0.73
  -4  -4   2   12.75    0.75
  -4  -4   2   11.23    0.72
  -4  -4   2   12.15    0.79
  -4  -4   2   12.06    0.85
   3   4  -2    7.46    0.54
   3   4  -2    7.14    0.52
   3   4  -2    8.74    0.64
  -3  -4   2    9.05    0.71
  -3  -4   2    8.27    0.51
  -3  -4   2    8.17    0.58
  -3  -4   2    7.46    0.60
   2   4  -2   47.82    2.74
   2   4  -2   49.78    2.73
   2   4  -2   49.09    2.89
  -2  -4   2   53.39    2.86
  -2  -4   2   50.05    3.37
  -2  -4   2   48.69    2.82
  -2  -4   2   48.24    2.73
   1   4  -2    4.38    0.28
  -1  -4   2    3.70    0.34
  -1  -4   2    3.88    0.34
  -1  -4   2    4.01    0.34
  -1  -4   2    4.11    0.52
   0   4  -2    1.84    0.20
   0   4  -2    2.00    0.26
   0   4  -2    1.80    0.15
   0   4  -2    1.82    0.14
   0  -4   2    2.05    0.28
   0  -4   2    1.91    0.35
   0  -4   2    1.95    0.25
  -1   4  -2    3.17    0.28
  -1   4  -2    3.61    0.35
  -1   4  -2    3.34    0.31
  -1   4  -2    3.16    0.27
   1  -4   2    4.09    0.53
   1  -4   2    3.46    0.24
   1  -4   2    4.08    0.26
   1  -4   2    3.89    0.34
   1  -4   2    3.85    0.45
  -2   4  -2   22.80    1.51
  -2   4  -2   21.61    1.35
  -2   4  -2   22.87    1.37
  -2   4  -2   23.62    1.49
  -2   4  -2   22.14    1.39
   2  -4   2   21.51    1.72
   2  -4   2   23.90    1.32
   2  -4   2   21.24    1.61
  -3   4  -2   -0.09    0.10
  -3   4  -2    0.03    0.14
  -3   4  -2    0.20    0.17
   3  -4   2   -0.07    0.13
   3  -4   2   -0.05    0.09
   3  -4   2   -0.31    0.18
  -4   4  -2   14.68    1.05
  -4   4  -2   15.48    1.05
  -4   4  -2   13.52    1.14
   4  -4   2   15.19    1.28
   4  -4   2   15.45    1.00
   4  -4   2   16.80    1.33
  -5   4  -2   -0.65    0.14
  -5   4  -2    0.26    0.27
   5  -4   2    0.12    0.16
   5  -4   2    0.20    0.29
   5  -4   2    0.27    0.25
  -6   4  -2    0.24    0.25
  -6   4  -2   -0.17    0.27
   6  -4   2   -0.04    0.32
   6  -4   2   -0.01    0.17
   6  -4   2    0.00    0.26
  -7   4  -2    0.01    0.32
  -7   4  -2    0.13    0.34
  -7   4  -2   -0.02    0.29
   7  -4   2   -0.26    0.33
   7  -4   2    0.10    0.29
   7  -4   2    0.23    0.24
  -8   4  -2    0.18    0.26
  -8   4  -2    0.56    0.43
  -8   4  -2    0.91    0.41
   8  -4   2    0.53    0.37
   8  -4   2    0.70    0.33
   8  -4   2    0.90    0.44
  -9   4  -2    0.25    0.36
  -9   4  -2    0.01    0.39
   9  -4   2   -0.17    0.46
   9  -4   2    0.06    0.31
 -10   4  -2    0.25    0.47
 -10   4  -2    0.93    0.47
  10  -4   2   -0.61    0.37
  11   3  -2    2.52    0.62
  11   3  -2    2.25    0.65
  11   3  -2    4.32    0.73
 -11  -3   2    2.24    0.62
  10   3  -2    1.33    0.46
  10   3  -2    0.90    0.44
  10   3  -2    1.93    0.58
 -10  -3   2    1.10    0.42
   9   3  -2    0.77    0.44
   9   3  -2    1.93    0.45
   9   3  -2    1.65    0.47
  -9  -3   2    2.01    0.52
  -9  -3   2    1.19    0.42
   8   3  -2    6.64    0.85
   8   3  -2    7.01    0.75
   8   3  -2    4.79    0.72
  -8  -3   2    5.65    0.74
  -8  -3   2    6.64    0.77
   7   3  -2    1.37    0.37
   7   3  -2    2.21    0.44
   7   3  -2    1.77    0.37
  -7  -3   2    1.45    0.35
  -7  -3   2    2.31    0.46
   6   3  -2    0.23    0.21
   6   3  -2    0.31    0.21
  -6  -3   2    0.25    0.21
  -6  -3   2   -0.01    0.15
  -6  -3   2    0.69    0.21
   5   3  -2    1.06    0.25
   5   3  -2    1.11    0.25
   5   3  -2    0.68    0.20
  -5  -3   2    0.98    0.28
  -5  -3   2    1.05    0.23
  -5  -3   2    1.22    0.24
   4   3  -2    5.38    0.48
   4   3  -2    5.69    0.45
   4   3  -2    4.93    0.48
  -4  -3   2    5.73    0.44
  -4  -3   2    6.51    0.47
  -4  -3   2    5.69    0.49
   3   3  -2    5.08    0.38
   3   3  -2    5.00    0.40
   3   3  -2    5.40    0.45
  -3  -3   2    4.88    0.37
  -3  -3   2    5.18    0.38
  -3  -3   2    5.73    0.46
  -3  -3   2    4.81    0.39
  -3  -3   2    5.17    0.37
   2   3  -2    4.24    0.32
   2   3  -2    4.40    0.30
   2   3  -2    4.60    0.38
  -2  -3   2    4.02    0.28
  -2  -3   2    4.39    0.34
  -2  -3   2    4.48    0.31
  -2  -3   2    4.81    0.39
  -2  -3   2    4.25    0.43
   1   3  -2    1.11    0.09
   1   3  -2    1.43    0.14
   1   3  -2    1.13    0.09
  -1  -3   2    0.96    0.13
  -1  -3   2    0.79    0.21
  -1  -3   2    1.00    0.17
  -1  -3   2    1.35    0.18
   0   3  -2    0.51    0.07
   0   3  -2    0.63    0.11
   0  -3   2    0.61    0.19
   0  -3   2    0.41    0.12
   0  -3   2    0.53    0.12
  -1   3  -2    5.68    0.40
  -1   3  -2    5.99    0.39
  -1   3  -2    6.18    0.48
  -1   3  -2    5.63    0.45
  -1   3  -2    6.33    0.43
   1  -3   2    6.08    0.38
   1  -3   2    5.44    0.43
   1  -3   2    5.79    0.56
   1  -3   2    6.65    0.52
  -2   3  -2    3.96    0.36
  -2   3  -2    4.69    0.43
  -2   3  -2    4.84    0.37
  -2   3  -2    4.76    0.34
  -2   3  -2    4.12    0.36
   2  -3   2    5.26    0.39
   2  -3   2    5.24    0.50
   2  -3   2    5.20    0.43
   2  -3   2    4.79    0.34
   2  -3   2    3.98    0.54
  -3   3  -2   45.04    2.99
  -3   3  -2   46.94    2.76
  -3   3  -2   49.05    2.76
  -3   3  -2   48.28    2.75
   3  -3   2   49.13    3.32
   3  -3   2   46.79    3.18
   3  -3   2   48.33    2.71
  -4   3  -2    4.40    0.55
  -4   3  -2    4.55    0.49
  -4   3  -2    4.83    0.50
   4  -3   2    4.90    0.42
   4  -3   2    4.36    0.60
   4  -3   2    3.98    0.60
  -5   3  -2   14.16    1.10
  -5   3  -2   12.14    0.97
   5  -3   2   11.68    1.11
   5  -3   2   12.64    1.14
   5  -3   2   14.11    0.95
   5  -3   2   14.16    0.93
  -6   3  -2    7.00    0.73
  -6   3  -2    5.91    0.76
   6  -3   2    6.60    0.66
   6  -3   2    5.79    0.86
   6  -3   2    5.97    0.78
   6  -3   2    6.50    0.66
  -7   3  -2    4.56    0.65
  -7   3  -2    4.09    0.70
   7  -3   2    4.70    0.82
   7  -3   2    4.68    0.59
   7  -3   2    5.56    0.63
   7  -3   2    4.83    0.70
  -8   3  -2    0.41    0.28
  -8   3  -2    1.04    0.40
  -8   3  -2    0.81    0.44
   8  -3   2    0.60    0.30
   8  -3   2    0.94    0.45
   8  -3   2    0.85    0.29
   8  -3   2    0.83    0.36
  -9   3  -2    1.74    0.48
  -9   3  -2    1.80    0.56
   9  -3   2    1.72    0.45
   9  -3   2    1.98    0.47
   9  -3   2    1.73    0.65
 -10   3  -2    0.50    0.42
 -10   3  -2    0.60    0.38
  10  -3   2    0.07    0.36
  10  -3   2    0.61    0.60
  10  -3   2    0.37    0.34
  11  -3   2    0.80    0.39
  11  -3   2    0.02    0.52
  11   2  -2   -0.16    0.29
  11   2  -2    0.24    0.33
  11   2  -2   -0.32    0.36
 -11  -2   2   -0.44    0.36
  10   2  -2   -0.48    0.31
  10   2  -2    0.00    0.30
  10   2  -2    0.00    0.26
 -10  -2   2    0.03    0.35
 -10  -2   2    0.32    0.44
   9   2  -2    3.65    0.62
   9   2  -2    3.73    0.64
   9   2  -2    3.98    0.70
  -9  -2   2    3.83    0.67
  -9  -2   2    3.76    0.65
   8   2  -2    4.48    0.64
   8   2  -2    4.44    0.70
   8   2  -2    6.96    0.81
  -8  -2   2    5.77    0.73
  -8  -2   2    4.85    0.68
   7   2  -2   23.15    1.75
   7   2  -2   25.50    1.96
   7   2  -2   27.33    1.73
  -7  -2   2   28.49    1.78
  -7  -2   2   26.01    1.76
   6   2  -2    3.43    0.53
   6   2  -2    3.96    0.53
   6   2  -2    3.76    0.48
  -6  -2   2    4.17    0.52
  -6  -2   2    4.24    0.55
   5   2  -2    1.51    0.29
   5   2  -2    1.12    0.24
  -5  -2   2    1.28    0.28
  -5  -2   2    1.22    0.27
   4   2  -2    7.15    0.58
   4   2  -2    7.64    0.61
   4   2  -2    8.50    0.64
  -4  -2   2    8.17    0.60
  -4  -2   2    8.73    0.63
   3   2  -2   69.82    3.97
   3   2  -2   68.27    4.18
   3   2  -2   70.73    4.00
   3   2  -2   72.51    4.08
  -3  -2   2   75.63    4.03
  -3  -2   2   71.49    3.94
  -3  -2   2   71.04    3.98
   2   2  -2   31.34    1.74
   2   2  -2   29.72    1.79
   2   2  -2   31.22    1.72
  -2  -2   2   30.64    1.72
  -2  -2   2   30.93    1.72
  -2  -2   2   31.65    1.72
  -2  -2   2   29.05    1.79
  -2  -2   2   28.04    1.71
   1   2  -2   60.85    3.34
   1   2  -2   57.65    3.33
   1   2  -2   61.72    3.33
   1   2  -2   62.58    3.44
  -1  -2   2   64.91    4.03
  -1  -2   2   61.72    3.36
  -1  -2   2   60.33    3.34
  -1  -2   2   56.61    3.32
  -1  -2   2   60.82    3.79
   0   2  -2    0.68    0.07
   0   2  -2    0.76    0.08
   0   2  -2    0.78    0.11
   0   2  -2    0.78    0.13
   0  -2   2    0.64    0.05
   0  -2   2    0.69    0.05
   0  -2   2    0.59    0.16
   0  -2   2    0.76    0.14
   0  -2   2    0.64    0.10
   0  -2   2    0.96    0.13
  -1   2  -2    6.14    0.42
  -1   2  -2    6.71    0.48
  -1   2  -2    6.34    0.42
  -1   2  -2    7.33    0.51
  -1   2  -2    6.89    0.45
   1  -2   2    5.95    0.56
   1  -2   2    6.59    0.45
   1  -2   2    6.51    0.52
   1  -2   2    6.98    0.42
  -2   2  -2   63.17    3.99
  -2   2  -2   64.22    3.66
  -2   2  -2   67.66    4.19
  -2   2  -2   67.56    3.70
  -2   2  -2   62.87    3.67
   2  -2   2   74.27    4.01
   2  -2   2   70.34    3.68
   2  -2   2   62.67    4.37
   2  -2   2   61.77    3.64
   2  -2   2   62.38    4.18
  -3   2  -2    0.33    0.13
  -3   2  -2    0.32    0.11
  -3   2  -2    0.26    0.13
  -3   2  -2    0.60    0.19
   3  -2   2    0.33    0.17
   3  -2   2    0.21    0.11
   3  -2   2    0.32    0.12
   3  -2   2    0.04    0.16
  -4   2  -2  119.71    6.77
  -4   2  -2  119.43    7.34
  -4   2  -2  119.95    6.75
  -4   2  -2  125.79    6.81
   4  -2   2  119.30    7.97
   4  -2   2  116.76    7.67
   4  -2   2  122.16    6.73
   4  -2   2  124.55    6.82
  -5   2  -2    2.97    0.41
  -5   2  -2    3.55    0.50
   5  -2   2    3.50    0.55
   5  -2   2    3.26    0.38
   5  -2   2    3.14    0.46
   5  -2   2    3.36    0.41
  -6   2  -2   21.31    1.58
  -6   2  -2   19.15    1.39
   6  -2   2   19.36    1.55
   6  -2   2   20.80    1.37
   6  -2   2   21.40    1.35
   6  -2   2   20.19    1.63
  -7   2  -2    0.07    0.26
  -7   2  -2    0.18    0.32
   7  -2   2   -0.05    0.20
   7  -2   2   -0.09    0.31
   7  -2   2    0.18    0.18
   7  -2   2    0.19    0.22
  -8   2  -2    2.04    0.51
  -8   2  -2    1.84    0.53
   8  -2   2    2.64    0.49
   8  -2   2    1.28    0.47
   8  -2   2    1.88    0.41
   8  -2   2    1.89    0.41
  -9   2  -2    0.20    0.28
  -9   2  -2    0.35    0.28
   9  -2   2   -0.10    0.22
   9  -2   2    0.49    0.32
   9  -2   2    0.33    0.43
 -10   2  -2    2.11    0.53
 -10   2  -2    1.83    0.60
  10  -2   2    0.54    0.52
  10  -2   2    3.39    0.64
  10  -2   2    2.10    0.50
 -11   2  -2    0.49    0.47
 -11   2  -2   -0.03    0.36
  11  -2   2    0.38    0.41
  11  -2   2    1.04    0.46
  11  -2   2    0.02    0.51
  11   1  -2    1.81    0.65
  11   1  -2    1.03    0.52
 -11  -1   2    0.54    0.42
 -11  -1   2    0.73    0.60
  10   1  -2    2.32    0.61
  10   1  -2    3.19    0.63
  10   1  -2    2.14    0.52
 -10  -1   2    2.58    0.58
 -10  -1   2    2.32    0.64
   9   1  -2    0.43    0.33
   9   1  -2    0.68    0.32
   9   1  -2    0.62    0.36
  -9  -1   2    0.56    0.39
  -9  -1   2    1.18    0.41
   8   1  -2    5.44    0.71
   8   1  -2    6.06    0.74
   8   1  -2    5.32    0.73
  -8  -1   2    5.03    0.71
  -8  -1   2    4.97    0.65
   7   1  -2    4.24    0.58
   7   1  -2    4.00    0.55
   7   1  -2    4.23    0.57
  -7  -1   2    4.05    0.29
  -7  -1   2    3.56    0.55
  -7  -1   2    4.75    0.59
   6   1  -2    3.40    0.46
   6   1  -2    3.17    0.48
   6   1  -2    3.52    0.48
  -6  -1   2    4.06    0.51
  -6  -1   2    3.53    0.50
  -6  -1   2    3.62    0.27
   5   1  -2    7.62    0.60
   5   1  -2    6.93    0.64
   5   1  -2    6.65    0.66
  -5  -1   2    8.51    0.66
  -5  -1   2    7.38    0.62
  -5  -1   2    7.01    0.47
   4   1  -2    0.66    0.16
   4   1  -2    0.46    0.18
   4   1  -2    0.39    0.19
   4   1  -2    0.80    0.19
  -4  -1   2    0.33    0.16
  -4  -1   2    0.44    0.08
  -4  -1   2    0.73    0.19
   3   1  -2    5.12    0.44
   3   1  -2    4.91    0.46
   3   1  -2    4.56    0.41
   3   1  -2    5.41    0.41
   3   1  -2    5.16    0.35
  -3  -1   2    5.77    0.42
  -3  -1   2    4.80    0.33
   2   1  -2    6.59    0.44
   2   1  -2    5.88    0.45
   2   1  -2    6.91    0.45
   2   1  -2    6.75    0.54
   2   1  -2    7.08    0.49
  -2  -1   2    6.95    0.48
  -2  -1   2    7.05    0.42
  -2  -1   2    6.86    0.46
  -2  -1   2    6.14    0.44
   1   1  -2    1.23    0.13
   1   1  -2    1.32    0.14
   1   1  -2    1.20    0.14
   1   1  -2    0.98    0.17
   1   1  -2    1.31    0.15
  -1  -1   2    1.35    0.12
  -1  -1   2    1.09    0.14
  -1  -1   2    1.42    0.13
  -1  -1   2    1.43    0.13
  -1  -1   2    1.19    0.15
   0   1  -2    5.33    0.32
   0   1  -2    5.35    0.41
   0   1  -2    5.69    0.35
   0   1  -2    5.41    0.33
   0   1  -2    5.54    0.34
   0  -1   2    4.99    0.34
   0  -1   2    5.13    0.41
   0  -1   2    4.99    0.33
   0  -1   2    5.32    0.32
   0  -1   2    4.96    0.39
   0  -1   2    5.56    0.43
  -1   1  -2   48.33    2.88
  -1   1  -2   52.63    3.15
  -1   1  -2   53.30    3.35
  -1   1  -2   48.81    2.88
  -1   1  -2   53.11    2.89
   1  -1   2   53.14    2.88
   1  -1   2   53.88    3.44
   1  -1   2   49.83    3.27
   1  -1   2   48.56    2.89
   1  -1   2   58.78    3.16
   1  -1   2   55.90    3.36
   1  -1   2   50.14    2.88
  -2   1  -2    1.17    0.12
  -2   1  -2    0.88    0.16
  -2   1  -2    0.69    0.10
  -2   1  -2    0.62    0.13
  -2   1  -2    0.88    0.15
   2  -1   2    0.86    0.16
   2  -1   2    0.90    0.17
   2  -1   2    0.70    0.13
   2  -1   2    0.79    0.10
   2  -1   2    0.94    0.11
   2  -1   2    0.97    0.18
   2  -1   2    0.75    0.14
  -3   1  -2   96.44    5.33
  -3   1  -2   89.51    5.30
  -3   1  -2   91.35    5.29
  -3   1  -2   90.09    5.75
   3  -1   2   94.41    6.23
   3  -1   2  103.24    5.33
   3  -1   2   93.51    5.28
   3  -1   2   84.64    5.98
   3  -1   2  102.38    5.76
   3  -1   2   97.70    5.33
   3  -1   2  101.69    6.06
  -4   1  -2    0.47    0.19
  -4   1  -2    0.22    0.16
  -4   1  -2    0.48    0.13
  -4   1  -2    0.52    0.16
   4  -1   2    0.24    0.15
   4  -1   2    0.49    0.21
   4  -1   2    0.25    0.09
   4  -1   2    0.90    0.16
   4  -1   2    0.14    0.14
  -5   1  -2   23.94    1.52
  -5   1  -2   24.76    1.67
   5  -1   2   23.20    1.57
   5  -1   2   23.42    1.47
   5  -1   2   22.35    1.66
   5  -1   2   22.43    1.70
   5  -1   2   23.51    1.44
  -6   1  -2   -0.02    0.15
  -6   1  -2   -0.08    0.24
   6  -1   2   -0.06    0.09
   6  -1   2   -0.01    0.15
   6  -1   2    0.16    0.20
   6  -1   2   -0.12    0.21
   6  -1   2    0.08    0.15
  -7   1  -2    7.87    0.79
  -7   1  -2    6.99    0.86
   7  -1   2    6.04    0.64
   7  -1   2    7.48    0.54
   7  -1   2    5.29    0.80
   7  -1   2    5.91    0.68
   7  -1   2    5.76    0.63
  -8   1  -2    0.04    0.26
  -8   1  -2    0.40    0.31
   8  -1   2   -0.26    0.20
   8  -1   2    0.06    0.12
   8  -1   2    0.09    0.20
   8  -1   2    0.56    0.23
   8  -1   2    0.25    0.35
  -9   1  -2    0.96    0.32
  -9   1  -2    0.76    0.40
   9  -1   2    0.96    0.43
   9  -1   2    1.42    0.38
   9  -1   2    0.53    0.35
 -10   1  -2    0.88    0.42
 -10   1  -2    0.80    0.32
  10  -1   2    0.45    0.35
  10  -1   2   -0.05    0.28
  10  -1   2    0.28    0.35
 -11   1  -2    1.14    0.48
 -11   1  -2    1.39    0.53
  11  -1   2    1.20    0.60
  11  -1   2    1.35    0.50
  11  -1   2    0.88    0.45
  11   0  -2    0.30    0.34
  11   0  -2    1.40    0.58
 -11   0   2    0.43    0.43
 -11   0   2    0.27    0.39
  10   0  -2    0.80    0.45
  10   0  -2    0.29    0.46
 -10   0   2    1.23    0.47
 -10   0   2    0.05    0.37
   9   0  -2   -0.17    0.23
   9   0  -2    0.74    0.37
   9   0  -2   -0.09    0.25
  -9   0   2   -0.25    0.25
  -9   0   2   -0.51    0.27
   8   0  -2    0.95    0.30
   8   0  -2    0.96    0.36
   8   0  -2    0.17    0.34
  -8   0   2    0.56    0.30
  -8   0   2    0.79    0.33
   7   0  -2    0.54    0.27
   7   0  -2    0.52    0.31
   7   0  -2    0.63    0.24
  -7   0   2    0.37    0.18
  -7   0   2    0.17    0.21
  -7   0   2    0.09    0.23
   6   0  -2    0.45    0.23
   6   0  -2    0.45    0.21
   6   0  -2    0.75    0.24
  -6   0   2    0.46    0.17
  -6   0   2    0.25    0.26
  -6   0   2    0.43    0.20
   5   0  -2    2.95    0.41
   5   0  -2    2.84    0.39
   5   0  -2    3.25    0.42
  -5   0   2    2.80    0.42
  -5   0   2    2.68    0.39
  -5   0   2    3.20    0.33
   4   0  -2   21.94    1.42
   4   0  -2   21.74    1.38
   4   0  -2   21.74    1.56
  -4   0   2   22.73    1.39
  -4   0   2   22.90    1.40
  -4   0   2   21.92    1.42
   3   0  -2   13.48    0.92
   3   0  -2   13.86    0.92
   3   0  -2   14.00    0.89
   3   0  -2   12.84    0.89
   3   0  -2   14.06    1.01
  -3   0   2   14.42    0.92
  -3   0   2   14.58    0.89
   2   0  -2    1.94    0.25
   2   0  -2    1.71    0.18
   2   0  -2    2.08    0.23
   2   0  -2    1.61    0.20
   2   0  -2    1.89    0.24
  -2   0   2    1.88    0.22
  -2   0   2    1.77    0.18
  -2   0   2    2.00    0.23
  -2   0   2    2.54    0.26
   1   0  -2   16.82    0.99
   1   0  -2   17.20    1.16
   1   0  -2   16.65    1.04
   1   0  -2   17.37    1.02
   1   0  -2   16.18    0.99
  -1   0   2   16.70    0.99
  -1   0   2   17.03    1.04
  -1   0   2   17.92    1.02
  -1   0   2   15.88    0.99
  -1   0   2   17.64    0.99
  -1   0   2   16.60    1.16
   0   0  -2  400.13   22.73
   0   0  -2  420.74   22.68
   0   0  -2  430.84   26.58
   0   0  -2  434.66   24.52
   0   0  -2  410.27   23.15
   0   0  -2  399.45   22.72
   0   0   2  413.85   24.50
   0   0   2  414.60   22.70
   0   0   2  399.56   22.76
   0   0   2  441.07   26.60
   0   0   2  444.73   22.76
   0   0   2  409.37   23.17
   0   0   2  417.39   25.64
  -1   0  -2    0.94    0.14
  -1   0  -2    0.93    0.12
  -1   0  -2    0.91    0.11
  -1   0  -2    1.21    0.14
  -1   0  -2    0.96    0.14
   1   0   2    0.78    0.12
   1   0   2    0.82    0.12
   1   0   2    1.27    0.16
   1   0   2    1.13    0.15
   1   0   2    1.26    0.13
   1   0   2    0.92    0.13
  -2   0  -2  262.79   14.86
  -2   0  -2  250.54   17.38
  -2   0  -2  263.62   14.94
  -2   0  -2  269.56   16.17
  -2   0  -2  269.88   15.15
   2   0   2  279.36   14.93
   2   0   2  298.19   16.18
   2   0   2  304.47   17.62
   2   0   2  275.27   14.94
   2   0   2  270.49   15.17
   2   0   2  258.00   16.82
   2   0   2  285.11   17.39
  -3   0  -2   13.65    1.00
  -3   0  -2   13.82    0.91
  -3   0  -2   14.71    0.86
  -3   0  -2   14.80    0.90
   3   0   2   14.23    1.00
   3   0   2   14.08    0.90
   3   0   2   12.67    1.01
   3   0   2   15.05    1.00
   3   0   2   14.82    0.92
   3   0   2   15.94    1.03
   3   0   2   14.17    0.86
  -4   0  -2    5.63    0.51
  -4   0  -2    7.03    0.51
  -4   0  -2    6.32    0.44
  -4   0  -2    5.58    0.55
   4   0   2    6.16    0.48
   4   0   2    6.01    0.49
   4   0   2    6.73    0.46
   4   0   2    5.63    0.55
   4   0   2    6.07    0.58
  -5   0  -2    7.55    0.71
  -5   0  -2    7.20    0.62
   5   0   2    8.49    0.62
   5   0   2    7.52    0.61
   5   0   2    7.79    0.72
   5   0   2    7.82    0.57
  -6   0  -2    0.02    0.14
  -6   0  -2   -0.07    0.19
   6   0   2    0.19    0.19
   6   0   2    0.05    0.11
   6   0   2    0.26    0.19
   6   0   2    0.34    0.18
  -7   0  -2    5.48    0.78
  -7   0  -2    5.46    0.66
   7   0   2    5.41    0.63
   7   0   2    4.58    0.72
   7   0   2    5.91    0.52
   7   0   2    5.78    0.60
  -8   0  -2    0.13    0.36
  -8   0  -2    0.48    0.34
   8   0   2   -0.03    0.28
   8   0   2   -0.29    0.19
   8   0   2    0.33    0.28
  -9   0  -2    3.84    0.67
   9   0   2    3.59    0.72
   9   0   2    3.72    0.57
   9   0   2    4.26    0.65
   9   0   2    5.07    0.50
 -10   0  -2    1.45    0.46
  10   0   2    1.54    0.46
  10   0   2    0.99    0.38
  10   0   2    1.02    0.49
 -11   0  -2    0.66    0.39
 -11   0  -2    0.11    0.35
  11   0   2    0.36    0.34
  11   0   2    0.56    0.35
  11   0   2    0.54    0.45
 -12   0  -2   -0.12    0.47
 -12   0  -2   -0.16    0.39
  12   0   2    0.39    0.45
  12   0   2   -0.24    0.41
  12   0   2    0.05    0.46
  10  -1  -2    1.85    0.55
  10  -1  -2    1.25    0.52
 -10   1   2    1.24    0.56
 -10   1   2    1.42    0.48
   9  -1  -2    1.68    0.48
   9  -1  -2    1.48    0.47
  -9   1   2    1.58    0.44
  -9   1   2    1.47    0.53
   8  -1  -2    0.77    0.28
   8  -1  -2    0.53    0.35
   8  -1  -2    1.21    0.32
  -8   1   2    0.95    0.42
  -8   1   2    0.89    0.36
  -8   1   2    0.76    0.28
   7  -1  -2    0.50    0.31
   7  -1  -2    0.06    0.18
   7  -1  -2    0.38    0.23
  -7   1   2    0.17    0.22
  -7   1   2    0.29    0.23
  -7   1   2    0.81    0.37
   6  -1  -2   20.10    1.39
   6  -1  -2   15.28    1.25
   6  -1  -2   17.25    1.29
  -6   1   2   20.05    1.30
  -6   1   2   18.58    1.25
  -6   1   2   17.28    1.32
   5  -1  -2    0.00    0.12
   5  -1  -2   -0.05    0.15
   5  -1  -2    0.47    0.20
  -5   1   2    0.08    0.16
  -5   1   2    0.00    0.16
  -5   1   2    0.00    0.14
   4  -1  -2   42.39    2.47
   4  -1  -2   42.65    2.80
   4  -1  -2   40.41    2.51
  -4   1   2   42.09    2.50
  -4   1   2   42.37    2.60
  -4   1   2   41.02    2.44
   3  -1  -2    9.15    0.68
   3  -1  -2    8.51    0.69
   3  -1  -2    7.72    0.62
   3  -1  -2    9.11    0.63
  -3   1   2    8.07    0.63
  -3   1   2    8.97    0.64
   2  -1  -2    0.58    0.13
   2  -1  -2   -0.11    0.05
   2  -1  -2    0.21    0.12
   2  -1  -2    0.06    0.07
   2  -1  -2    0.02    0.07
  -2   1   2    0.01    0.07
  -2   1   2    0.00    0.06
  -2   1   2    0.00    0.09
  -2   1   2   -0.04    0.07
  -2   1   2    0.08    0.08
   1  -1  -2   26.79    1.80
   1  -1  -2   29.14    1.69
   1  -1  -2   30.18    1.68
   1  -1  -2   27.67    1.71
   1  -1  -2   30.43    1.96
  -1   1   2   29.00    1.80
  -1   1   2   30.97    1.72
  -1   1   2   31.65    1.95
  -1   1   2   29.01    1.69
  -1   1   2   29.91    1.68
   0  -1  -2    2.02    0.15
   0  -1  -2    2.37    0.22
   0  -1  -2    1.99    0.18
   0  -1  -2    2.52    0.20
   0  -1  -2    2.34    0.22
   0  -1  -2    2.00    0.19
   0  -1  -2    2.22    0.18
   0   1   2    2.54    0.20
   0   1   2    2.38    0.18
   0   1   2    1.83    0.21
   0   1   2    2.29    0.18
   0   1   2    2.54    0.23
   0   1   2    2.13    0.19
  -1  -1  -2   18.26    1.14
  -1  -1  -2   17.52    1.05
  -1  -1  -2   18.35    1.05
  -1  -1  -2   18.27    1.14
  -1  -1  -2   17.64    1.24
  -1  -1  -2   18.08    1.06
   1   1   2   18.86    1.14
   1   1   2   18.24    1.06
   1   1   2   18.21    1.05
   1   1   2   19.32    1.25
   1   1   2   18.65    1.06
   1   1   2   19.22    1.14
  -2  -1  -2    4.48    0.41
  -2  -1  -2    4.86    0.36
  -2  -1  -2    5.68    0.42
  -2  -1  -2    5.15    0.35
  -2  -1  -2    5.42    0.36
  -2  -1  -2    4.80    0.35
   2   1   2    4.90    0.41
   2   1   2    5.10    0.37
   2   1   2    5.44    0.41
   2   1   2    5.37    0.37
   2   1   2    4.80    0.38
   2   1   2    4.22    0.34
   2   1   2    4.63    0.34
  -3  -1  -2   83.45    4.65
  -3  -1  -2   77.89    4.62
  -3  -1  -2   87.36    4.92
  -3  -1  -2   81.89    5.03
   3   1   2   85.86    4.65
   3   1   2   81.60    4.61
   3   1   2   86.45    5.04
   3   1   2   76.73    5.18
   3   1   2   85.36    4.64
  -4  -1  -2    0.18    0.16
  -4  -1  -2    0.43    0.12
  -4  -1  -2    0.50    0.16
  -4  -1  -2    0.27    0.14
   4   1   2    0.75    0.20
   4   1   2    0.58    0.17
   4   1   2    0.84    0.25
   4   1   2    0.70    0.09
   4   1   2    0.47    0.13
   4   1   2    0.51    0.17
  -5  -1  -2    1.20    0.26
  -5  -1  -2    1.22    0.29
   5   1   2    1.19    0.14
   5   1   2    0.91    0.23
   5   1   2    1.34    0.29
   5   1   2    1.09    0.19
  -6  -1  -2    0.42    0.29
  -6  -1  -2   -0.06    0.13
   6   1   2    0.17    0.15
   6   1   2    0.38    0.17
   6   1   2    0.23    0.17
   6   1   2    0.19    0.08
  -7  -1  -2   16.40    1.32
  -7  -1  -2   15.48    1.15
   7   1   2   16.40    1.07
   7   1   2   15.21    1.08
   7   1   2   14.49    1.12
   7   1   2   13.95    1.23
  -8  -1  -2    0.00    0.22
   8   1   2   -0.04    0.25
   8   1   2    0.53    0.26
   8   1   2    0.33    0.29
  -9  -1  -2   -0.02    0.22
   9   1   2   -0.09    0.25
   9   1   2    0.12    0.22
   9   1   2   -0.04    0.24
 -10  -1  -2    0.75    0.36
  10   1   2    0.32    0.30
  10   1   2    0.15    0.24
  10   1   2    1.22    0.31
  10   1   2    1.24    0.43
 -11  -1  -2    1.74    0.50
 -11  -1  -2    1.48    0.52
  11   1   2    1.36    0.46
  11   1   2    0.66    0.39
  11   1   2    1.04    0.48
 -12  -1  -2    3.25    0.78
 -12  -1  -2    3.17    0.72
  12   1   2    4.44    0.81
  12   1   2    2.46    0.76
  12   1   2    3.85    0.72
  10  -2  -2    4.17    0.77
  10  -2  -2    4.75    0.81
 -10   2   2    4.30    0.84
   9  -2  -2    0.30    0.32
   9  -2  -2    0.12    0.33
  -9   2   2    0.14    0.41
  -9   2   2    0.10    0.28
   8  -2  -2    4.55    0.67
   8  -2  -2    3.55    0.63
  -8   2   2    4.20    0.73
  -8   2   2    6.03    0.69
  -8   2   2    5.18    0.66
   7  -2  -2    0.12    0.29
   7  -2  -2    0.00    0.19
   7  -2  -2   -0.20    0.14
  -7   2   2   -0.02    0.19
  -7   2   2   -0.32    0.21
  -7   2   2   -0.12    0.29
   6  -2  -2    1.42    0.38
   6  -2  -2    1.17    0.28
   6  -2  -2    1.75    0.37
  -6   2   2    0.98    0.32
  -6   2   2    1.39    0.31
  -6   2   2    1.41    0.34
   5  -2  -2    3.77    0.44
   5  -2  -2    3.15    0.48
   5  -2  -2    2.95    0.43
  -5   2   2    3.54    0.49
  -5   2   2    4.33    0.47
  -5   2   2    3.35    0.49
   4  -2  -2   13.77    0.93
   4  -2  -2   13.50    0.99
   4  -2  -2   12.66    0.95
  -4   2   2   13.12    0.99
  -4   2   2   12.84    0.95
   3  -2  -2    0.72    0.20
   3  -2  -2    0.98    0.19
   3  -2  -2    1.00    0.20
   3  -2  -2    0.84    0.22
  -3   2   2    0.96    0.23
  -3   2   2    0.91    0.21
   2  -2  -2    0.85    0.19
   2  -2  -2    0.95    0.19
   2  -2  -2    0.78    0.15
   2  -2  -2    1.38    0.24
   2  -2  -2    0.76    0.17
   2  -2  -2    1.25    0.19
  -2   2   2    0.61    0.16
  -2   2   2    1.13    0.17
  -2   2   2    1.09    0.18
  -2   2   2    0.73    0.19
   1  -2  -2   74.07    4.83
   1  -2  -2   76.67    4.18
   1  -2  -2   73.55    4.15
   1  -2  -2   75.40    4.11
   1  -2  -2   67.60    4.48
   1  -2  -2   72.36    4.24
  -1   2   2   78.66    4.25
  -1   2   2   73.91    4.16
  -1   2   2   71.27    4.49
  -1   2   2   76.27    4.18
  -1   2   2   83.51    4.84
   0  -2  -2   34.96    2.37
   0  -2  -2   40.35    2.20
   0  -2  -2   38.09    2.56
   0  -2  -2   40.40    2.17
   0  -2  -2   43.45    2.20
   0   2   2   40.05    2.57
   0   2   2   36.50    2.18
   0   2   2   37.91    2.19
   0   2   2   41.71    2.25
   0   2   2   34.89    2.37
   0   2   2   40.62    2.19
  -1  -2  -2   89.83    5.58
  -1  -2  -2   94.47    5.18
  -1  -2  -2   89.82    5.57
  -1  -2  -2  101.23    5.18
  -1  -2  -2   81.76    6.05
  -1  -2  -2   95.56    5.15
  -1  -2  -2   96.81    5.14
   1   2   2   94.89    5.58
   1   2   2   93.63    6.07
   1   2   2   94.14    5.14
   1   2   2   94.30    5.17
   1   2   2   98.04    5.57
   1   2   2   99.76    5.18
  -2  -2  -2   21.37    1.37
  -2  -2  -2   22.94    1.23
  -2  -2  -2   20.80    1.26
  -2  -2  -2   22.02    1.25
  -2  -2  -2   21.12    1.33
   2   2   2   20.65    1.24
   2   2   2   22.58    1.26
   2   2   2   20.68    1.23
   2   2   2   21.06    1.33
   2   2   2   22.65    1.37
   2   2   2   21.10    1.49
  -3  -2  -2    4.33    0.34
  -3  -2  -2    3.73    0.35
  -3  -2  -2    5.15    0.45
  -3  -2  -2    4.74    0.35
  -3  -2  -2    4.93    0.36
   3   2   2    4.56    0.35
   3   2   2    4.37    0.37
   3   2   2    4.83    0.43
   3   2   2    5.11    0.37
   3   2   2    5.44    0.38
   3   2   2    4.59    0.35
  -4  -2  -2    1.49    0.28
  -4  -2  -2    1.27    0.17
  -4  -2  -2    0.93    0.21
   4   2   2    1.44    0.23
   4   2   2    1.75    0.25
   4   2   2    1.47    0.25
   4   2   2    1.53    0.20
   4   2   2    1.45    0.28
  -5  -2  -2    1.52    0.29
  -5  -2  -2    1.28    0.30
  -5  -2  -2    1.57    0.19
   5   2   2    1.50    0.22
   5   2   2    1.16    0.25
   5   2   2    1.17    0.24
  -6  -2  -2    5.30    0.65
  -6  -2  -2    5.22    0.58
  -6  -2  -2    4.93    0.39
   6   2   2    4.66    0.43
   6   2   2    4.40    0.51
   6   2   2    5.16    0.60
  -7  -2  -2    2.00    0.25
  -7  -2  -2    2.16    0.43
   7   2   2    1.15    0.34
   7   2   2    1.85    0.35
   7   2   2    2.67    0.38
  -8  -2  -2   -0.06    0.11
  -8  -2  -2    0.05    0.21
   8   2   2   -0.41    0.18
   8   2   2   -0.23    0.22
   8   2   2    0.05    0.17
  -9  -2  -2    0.12    0.33
   9   2   2    0.31    0.25
   9   2   2    0.72    0.32
   9   2   2    0.07    0.21
 -10  -2  -2    3.85    0.69
 -10  -2  -2    3.24    0.62
  10   2   2    3.72    0.61
  10   2   2    4.16    0.64
  10   2   2    2.84    0.63
 -11  -2  -2    2.63    0.64
 -11  -2  -2    1.17    0.48
  11   2   2    1.23    0.47
  11   2   2    1.15    0.48
  11   2   2    2.03    0.50
  11   2   2    1.95    0.45
 -12  -2  -2    5.88    0.90
 -12  -2  -2    5.10    0.86
  12   2   2    4.69    0.81
  12   2   2    5.66    0.87
  12   2   2    4.20    0.87
  10  -3  -2    7.22    1.07
  10  -3  -2    8.07    1.06
 -10   3   2    8.07    1.09
   9  -3  -2    0.19    0.28
   9  -3  -2    0.52    0.30
  -9   3   2    0.14    0.34
   8  -3  -2    0.84    0.41
   8  -3  -2    0.24    0.38
   8  -3  -2    0.12    0.25
  -8   3   2    1.09    0.41
  -8   3   2    1.23    0.46
   7  -3  -2    8.80    0.99
   7  -3  -2    8.62    0.92
  -7   3   2    8.44    0.98
  -7   3   2    9.51    0.79
  -7   3   2   10.04    0.93
   6  -3  -2    2.47    0.47
   6  -3  -2    2.50    0.43
   6  -3  -2    1.53    0.31
  -6   3   2    2.60    0.38
  -6   3   2    2.82    0.47
  -6   3   2    1.97    0.42
   5  -3  -2   20.48    1.49
   5  -3  -2   22.77    1.46
   5  -3  -2   21.96    1.54
  -5   3   2   21.90    1.50
  -5   3   2   21.40    1.37
  -5   3   2   21.71    1.58
   4  -3  -2    1.96    0.31
   4  -3  -2    2.08    0.30
   4  -3  -2    2.20    0.35
  -4   3   2    2.07    0.35
  -4   3   2    1.59    0.35
   3  -3  -2    3.92    0.46
   3  -3  -2    4.20    0.46
   3  -3  -2    3.91    0.44
   3  -3  -2    4.43    0.42
  -3   3   2    5.11    0.55
  -3   3   2    4.65    0.39
  -3   3   2    4.42    0.48
   2  -3  -2    0.28    0.12
   2  -3  -2    0.52    0.18
   2  -3  -2    0.37    0.14
   2  -3  -2    0.87    0.17
  -2   3   2    0.43    0.12
  -2   3   2    0.56    0.18
  -2   3   2    0.62    0.21
  -2   3   2    0.42    0.14
   1  -3  -2    0.85    0.14
   1  -3  -2    0.98    0.13
   1  -3  -2    0.80    0.18
   1  -3  -2    0.76    0.16
   1  -3  -2    0.73    0.18
   1  -3  -2    0.71    0.14
  -1   3   2    0.88    0.16
  -1   3   2    1.04    0.19
  -1   3   2    0.96    0.16
  -1   3   2    0.90    0.22
  -1   3   2    0.73    0.15
   0  -3  -2    3.36    0.28
   0  -3  -2    3.49    0.28
   0  -3  -2    3.38    0.28
   0  -3  -2    3.85    0.35
   0  -3  -2    3.06    0.34
   0   3   2    3.56    0.39
   0   3   2    4.03    0.32
   0   3   2    3.80    0.29
   0   3   2    3.90    0.35
   0   3   2    3.25    0.28
  -1  -3  -2  396.65   25.13
  -1  -3  -2  415.07   23.33
  -1  -3  -2  424.33   23.36
  -1  -3  -2  420.50   23.26
   1   3   2  421.05   25.14
   1   3   2  418.74   27.27
   1   3   2  437.21   25.25
   1   3   2  435.44   23.28
   1   3   2  472.92   23.40
   1   3   2  449.56   23.33
  -2  -3  -2    0.41    0.10
  -2  -3  -2    0.24    0.09
  -2  -3  -2    0.48    0.11
  -2  -3  -2    0.29    0.11
  -2  -3  -2    0.40    0.11
  -2  -3  -2    0.46    0.08
   2   3   2    0.43    0.10
   2   3   2    0.28    0.13
   2   3   2    0.24    0.12
   2   3   2    0.27    0.07
   2   3   2    0.40    0.11
   2   3   2    0.46    0.13
  -3  -3  -2   61.51    3.64
  -3  -3  -2   65.06    3.97
  -3  -3  -2   61.94    4.26
  -3  -3  -2   65.04    3.89
  -3  -3  -2   68.17    3.58
  -3  -3  -2   64.32    3.63
   3   3   2   63.77    3.63
   3   3   2   67.11    3.98
   3   3   2   69.29    3.65
   3   3   2   64.46    3.88
  -4  -3  -2    3.67    0.37
  -4  -3  -2    2.78    0.40
  -4  -3  -2    3.46    0.29
  -4  -3  -2    3.26    0.26
   4   3   2    3.20    0.27
   4   3   2    3.21    0.30
   4   3   2    3.97    0.45
   4   3   2    2.80    0.33
   4   3   2    3.55    0.37
   4   3   2    2.71    0.28
  -5  -3  -2    3.20    0.38
  -5  -3  -2    2.62    0.26
   5   3   2    2.98    0.34
   5   3   2    2.82    0.35
   5   3   2    2.82    0.36
   5   3   2    4.02    0.43
  -6  -3  -2    3.85    0.48
  -6  -3  -2    3.74    0.31
   6   3   2    3.67    0.45
   6   3   2    2.90    0.38
   6   3   2    3.64    0.46
  -7  -3  -2   10.98    0.88
  -7  -3  -2   11.62    0.71
   7   3   2   10.34    0.81
   7   3   2    8.66    0.85
   7   3   2    9.40    0.80
  -8  -3  -2    6.98    0.76
  -8  -3  -2    5.89    0.45
   8   3   2    5.86    0.74
   8   3   2    5.08    0.61
   8   3   2    6.92    0.73
  -9  -3  -2    4.32    0.67
  -9  -3  -2    4.63    0.69
   9   3   2    4.26    0.63
   9   3   2    3.78    0.65
   9   3   2    5.62    0.66
 -10  -3  -2   21.74    1.54
 -10  -3  -2   17.02    1.42
  10   3   2   18.69    1.45
  10   3   2   18.82    1.42
  10   3   2   16.89    1.53
 -11  -3  -2    0.68    0.44
 -11  -3  -2    0.79    0.45
  11   3   2    0.12    0.37
  11   3   2    1.23    0.45
  11   3   2    1.05    0.43
 -12  -3  -2   -0.08    0.42
 -12  -3  -2    0.22    0.35
  12   3   2    1.35    0.55
  12   3   2   -0.06    0.34
  12   3   2   -0.16    0.36
   9  -4  -2    0.49    0.46
   9  -4  -2    0.90    0.45
  -9   4   2    0.24    0.44
   8  -4  -2    2.55    0.65
   8  -4  -2    2.85    0.54
   8  -4  -2    2.30    0.57
  -8   4   2    3.13    0.66
  -8   4   2    2.66    0.64
   7  -4  -2    1.34    0.49
   7  -4  -2    2.41    0.48
   7  -4  -2    2.35    0.50
  -7   4   2    2.72    0.55
  -7   4   2    1.48    0.43
   6  -4  -2   -0.23    0.24
   6  -4  -2   -0.07    0.19
   6  -4  -2    0.25    0.25
  -6   4   2   -0.29    0.26
  -6   4   2   -0.22    0.28
   5  -4  -2    3.99    0.43
   5  -4  -2    4.19    0.57
   5  -4  -2    4.45    0.54
  -5   4   2    4.25    0.63
  -5   4   2    3.65    0.57
   4  -4  -2    8.61    0.72
   4  -4  -2    8.34    0.75
   4  -4  -2    9.67    0.74
  -4   4   2    8.96    0.79
  -4   4   2   10.08    0.88
   3  -4  -2    2.50    0.33
   3  -4  -2    2.09    0.32
   3  -4  -2    1.78    0.28
  -3   4   2    2.59    0.42
  -3   4   2    2.59    0.28
  -3   4   2    2.47    0.37
   2  -4  -2    0.32    0.12
   2  -4  -2    0.68    0.15
   2  -4  -2    0.42    0.15
   2  -4  -2    0.61    0.17
  -2   4   2    0.52    0.17
  -2   4   2    0.72    0.22
  -2   4   2    0.73    0.16
  -2   4   2    0.68    0.19
   1  -4  -2    0.38    0.12
   1  -4  -2    0.60    0.17
   1  -4  -2    0.59    0.15
   1  -4  -2    0.59    0.08
  -1   4   2    0.45    0.14
  -1   4   2    0.40    0.13
  -1   4   2    0.53    0.15
  -1   4   2    0.37    0.21
   0  -4  -2    0.19    0.12
   0  -4  -2    0.12    0.08
   0  -4  -2    0.07    0.08
   0   4   2    0.12    0.15
   0   4   2    0.14    0.12
   0   4   2    0.09    0.08
   0   4   2    0.03    0.09
  -1  -4  -2   10.53    0.75
  -1  -4  -2   11.92    0.73
  -1  -4  -2   11.61    0.85
  -1  -4  -2   11.73    0.73
   1   4   2   11.91    0.73
   1   4   2   11.83    0.91
   1   4   2   11.86    0.71
   1   4   2   12.20    0.73
   1   4   2   11.24    0.85
   1   4   2   11.53    0.73
  -2  -4  -2    3.00    0.23
  -2  -4  -2    2.52    0.30
  -2  -4  -2    1.96    0.30
  -2  -4  -2    2.53    0.26
   2   4   2    2.73    0.24
   2   4   2    2.75    0.24
   2   4   2    1.77    0.29
   2   4   2    2.78    0.29
   2   4   2    2.71    0.20
  -3  -4  -2    2.99    0.31
  -3  -4  -2    2.91    0.34
  -3  -4  -2    3.35    0.35
  -3  -4  -2    3.26    0.23
  -3  -4  -2    3.03    0.39
  -3  -4  -2    3.11    0.27
   3   4   2    2.88    0.32
   3   4   2    3.09    0.28
   3   4   2    3.42    0.38
   3   4   2    3.12    0.28
  -4  -4  -2   29.85    1.68
  -4  -4  -2   27.19    1.75
  -4  -4  -2   27.97    1.99
  -4  -4  -2   28.59    1.84
  -4  -4  -2   28.87    1.75
   4   4   2   31.50    1.76
   4   4   2   30.50    1.82
   4   4   2   30.15    1.95
   4   4   2   30.60    1.75
  -5  -4  -2    0.11    0.08
  -5  -4  -2   -0.04    0.08
  -5  -4  -2   -0.04    0.12
   5   4   2    0.05    0.09
   5   4   2    0.05    0.12
   5   4   2    0.21    0.14
   5   4   2    0.06    0.14
   5   4   2   -0.04    0.09
  -6  -4  -2   24.94    1.59
  -6  -4  -2   26.38    1.55
   6   4   2   25.29    1.57
   6   4   2   21.74    1.65
   6   4   2   25.24    1.58
  -7  -4  -2    5.10    0.39
  -7  -4  -2    5.73    0.62
  -7  -4  -2    4.09    0.58
   7   4   2    4.47    0.56
   7   4   2    5.38    0.58
   7   4   2    4.76    0.55
  -8  -4  -2    0.91    0.34
  -8  -4  -2    1.32    0.16
  -8  -4  -2    1.23    0.36
   8   4   2    1.17    0.34
   8   4   2    1.34    0.35
   8   4   2    1.28    0.35
  -9  -4  -2    0.22    0.23
  -9  -4  -2    0.43    0.27
   9   4   2    0.41    0.25
   9   4   2    0.16    0.26
   9   4   2    0.11    0.23
 -10  -4  -2    0.52    0.37
 -10  -4  -2    0.99    0.43
  10   4   2    1.16    0.42
  10   4   2    0.95    0.39
  10   4   2    0.46    0.27
 -11  -4  -2    1.25    0.50
 -11  -4  -2    1.79    0.58
  11   4   2    1.20    0.46
  11   4   2    1.56    0.49
  11   4   2    0.89    0.42
 -12  -4  -2    0.61    0.39
 -12  -4  -2    1.82    0.56
  12   4   2    0.35    0.40
  12   4   2    1.30    0.52
  12   4   2    0.88    0.48
   9  -5  -2    3.53    0.92
   8  -5  -2   -0.04    0.21
   8  -5  -2   -0.23    0.37
  -8   5   2   -0.38    0.35
  -8   5   2    0.19    0.39
   7  -5  -2   -0.22    0.24
   7  -5  -2    0.14    0.36
  -7   5   2   -0.15    0.34
  -7   5   2   -0.15    0.35
   6  -5  -2    0.51    0.29
   6  -5  -2    0.13    0.35
  -6   5   2   -0.22    0.30
  -6   5   2    0.22    0.33
   5  -5  -2    0.75    0.41
   5  -5  -2    1.09    0.31
  -5   5   2    0.80    0.38
  -5   5   2    0.77    0.35
   4  -5  -2    4.96    0.55
   4  -5  -2    4.77    0.75
  -4   5   2    5.27    0.63
  -4   5   2    4.59    0.68
   3  -5  -2    2.20    0.33
   3  -5  -2    2.39    0.29
  -3   5   2    1.80    0.41
  -3   5   2    1.89    0.35
  -3   5   2    2.01    0.26
   2  -5  -2   22.06    1.44
   2  -5  -2   23.94    1.46
   2  -5  -2   22.68    1.45
  -2   5   2   22.30    1.48
  -2   5   2   24.45    1.70
  -2   5   2   24.84    1.61
   1  -5  -2    7.39    0.60
   1  -5  -2    9.11    0.60
  -1   5   2    7.32    0.59
  -1   5   2    9.20    0.64
  -1   5   2    9.46    0.69
  -1   5   2    7.51    0.72
   0  -5  -2   53.92    2.88
   0  -5  -2   48.55    2.90
   0   5   2   51.31    3.39
   0   5   2   49.64    2.89
   0   5   2   46.51    3.20
   0   5   2   54.22    2.89
  -1  -5  -2  140.10    7.46
  -1  -5  -2  134.81    7.47
  -1  -5  -2  121.02    8.93
   1   5   2  138.49    7.39
   1   5   2  139.01    7.46
   1   5   2  131.01    8.12
   1   5   2  144.59    7.45
   1   5   2  128.51    8.76
   1   5   2  138.57    7.99
  -2  -5  -2  257.52   18.59
  -2  -5  -2  312.95   15.67
  -2  -5  -2  291.47   15.64
  -2  -5  -2  276.30   15.63
   2   5   2  276.26   15.63
   2   5   2  295.98   16.91
   2   5   2  269.54   16.89
   2   5   2  305.36   15.64
   2   5   2  291.42   15.51
  -3  -5  -2   26.84    2.14
  -3  -5  -2   31.65    1.79
  -3  -5  -2   30.53    1.82
  -3  -5  -2   29.86    1.96
   3   5   2   31.74    1.96
   3   5   2   31.61    1.95
   3   5   2   29.83    1.77
   3   5   2   31.53    1.78
  -4  -5  -2    0.62    0.19
  -4  -5  -2    0.58    0.17
  -4  -5  -2    0.54    0.09
  -4  -5  -2    0.29    0.16
  -4  -5  -2    0.75    0.18
  -4  -5  -2    0.73    0.21
   4   5   2    0.33    0.13
   4   5   2    0.41    0.15
  -5  -5  -2   19.70    1.18
  -5  -5  -2   19.75    1.32
  -5  -5  -2   20.07    1.28
  -5  -5  -2   19.31    1.41
  -5  -5  -2   18.77    1.27
  -5  -5  -2   19.17    1.29
   5   5   2   20.91    1.27
   5   5   2   20.23    1.32
   5   5   2   20.55    1.28
   5   5   2   21.37    1.30
  -6  -5  -2    9.14    0.66
  -6  -5  -2    8.69    0.70
  -6  -5  -2    8.82    0.74
  -6  -5  -2    9.15    0.67
  -6  -5  -2    9.38    0.73
  -6  -5  -2    8.75    0.62
   6   5   2    8.24    0.65
   6   5   2    9.42    0.63
   6   5   2    9.07    0.72
   6   5   2    9.32    0.71
   6   5   2    8.60    0.72
  -7  -5  -2   45.49    2.59
  -7  -5  -2   41.67    2.61
  -7  -5  -2   46.61    2.62
   7   5   2   35.86    2.73
   7   5   2   40.66    2.56
   7   5   2   45.55    2.63
  -8  -5  -2    1.99    0.44
  -8  -5  -2    1.37    0.40
   8   5   2    1.07    0.29
   8   5   2    1.56    0.34
   8   5   2    1.34    0.34
  -9  -5  -2   69.40    3.71
  -9  -5  -2   58.79    3.68
   9   5   2   64.35    3.66
   9   5   2   53.13    3.93
   9   5   2   57.82    3.66
 -10  -5  -2    0.98    0.39
 -10  -5  -2    0.74    0.33
  10   5   2    0.41    0.27
  10   5   2    0.23    0.31
  10   5   2   -0.15    0.27
 -11  -5  -2    2.25    0.56
 -11  -5  -2    3.64    0.70
  11   5   2    2.58    0.53
  11   5   2    2.52    0.57
  11   5   2    3.04    0.62
 -12  -5  -2    0.82    0.44
  12   5   2    0.20    0.42
  12   5   2    0.87    0.46
   8  -6  -2    4.18    0.89
   8  -6  -2    1.56    0.62
  -8   6   2    4.85    0.86
  -8   6   2    2.66    0.71
   7  -6  -2    0.03    0.30
   7  -6  -2    0.03    0.33
   7  -6  -2   -0.24    0.33
  -7   6   2   -0.24    0.37
  -7   6   2   -0.01    0.42
   6  -6  -2    0.54    0.43
   6  -6  -2    0.50    0.30
  -6   6   2    0.58    0.38
  -6   6   2    0.27    0.41
   5  -6  -2    2.30    0.42
   5  -6  -2    1.95    0.59
  -5   6   2    2.18    0.58
  -5   6   2    2.99    0.56
   4  -6  -2    0.47    0.40
   4  -6  -2    1.87    0.36
  -4   6   2    1.39    0.38
  -4   6   2    1.50    0.49
   3  -6  -2   -0.04    0.15
   3  -6  -2    0.19    0.27
  -3   6   2    0.11    0.28
  -3   6   2   -0.02    0.21
   2  -6  -2    0.58    0.19
   2  -6  -2   -0.03    0.32
   2  -6  -2    0.44    0.18
  -2   6   2    0.31    0.15
  -2   6   2    0.54    0.28
  -2   6   2    0.55    0.23
   1  -6  -2   -0.01    0.10
   1  -6  -2    0.04    0.29
   1  -6  -2   -0.05    0.13
  -1   6   2   -0.01    0.14
  -1   6   2    0.19    0.21
  -1   6   2    0.23    0.15
  -1   6   2   -0.12    0.10
   0  -6  -2    1.18    0.19
   0  -6  -2    0.64    0.30
   0  -6  -2    0.75    0.20
   0   6   2    1.26    0.22
   0   6   2    0.79    0.18
   0   6   2    1.16    0.32
  -1  -6  -2   30.73    1.76
  -1  -6  -2   27.32    2.24
  -1  -6  -2   29.19    1.81
   1   6   2   32.66    1.77
   1   6   2   31.37    1.77
   1   6   2   28.61    2.02
   1   6   2   30.05    1.82
   1   6   2   30.98    1.81
   1   6   2   28.66    1.72
  -2  -6  -2   57.92    3.44
  -2  -6  -2   56.26    3.76
  -2  -6  -2   61.68    3.39
  -2  -6  -2   54.85    4.14
   2   6   2   61.71    3.38
   2   6   2   62.25    3.65
   2   6   2   63.05    3.31
   2   6   2   63.21    3.38
   2   6   2   58.35    3.74
  -3  -6  -2   13.75    0.96
  -3  -6  -2   14.92    0.90
  -3  -6  -2   13.92    1.16
   3   6   2   14.56    0.89
   3   6   2   12.86    0.87
   3   6   2   14.25    1.00
   3   6   2   13.50    1.02
  -4  -6  -2    0.19    0.14
  -4  -6  -2    0.21    0.15
  -4  -6  -2    0.48    0.21
  -4  -6  -2    0.23    0.14
   4   6   2    0.49    0.15
   4   6   2    0.29    0.16
   4   6   2    0.29    0.12
  -5  -6  -2   -0.01    0.14
  -5  -6  -2    0.09    0.15
  -5  -6  -2    0.09    0.16
  -5  -6  -2    0.16    0.14
  -5  -6  -2    0.17    0.06
   5   6   2   -0.01    0.12
   5   6   2    0.06    0.11
   5   6   2   -0.04    0.12
  -6  -6  -2    7.55    0.55
  -6  -6  -2    9.09    0.71
  -6  -6  -2    8.54    0.69
  -6  -6  -2    8.66    0.67
  -6  -6  -2    8.36    0.71
  -6  -6  -2    8.50    0.69
   6   6   2    8.04    0.66
   6   6   2    9.02    0.72
   6   6   2    8.21    0.62
   6   6   2    8.36    0.68
  -7  -6  -2    2.66    0.47
  -7  -6  -2    2.43    0.42
  -7  -6  -2    2.16    0.39
   7   6   2    2.54    0.40
   7   6   2    2.62    0.28
   7   6   2    2.58    0.40
  -8  -6  -2    1.28    0.39
  -8  -6  -2    2.41    0.41
  -8  -6  -2    2.98    0.47
   8   6   2    1.83    0.42
   8   6   2    1.37    0.35
  -9  -6  -2    5.89    0.73
  -9  -6  -2    6.41    0.81
  -9  -6  -2    7.11    0.81
   9   6   2    6.95    0.78
   9   6   2    6.43    0.77
 -10  -6  -2    0.23    0.28
 -10  -6  -2    0.22    0.32
 -10  -6  -2    0.48    0.38
  10   6   2   -0.07    0.23
  10   6   2    0.11    0.27
 -11  -6  -2    0.16    0.33
 -11  -6  -2    0.40    0.43
  11   6   2   -0.20    0.29
  11   6   2    0.09    0.37
 -12  -6  -2   -0.24    0.41
 -12  -6  -2   -0.02    0.31
  12   6   2    0.65    0.38
  12   6   2    0.31    0.45
   7  -7  -2   -0.81    0.34
   7  -7  -2    0.16    0.43
  -7   7   2    0.37    0.47
  -7   7   2    0.08    0.37
   6  -7  -2    0.70    0.52
   6  -7  -2    1.51    0.62
  -6   7   2    1.68    0.47
  -6   7   2    2.77    0.69
   5  -7  -2    3.14    0.52
   5  -7  -2    3.61    0.81
  -5   7   2    3.67    0.75
  -5   7   2    3.80    0.62
   4  -7  -2    0.85    0.29
   4  -7  -2    0.78    0.48
  -4   7   2    0.57    0.32
  -4   7   2    1.10    0.46
   3  -7  -2    0.50    0.21
   3  -7  -2    0.14    0.30
  -3   7   2    0.74    0.29
  -3   7   2    1.30    0.47
   2  -7  -2    0.78    0.22
   2  -7  -2    0.79    0.27
   2  -7  -2    0.83    0.39
  -2   7   2    0.71    0.24
  -2   7   2    0.79    0.39
   1  -7  -2    4.14    0.45
   1  -7  -2    4.71    0.53
   1  -7  -2    3.94    0.73
  -1   7   2    4.34    0.67
  -1   7   2    5.48    0.53
  -1   7   2    4.67    0.50
   0  -7  -2   13.62    1.01
   0  -7  -2   14.97    0.95
   0  -7  -2   13.82    1.35
   0   7   2   14.00    1.18
   0   7   2   15.49    0.96
   0   7   2   14.66    0.97
  -1  -7  -2    0.26    0.12
  -1  -7  -2    0.34    0.17
  -1  -7  -2    0.24    0.17
  -1  -7  -2    0.20    0.32
   1   7   2    0.39    0.10
   1   7   2    0.24    0.16
   1   7   2    0.52    0.24
   1   7   2    0.30    0.08
   1   7   2    0.42    0.14
  -2  -7  -2   47.58    3.62
  -2  -7  -2   51.66    3.00
  -2  -7  -2   48.25    3.23
  -2  -7  -2   57.46    2.95
   2   7   2   53.74    2.90
   2   7   2   48.35    3.27
   2   7   2   52.87    3.13
   2   7   2   48.09    2.90
  -3  -7  -2    0.61    0.30
  -3  -7  -2    0.42    0.20
  -3  -7  -2    0.25    0.14
   3   7   2    0.03    0.16
   3   7   2    0.21    0.13
   3   7   2    0.03    0.20
   3   7   2    0.16    0.11
  -4  -7  -2    5.63    0.48
  -4  -7  -2    5.87    0.47
  -4  -7  -2    5.22    0.59
  -4  -7  -2    5.70    0.72
   4   7   2    5.31    0.59
   4   7   2    5.54    0.46
   4   7   2    5.64    0.45
  -5  -7  -2   33.74    2.02
  -5  -7  -2   33.70    1.98
  -5  -7  -2   31.56    2.05
  -5  -7  -2   30.20    2.35
   5   7   2   33.64    2.13
   5   7   2   32.74    1.98
   5   7   2   35.38    1.98
  -6  -7  -2   12.63    0.94
  -6  -7  -2   12.96    1.02
  -6  -7  -2   12.76    0.91
  -6  -7  -2   11.48    0.91
  -6  -7  -2   13.02    0.72
   6   7   2   11.53    0.88
   6   7   2   11.27    0.95
   6   7   2   12.75    0.91
  -7  -7  -2    8.78    0.74
  -7  -7  -2    7.50    0.72
  -7  -7  -2    9.55    0.77
  -7  -7  -2    8.76    0.79
   7   7   2    9.66    0.66
   7   7   2    7.76    0.84
   7   7   2    8.29    0.72
  -8  -7  -2   11.07    0.96
  -8  -7  -2   12.88    1.01
  -8  -7  -2   12.87    0.98
   8   7   2   11.65    1.02
   8   7   2   11.19    0.95
  -9  -7  -2    5.27    0.69
  -9  -7  -2    4.75    0.69
   9   7   2    5.64    0.74
   9   7   2    5.40    0.67
 -10  -7  -2    9.17    0.98
 -10  -7  -2   11.11    1.16
  10   7   2    9.65    1.03
  10   7   2    9.97    1.08
 -11  -7  -2    0.27    0.32
 -11  -7  -2    0.43    0.36
  11   7   2   -0.49    0.34
  11   7   2    0.35    0.34
 -12  -7  -2    0.37    0.39
 -12  -7  -2    0.44    0.47
  12   7   2    0.52    0.43
  12   7   2    0.16    0.38
   6  -8  -2    0.35    0.52
   6  -8  -2    0.42    0.50
  -6   8   2    0.60    0.43
  -6   8   2    0.83    0.41
   5  -8  -2    5.38    1.05
   5  -8  -2    4.96    0.96
  -5   8   2    7.29    1.08
  -5   8   2    6.33    0.81
   4  -8  -2    0.21    0.41
   4  -8  -2    0.12    0.42
  -4   8   2   -0.56    0.23
  -4   8   2   -0.17    0.26
   3  -8  -2    0.55    0.34
   3  -8  -2   -0.11    0.37
  -3   8   2    0.76    0.30
  -3   8   2   -0.49    0.29
   2  -8  -2    2.26    0.36
   2  -8  -2    1.30    0.35
   2  -8  -2    1.47    0.43
   2  -8  -2    0.92    0.45
  -2   8   2    1.66    0.35
  -2   8   2    1.07    0.42
   1  -8  -2   18.46    1.27
   1  -8  -2   19.21    1.18
   1  -8  -2   16.70    1.42
   1  -8  -2   16.27    1.62
  -1   8   2   17.53    1.21
  -1   8   2   19.31    1.52
   0  -8  -2    1.38    0.36
   0  -8  -2    2.26    0.31
   0  -8  -2    1.47    0.32
   0  -8  -2    1.21    0.49
   0   8   2    2.30    0.52
   0   8   2    2.25    0.33
  -1  -8  -2    0.30    0.19
  -1  -8  -2    0.47    0.17
  -1  -8  -2    0.18    0.34
  -1  -8  -2    0.52    0.21
   1   8   2    0.58    0.30
   1   8   2    0.74    0.19
   1   8   2    0.51    0.15
   1   8   2    0.47    0.08
  -2  -8  -2   79.58    5.38
  -2  -8  -2   84.81    4.92
  -2  -8  -2   86.67    5.97
   2   8   2   85.57    4.81
   2   8   2   81.51    5.37
   2   8   2   87.07    4.82
   2   8   2   87.00    4.72
   2   8   2   88.37    5.21
   2   8   2   92.35    5.15
  -3  -8  -2  124.73    7.11
  -3  -8  -2  126.69    8.52
  -3  -8  -2  123.17    7.00
   3   8   2  129.09    7.00
   3   8   2  127.82    7.61
   3   8   2  122.82    7.68
   3   8   2  129.27    6.99
  -4  -8  -2    3.71    0.42
  -4  -8  -2    4.30    0.54
  -4  -8  -2    3.26    0.60
   4   8   2    3.83    0.39
   4   8   2    2.84    0.38
   4   8   2    3.82    0.53
  -5  -8  -2   19.52    1.31
  -5  -8  -2   19.09    1.37
  -5  -8  -2   20.39    1.60
   5   8   2   20.26    1.41
  -6  -8  -2   10.96    0.97
  -6  -8  -2   11.72    0.82
  -6  -8  -2   11.37    0.92
  -6  -8  -2   11.97    0.89
   6   8   2   10.57    0.86
   6   8   2   10.07    0.82
  -7  -8  -2    0.00    0.20
  -7  -8  -2   -0.10    0.22
  -7  -8  -2    0.01    0.18
   7   8   2    0.05    0.15
   7   8   2   -0.06    0.17
   7   8   2    0.01    0.25
  -8  -8  -2    0.13    0.28
  -8  -8  -2    0.09    0.21
   8   8   2   -0.03    0.18
   8   8   2   -0.14    0.21
  -9  -8  -2    0.03    0.27
  -9  -8  -2    0.10    0.31
   9   8   2    0.09    0.21
   9   8   2   -0.39    0.19
 -10  -8  -2    7.83    0.92
 -10  -8  -2    6.70    0.91
  10   8   2    7.94    0.95
  10   8   2    9.46    0.97
 -11  -8  -2    0.19    0.41
 -11  -8  -2   -0.18    0.33
  11   8   2    0.23    0.32
  11   8   2    0.05    0.30
 -12  -8  -2    1.30    0.52
 -12  -8  -2    2.48    0.68
  12   8   2    2.29    0.68
  12   8   2    3.03    0.64
   5  -9  -2   -0.22    0.50
   5  -9  -2   -0.05    0.36
  -5   9   2    0.14    0.35
  -5   9   2    0.72    0.53
   4  -9  -2    3.84    0.96
   4  -9  -2    3.79    0.84
  -4   9   2    5.40    0.73
  -4   9   2    4.71    0.87
   3  -9  -2   -0.31    0.43
   3  -9  -2   -0.56    0.28
  -3   9   2   -0.09    0.39
  -3   9   2   -0.52    0.21
   2  -9  -2    0.99    0.50
   2  -9  -2    2.76    0.61
  -2   9   2    2.55    0.63
  -2   9   2    2.02    0.41
   1  -9  -2    1.14    0.41
   1  -9  -2    1.92    0.60
   1  -9  -2    0.83    0.33
  -1   9   2    1.17    0.42
  -1   9   2    1.82    0.35
   0  -9  -2   13.33    1.21
   0  -9  -2   13.62    1.11
   0  -9  -2   14.91    1.54
   0   9   2   17.00    1.07
   0   9   2   16.61    1.38
  -1  -9  -2    0.76    0.26
  -1  -9  -2    0.67    0.26
  -1  -9  -2    1.10    0.44
   1   9   2    1.36    0.44
   1   9   2    0.69    0.16
   1   9   2    0.41    0.20
  -2  -9  -2    5.16    0.87
  -2  -9  -2    4.86    0.62
   2   9   2    4.40    0.70
   2   9   2    4.96    0.49
  -3  -9  -2   -0.15    0.22
  -3  -9  -2    0.09    0.26
   3   9   2    0.08    0.27
   3   9   2    0.14    0.16
  -4  -9  -2    0.48    0.22
  -4  -9  -2    0.76    0.40
  -4  -9  -2    0.54    0.30
   4   9   2    0.61    0.20
   4   9   2    0.67    0.32
  -5  -9  -2    0.88    0.26
  -5  -9  -2    0.42    0.29
  -5  -9  -2    1.32    0.42
   5   9   2    0.72    0.29
  -6  -9  -2    2.31    0.40
  -6  -9  -2    2.17    0.46
  -6  -9  -2    1.50    0.41
   6   9   2    1.39    0.33
   6   9   2    1.30    0.30
  -7  -9  -2   11.57    0.92
  -7  -9  -2   11.55    1.01
  -7  -9  -2    9.99    0.94
   7   9   2   10.53    0.85
   7   9   2   10.48    0.86
   7   9   2   11.06    0.99
  -8  -9  -2    0.12    0.28
  -8  -9  -2    0.21    0.24
   8   9   2    0.24    0.24
   8   9   2    0.02    0.30
  -9  -9  -2    0.68    0.38
  -9  -9  -2    0.35    0.34
   9   9   2    1.08    0.42
   9   9   2    0.53    0.31
 -10  -9  -2    3.23    0.67
 -10  -9  -2    4.21    0.68
  10   9   2    5.75    0.83
  10   9   2    5.45    0.72
 -11  -9  -2    2.34    0.60
 -11  -9  -2    3.21    0.70
  11   9   2    2.32    0.56
  11   9   2    2.01    0.59
   4 -10  -2    0.68    0.48
   4 -10  -2    0.69    0.62
  -4  10   2    0.57    0.38
  -4  10   2    0.72    0.54
   3 -10  -2   -0.15    0.35
   3 -10  -2    0.02    0.32
  -3  10   2    0.31    0.35
  -3  10   2   -0.45    0.37
   2 -10  -2    0.88    0.48
   2 -10  -2    2.11    0.59
  -2  10   2    1.94    0.42
  -2  10   2    2.92    0.71
   1 -10  -2    0.87    0.41
   1 -10  -2    0.89    0.48
   1 -10  -2    1.08    0.40
  -1  10   2    0.98    0.52
  -1  10   2    0.70    0.31
   0 -10  -2    2.37    0.47
   0 -10  -2    1.14    0.59
   0 -10  -2    2.92    0.54
   0  10   2    1.31    0.48
   0  10   2    2.48    0.39
  -1 -10  -2   12.45    0.98
  -1 -10  -2    9.40    1.34
   1  10   2   10.17    1.23
   1  10   2   11.12    0.83
  -2 -10  -2    2.07    0.47
  -2 -10  -2    2.00    0.58
   2  10   2    1.64    0.31
   2  10   2    1.58    0.52
  -3 -10  -2   73.66    5.41
  -3 -10  -2   71.76    4.45
   3  10   2   78.80    4.30
   3  10   2   77.81    4.89
  -4 -10  -2   22.26    1.91
  -4 -10  -2   21.33    1.52
  -4 -10  -2   19.33    1.37
   4  10   2   21.48    1.36
   4  10   2   25.43    1.72
  -5 -10  -2    1.84    0.48
  -5 -10  -2    4.57    0.77
  -5 -10  -2    2.78    0.42
   5  10   2    3.06    0.53
  -6 -10  -2    0.91    0.38
  -6 -10  -2    0.58    0.38
  -6 -10  -2    0.61    0.26
   6  10   2    0.40    0.27
   6  10   2    0.80    0.25
  -7 -10  -2   -0.03    0.21
  -7 -10  -2    0.22    0.30
  -7 -10  -2    0.22    0.30
   7  10   2   -0.12    0.27
   7  10   2    0.12    0.22
  -8 -10  -2    6.08    0.82
  -8 -10  -2    6.16    0.77
   8  10   2    7.79    0.77
   8  10   2    6.15    0.83
  -9 -10  -2    3.74    0.65
  -9 -10  -2    3.90    0.69
   9  10   2    4.45    0.63
   9  10   2    3.62    0.68
 -10 -10  -2    4.62    0.78
 -10 -10  -2    5.39    0.83
  10  10   2    5.06    0.82
  10  10   2    5.97    0.77
 -11 -10  -2    4.51    0.81
 -11 -10  -2    3.05    0.69
  11  10   2    4.97    0.85
  11  10   2    4.74    0.72
   3 -11  -2    2.35    0.71
   3 -11  -2    2.10    0.77
  -3  11   2    3.72    0.63
  -3  11   2    3.59    0.89
   2 -11  -2    4.24    0.79
   2 -11  -2    3.93    0.97
  -2  11   2    2.78    0.54
  -2  11   2    4.32    0.87
   1 -11  -2    6.43    1.17
   1 -11  -2    6.55    0.85
   1 -11  -2    6.00    0.93
  -1  11   2    6.35    1.08
  -1  11   2    7.23    0.75
   0 -11  -2    0.59    0.46
   0 -11  -2    0.11    0.23
   0  11   2    0.85    0.55
   0  11   2    0.45    0.26
  -1 -11  -2    9.40    1.02
  -1 -11  -2   10.45    1.45
   1  11   2   10.08    0.80
   1  11   2   10.87    1.32
  -2 -11  -2    1.98    0.68
  -2 -11  -2    1.08    0.39
   2  11   2    2.02    0.55
   2  11   2    1.05    0.29
  -3 -11  -2    2.61    0.73
  -3 -11  -2    1.22    0.43
   3  11   2    2.43    0.59
   3  11   2    1.74    0.31
  -4 -11  -2    2.03    0.46
  -4 -11  -2    1.35    0.56
   4  11   2    1.19    0.45
   4  11   2    1.68    0.29
  -5 -11  -2    0.43    0.43
  -5 -11  -2    0.09    0.22
  -5 -11  -2    0.00    0.22
   5  11   2    0.01    0.28
   5  11   2   -0.14    0.18
  -6 -11  -2    0.06    0.25
  -6 -11  -2    0.05    0.19
  -6 -11  -2   -0.18    0.34
   6  11   2   -0.35    0.26
   6  11   2    0.36    0.22
  -7 -11  -2    9.49    0.87
  -7 -11  -2    9.58    1.08
  -7 -11  -2   11.27    1.12
   7  11   2   10.41    0.81
   7  11   2    7.45    1.00
  -8 -11  -2    1.00    0.44
  -8 -11  -2    0.15    0.31
   8  11   2    1.27    0.38
   8  11   2    1.07    0.34
  -9 -11  -2    3.89    0.70
  -9 -11  -2    3.21    0.64
   9  11   2    4.64    0.75
   9  11   2    4.58    0.62
 -10 -11  -2   -0.68    0.30
 -10 -11  -2    0.08    0.34
  10  11   2    0.02    0.29
  10  11   2    0.39    0.44
   1 -12  -2   -0.04    0.58
  -1  12   2   -0.33    0.49
  -1  12   2    0.02    0.28
   0 -12  -2    0.00    0.35
   0 -12  -2   -0.18    0.51
   0  12   2   -0.52    0.28
   0  12   2    0.08    0.26
  -1 -12  -2    0.02    0.33
  -1 -12  -2   -0.36    0.43
   1  12   2    0.03    0.23
   1  12   2   -0.51    0.39
  -2 -12  -2   -0.08    0.31
  -2 -12  -2    0.92    0.37
   2  12   2    1.09    0.49
   2  12   2    0.88    0.26
  -3 -12  -2    2.82    0.60
  -3 -12  -2    3.34    0.85
   3  12   2    2.60    0.64
   3  12   2    2.99    0.39
  -4 -12  -2    2.94    0.61
  -4 -12  -2    4.85    0.97
   4  12   2    3.77    0.73
  -5 -12  -2    0.46    0.35
  -5 -12  -2    1.44    0.59
   5  12   2    0.28    0.36
  -6 -12  -2   -0.02    0.34
  -6 -12  -2    0.05    0.38
  -6 -12  -2    0.19    0.25
   6  12   2    0.17    0.36
  -7 -12  -2    1.25    0.39
  -7 -12  -2    2.21    0.62
  -7 -12  -2    1.65    0.53
   7  12   2    1.80    0.53
  -8 -12  -2   -0.27    0.24
  -8 -12  -2    0.13    0.28
   8  12   2    0.04    0.26
  -9 -12  -2    0.42    0.35
  -9 -12  -2    0.21    0.28
   9  12   2    0.74    0.47
  -1 -13  -2    0.34    0.57
  -2 -13  -2    0.00    0.31
  -2 -13  -2    0.07    0.54
   2  13   2    0.61    0.54
  -3 -13  -2    0.12    0.53
  -3 -13  -2   -0.43    0.30
   3  13   2    0.17    0.44
  -4 -13  -2    8.17    1.25
  -4 -13  -2    6.09    0.89
   4  13   2    7.18    1.05
  -5 -13  -2    3.73    0.73
  -5 -13  -2    6.14    1.10
   5  13   2    6.24    0.91
  -6 -13  -2    0.31    0.41
  -6 -13  -2    0.44    0.45
  -7 -13  -2    2.62    0.74
  -7 -13  -2    0.67    0.39
   7  13   2    1.27    0.52
   4  12  -3    1.36    0.49
  -4 -12   3    1.37    0.47
  -4 -12   3    0.91    0.45
  -4 -12   3    0.89    0.64
   3  12  -3    2.37    0.65
   3  12  -3    4.33    0.69
  -3 -12   3    2.61    0.56
  -3 -12   3    3.44    0.87
  -3 -12   3    2.85    0.64
   2  12  -3    0.13    0.40
  -2 -12   3   -0.02    0.35
  -2 -12   3    0.21    0.54
   1  12  -3   -0.24    0.39
  -1 -12   3    0.26    0.40
  -1 -12   3   -0.30    0.37
   7  11  -3    3.77    0.75
   6  11  -3    1.97    0.51
  -6 -11   3    1.98    0.51
  -6 -11   3    2.07    0.64
  -6 -11   3    1.51    0.49
   5  11  -3    1.67    0.49
  -5 -11   3    0.86    0.52
  -5 -11   3    0.45    0.33
  -5 -11   3    0.82    0.42
   4  11  -3    2.39    0.56
  -4 -11   3    1.81    0.46
  -4 -11   3    1.89    0.68
  -4 -11   3    2.44    0.54
   3  11  -3    0.31    0.34
   3  11  -3    0.57    0.39
   3  11  -3    0.60    0.34
  -3 -11   3    0.31    0.27
  -3 -11   3    0.44    0.54
  -3 -11   3    0.11    0.27
   2  11  -3    0.21    0.37
   2  11  -3   -0.08    0.29
  -2 -11   3    0.22    0.33
  -2 -11   3   -0.41    0.40
  -2 -11   3   -0.18    0.26
   1  11  -3    2.25    0.65
  -1 -11   3    1.66    0.47
  -1 -11   3    2.53    0.78
  -1 -11   3    1.39    0.42
   0  11  -3    0.32    0.39
   0 -11   3    0.20    0.42
   0 -11   3   -0.08    0.23
  -1  11  -3    0.75    0.42
   1 -11   3    2.17    0.79
  -2  11  -3    0.57    0.43
   2 -11   3    0.85    0.70
   8  10  -3    0.44    0.49
   8  10  -3   -0.04    0.41
  -8 -10   3    0.41    0.42
  -8 -10   3    0.02    0.31
   7  10  -3    0.46    0.41
  -7 -10   3    0.99    0.44
  -7 -10   3    0.91    0.43
   6  10  -3   -0.22    0.31
  -6 -10   3    0.41    0.34
  -6 -10   3    0.13    0.34
   5  10  -3   -0.03    0.28
  -5 -10   3   -0.07    0.27
  -5 -10   3   -0.05    0.36
  -5 -10   3   -0.04    0.31
   4  10  -3   -0.20    0.21
   4  10  -3    0.74    0.34
  -4 -10   3    0.62    0.36
  -4 -10   3    0.08    0.41
  -4 -10   3   -0.06    0.16
   3  10  -3    0.42    0.28
   3  10  -3    0.66    0.35
   3  10  -3    0.89    0.37
  -3 -10   3    1.34    0.56
  -3 -10   3    0.49    0.29
  -3 -10   3    1.02    0.38
   2  10  -3    0.04    0.20
   2  10  -3    0.12    0.33
  -2 -10   3    0.64    0.26
  -2 -10   3    0.06    0.28
  -2 -10   3   -0.11    0.41
   1  10  -3    0.84    0.34
   1  10  -3    1.13    0.37
   1  10  -3    2.16    0.57
  -1 -10   3    0.95    0.53
  -1 -10   3    0.95    0.32
  -1 -10   3    1.25    0.43
   0  10  -3    9.62    1.23
   0 -10   3    9.09    1.36
   0 -10   3    9.22    0.84
   0 -10   3    9.32    1.01
  -1  10  -3    1.01    0.43
   1 -10   3    0.32    0.35
   1 -10   3    0.38    0.53
  -2  10  -3    0.56    0.34
   2 -10   3    0.11    0.38
   2 -10   3    0.34    0.53
  -3  10  -3    1.03    0.52
   3 -10   3    0.66    0.42
   3 -10   3    0.42    0.56
  -4  10  -3    4.58    0.92
  -4  10  -3    3.63    0.54
   4 -10   3    4.25    0.99
   4 -10   3    5.54    0.92
   9   9  -3    1.11    0.34
   9   9  -3    1.91    0.63
   9   9  -3    0.96    0.54
  -9  -9   3    1.72    0.49
  -9  -9   3    1.47    0.50
   8   9  -3   -0.20    0.24
   8   9  -3    0.25    0.22
   8   9  -3    0.17    0.32
  -8  -9   3    0.66    0.41
  -8  -9   3   -0.10    0.32
   7   9  -3   16.19    1.37
  -7  -9   3   15.45    1.24
  -7  -9   3   14.89    1.30
   6   9  -3    0.44    0.29
  -6  -9   3    0.33    0.32
  -6  -9   3    0.42    0.34
   5   9  -3    1.12    0.40
  -5  -9   3    0.84    0.43
  -5  -9   3    0.74    0.34
  -5  -9   3    0.66    0.35
   4   9  -3    0.19    0.28
   4   9  -3    0.23    0.23
  -4  -9   3   -0.01    0.24
  -4  -9   3   -0.10    0.25
  -4  -9   3   -0.39    0.28
   3   9  -3    0.11    0.26
   3   9  -3    0.25    0.24
  -3  -9   3    0.24    0.36
  -3  -9   3    0.12    0.21
  -3  -9   3    0.04    0.23
   2   9  -3    4.95    0.73
   2   9  -3    4.50    0.61
  -2  -9   3    3.97    0.58
  -2  -9   3    4.74    0.82
  -2  -9   3    3.90    0.55
   1   9  -3    0.79    0.40
   1   9  -3    0.93    0.33
  -1  -9   3    0.98    0.35
  -1  -9   3    0.96    0.32
  -1  -9   3    0.60    0.46
   0   9  -3    3.37    0.50
   0   9  -3    3.58    0.54
   0   9  -3    2.65    0.62
   0  -9   3    4.29    0.57
   0  -9   3    2.99    0.72
   0  -9   3    2.16    0.49
   0  -9   3    2.94    0.47
  -1   9  -3    0.25    0.31
  -1   9  -3    0.57    0.28
  -1   9  -3    0.55    0.13
   1  -9   3    0.68    0.34
   1  -9   3    0.10    0.28
   1  -9   3    0.27    0.25
   1  -9   3    0.70    0.51
  -2   9  -3    5.88    0.96
  -2   9  -3    4.90    0.50
   2  -9   3    7.10    0.90
   2  -9   3    7.35    1.14
  -3   9  -3    0.49    0.44
  -3   9  -3    0.47    0.24
   3  -9   3    1.22    0.62
   3  -9   3    0.60    0.42
  -4   9  -3   20.15    1.88
  -4   9  -3   21.50    1.47
   4  -9   3   20.51    2.06
   4  -9   3   22.19    1.89
  -5   9  -3    0.54    0.41
  -5   9  -3    0.06    0.30
   5  -9   3   -0.10    0.50
   5  -9   3    0.70    0.50
   9   8  -3   -0.02    0.26
   9   8  -3    0.04    0.32
   9   8  -3   -0.39    0.40
  -9  -8   3   -0.06    0.28
  -9  -8   3   -0.01    0.38
   8   8  -3    7.08    1.08
   8   8  -3    9.11    0.76
   8   8  -3    7.06    0.95
  -8  -8   3    9.46    0.97
  -8  -8   3    7.49    0.99
   7   8  -3    2.27    0.35
   7   8  -3    1.82    0.52
  -7  -8   3    2.32    0.53
  -7  -8   3    1.65    0.44
   6   8  -3    0.48    0.17
   6   8  -3    0.34    0.26
  -6  -8   3    1.01    0.38
  -6  -8   3    0.21    0.29
   5   8  -3    2.31    0.47
   5   8  -3    2.61    0.26
  -5  -8   3    2.03    0.45
  -5  -8   3    2.62    0.57
  -5  -8   3    2.17    0.45
   4   8  -3    4.63    0.61
   4   8  -3    4.33    0.57
  -4  -8   3    3.92    0.70
  -4  -8   3    5.27    0.64
  -4  -8   3    4.60    0.60
   3   8  -3   11.17    0.99
   3   8  -3   12.84    0.97
  -3  -8   3   12.06    0.93
  -3  -8   3   10.23    0.89
  -3  -8   3   12.13    1.19
   2   8  -3   -0.24    0.19
  -2  -8   3   -0.03    0.17
  -2  -8   3   -0.04    0.15
  -2  -8   3    0.03    0.21
  -2  -8   3   -0.23    0.29
   1   8  -3    0.22    0.20
   1   8  -3    0.53    0.31
  -1  -8   3    0.51    0.34
  -1  -8   3    0.28    0.20
  -1  -8   3    0.30    0.20
  -1  -8   3    0.62    0.23
   0   8  -3    3.23    0.51
   0   8  -3    5.17    0.58
   0   8  -3    3.22    0.62
   0  -8   3    5.39    0.62
   0  -8   3    3.70    0.79
   0  -8   3    4.91    0.62
   0  -8   3    4.03    0.52
  -1   8  -3    0.66    0.14
  -1   8  -3    0.75    0.35
  -1   8  -3    0.64    0.23
  -1   8  -3    0.79    0.28
   1  -8   3    0.76    0.25
   1  -8   3    0.44    0.34
   1  -8   3    1.12    0.36
   1  -8   3    0.91    0.34
  -2   8  -3   -0.05    0.14
  -2   8  -3    0.28    0.34
  -2   8  -3   -0.14    0.19
   2  -8   3   -0.15    0.25
   2  -8   3   -0.48    0.33
  -3   8  -3    4.90    0.54
  -3   8  -3    4.40    0.82
  -3   8  -3    4.33    0.64
   3  -8   3    5.34    0.97
   3  -8   3    6.39    0.88
  -4   8  -3    0.68    0.50
  -4   8  -3    0.97    0.33
   4  -8   3    0.13    0.41
   4  -8   3    0.25    0.47
  -5   8  -3    2.69    0.72
  -5   8  -3    3.74    0.56
   5  -8   3    3.19    0.84
   5  -8   3    3.51    0.80
  -6   8  -3    0.84    0.54
  -6   8  -3    0.81    0.37
   6  -8   3    0.96    0.57
   6  -8   3    0.33    0.43
  -7   8  -3    0.12    0.37
  -7   8  -3    0.86    0.55
   7  -8   3    0.77    0.55
   7  -8   3    0.17    0.52
  10   7  -3    1.40    0.60
  10   7  -3    0.91    0.38
  10   7  -3   -0.10    0.43
 -10  -7   3    1.02    0.54
   9   7  -3    0.01    0.32
   9   7  -3    0.09    0.25
   9   7  -3   -0.21    0.36
  -9  -7   3   -0.37    0.35
  -9  -7   3    0.11    0.32
   8   7  -3    0.47    0.27
   8   7  -3    0.23    0.38
   8   7  -3   -0.09    0.35
  -8  -7   3    0.04    0.28
  -8  -7   3    0.18    0.29
   7   7  -3   14.55    1.01
   7   7  -3   12.91    1.16
  -7  -7   3   16.42    1.24
  -7  -7   3   12.74    1.06
   6   7  -3   16.44    1.31
   6   7  -3   16.36    1.08
  -6  -7   3   17.19    1.21
  -6  -7   3   15.98    1.27
   5   7  -3    0.20    0.13
   5   7  -3    0.35    0.28
   5   7  -3    0.35    0.17
  -5  -7   3    0.44    0.26
  -5  -7   3    0.32    0.28
   4   7  -3    1.90    0.20
   4   7  -3    1.59    0.36
   4   7  -3    1.55    0.32
  -4  -7   3    0.98    0.32
  -4  -7   3    1.94    0.42
  -4  -7   3    1.69    0.36
   3   7  -3    3.15    0.47
   3   7  -3    2.94    0.47
  -3  -7   3    3.51    0.48
  -3  -7   3    3.61    0.63
  -3  -7   3    3.36    0.47
  -2  -7   3    3.34    0.47
  -2  -7   3    3.53    0.42
  -2  -7   3    3.82    0.66
  -2  -7   3    3.61    0.47
   1   7  -3    4.54    0.55
  -1  -7   3    4.77    0.47
  -1  -7   3    3.74    0.49
  -1  -7   3    3.97    0.51
  -1  -7   3    3.97    0.71
   0   7  -3    0.80    0.24
   0   7  -3    0.42    0.06
   0   7  -3    0.57    0.07
   0  -7   3    0.61    0.22
   0  -7   3    0.12    0.35
   0  -7   3    0.43    0.21
   0  -7   3    0.93    0.26
  -1   7  -3    6.31    0.60
  -1   7  -3    6.63    0.47
  -1   7  -3    6.61    0.64
   1  -7   3    7.08    0.59
   1  -7   3    7.68    0.99
   1  -7   3    5.82    0.68
   1  -7   3    7.23    0.72
  -2   7  -3    5.33    0.46
  -2   7  -3    5.79    0.49
  -2   7  -3    4.86    0.64
   2  -7   3    6.03    0.78
   2  -7   3    5.80    0.92
  -3   7  -3    0.27    0.26
  -3   7  -3    0.45    0.22
   3  -7   3   -0.12    0.26
   3  -7   3    0.41    0.34
  -4   7  -3   15.28    1.13
  -4   7  -3   13.58    1.23
   4  -7   3   17.32    1.59
   4  -7   3   17.09    1.47
  -5   7  -3   24.89    1.99
  -5   7  -3   20.98    1.78
  -5   7  -3   23.05    1.64
   5  -7   3   28.91    2.12
   5  -7   3   25.03    2.15
  -6   7  -3   -0.35    0.22
  -6   7  -3    0.36    0.42
   6  -7   3   -0.29    0.40
   6  -7   3    0.03    0.38
  -7   7  -3    0.24    0.32
  -7   7  -3    0.42    0.40
   7  -7   3    0.35    0.48
   7  -7   3   -0.41    0.34
  -8   7  -3   -0.09    0.33
  -8   7  -3    0.76    0.49
   8  -7   3    0.67    0.51
   8  -7   3   -0.23    0.50
  10   6  -3    0.30    0.38
  10   6  -3    0.44    0.49
  10   6  -3    1.95    0.64
 -10  -6   3    1.19    0.58
   9   6  -3    1.44    0.42
   9   6  -3    0.61    0.50
   9   6  -3    1.27    0.47
  -9  -6   3    1.27    0.51
  -9  -6   3    1.95    0.46
   8   6  -3    0.20    0.23
   8   6  -3   -0.59    0.30
   8   6  -3    0.26    0.34
  -8  -6   3    0.12    0.26
  -8  -6   3    0.81    0.41
   7   6  -3    3.14    0.45
   7   6  -3    4.51    0.66
  -7  -6   3    3.45    0.41
  -7  -6   3    3.85    0.53
  -7  -6   3    3.16    0.56
   6   6  -3   20.45    1.30
   6   6  -3   19.50    1.45
  -6  -6   3   18.93    1.42
  -6  -6   3   20.26    1.24
  -6  -6   3   20.70    1.36
   5   6  -3    4.28    0.41
   5   6  -3    5.79    0.45
   5   6  -3    4.93    0.64
  -5  -6   3    4.86    0.56
  -5  -6   3    5.44    0.40
  -5  -6   3    4.61    0.61
   4   6  -3    1.02    0.32
   4   6  -3    1.16    0.25
   4   6  -3    1.52    0.20
   4   6  -3    1.63    0.24
  -4  -6   3    1.90    0.34
  -4  -6   3    1.50    0.35
  -4  -6   3    1.61    0.39
  -4  -6   3    1.49    0.19
   3   6  -3   12.09    0.76
   3   6  -3   12.54    0.74
   3   6  -3   12.75    0.95
  -3  -6   3   13.49    1.12
  -3  -6   3   13.88    0.93
  -3  -6   3   12.26    0.92
   2   6  -3    5.53    0.58
  -2  -6   3    5.56    0.58
  -2  -6   3    5.32    0.56
  -2  -6   3    5.37    0.73
  -2  -6   3    5.83    0.49
   1   6  -3   -0.02    0.08
  -1  -6   3    0.10    0.14
  -1  -6   3    0.05    0.17
  -1  -6   3    0.18    0.17
  -1  -6   3   -0.18    0.15
   0   6  -3    1.35    0.29
   0   6  -3    1.38    0.11
   0   6  -3    1.34    0.11
   0   6  -3    1.23    0.19
   0  -6   3    1.40    0.29
   0  -6   3    1.05    0.42
   0  -6   3    1.30    0.27
   0  -6   3    1.55    0.28
  -1   6  -3    0.51    0.14
  -1   6  -3    0.17    0.14
  -1   6  -3    0.39    0.12
  -1   6  -3    0.29    0.19
   1  -6   3    0.85    0.27
   1  -6   3    0.48    0.19
   1  -6   3    0.04    0.17
   1  -6   3    0.31    0.26
  -2   6  -3    3.01    0.31
  -2   6  -3    2.92    0.34
  -2   6  -3    2.57    0.33
  -2   6  -3    2.98    0.44
   2  -6   3    3.25    0.23
   2  -6   3    2.50    0.38
   2  -6   3    2.90    0.63
   2  -6   3    2.96    0.51
  -3   6  -3    1.70    0.31
  -3   6  -3    1.56    0.36
   3  -6   3    1.92    0.49
   3  -6   3    1.53    0.51
  -4   6  -3    3.39    0.47
  -4   6  -3    3.00    0.52
   4  -6   3    2.83    0.58
   4  -6   3    3.64    0.69
  -5   6  -3    4.95    0.71
  -5   6  -3    4.16    0.57
   5  -6   3    4.39    0.83
   5  -6   3    4.11    0.76
  -6   6  -3   -0.13    0.24
  -6   6  -3    0.20    0.30
   6  -6   3    0.04    0.26
   6  -6   3   -0.03    0.32
  -7   6  -3    0.45    0.43
  -7   6  -3    0.15    0.33
  -7   6  -3   -0.34    0.32
   7  -6   3    0.58    0.45
   7  -6   3   -0.08    0.30
  -8   6  -3    0.70    0.47
  -8   6  -3    0.03    0.35
   8  -6   3    0.46    0.43
   8  -6   3    0.50    0.44
  -9   6  -3    2.56    0.64
  -9   6  -3    2.42    0.62
   9  -6   3    2.84    0.69
   9  -6   3    1.21    0.69
  10   5  -3    3.66    0.63
  10   5  -3    5.01    0.89
  10   5  -3    4.08    0.82
 -10  -5   3    2.84    0.69
   9   5  -3   -0.18    0.23
   9   5  -3    0.03    0.27
   9   5  -3   -0.55    0.32
  -9  -5   3    0.27    0.32
  -9  -5   3   -0.15    0.21
  -9  -5   3    0.17    0.35
   8   5  -3    0.14    0.26
   8   5  -3    0.10    0.31
   8   5  -3    0.13    0.25
  -8  -5   3   -0.03    0.23
  -8  -5   3    0.09    0.32
  -8  -5   3   -0.05    0.21
   7   5  -3   15.74    1.21
   7   5  -3   15.68    1.41
   7   5  -3   14.23    1.07
  -7  -5   3   14.36    1.06
  -7  -5   3   15.93    1.23
  -7  -5   3   14.84    1.04
   6   5  -3    1.08    0.38
   6   5  -3    1.88    0.32
  -6  -5   3    1.80    0.28
  -6  -5   3    1.13    0.23
  -6  -5   3    1.01    0.35
  -6  -5   3    1.10    0.29
   5   5  -3   33.01    1.97
   5   5  -3   26.62    1.79
   5   5  -3   31.48    1.79
  -5  -5   3   29.81    1.92
  -5  -5   3   29.92    1.75
  -5  -5   3   30.79    1.83
   4   5  -3    0.08    0.11
   4   5  -3    0.16    0.13
   4   5  -3    0.17    0.22
   4   5  -3    0.33    0.13
  -4  -5   3    0.15    0.11
  -4  -5   3    0.16    0.08
  -4  -5   3    0.10    0.21
  -4  -5   3   -0.06    0.16
   3   5  -3    2.50    0.23
   3   5  -3    2.37    0.27
   3   5  -3    2.80    0.38
  -3  -5   3    3.03    0.47
  -3  -5   3    2.49    0.25
  -3  -5   3    3.21    0.41
  -3  -5   3    3.23    0.39
   2   5  -3    1.72    0.15
   2   5  -3    1.38    0.28
   2   5  -3    1.80    0.14
  -2  -5   3    1.18    0.34
  -2  -5   3    1.91    0.31
  -2  -5   3    1.97    0.27
  -2  -5   3    1.58    0.28
  -2  -5   3    1.80    0.20
   1   5  -3    5.61    0.39
  -1  -5   3    5.56    0.48
  -1  -5   3    5.56    0.48
  -1  -5   3    5.61    0.69
  -1  -5   3    5.34    0.48
   0   5  -3   -0.07    0.09
   0   5  -3    0.15    0.10
   0   5  -3    0.08    0.05
   0   5  -3    0.05    0.04
   0  -5   3   -0.23    0.18
   0  -5   3   -0.12    0.11
   0  -5   3    0.08    0.10
   0  -5   3   -0.01    0.11
  -1   5  -3   17.99    1.04
  -1   5  -3   19.21    1.25
  -1   5  -3   17.62    1.24
  -1   5  -3   16.81    1.04
  -1   5  -3   16.86    1.10
   1  -5   3   17.21    1.15
   1  -5   3   16.84    1.28
   1  -5   3   16.70    1.12
   1  -5   3   17.65    1.44
  -2   5  -3   16.66    1.11
  -2   5  -3   14.42    1.14
  -2   5  -3   15.47    1.00
  -2   5  -3   15.48    1.00
   2  -5   3   16.48    1.39
   2  -5   3   15.90    1.25
   2  -5   3   16.26    1.06
  -3   5  -3    0.19    0.07
  -3   5  -3    0.14    0.20
  -3   5  -3    0.35    0.17
  -3   5  -3    0.14    0.15
   3  -5   3   -0.05    0.23
   3  -5   3   -0.22    0.23
   3  -5   3    0.08    0.10
  -4   5  -3    2.29    0.45
  -4   5  -3    3.18    0.44
   4  -5   3    3.74    0.66
   4  -5   3    3.55    0.64
   4  -5   3    3.38    0.37
  -5   5  -3   12.43    1.13
  -5   5  -3   13.93    1.04
   5  -5   3   15.94    0.99
   5  -5   3   13.71    1.30
   5  -5   3   11.84    1.27
  -6   5  -3   33.14    2.44
  -6   5  -3   36.55    2.26
   6  -5   3   37.15    2.17
   6  -5   3   33.83    2.69
   6  -5   3   32.53    2.62
  -7   5  -3    0.35    0.32
  -7   5  -3    0.30    0.36
   7  -5   3    0.38    0.38
   7  -5   3   -0.47    0.35
  -8   5  -3    0.20    0.37
  -8   5  -3    1.68    0.50
  -8   5  -3    0.99    0.49
   8  -5   3    1.22    0.53
   8  -5   3    0.29    0.48
  -9   5  -3    0.18    0.44
  -9   5  -3    0.20    0.36
   9  -5   3   -0.27    0.31
   9  -5   3    0.45    0.42
  11   4  -3    3.72    0.79
  11   4  -3    2.81    0.77
 -11  -4   3    3.95    0.74
 -11  -4   3    3.78    0.75
  10   4  -3   10.99    1.30
  10   4  -3    8.17    0.98
  10   4  -3    8.98    1.16
 -10  -4   3    8.83    1.12
   9   4  -3    1.41    0.50
   9   4  -3    1.51    0.39
   9   4  -3    0.82    0.49
  -9  -4   3    1.02    0.33
  -9  -4   3    0.60    0.36
   8   4  -3   -0.32    0.31
   8   4  -3    0.28    0.23
   8   4  -3    0.08    0.32
  -8  -4   3    0.10    0.24
  -8  -4   3    0.25    0.26
   7   4  -3   -0.26    0.17
   7   4  -3    0.31    0.31
   7   4  -3   -0.02    0.20
  -7  -4   3    0.10    0.21
  -7  -4   3   -0.04    0.17
  -7  -4   3    0.23    0.22
  -7  -4   3   -0.25    0.15
   6   4  -3   70.05    3.78
   6   4  -3   62.57    3.90
   6   4  -3   61.98    4.47
  -6  -4   3   63.89    3.72
  -6  -4   3   63.26    3.72
  -6  -4   3   69.67    3.78
  -6  -4   3   63.13    3.86
   5   4  -3   27.83    1.84
   5   4  -3   27.48    1.78
   5   4  -3   28.99    1.74
  -5  -4   3   28.31    1.73
  -5  -4   3   28.66    1.84
  -5  -4   3   27.78    1.70
  -5  -4   3   29.99    1.73
   4   4  -3    8.32    0.69
   4   4  -3    8.20    0.62
   4   4  -3    8.28    0.56
   4   4  -3    8.48    0.59
  -4  -4   3    8.35    0.62
  -4  -4   3    7.54    0.57
  -4  -4   3    8.36    0.57
  -4  -4   3    7.66    0.68
   3   4  -3    1.30    0.18
   3   4  -3    1.84    0.29
   3   4  -3    1.82    0.24
  -3  -4   3    1.75    0.21
  -3  -4   3    1.65    0.29
  -3  -4   3    1.58    0.25
   2   4  -3    7.43    0.45
   2   4  -3    6.59    0.46
   2   4  -3    6.98    0.56
  -2  -4   3    6.84    0.55
  -2  -4   3    7.59    0.67
  -2  -4   3    6.79    0.48
  -2  -4   3    7.82    0.54
   1   4  -3   11.77    0.67
   1   4  -3   11.76    0.72
   1   4  -3   12.14    0.80
   1   4  -3   10.94    0.67
  -1  -4   3   11.87    0.85
  -1  -4   3   12.23    0.81
  -1  -4   3   12.57    0.99
  -1  -4   3   11.74    0.78
  -1  -4   3   11.97    0.74
   0   4  -3    2.63    0.26
   0   4  -3    2.19    0.31
   0   4  -3    2.03    0.17
   0   4  -3    2.73    0.34
   0   4  -3    2.37    0.17
   0  -4   3    3.07    0.34
   0  -4   3    2.22    0.30
   0  -4   3    1.86    0.38
   0  -4   3    2.05    0.30
  -1   4  -3   10.43    0.70
  -1   4  -3   10.95    0.78
  -1   4  -3    9.06    0.63
  -1   4  -3   11.27    0.78
   1  -4   3   10.40    0.57
   1  -4   3    9.14    0.80
   1  -4   3    9.57    0.90
   1  -4   3    9.94    0.71
   1  -4   3   10.72    0.57
   1  -4   3    9.89    0.72
  -2   4  -3    2.96    0.27
  -2   4  -3    3.01    0.39
  -2   4  -3    2.59    0.30
  -2   4  -3    3.05    0.31
   2  -4   3    2.85    0.44
   2  -4   3    2.52    0.45
   2  -4   3    2.81    0.35
  -3   4  -3    2.07    0.36
  -3   4  -3    1.83    0.28
  -3   4  -3    1.86    0.18
  -3   4  -3    2.00    0.29
   3  -4   3    1.92    0.24
   3  -4   3    2.10    0.45
   3  -4   3    2.36    0.42
  -4   4  -3    1.80    0.37
  -4   4  -3    1.81    0.31
  -4   4  -3    1.29    0.28
   4  -4   3    1.49    0.42
   4  -4   3    1.40    0.40
   4  -4   3    1.88    0.27
  -5   4  -3   63.66    4.30
  -5   4  -3   63.93    3.94
   5  -4   3   76.69    3.91
   5  -4   3   65.36    4.56
   5  -4   3   67.63    4.71
  -6   4  -3   15.80    1.15
  -6   4  -3   13.96    1.24
   6  -4   3   14.49    1.05
   6  -4   3   15.06    1.33
   6  -4   3   14.55    1.38
  -7   4  -3   11.05    1.12
  -7   4  -3   12.62    1.05
   7  -4   3   12.01    1.16
   7  -4   3    9.07    1.28
   7  -4   3   12.91    0.96
  -8   4  -3   -0.36    0.31
  -8   4  -3    0.30    0.29
   8  -4   3   -0.50    0.34
   8  -4   3    0.34    0.32
   8  -4   3    0.56    0.32
  -9   4  -3   -0.23    0.37
  -9   4  -3    0.27    0.35
  -9   4  -3    0.12    0.40
   9  -4   3    0.66    0.47
   9  -4   3    0.39    0.41
 -10   4  -3    5.29    0.87
 -10   4  -3    6.22    0.93
  10  -4   3    5.22    1.09
  11   3  -3    1.46    0.53
  11   3  -3    1.89    0.71
  11   3  -3    0.77    0.48
 -11  -3   3    1.49    0.59
  10   3  -3    2.69    0.61
  10   3  -3    2.38    0.61
  10   3  -3    1.49    0.57
 -10  -3   3    1.71    0.60
   9   3  -3    0.81    0.37
   9   3  -3    1.05    0.42
   9   3  -3    0.86    0.40
  -9  -3   3    0.77    0.32
  -9  -3   3    0.79    0.39
  -9  -3   3    0.65    0.41
   8   3  -3    4.90    0.76
   8   3  -3    4.48    0.63
   8   3  -3    4.79    0.71
  -8  -3   3    4.59    0.67
  -8  -3   3    5.62    0.72
  -8  -3   3    5.85    0.62
   7   3  -3   11.96    0.93
   7   3  -3   11.45    1.07
   7   3  -3   10.23    0.95
  -7  -3   3   11.31    0.83
  -7  -3   3   10.34    0.94
  -7  -3   3   13.70    0.98
   6   3  -3   43.63    3.24
   6   3  -3   44.86    2.75
   6   3  -3   44.41    2.85
  -6  -3   3   47.69    2.68
  -6  -3   3   44.42    2.82
  -6  -3   3   51.20    2.79
   5   3  -3    7.12    0.59
   5   3  -3    6.48    0.69
   5   3  -3    8.49    0.76
   5   3  -3    7.62    0.69
  -5  -3   3    6.35    0.69
  -5  -3   3    7.49    0.60
  -5  -3   3    6.80    0.58
  -5  -3   3    7.63    0.56
   4   3  -3   15.28    1.09
   4   3  -3   16.56    1.31
   4   3  -3   17.80    1.16
   4   3  -3   16.48    1.06
   4   3  -3   15.69    1.01
  -4  -3   3   17.06    1.14
  -4  -3   3   17.97    1.06
  -4  -3   3   16.50    1.04
  -4  -3   3   18.03    1.07
   3   3  -3    2.16    0.28
   3   3  -3    2.09    0.22
   3   3  -3    2.55    0.33
   3   3  -3    1.86    0.22
   3   3  -3    1.50    0.30
  -3  -3   3    1.99    0.30
  -3  -3   3    1.81    0.22
  -3  -3   3    1.90    0.24
  -3  -3   3    1.96    0.24
   2   3  -3    3.57    0.37
   2   3  -3    3.61    0.44
   2   3  -3    3.34    0.29
   2   3  -3    3.62    0.27
  -2  -3   3    3.88    0.41
  -2  -3   3    3.37    0.26
  -2  -3   3    3.58    0.31
  -2  -3   3    4.75    0.44
  -2  -3   3    3.74    0.29
   1   3  -3    2.95    0.30
   1   3  -3    2.50    0.19
   1   3  -3    2.78    0.23
   1   3  -3    2.58    0.20
   1   3  -3    2.39    0.33
  -1  -3   3    2.83    0.40
  -1  -3   3    2.60    0.31
  -1  -3   3    2.53    0.27
  -1  -3   3    2.23    0.24
  -1  -3   3    2.81    0.28
   0   3  -3    4.27    0.30
   0   3  -3    4.69    0.43
   0   3  -3    4.67    0.30
   0   3  -3    4.93    0.35
   0  -3   3    4.54    0.41
   0  -3   3    4.72    0.48
   0  -3   3    5.01    0.39
   0  -3   3    4.70    0.36
   0  -3   3    4.64    0.37
  -1   3  -3    6.88    0.52
  -1   3  -3    6.34    0.47
  -1   3  -3    7.12    0.54
  -1   3  -3    6.41    0.42
  -1   3  -3    5.58    0.42
   1  -3   3    7.12    0.40
   1  -3   3    6.44    0.40
   1  -3   3    6.46    0.49
   1  -3   3    6.18    0.54
   1  -3   3    6.61    0.63
  -2   3  -3    7.21    0.51
  -2   3  -3    6.50    0.60
  -2   3  -3    7.97    0.55
  -2   3  -3    6.90    0.52
  -2   3  -3    7.53    0.50
  -2   3  -3    7.39    0.56
   2  -3   3    6.87    0.67
   2  -3   3    8.18    0.51
   2  -3   3    6.76    0.54
   2  -3   3    7.12    0.48
   2  -3   3    7.54    0.65
  -3   3  -3    3.35    0.28
  -3   3  -3    2.87    0.24
  -3   3  -3    2.59    0.38
  -3   3  -3    3.68    0.37
  -3   3  -3    2.57    0.33
   3  -3   3    2.54    0.44
   3  -3   3    2.93    0.30
   3  -3   3    3.29    0.47
  -4   3  -3   11.60    0.89
  -4   3  -3   12.06    0.83
  -4   3  -3   13.17    1.02
  -4   3  -3   13.79    0.90
   4  -3   3   13.11    1.09
   4  -3   3   12.81    0.85
   4  -3   3   12.67    1.08
  -5   3  -3    1.00    0.29
  -5   3  -3    0.91    0.32
   5  -3   3    0.88    0.38
   5  -3   3    1.08    0.33
   5  -3   3    1.11    0.25
  -6   3  -3   28.53    1.77
  -6   3  -3   25.58    1.91
   6  -3   3   28.04    1.70
   6  -3   3   25.24    2.00
   6  -3   3   23.39    1.99
  -7   3  -3    1.27    0.46
  -7   3  -3    1.33    0.36
   7  -3   3    1.69    0.34
   7  -3   3    1.69    0.34
   7  -3   3    1.10    0.48
   7  -3   3    1.62    0.41
  -8   3  -3    3.48    0.59
  -8   3  -3    3.10    0.61
   8  -3   3    2.68    0.47
   8  -3   3    4.67    0.87
   8  -3   3    3.80    0.57
   8  -3   3    3.75    0.62
  -9   3  -3    2.06    0.56
  -9   3  -3    1.37    0.57
  -9   3  -3    2.56    0.55
   9  -3   3    2.04    0.44
   9  -3   3    1.10    0.50
   9  -3   3    1.85    0.47
 -10   3  -3    0.80    0.39
 -10   3  -3   -0.18    0.39
  10  -3   3    0.31    0.29
  10  -3   3   -0.62    0.40
  10  -3   3    0.37    0.33
 -11   3  -3    0.91    0.46
  11  -3   3    0.02    0.52
  11   2  -3   -0.83    0.38
 -11  -2   3    0.10    0.32
  10   2  -3    2.48    0.62
  10   2  -3    3.36    0.68
  10   2  -3    4.27    0.71
 -10  -2   3    2.64    0.64
   9   2  -3    2.41    0.54
   9   2  -3    2.43    0.62
   9   2  -3    2.72    0.53
  -9  -2   3    3.42    0.66
  -9  -2   3    2.72    0.59
   8   2  -3    2.65    0.54
   8   2  -3    2.38    0.46
   8   2  -3    1.55    0.47
  -8  -2   3    2.37    0.52
  -8  -2   3    2.95    0.53
   7   2  -3   -0.07    0.22
   7   2  -3    0.16    0.30
   7   2  -3    0.01    0.18
  -7  -2   3    0.40    0.30
  -7  -2   3   -0.07    0.23
   6   2  -3   16.51    1.16
   6   2  -3   16.19    1.22
   6   2  -3   17.34    1.38
  -6  -2   3   17.11    1.21
  -6  -2   3   16.75    1.20
   5   2  -3   34.39    2.00
   5   2  -3   31.18    2.05
   5   2  -3   32.66    2.34
  -5  -2   3   32.66    1.90
  -5  -2   3   33.36    2.04
  -5  -2   3   31.67    2.00
   4   2  -3    0.18    0.06
   4   2  -3    0.11    0.15
   4   2  -3    0.68    0.21
   4   2  -3    0.04    0.12
   4   2  -3    0.06    0.12
  -4  -2   3    0.21    0.14
  -4  -2   3    0.36    0.13
  -4  -2   3    0.21    0.15
   3   2  -3    8.72    0.62
   3   2  -3    9.72    0.79
   3   2  -3    9.81    0.69
   3   2  -3    8.65    0.60
   3   2  -3    9.27    0.66
  -3  -2   3    9.81    0.60
  -3  -2   3    9.47    0.64
  -3  -2   3    9.86    0.64
  -3  -2   3    8.78    0.67
   2   2  -3    2.06    0.21
   2   2  -3    2.20    0.20
   2   2  -3    1.84    0.22
   2   2  -3    1.71    0.27
   2   2  -3    2.22    0.26
  -2  -2   3    1.77    0.21
  -2  -2   3    1.65    0.19
  -2  -2   3    1.67    0.20
  -2  -2   3    1.32    0.18
  -2  -2   3    1.56    0.23
  -2  -2   3    1.73    0.27
   1   2  -3    0.03    0.06
   1   2  -3    0.00    0.07
   1   2  -3    0.15    0.07
   1   2  -3    0.02    0.05
   1   2  -3    0.12    0.07
  -1  -2   3    0.06    0.08
  -1  -2   3   -0.02    0.04
  -1  -2   3    0.00    0.06
  -1  -2   3    0.09    0.10
  -1  -2   3    0.05    0.07
   0   2  -3    1.10    0.15
   0   2  -3    0.75    0.10
   0   2  -3    1.13    0.12
   0   2  -3    0.92    0.17
   0   2  -3    0.82    0.13
   0  -2   3    1.03    0.15
   0  -2   3    1.01    0.10
   0  -2   3    1.37    0.20
   0  -2   3    0.85    0.19
   0  -2   3    1.29    0.16
  -1   2  -3    9.67    0.64
  -1   2  -3   10.44    0.64
  -1   2  -3   10.85    0.68
  -1   2  -3   10.52    0.76
  -1   2  -3   10.84    0.75
   1  -2   3   10.93    0.84
   1  -2   3   11.14    0.63
   1  -2   3    9.86    0.68
   1  -2   3   10.61    0.78
  -2   2  -3   32.14    2.05
  -2   2  -3   32.38    1.83
  -2   2  -3   33.22    1.85
  -2   2  -3   33.00    2.11
  -2   2  -3   30.45    1.87
  -2   2  -3   29.02    1.85
   2  -2   3   34.24    1.85
   2  -2   3   36.36    2.06
   2  -2   3   29.50    2.12
   2  -2   3   30.48    1.83
   2  -2   3   32.86    2.24
  -3   2  -3   98.90    6.23
  -3   2  -3  108.33    5.75
  -3   2  -3   97.23    5.73
  -3   2  -3  110.54    5.74
  -3   2  -3  100.09    6.57
   3  -2   3  103.00    5.70
   3  -2   3  107.61    6.80
   3  -2   3   96.87    6.50
  -4   2  -3    0.97    0.17
  -4   2  -3    1.00    0.24
  -4   2  -3    0.85    0.19
  -4   2  -3    0.99    0.27
   4  -2   3    0.81    0.19
   4  -2   3    0.92    0.29
   4  -2   3    0.88    0.24
  -5   2  -3   56.93    3.73
  -5   2  -3   53.58    3.41
   5  -2   3   57.12    3.90
   5  -2   3   60.58    3.99
   5  -2   3   60.80    3.39
   5  -2   3   60.49    3.38
  -6   2  -3   48.89    2.99
  -6   2  -3   46.88    3.25
   6  -2   3   51.88    3.43
   6  -2   3   51.80    2.94
   6  -2   3   44.11    3.37
   6  -2   3   50.86    2.92
  -7   2  -3    0.03    0.22
  -7   2  -3   -0.04    0.18
   7  -2   3    0.03    0.20
   7  -2   3    0.12    0.18
   7  -2   3   -0.02    0.30
   7  -2   3    0.11    0.17
  -8   2  -3    3.91    0.71
  -8   2  -3    2.52    0.52
   8  -2   3    3.27    0.68
   8  -2   3    4.03    0.58
   8  -2   3    3.07    0.46
   8  -2   3    3.61    0.56
  -9   2  -3    2.69    0.63
  -9   2  -3    1.10    0.45
   9  -2   3    2.25    0.47
   9  -2   3    1.51    0.53
   9  -2   3    2.43    0.45
 -10   2  -3    0.41    0.43
 -10   2  -3    0.33    0.28
  10  -2   3   -0.11    0.28
  10  -2   3   -0.22    0.39
  10  -2   3    0.08    0.31
 -11   2  -3    1.05    0.54
  11  -2   3    1.26    0.50
  11  -2   3    1.55    0.44
  11  -2   3    0.59    0.60
  10   1  -3    0.73    0.54
  10   1  -3    1.24    0.47
  10   1  -3    1.08    0.48
 -10  -1   3    1.94    0.56
 -10  -1   3    1.24    0.56
   9   1  -3    3.20    0.63
   9   1  -3    2.40    0.56
   9   1  -3    2.91    0.58
  -9  -1   3    2.41    0.54
  -9  -1   3    3.34    0.67
   8   1  -3    1.08    0.41
   8   1  -3    0.73    0.28
   8   1  -3    0.61    0.30
  -8  -1   3   -0.06    0.25
  -8  -1   3    0.46    0.37
   7   1  -3   -0.12    0.23
   7   1  -3   -0.20    0.18
   7   1  -3   -0.12    0.21
  -7  -1   3   -0.10    0.21
  -7  -1   3   -0.09    0.25
   6   1  -3    9.65    0.93
   6   1  -3    9.65    0.87
   6   1  -3   11.36    0.84
  -6  -1   3   10.14    0.85
  -6  -1   3   10.38    0.83
   5   1  -3   43.71    2.61
   5   1  -3   40.58    2.67
   5   1  -3   43.79    3.03
  -5  -1   3   41.85    2.61
  -5  -1   3   46.69    2.64
  -5  -1   3   48.71    2.67
   4   1  -3    0.39    0.17
   4   1  -3    0.42    0.17
   4   1  -3    0.34    0.19
   4   1  -3    0.49    0.15
   4   1  -3    0.56    0.11
  -4  -1   3    0.57    0.10
  -4  -1   3    0.32    0.18
  -4  -1   3    0.31    0.19
   3   1  -3   20.55    1.15
   3   1  -3   19.29    1.19
   3   1  -3   18.26    1.34
   3   1  -3   16.46    1.15
   3   1  -3   16.85    1.14
  -3  -1   3   17.86    1.15
  -3  -1   3   18.68    1.06
  -3  -1   3   19.57    1.17
   2   1  -3    8.22    0.57
   2   1  -3    7.67    0.53
   2   1  -3    7.70    0.65
   2   1  -3    7.37    0.52
   2   1  -3    7.34    0.54
  -2  -1   3    7.84    0.52
  -2  -1   3    7.82    0.53
  -2  -1   3    7.18    0.53
  -2  -1   3    8.00    0.47
  -2  -1   3    8.50    0.56
   1   1  -3    3.20    0.26
   1   1  -3    3.10    0.24
   1   1  -3    3.05    0.31
   1   1  -3    2.79    0.24
   1   1  -3    3.31    0.26
   1   1  -3    3.34    0.27
  -1  -1   3    3.23    0.26
  -1  -1   3    2.82    0.25
  -1  -1   3    2.62    0.22
  -1  -1   3    2.99    0.21
  -1  -1   3    3.02    0.24
   0   1  -3    7.65    0.46
   0   1  -3    7.19    0.46
   0   1  -3    7.12    0.56
   0   1  -3    6.81    0.46
   0   1  -3    7.30    0.48
   0  -1   3    7.90    0.49
   0  -1   3    7.76    0.46
   0  -1   3    6.93    0.45
   0  -1   3    7.09    0.46
   0  -1   3    7.66    0.58
   0  -1   3    7.48    0.55
   0  -1   3    7.70    0.46
  -1   1  -3    3.42    0.23
  -1   1  -3    3.72    0.27
  -1   1  -3    3.95    0.28
  -1   1  -3    3.80    0.29
  -1   1  -3    3.63    0.32
  -1   1  -3    3.35    0.32
   1  -1   3    3.63    0.30
   1  -1   3    3.44    0.26
   1  -1   3    3.85    0.32
   1  -1   3    4.11    0.27
   1  -1   3    3.69    0.36
   1  -1   3    3.85    0.33
  -2   1  -3   37.09    2.09
  -2   1  -3   35.71    2.40
  -2   1  -3   35.57    2.30
  -2   1  -3   32.01    2.09
  -2   1  -3   35.83    2.11
  -2   1  -3   36.24    2.05
   2  -1   3   41.50    2.32
   2  -1   3   37.67    2.49
   2  -1   3   35.26    2.09
   2  -1   3   41.26    2.41
   2  -1   3   37.45    2.10
   2  -1   3   35.50    2.39
  -3   1  -3    7.18    0.56
  -3   1  -3    7.47    0.55
  -3   1  -3    6.71    0.56
  -3   1  -3    7.18    0.63
  -3   1  -3    7.57    0.48
   3  -1   3    8.88    0.56
   3  -1   3    8.33    0.58
   3  -1   3    8.02    0.49
   3  -1   3    7.51    0.63
   3  -1   3    8.27    0.63
   3  -1   3    7.17    0.64
   3  -1   3    7.49    0.54
  -4   1  -3   44.77    2.83
  -4   1  -3   50.68    2.84
  -4   1  -3   49.60    2.79
  -4   1  -3   46.50    3.10
   4  -1   3   45.88    2.81
   4  -1   3   49.30    3.30
   4  -1   3   46.00    3.22
   4  -1   3   51.37    2.80
   4  -1   3   53.25    3.17
  -5   1  -3    1.25    0.29
  -5   1  -3    1.77    0.23
  -5   1  -3    1.30    0.35
   5  -1   3    1.48    0.37
   5  -1   3    1.90    0.30
   5  -1   3    1.53    0.23
   5  -1   3    1.77    0.29
   5  -1   3    1.16    0.18
  -6   1  -3    0.35    0.23
  -6   1  -3    0.22    0.29
   6  -1   3    0.34    0.17
   6  -1   3    0.60    0.30
   6  -1   3    1.00    0.26
   6  -1   3    0.50    0.14
   6  -1   3    0.44    0.19
  -7   1  -3    4.68    0.61
  -7   1  -3    5.84    0.79
   7  -1   3    4.59    0.72
   7  -1   3    5.50    0.61
   7  -1   3    5.84    0.62
   7  -1   3    4.28    0.43
   7  -1   3    4.92    0.53
  -8   1  -3    0.42    0.41
  -8   1  -3   -0.07    0.21
   8  -1   3    0.48    0.25
   8  -1   3    0.16    0.10
   8  -1   3    0.53    0.24
   8  -1   3    0.36    0.29
   8  -1   3    0.28    0.20
  -9   1  -3    3.34    0.72
  -9   1  -3    3.22    0.60
   9  -1   3    3.61    0.53
   9  -1   3    2.37    0.51
   9  -1   3    2.64    0.67
 -10   1  -3    3.51    0.59
 -10   1  -3    3.82    0.69
  10  -1   3    3.49    0.58
  10  -1   3    4.64    0.86
  10  -1   3    4.64    0.71
 -11   1  -3   -0.08    0.25
  11  -1   3    0.44    0.34
  11  -1   3   -0.37    0.36
  11  -1   3    0.13    0.27
 -12   1  -3    0.51    0.45
  12  -1   3    0.96    0.52
  12  -1   3    0.30    0.55
  12  -1   3    0.82    0.43
  10   0  -3   -0.12    0.37
  10   0  -3    0.16    0.31
 -10   0   3    0.00    0.47
 -10   0   3   -0.13    0.34
   9   0  -3    1.10    0.42
   9   0  -3    1.19    0.43
   9   0  -3    0.82    0.47
  -9   0   3    1.06    0.41
  -9   0   3    1.34    0.54
   8   0  -3    8.12    0.82
   8   0  -3    5.59    0.75
   8   0  -3    7.22    0.90
  -8   0   3    6.73    0.88
  -8   0   3    8.16    0.85
   7   0  -3    0.02    0.21
   7   0  -3    0.73    0.28
   7   0  -3    0.43    0.27
  -7   0   3    0.28    0.25
  -7   0   3    0.56    0.34
  -7   0   3    0.27    0.16
   6   0  -3    4.57    0.59
   6   0  -3    4.80    0.61
   6   0  -3    4.84    0.57
  -6   0   3    4.87    0.43
  -6   0   3    5.00    0.58
  -6   0   3    4.39    0.60
   5   0  -3    0.62    0.23
   5   0  -3    0.55    0.26
   5   0  -3    0.22    0.15
  -5   0   3    0.64    0.23
  -5   0   3    0.44    0.15
  -5   0   3    0.41    0.21
   4   0  -3   17.29    1.12
   4   0  -3   15.50    1.14
   4   0  -3   16.94    1.26
  -4   0   3   15.48    1.12
  -4   0   3   17.41    1.09
  -4   0   3   17.68    1.11
   3   0  -3    0.67    0.14
   3   0  -3    0.72    0.19
   3   0  -3    0.74    0.19
   3   0  -3    0.53    0.16
   3   0  -3    0.73    0.17
  -3   0   3    0.56    0.13
  -3   0   3    0.77    0.18
  -3   0   3    0.51    0.18
   2   0  -3   43.70    2.54
   2   0  -3   42.77    2.50
   2   0  -3   44.95    2.90
   2   0  -3   42.07    2.63
   2   0  -3   40.40    2.47
  -2   0   3   44.36    2.62
  -2   0   3   42.66    2.51
  -2   0   3   46.23    2.55
  -2   0   3   44.90    2.50
   1   0  -3   18.46    1.05
   1   0  -3   17.44    1.04
   1   0  -3   17.27    1.10
   1   0  -3   17.61    1.07
   1   0  -3   17.28    1.23
  -1   0   3   17.94    1.05
  -1   0   3   17.38    1.10
  -1   0   3   17.81    1.04
  -1   0   3   17.50    1.06
  -1   0   3   17.67    1.05
  -1   0   3   16.38    1.22
   0   0  -3   42.73    2.39
   0   0  -3   41.58    2.39
   0   0  -3   43.50    2.81
   0   0  -3   42.71    2.42
   0   0  -3   44.11    2.58
   0   0  -3   40.90    2.38
   0   0   3   47.13    2.82
   0   0   3   44.14    2.39
   0   0   3   40.91    2.39
   0   0   3   40.85    2.57
   0   0   3   42.10    2.42
   0   0   3   42.44    2.70
   0   0   3   41.61    2.39
  -1   0  -3   10.85    0.72
  -1   0  -3   11.27    0.73
  -1   0  -3   10.67    0.78
  -1   0  -3    9.88    0.65
  -1   0  -3   10.22    0.62
  -1   0  -3   10.91    0.67
  -1   0  -3   10.02    0.65
   1   0   3   10.27    0.67
   1   0   3   11.72    0.66
   1   0   3   10.69    0.66
   1   0   3   11.49    0.78
   1   0   3   10.52    0.62
   1   0   3   12.11    0.74
   1   0   3   10.83    0.75
  -2   0  -3    6.82    0.53
  -2   0  -3    6.39    0.46
  -2   0  -3    6.56    0.52
  -2   0  -3    6.80    0.47
  -2   0  -3    6.73    0.47
   2   0   3    7.09    0.52
   2   0   3    7.06    0.47
   2   0   3    6.63    0.52
   2   0   3    5.83    0.46
   2   0   3    7.53    0.54
   2   0   3    7.80    0.54
  -3   0  -3   93.26    5.41
  -3   0  -3   91.02    5.43
  -3   0  -3   86.97    6.27
  -3   0  -3   97.95    5.43
  -3   0  -3   94.27    5.90
   3   0   3   92.85    6.12
   3   0   3   99.78    5.43
   3   0   3  110.52    5.93
   3   0   3  107.74    6.37
   3   0   3  101.47    6.28
   3   0   3  101.31    5.45
   3   0   3   96.01    5.42
  -4   0  -3   23.12    1.67
  -4   0  -3   25.10    1.53
  -4   0  -3   23.74    1.44
  -4   0  -3   27.07    1.52
   4   0   3   23.34    1.70
   4   0   3   25.07    1.51
   4   0   3   24.01    1.44
   4   0   3   25.00    1.69
   4   0   3   25.79    1.68
  -5   0  -3    6.31    0.58
  -5   0  -3    6.99    0.66
  -5   0  -3    6.99    0.49
   5   0   3    6.58    0.65
   5   0   3    7.20    0.57
   5   0   3    7.00    0.50
   5   0   3    6.03    0.55
   5   0   3    6.60    0.55
  -6   0  -3   15.74    1.16
  -6   0  -3   14.77    1.29
   6   0   3   16.07    1.21
   6   0   3   16.27    1.15
   6   0   3   18.75    1.21
   6   0   3   17.48    1.09
   6   0   3   15.40    1.31
  -7   0  -3   20.49    1.50
  -7   0  -3   22.64    1.72
   7   0   3   23.36    1.43
   7   0   3   20.64    1.57
   7   0   3   23.51    1.57
   7   0   3   22.81    1.49
   7   0   3   19.89    1.67
  -8   0  -3    0.24    0.30
  -8   0  -3   -0.42    0.30
   8   0   3    0.40    0.27
   8   0   3    0.46    0.28
   8   0   3    0.39    0.24
  -9   0  -3   11.56    1.30
  -9   0  -3    9.74    1.10
   9   0   3   10.18    0.90
   9   0   3   11.34    1.12
   9   0   3   13.04    1.04
 -10   0  -3    1.37    0.50
  10   0   3    1.24    0.37
  10   0   3    1.49    0.54
  10   0   3    2.17    0.52
 -11   0  -3    1.05    0.51
  11   0   3    0.73    0.46
  11   0   3    0.61    0.38
  11   0   3    0.40    0.44
 -12   0  -3    0.02    0.39
 -12   0  -3    1.11    0.60
  12   0   3    0.06    0.36
  12   0   3   -0.03    0.50
  12   0   3    0.23    0.32
  10  -1  -3   -0.44    0.39
  10  -1  -3   -0.48    0.36
 -10   1   3   -0.25    0.46
 -10   1   3   -0.24    0.33
   9  -1  -3    0.42    0.42
   9  -1  -3    0.86    0.37
  -9   1   3    0.36    0.31
  -9   1   3    0.34    0.33
   8  -1  -3    0.87    0.33
   8  -1  -3    0.42    0.36
   8  -1  -3    0.50    0.32
  -8   1   3    0.76    0.32
  -8   1   3    0.51    0.32
   7  -1  -3    0.49    0.29
   7  -1  -3    0.17    0.25
   7  -1  -3   -0.17    0.25
  -7   1   3   -0.24    0.28
  -7   1   3   -0.25    0.17
  -7   1   3   -0.33    0.18
   6  -1  -3    8.83    0.75
   6  -1  -3    8.36    0.76
   6  -1  -3    6.02    0.77
  -6   1   3    7.21    0.83
  -6   1   3    8.05    0.68
  -6   1   3    7.87    0.68
   5  -1  -3   19.89    1.40
   5  -1  -3   20.20    1.49
   5  -1  -3   19.49    1.35
  -5   1   3   20.82    1.36
  -5   1   3   20.20    1.31
  -5   1   3   19.81    1.40
   4  -1  -3   49.12    3.25
   4  -1  -3   44.34    2.88
   4  -1  -3   47.82    2.83
  -4   1   3   49.37    2.88
  -4   1   3   49.44    2.81
  -4   1   3   49.85    2.98
   3  -1  -3   12.38    0.92
   3  -1  -3   12.22    0.85
   3  -1  -3   10.80    0.83
   3  -1  -3   12.25    0.82
  -3   1   3   12.32    0.85
  -3   1   3   11.97    0.83
   2  -1  -3   22.47    1.39
   2  -1  -3   21.58    1.45
   2  -1  -3   24.30    1.59
   2  -1  -3   22.56    1.41
   2  -1  -3   22.53    1.37
  -2   1   3   22.71    1.57
  -2   1   3   23.57    1.45
  -2   1   3   22.39    1.38
   1  -1  -3    4.76    0.40
   1  -1  -3    5.26    0.45
   1  -1  -3    5.29    0.40
   1  -1  -3    4.83    0.37
   1  -1  -3    4.74    0.40
  -1   1   3    5.51    0.40
  -1   1   3    5.62    0.40
  -1   1   3    5.20    0.41
  -1   1   3    5.90    0.46
  -1   1   3    5.58    0.41
  -1   1   3    5.11    0.38
   0  -1  -3    4.80    0.35
   0  -1  -3    4.54    0.35
   0  -1  -3    4.61    0.36
   0  -1  -3    5.15    0.30
   0  -1  -3    5.36    0.40
   0  -1  -3    4.77    0.36
   0  -1  -3    5.57    0.44
   0   1   3    4.65    0.36
   0   1   3    5.53    0.36
   0   1   3    4.98    0.39
   0   1   3    5.74    0.37
   0   1   3    5.07    0.36
   0   1   3    5.74    0.43
  -1  -1  -3   19.78    1.43
  -1  -1  -3   21.72    1.22
  -1  -1  -3   20.82    1.22
  -1  -1  -3   20.24    1.22
  -1  -1  -3   20.57    1.31
  -1  -1  -3   20.33    1.31
   1   1   3   21.37    1.31
   1   1   3   21.03    1.36
   1   1   3   22.06    1.32
   1   1   3   21.74    1.21
   1   1   3   21.66    1.22
   1   1   3   20.27    1.22
   1   1   3   22.46    1.44
   1   1   3   19.62    1.21
  -2  -1  -3    6.41    0.47
  -2  -1  -3    6.89    0.50
  -2  -1  -3    6.71    0.47
  -2  -1  -3    6.86    0.52
  -2  -1  -3    7.48    0.48
  -2  -1  -3    6.28    0.55
   2   1   3    6.53    0.51
   2   1   3    8.43    0.54
   2   1   3    6.60    0.47
   2   1   3    7.05    0.47
   2   1   3    7.05    0.50
   2   1   3    7.23    0.56
   2   1   3    6.90    0.47
  -3  -1  -3    4.18    0.41
  -3  -1  -3    4.44    0.37
  -3  -1  -3    3.70    0.40
  -3  -1  -3    4.23    0.36
  -3  -1  -3    4.53    0.37
  -3  -1  -3    4.74    0.36
   3   1   3    4.92    0.31
   3   1   3    4.78    0.38
   3   1   3    4.11    0.36
   3   1   3    5.28    0.45
   3   1   3    5.60    0.44
   3   1   3    4.59    0.40
  -4  -1  -3   21.69    1.41
  -4  -1  -3   21.60    1.55
  -4  -1  -3   23.36    1.35
  -4  -1  -3   23.00    1.45
   4   1   3   24.96    1.58
   4   1   3   22.79    1.60
   4   1   3   22.61    1.56
   4   1   3   23.36    1.42
   4   1   3   22.45    1.40
   4   1   3   22.18    1.34
  -5  -1  -3   16.49    1.04
  -5  -1  -3   16.97    1.25
  -5  -1  -3   16.69    1.13
   5   1   3   16.75    1.04
   5   1   3   14.68    1.22
   5   1   3   17.77    1.12
   5   1   3   17.96    1.25
  -6  -1  -3    1.37    0.38
  -6  -1  -3    1.70    0.32
   6   1   3    1.38    0.33
   6   1   3    2.00    0.19
   6   1   3    1.15    0.28
   6   1   3    1.76    0.26
  -7  -1  -3   21.44    1.55
  -7  -1  -3   23.27    1.74
   7   1   3   22.88    1.46
   7   1   3   24.36    1.53
   7   1   3   21.85    1.52
   7   1   3   20.77    1.69
  -8  -1  -3    1.22    0.47
  -8  -1  -3    1.67    0.38
   8   1   3    1.45    0.45
   8   1   3    1.85    0.39
   8   1   3    1.22    0.31
  -9  -1  -3   -0.19    0.33
  -9  -1  -3   -0.38    0.24
   9   1   3   -0.02    0.24
   9   1   3    0.13    0.24
   9   1   3   -0.14    0.25
 -10  -1  -3    0.12    0.35
  10   1   3   -0.29    0.25
  10   1   3    0.09    0.34
  10   1   3    0.01    0.25
 -11  -1  -3    1.82    0.57
  11   1   3    2.17    0.50
  11   1   3    2.05    0.63
  11   1   3    1.86    0.53
 -12  -1  -3    0.46    0.49
 -12  -1  -3    0.13    0.38
  12   1   3    0.32    0.44
  12   1   3    0.55    0.42
  12   1   3   -0.23    0.43
  10  -2  -3   -0.29    0.35
  10  -2  -3   -0.12    0.28
 -10   2   3   -0.02    0.46
   9  -2  -3    1.48    0.47
   9  -2  -3    2.07    0.54
  -9   2   3    1.68    0.59
   8  -2  -3    0.59    0.37
   8  -2  -3    0.46    0.37
  -8   2   3    0.35    0.40
  -8   2   3   -0.39    0.22
   7  -2  -3    0.34    0.25
   7  -2  -3    0.12    0.31
   7  -2  -3    0.18    0.24
  -7   2   3    0.11    0.22
  -7   2   3    0.21    0.26
  -7   2   3    0.08    0.30
   6  -2  -3    0.03    0.20
   6  -2  -3   -0.02    0.20
   6  -2  -3   -0.14    0.15
  -6   2   3   -0.01    0.20
  -6   2   3    0.03    0.18
  -6   2   3    0.31    0.25
   5  -2  -3   11.43    0.92
   5  -2  -3   11.21    0.86
   5  -2  -3    9.80    0.90
  -5   2   3   11.55    0.91
  -5   2   3   11.53    0.81
  -5   2   3   10.16    0.89
   4  -2  -3    0.71    0.22
   4  -2  -3    0.38    0.18
   4  -2  -3    0.41    0.25
  -4   2   3    0.64    0.23
  -4   2   3    0.81    0.19
  -4   2   3    0.53    0.24
   3  -2  -3   37.35    2.49
   3  -2  -3   36.47    2.36
   3  -2  -3   42.21    2.33
   3  -2  -3   40.82    2.65
  -3   2   3   41.58    2.36
  -3   2   3   36.63    2.62
  -3   2   3   40.25    2.48
   2  -2  -3   23.75    1.49
   2  -2  -3   25.47    1.73
   2  -2  -3   23.76    1.61
   2  -2  -3   24.36    1.54
  -2   2   3   24.86    1.62
  -2   2   3   26.98    1.54
  -2   2   3   25.10    1.71
   1  -2  -3    2.81    0.26
   1  -2  -3    2.97    0.33
   1  -2  -3    2.64    0.31
   1  -2  -3    3.35    0.23
   1  -2  -3    3.00    0.34
   1  -2  -3    3.14    0.32
  -1   2   3    2.64    0.32
  -1   2   3    3.55    0.32
  -1   2   3    3.51    0.30
  -1   2   3    3.07    0.31
  -1   2   3    2.86    0.32
   0  -2  -3   50.95    3.50
   0  -2  -3   52.06    2.99
   0  -2  -3   50.55    3.23
   0  -2  -3   53.50    3.00
   0  -2  -3   49.41    3.04
   0  -2  -3   53.15    2.94
   0   2   3   58.67    3.06
   0   2   3   55.13    3.24
   0   2   3   51.78    2.98
   0   2   3   60.68    3.52
   0   2   3   52.94    3.00
   0   2   3   52.25    2.99
  -1  -2  -3    3.35    0.27
  -1  -2  -3    2.95    0.32
  -1  -2  -3    2.98    0.29
  -1  -2  -3    3.30    0.24
  -1  -2  -3    3.29    0.26
  -1  -2  -3    3.01    0.26
  -1  -2  -3    3.28    0.25
   1   2   3    3.62    0.28
   1   2   3    3.05    0.30
   1   2   3    3.53    0.26
   1   2   3    2.94    0.25
   1   2   3    3.82    0.35
   1   2   3    3.55    0.26
  -2  -2  -3    0.46    0.14
  -2  -2  -3    0.75    0.12
  -2  -2  -3    0.55    0.17
  -2  -2  -3    0.86    0.14
  -2  -2  -3    0.56    0.13
   2   2   3    0.76    0.14
   2   2   3    0.80    0.14
   2   2   3    0.64    0.15
   2   2   3    0.57    0.13
   2   2   3    0.71    0.13
   2   2   3    0.62    0.12
   2   2   3    0.96    0.19
  -3  -2  -3   63.38    3.44
  -3  -2  -3   57.52    3.47
  -3  -2  -3   61.68    3.69
  -3  -2  -3   64.82    3.47
  -3  -2  -3   56.24    3.76
   3   2   3   62.16    4.07
   3   2   3   56.34    3.43
   3   2   3   60.40    3.86
   3   2   3   65.18    3.48
   3   2   3   69.93    3.80
   3   2   3   63.72    3.69
   3   2   3   59.32    3.46
  -4  -2  -3    2.65    0.26
  -4  -2  -3    2.31    0.29
  -4  -2  -3    2.20    0.31
  -4  -2  -3    2.57    0.29
  -4  -2  -3    2.90    0.38
   4   2   3    3.03    0.29
   4   2   3    2.06    0.35
   4   2   3    2.12    0.29
   4   2   3    2.72    0.33
   4   2   3    2.39    0.25
   4   2   3    2.25    0.35
  -5  -2  -3   68.86    3.94
  -5  -2  -3   68.33    4.30
  -5  -2  -3   73.99    4.13
   5   2   3   71.29    3.92
   5   2   3   63.66    4.36
   5   2   3   64.74    3.91
  -6  -2  -3    0.11    0.12
  -6  -2  -3    0.17    0.19
  -6  -2  -3    0.27    0.27
   6   2   3    0.16    0.18
   6   2   3   -0.05    0.14
   6   2   3    0.12    0.13
  -7  -2  -3   22.79    1.59
  -7  -2  -3   24.34    1.54
  -7  -2  -3   26.01    1.82
   7   2   3   21.67    1.73
   7   2   3   23.71    1.57
   7   2   3   24.95    1.53
  -8  -2  -3    7.05    0.80
  -8  -2  -3    4.73    0.78
   8   2   3    5.29    0.65
   8   2   3    6.89    0.61
   8   2   3    5.70    0.77
  -9  -2  -3   13.72    1.17
   9   2   3   15.04    1.15
   9   2   3   11.81    1.18
   9   2   3   13.88    1.03
 -10  -2  -3    0.25    0.36
  10   2   3    0.50    0.31
  10   2   3    0.39    0.35
  10   2   3   -0.20    0.28
 -11  -2  -3    9.23    1.12
  11   2   3    9.24    1.06
  11   2   3    7.56    0.92
  11   2   3    8.51    1.15
 -12  -2  -3    1.77    0.59
 -12  -2  -3    1.45    0.59
  12   2   3    2.46    0.59
  12   2   3    1.67    0.60
  12   2   3    1.60    0.52
   9  -3  -3    0.14    0.38
   9  -3  -3    0.18    0.30
  -9   3   3   -0.27    0.42
   8  -3  -3    1.69    0.53
   8  -3  -3    2.14    0.49
  -8   3   3    3.18    0.69
   7  -3  -3    0.12    0.28
   7  -3  -3   -0.12    0.29
   7  -3  -3   -0.26    0.19
  -7   3   3   -0.19    0.19
  -7   3   3   -0.58    0.23
   6  -3  -3    6.57    0.82
   6  -3  -3    6.49    0.76
   6  -3  -3    7.15    0.70
  -6   3   3    6.69    0.83
  -6   3   3    8.87    0.80
  -6   3   3    6.54    0.61
   5  -3  -3    7.54    0.69
   5  -3  -3    7.06    0.79
   5  -3  -3    6.65    0.72
  -5   3   3    6.51    0.76
  -5   3   3    8.47    0.61
  -5   3   3    7.44    0.80
   4  -3  -3   11.76    0.94
   4  -3  -3   11.82    0.95
   4  -3  -3   12.05    0.88
  -4   3   3   11.62    0.92
  -4   3   3   12.04    0.99
   3  -3  -3    8.60    0.67
   3  -3  -3    7.89    0.68
   3  -3  -3    9.69    0.74
   3  -3  -3    8.68    0.72
  -3   3   3    8.67    0.69
  -3   3   3    8.83    0.76
  -3   3   3    9.16    0.71
   2  -3  -3    6.37    0.55
   2  -3  -3    7.87    0.60
   2  -3  -3    7.48    0.56
   2  -3  -3    7.16    0.62
  -2   3   3    8.23    0.61
  -2   3   3    6.72    0.64
  -2   3   3    7.87    0.59
   1  -3  -3    4.24    0.31
   1  -3  -3    4.13    0.41
   1  -3  -3    3.83    0.35
   1  -3  -3    4.09    0.38
  -1   3   3    4.14    0.36
  -1   3   3    3.26    0.38
  -1   3   3    4.60    0.40
  -1   3   3    4.39    0.48
   0  -3  -3   10.30    0.68
   0  -3  -3   10.26    0.64
   0  -3  -3    9.78    0.79
   0  -3  -3   10.48    0.64
   0  -3  -3   10.16    0.76
   0  -3  -3    9.74    0.66
   0   3   3   10.21    0.70
   0   3   3   10.48    0.67
   0   3   3   10.78    0.69
   0   3   3   11.16    0.80
   0   3   3    9.62    0.76
   0   3   3    9.90    0.66
  -1  -3  -3    2.15    0.24
  -1  -3  -3    2.10    0.19
  -1  -3  -3    1.96    0.27
  -1  -3  -3    2.51    0.25
  -1  -3  -3    1.95    0.30
  -1  -3  -3    2.11    0.22
   1   3   3    2.22    0.28
   1   3   3    2.29    0.17
   1   3   3    2.00    0.21
   1   3   3    2.42    0.24
   1   3   3    2.15    0.31
   1   3   3    2.08    0.24
  -2  -3  -3    0.60    0.16
  -2  -3  -3    0.68    0.13
  -2  -3  -3    0.84    0.15
  -2  -3  -3    0.94    0.16
  -2  -3  -3    0.94    0.13
  -2  -3  -3    0.76    0.21
  -2  -3  -3    1.17    0.16
   2   3   3    0.75    0.17
   2   3   3    1.06    0.14
   2   3   3    0.76    0.20
   2   3   3    0.85    0.14
   2   3   3    0.73    0.14
   2   3   3    0.81    0.15
  -3  -3  -3    4.08    0.39
  -3  -3  -3    4.34    0.36
  -3  -3  -3    4.31    0.36
  -3  -3  -3    3.77    0.30
  -3  -3  -3    4.29    0.34
   3   3   3    3.94    0.39
   3   3   3    3.90    0.31
   3   3   3    3.83    0.35
   3   3   3    4.05    0.34
   3   3   3    4.16    0.35
   3   3   3    4.05    0.32
   3   3   3    3.73    0.47
  -4  -3  -3    1.63    0.27
  -4  -3  -3    1.82    0.23
  -4  -3  -3    1.23    0.26
  -4  -3  -3    2.02    0.24
   4   3   3    1.35    0.20
   4   3   3    1.63    0.31
   4   3   3    1.64    0.26
   4   3   3    1.55    0.22
  -5  -3  -3    0.40    0.14
  -5  -3  -3    0.26    0.17
  -5  -3  -3    0.19    0.11
  -5  -3  -3    0.25    0.22
   5   3   3    0.20    0.12
   5   3   3    0.29    0.14
   5   3   3    0.33    0.14
   5   3   3    0.44    0.18
  -6  -3  -3    2.38    0.28
  -6  -3  -3    2.61    0.38
  -6  -3  -3    2.75    0.46
   6   3   3    2.49    0.33
   6   3   3    2.20    0.35
   6   3   3    2.03    0.33
  -7  -3  -3    0.56    0.28
  -7  -3  -3    0.64    0.30
  -7  -3  -3    0.66    0.17
   7   3   3    0.79    0.25
   7   3   3    0.69    0.26
   7   3   3    1.04    0.25
  -8  -3  -3    2.18    0.48
  -8  -3  -3    3.05    0.35
   8   3   3    3.46    0.55
   8   3   3    2.98    0.46
   8   3   3    3.02    0.42
  -9  -3  -3    0.37    0.34
   9   3   3    0.56    0.31
   9   3   3    0.01    0.28
   9   3   3    0.56    0.24
 -10  -3  -3    0.49    0.39
  10   3   3    0.56    0.33
  10   3   3    1.01    0.35
  10   3   3    0.25    0.30
 -11  -3  -3    0.35    0.31
 -11  -3  -3    0.49    0.35
  11   3   3    0.15    0.36
  11   3   3   -0.05    0.29
  11   3   3    0.34    0.34
 -12  -3  -3    0.25    0.43
 -12  -3  -3   -0.74    0.31
  12   3   3    0.07    0.37
  12   3   3    0.06    0.39
  12   3   3   -0.24    0.31
 -13  -3  -3    0.07    0.43
 -13  -3  -3   -0.52    0.38
  13   3   3   -0.24    0.41
  13   3   3   -0.58    0.34
  13   3   3   -0.26    0.45
   9  -4  -3    5.41    0.93
   9  -4  -3    5.89    0.89
  -9   4   3    6.33    0.99
   8  -4  -3   -0.16    0.33
   8  -4  -3    0.03    0.29
   8  -4  -3   -0.06    0.24
  -8   4   3   -0.50    0.31
   7  -4  -3    4.82    0.77
   7  -4  -3    5.96    0.76
  -7   4   3    6.38    0.86
  -7   4   3    6.82    0.88
   6  -4  -3   -0.33    0.23
   6  -4  -3    0.06    0.24
   6  -4  -3   -0.15    0.18
  -6   4   3   -0.01    0.32
  -6   4   3    0.21    0.33
   5  -4  -3    0.15    0.23
   5  -4  -3    0.18    0.28
   5  -4  -3    0.34    0.20
  -5   4   3   -0.31    0.25
  -5   4   3    0.04    0.28
   4  -4  -3    1.70    0.32
   4  -4  -3    1.43    0.37
   4  -4  -3    1.73    0.32
  -4   4   3    2.69    0.48
  -4   4   3    1.84    0.37
   3  -4  -3    3.43    0.40
   3  -4  -3    4.25    0.45
   3  -4  -3    3.13    0.41
   3  -4  -3    3.00    0.47
  -3   4   3    3.02    0.49
  -3   4   3    3.55    0.36
  -3   4   3    2.58    0.40
   2  -4  -3    0.02    0.10
   2  -4  -3    0.10    0.12
   2  -4  -3    0.10    0.15
  -2   4   3    0.16    0.21
  -2   4   3    0.16    0.12
  -2   4   3    0.21    0.14
   1  -4  -3   15.01    0.95
   1  -4  -3   14.49    0.96
   1  -4  -3   15.47    0.98
   1  -4  -3   14.23    1.14
  -1   4   3   17.52    1.14
  -1   4   3   15.90    1.02
  -1   4   3   15.48    1.13
  -1   4   3   15.56    0.99
   0  -4  -3    0.57    0.18
   0  -4  -3    0.68    0.15
   0  -4  -3    0.78    0.16
   0   4   3    0.68    0.14
   0   4   3    0.64    0.22
   0   4   3    0.56    0.15
   0   4   3    0.97    0.21
   0   4   3    0.87    0.17
  -1  -4  -3    7.37    0.53
  -1  -4  -3    7.30    0.53
  -1  -4  -3    6.43    0.64
   1   4   3    8.42    0.52
   1   4   3    8.76    0.54
   1   4   3    7.52    0.65
   1   4   3    7.23    0.52
   1   4   3    7.66    0.62
  -2  -4  -3   75.38    4.28
  -2  -4  -3   72.55    4.64
  -2  -4  -3   75.05    4.29
  -2  -4  -3   76.10    4.23
  -2  -4  -3   71.93    4.59
  -2  -4  -3   78.42    4.28
   2   4   3   76.64    5.07
   2   4   3   79.59    4.23
   2   4   3   77.32    4.28
   2   4   3   78.55    4.65
   2   4   3   77.78    4.29
   2   4   3   82.75    4.60
  -3  -4  -3   16.18    0.98
  -3  -4  -3   14.89    1.04
  -3  -4  -3   13.99    1.04
  -3  -4  -3   16.31    0.92
  -3  -4  -3   15.03    0.97
   3   4   3   14.84    0.96
   3   4   3   16.07    1.07
   3   4   3   15.28    1.04
   3   4   3   14.76    0.92
   3   4   3   16.81    0.98
  -4  -4  -3   90.04    5.56
  -4  -4  -3   89.09    5.13
  -4  -4  -3   93.94    5.04
  -4  -4  -3   88.65    5.47
   4   4   3   93.18    5.13
   4   4   3   93.56    5.46
   4   4   3   98.38    5.60
   4   4   3   83.43    5.09
   4   4   3   92.64    5.65
  -5  -4  -3   31.86    2.20
  -5  -4  -3   34.04    1.93
  -5  -4  -3   34.67    2.07
  -5  -4  -3   34.07    2.21
  -5  -4  -3   31.44    2.00
   5   4   3   32.15    1.98
   5   4   3   31.83    2.12
   5   4   3   34.07    2.05
   5   4   3   31.72    1.99
   5   4   3   35.37    2.01
  -6  -4  -3    3.97    0.35
  -6  -4  -3    3.17    0.43
   6   4   3    3.89    0.42
   6   4   3    3.05    0.42
   6   4   3    3.27    0.40
  -7  -4  -3   25.46    1.54
  -7  -4  -3   25.22    1.62
   7   4   3   23.16    1.68
   7   4   3   23.74    1.58
   7   4   3   22.87    1.54
  -8  -4  -3    0.30    0.15
  -8  -4  -3    0.51    0.26
   8   4   3    0.51    0.21
   8   4   3    0.11    0.19
   8   4   3    0.55    0.24
  -9  -4  -3   17.73    1.35
   9   4   3   16.10    1.35
   9   4   3   17.31    1.28
   9   4   3   16.71    1.24
 -10  -4  -3    0.69    0.37
 -10  -4  -3    0.69    0.39
  10   4   3   -0.29    0.26
  10   4   3    0.17    0.31
  10   4   3    0.50    0.33
 -11  -4  -3   19.58    1.53
 -11  -4  -3   16.79    1.44
  11   4   3   16.46    1.35
  11   4   3   16.78    1.51
  11   4   3   20.14    1.50
 -12  -4  -3    0.23    0.43
 -12  -4  -3    1.72    0.59
  12   4   3    1.38    0.51
  12   4   3    1.40    0.52
  12   4   3    0.98    0.45
 -13  -4  -3    4.62    0.91
 -13  -4  -3    3.61    0.76
  13   4   3    2.97    0.62
  13   4   3    4.05    0.81
  13   4   3    2.20    0.69
   8  -5  -3   -0.12    0.35
   8  -5  -3   -0.04    0.34
  -8   5   3   -0.27    0.40
   7  -5  -3   -0.30    0.31
   7  -5  -3    0.47    0.27
  -7   5   3    0.30    0.38
  -7   5   3    0.62    0.42
   6  -5  -3    5.34    0.93
   6  -5  -3    6.65    0.77
  -6   5   3    6.86    0.86
  -6   5   3    9.09    1.02
   5  -5  -3    0.99    0.33
   5  -5  -3    1.16    0.27
  -5   5   3    0.34    0.29
  -5   5   3    1.00    0.33
   4  -5  -3    2.27    0.40
   4  -5  -3    2.33    0.36
  -4   5   3    1.99    0.43
  -4   5   3    2.13    0.50
   3  -5  -3    5.87    0.51
   3  -5  -3    6.26    0.60
   3  -5  -3    6.32    0.57
  -3   5   3    6.59    0.78
  -3   5   3    5.47    0.64
  -3   5   3    6.15    0.53
   2  -5  -3    0.88    0.22
   2  -5  -3    1.03    0.23
   2  -5  -3    0.91    0.24
   2  -5  -3    0.62    0.13
  -2   5   3    0.90    0.33
  -2   5   3    0.86    0.21
  -2   5   3    0.44    0.17
   1  -5  -3    0.55    0.15
   1  -5  -3    0.36    0.18
   1  -5  -3    0.48    0.15
  -1   5   3    0.39    0.18
  -1   5   3    0.36    0.17
  -1   5   3    0.15    0.16
  -1   5   3    0.49    0.22
   0  -5  -3    6.38    0.48
   0  -5  -3    6.30    0.49
   0   5   3    6.39    0.50
   0   5   3    6.42    0.49
   0   5   3    5.26    0.63
   0   5   3    6.39    0.59
  -1  -5  -3    1.03    0.19
  -1  -5  -3    0.89    0.17
   1   5   3    0.86    0.25
   1   5   3    0.86    0.17
   1   5   3    0.70    0.15
   1   5   3    0.83    0.18
  -2  -5  -3   27.99    1.68
  -2  -5  -3   27.59    1.70
   2   5   3   28.22    1.87
   2   5   3   28.28    1.68
   2   5   3   30.12    1.68
   2   5   3   28.84    1.63
   2   5   3   28.67    1.76
  -3  -5  -3    0.55    0.10
  -3  -5  -3    0.75    0.17
  -3  -5  -3    0.36    0.18
   3   5   3    0.52    0.18
   3   5   3    0.58    0.15
   3   5   3    0.41    0.14
   3   5   3    0.36    0.10
   3   5   3    0.46    0.18
  -4  -5  -3    0.07    0.13
  -4  -5  -3   -0.09    0.13
  -4  -5  -3    0.11    0.07
  -4  -5  -3    0.13    0.12
   4   5   3    0.01    0.16
   4   5   3    0.05    0.10
   4   5   3    0.06    0.11
   4   5   3    0.13    0.13
  -5  -5  -3    9.54    0.61
  -5  -5  -3    8.42    0.72
  -5  -5  -3    9.53    0.71
  -5  -5  -3    8.80    0.69
  -5  -5  -3    9.50    0.71
   5   5   3    9.12    0.68
   5   5   3    9.31    0.70
  -6  -5  -3    0.25    0.19
  -6  -5  -3    0.15    0.09
  -6  -5  -3    0.06    0.10
  -6  -5  -3    0.05    0.14
   6   5   3    0.13    0.11
   6   5   3    0.24    0.17
   6   5   3    0.34    0.15
   6   5   3    0.21    0.11
  -7  -5  -3    1.98    0.28
  -7  -5  -3    2.11    0.39
   7   5   3    0.85    0.28
   7   5   3    2.02    0.29
   7   5   3    1.88    0.35
  -8  -5  -3    0.01    0.23
  -8  -5  -3   -0.01    0.26
  -8  -5  -3    0.24    0.14
   8   5   3    0.39    0.24
   8   5   3    0.01    0.22
   8   5   3    0.02    0.16
  -9  -5  -3    1.16    0.36
  -9  -5  -3    1.44    0.43
   9   5   3    1.09    0.34
   9   5   3    1.22    0.38
   9   5   3    0.89    0.33
 -10  -5  -3    0.90    0.35
 -10  -5  -3    0.33    0.36
  10   5   3    0.64    0.34
  10   5   3    0.17    0.30
  10   5   3    0.56    0.29
 -11  -5  -3    0.76    0.43
 -11  -5  -3    0.56    0.41
  11   5   3    0.84    0.36
  11   5   3    0.86    0.38
  11   5   3    0.23    0.34
 -12  -5  -3    0.31    0.46
 -12  -5  -3    1.23    0.54
  12   5   3    0.59    0.34
  12   5   3    0.07    0.41
  12   5   3    0.39    0.36
 -13  -5  -3    0.17    0.35
  13   5   3   -0.28    0.41
  13   5   3    0.10    0.44
   8  -6  -3    0.89    0.60
   7  -6  -3   -0.21    0.35
   7  -6  -3   -0.25    0.26
  -7   6   3   -0.45    0.34
  -7   6   3   -0.03    0.40
   6  -6  -3    0.28    0.29
   6  -6  -3    0.35    0.44
  -6   6   3    0.81    0.42
  -6   6   3    0.35    0.36
   5  -6  -3    3.30    0.53
   5  -6  -3    2.30    0.63
  -5   6   3    3.01    0.66
  -5   6   3    3.80    0.63
   4  -6  -3   -0.03    0.20
   4  -6  -3    0.06    0.25
  -4   6   3   -0.02    0.24
  -4   6   3   -0.43    0.20
   3  -6  -3    0.46    0.24
  -3   6   3    0.69    0.38
  -3   6   3    0.56    0.29
   2  -6  -3   23.68    1.58
   2  -6  -3   25.14    1.59
  -2   6   3   26.51    1.65
  -2   6   3   26.68    1.88
   1  -6  -3    0.47    0.19
   1  -6  -3    0.59    0.19
  -1   6   3    1.26    0.26
  -1   6   3    0.25    0.28
   0  -6  -3   27.70    1.64
   0  -6  -3   24.79    1.64
   0   6   3   29.42    1.66
   0   6   3   28.17    1.67
   0   6   3   25.89    1.88
  -1  -6  -3    5.66    0.48
  -1  -6  -3    5.43    0.44
   1   6   3    5.18    0.43
   1   6   3    5.48    0.41
   1   6   3    5.29    0.44
   1   6   3    4.50    0.59
  -2  -6  -3    5.08    0.71
  -2  -6  -3    5.83    0.47
  -2  -6  -3    6.30    0.52
   2   6   3    5.26    0.62
   2   6   3    6.65    0.48
   2   6   3    5.65    0.42
   2   6   3    6.28    0.47
   2   6   3    6.42    0.44
  -3  -6  -3    0.74    0.28
  -3  -6  -3    0.11    0.16
  -3  -6  -3    0.51    0.16
   3   6   3    0.05    0.17
   3   6   3    0.38    0.18
   3   6   3    0.17    0.09
   3   6   3    0.66    0.17
   3   6   3    0.37    0.14
  -4  -6  -3    3.95    0.43
  -4  -6  -3    4.03    0.28
  -4  -6  -3    4.29    0.43
  -4  -6  -3    3.22    0.44
  -4  -6  -3    4.66    0.57
   4   6   3    4.35    0.51
   4   6   3    3.55    0.39
   4   6   3    3.43    0.43
   4   6   3    4.41    0.38
  -5  -6  -3    8.03    0.68
  -5  -6  -3    8.86    0.77
  -5  -6  -3    7.98    0.66
  -5  -6  -3    9.39    0.56
  -5  -6  -3    9.32    0.70
   5   6   3    9.08    0.68
   5   6   3    9.06    0.71
  -6  -6  -3    2.36    0.39
  -6  -6  -3    2.43    0.40
  -6  -6  -3    2.75    0.40
  -6  -6  -3    1.87    0.31
  -6  -6  -3    2.70    0.27
   6   6   3    2.48    0.38
   6   6   3    2.23    0.30
   6   6   3    2.42    0.37
   6   6   3    2.13    0.39
  -7  -6  -3   25.68    1.73
  -7  -6  -3   26.23    1.80
  -7  -6  -3   25.74    1.70
  -7  -6  -3   25.66    1.74
  -7  -6  -3   27.28    1.74
   7   6   3   28.72    1.76
   7   6   3   26.03    1.71
   7   6   3   27.37    1.70
  -8  -6  -3    4.84    0.61
  -8  -6  -3    4.84    0.66
  -8  -6  -3    5.81    0.68
   8   6   3    4.17    0.57
   8   6   3    4.51    0.59
  -9  -6  -3    1.41    0.43
  -9  -6  -3    1.57    0.43
   9   6   3    0.80    0.33
   9   6   3    0.43    0.30
 -10  -6  -3    2.78    0.56
 -10  -6  -3    3.23    0.57
  10   6   3    2.46    0.52
  10   6   3    3.55    0.60
 -11  -6  -3    0.00    0.27
 -11  -6  -3    0.02    0.35
  11   6   3    0.56    0.40
  11   6   3   -0.06    0.32
 -12  -6  -3    1.85    0.53
  12   6   3    1.54    0.53
  12   6   3    2.28    0.61
 -13  -6  -3    0.42    0.41
 -13  -6  -3   -0.44    0.43
  13   6   3    0.37    0.33
  13   6   3   -0.23    0.41
   7  -7  -3   -0.19    0.31
   7  -7  -3    0.67    0.52
  -7   7   3    0.52    0.50
  -7   7   3    0.84    0.43
   6  -7  -3    2.02    0.68
  -6   7   3    1.89    0.57
  -6   7   3    2.27    0.64
   5  -7  -3   -0.33    0.35
   5  -7  -3   -0.21    0.22
  -5   7   3   -0.06    0.29
  -5   7   3   -0.12    0.23
   4  -7  -3   -0.09    0.21
   4  -7  -3   -0.46    0.31
  -4   7   3   -0.04    0.34
  -4   7   3   -0.07    0.28
   3  -7  -3    4.32    0.83
   3  -7  -3    5.82    0.62
  -3   7   3    4.09    0.76
  -3   7   3    5.22    0.65
   2  -7  -3   -0.33    0.14
   2  -7  -3   -0.01    0.14
   2  -7  -3   -0.11    0.21
  -2   7   3    0.02    0.21
  -2   7   3   -0.03    0.28
   1  -7  -3   -0.09    0.23
   1  -7  -3    0.07    0.13
   1  -7  -3   -0.22    0.11
  -1   7   3    0.21    0.18
  -1   7   3    0.16    0.31
   0  -7  -3    0.14    0.25
   0  -7  -3    0.19    0.14
   0  -7  -3    0.62    0.24
   0   7   3    0.24    0.23
   0   7   3    0.15    0.16
   0   7   3    0.13    0.16
  -1  -7  -3   18.97    1.60
  -1  -7  -3   19.24    1.18
  -1  -7  -3   18.96    1.23
   1   7   3   18.07    1.14
   1   7   3   18.22    1.17
   1   7   3   18.41    1.18
   1   7   3   18.16    1.40
  -2  -7  -3   21.13    1.41
  -2  -7  -3   24.12    1.37
  -2  -7  -3   20.93    1.78
   2   7   3   22.42    1.35
   2   7   3   22.43    1.29
   2   7   3   20.92    1.35
   2   7   3   21.64    1.36
   2   7   3   22.02    1.60
  -3  -7  -3    8.84    0.73
  -3  -7  -3   10.02    0.96
  -3  -7  -3    9.61    0.70
   3   7   3    9.51    0.84
   3   7   3    9.14    0.60
   3   7   3   10.33    0.74
   3   7   3    9.24    0.68
   3   7   3   10.88    0.69
  -4  -7  -3    2.25    0.32
  -4  -7  -3    2.60    0.34
  -4  -7  -3    3.07    0.52
  -4  -7  -3    1.92    0.37
   4   7   3    2.29    0.32
   4   7   3    2.31    0.39
   4   7   3    3.03    0.44
   4   7   3    3.05    0.34
  -5  -7  -3   21.77    1.70
  -5  -7  -3   21.16    1.46
  -5  -7  -3   22.95    1.43
  -5  -7  -3   23.21    1.44
   5   7   3   23.92    1.42
   5   7   3   22.93    1.53
   5   7   3   21.07    1.40
  -6  -7  -3    7.46    0.70
  -6  -7  -3    7.46    0.64
  -6  -7  -3    7.26    0.75
  -6  -7  -3    8.38    0.67
  -6  -7  -3    7.68    0.49
   6   7   3    6.50    0.62
   6   7   3    8.35    0.65
   6   7   3    7.48    0.65
  -7  -7  -3   22.01    1.48
  -7  -7  -3   20.80    1.45
  -7  -7  -3   21.17    1.52
  -7  -7  -3   21.82    1.45
   7   7   3   20.26    1.41
   7   7   3   21.78    1.41
   7   7   3   20.53    1.47
  -8  -7  -3    1.05    0.36
  -8  -7  -3    0.55    0.28
  -8  -7  -3    0.13    0.26
   8   7   3    0.36    0.26
   8   7   3    0.60    0.17
   8   7   3    0.71    0.32
  -9  -7  -3    2.37    0.47
  -9  -7  -3    1.92    0.45
  -9  -7  -3    1.61    0.46
   9   7   3    1.31    0.39
   9   7   3    1.53    0.43
 -10  -7  -3   -0.08    0.28
 -10  -7  -3    0.04    0.27
  10   7   3   -0.17    0.26
  10   7   3    0.25    0.29
 -11  -7  -3    0.57    0.38
 -11  -7  -3    0.10    0.41
  11   7   3   -0.04    0.31
  11   7   3    0.15    0.37
 -12  -7  -3    3.61    0.68
 -12  -7  -3    2.32    0.70
  12   7   3    2.95    0.60
  12   7   3    3.50    0.71
   6  -8  -3    0.08    0.49
   6  -8  -3   -0.16    0.39
  -6   8   3    0.02    0.44
  -6   8   3   -0.51    0.33
   5  -8  -3   11.29    1.63
  -5   8   3   14.02    1.59
  -5   8   3   16.15    1.30
   4  -8  -3    0.41    0.49
  -4   8   3    0.18    0.25
  -4   8   3    0.28    0.48
   3  -8  -3   10.61    1.44
  -3   8   3   12.87    1.02
  -3   8   3   12.86    1.24
   2  -8  -3    3.75    0.83
   2  -8  -3    4.11    0.56
   2  -8  -3    6.29    0.61
  -2   8   3    4.82    0.82
  -2   8   3    4.76    0.61
   1  -8  -3   14.58    0.97
   1  -8  -3   10.23    1.42
   1  -8  -3   11.88    0.98
  -1   8   3   13.13    1.26
  -1   8   3   16.09    1.04
   0  -8  -3    1.99    0.60
   0  -8  -3    3.19    0.39
   0  -8  -3    2.46    0.41
   0   8   3    3.20    0.41
   0   8   3    2.55    0.36
   0   8   3    2.90    0.56
  -1  -8  -3    2.66    0.43
  -1  -8  -3    2.62    0.35
  -1  -8  -3    2.48    0.57
   1   8   3    2.82    0.32
   1   8   3    3.19    0.55
   1   8   3    3.16    0.39
  -2  -8  -3    9.70    1.02
  -2  -8  -3   10.83    0.82
  -2  -8  -3    8.79    0.76
   2   8   3   10.09    0.60
   2   8   3    9.49    0.60
   2   8   3   10.79    0.73
   2   8   3   10.92    0.93
   2   8   3   10.00    0.65
   2   8   3    8.99    0.71
  -3  -8  -3    1.52    0.27
  -3  -8  -3    0.75    0.40
  -3  -8  -3    0.99    0.28
   3   8   3    1.14    0.23
   3   8   3    1.76    0.27
   3   8   3    1.20    0.25
   3   8   3    1.17    0.16
   3   8   3    1.55    0.35
  -4  -8  -3    6.10    0.53
  -4  -8  -3    6.32    0.55
  -4  -8  -3    6.66    0.88
  -4  -8  -3    6.29    0.71
   4   8   3    7.17    0.54
   4   8   3    7.24    0.76
   4   8   3    6.59    0.55
  -5  -8  -3   -0.01    0.24
  -5  -8  -3    0.10    0.16
  -5  -8  -3   -0.15    0.14
  -5  -8  -3   -0.26    0.18
   5   8   3   -0.14    0.18
   5   8   3    0.03    0.15
  -6  -8  -3    0.00    0.17
  -6  -8  -3    0.28    0.21
  -6  -8  -3    0.12    0.18
  -6  -8  -3   -0.04    0.20
   6   8   3    0.04    0.20
   6   8   3   -0.07    0.16
  -7  -8  -3   -0.02    0.17
  -7  -8  -3   -0.05    0.17
  -7  -8  -3    0.19    0.23
  -7  -8  -3    0.00    0.20
   7   8   3   -0.01    0.18
   7   8   3   -0.18    0.22
   7   8   3    0.15    0.19
  -8  -8  -3    0.20    0.22
  -8  -8  -3    0.27    0.28
   8   8   3   -0.27    0.18
   8   8   3   -0.04    0.18
   8   8   3   -0.17    0.13
  -9  -8  -3    3.90    0.63
  -9  -8  -3    3.57    0.61
   9   8   3    4.95    0.69
   9   8   3    4.27    0.62
 -10  -8  -3    2.31    0.54
 -10  -8  -3    2.42    0.52
  10   8   3    3.96    0.67
  10   8   3    2.40    0.53
 -11  -8  -3    0.99    0.40
 -11  -8  -3    0.24    0.39
  11   8   3   -0.26    0.34
  11   8   3    1.19    0.43
 -12  -8  -3   -0.55    0.33
 -12  -8  -3   -0.28    0.30
  12   8   3   -0.03    0.40
  12   8   3    0.03    0.37
   5  -9  -3    0.01    0.48
   5  -9  -3    0.09    0.42
  -5   9   3    0.44    0.42
  -5   9   3    0.46    0.44
   4  -9  -3   -0.53    0.45
   4  -9  -3   -0.23    0.40
  -4   9   3    0.52    0.36
  -4   9   3   -0.11    0.40
   3  -9  -3    0.07    0.37
   3  -9  -3    0.78    0.46
  -3   9   3    0.59    0.52
  -3   9   3    0.27    0.31
   2  -9  -3    0.28    0.36
   2  -9  -3    0.99    0.54
  -2   9   3    0.79    0.32
  -2   9   3    0.05    0.39
   1  -9  -3    3.06    0.61
   1  -9  -3    3.65    0.82
   1  -9  -3    3.32    0.52
  -1   9   3    3.25    0.48
  -1   9   3    2.83    0.62
   0  -9  -3    1.21    0.38
   0  -9  -3    2.73    0.45
   0  -9  -3    1.66    0.60
   0   9   3    2.07    0.32
   0   9   3    2.20    0.57
   0   9   3    1.97    0.36
  -1  -9  -3    0.42    0.27
  -1  -9  -3    0.10    0.37
  -1  -9  -3    0.21    0.21
   1   9   3    0.84    0.36
   1   9   3    0.28    0.15
   1   9   3    0.80    0.24
  -2  -9  -3    0.35    0.22
  -2  -9  -3   -0.01    0.34
   2   9   3    0.37    0.13
   2   9   3    0.49    0.20
   2   9   3    0.31    0.27
  -3  -9  -3    4.89    0.62
  -3  -9  -3    4.18    0.78
   3   9   3    4.72    0.50
   3   9   3    4.37    0.66
  -4  -9  -3    1.08    0.43
  -4  -9  -3    1.16    0.24
  -4  -9  -3    0.62    0.33
   4   9   3    1.55    0.41
   4   9   3    0.91    0.24
  -5  -9  -3   11.39    0.84
  -5  -9  -3   11.78    0.96
  -5  -9  -3   11.15    1.12
   5   9   3   11.69    0.83
   5   9   3   11.10    0.97
  -6  -9  -3    3.74    0.49
  -6  -9  -3    3.71    0.62
  -6  -9  -3    3.20    0.56
   6   9   3    4.47    0.51
   6   9   3    3.25    0.51
  -7  -9  -3    5.96    0.76
  -7  -9  -3    5.07    0.65
  -7  -9  -3    6.89    0.71
   7   9   3    6.04    0.75
   7   9   3    6.37    0.66
   7   9   3    5.51    0.64
  -8  -9  -3    0.89    0.36
  -8  -9  -3    0.12    0.22
   8   9   3    0.40    0.25
   8   9   3    0.23    0.24
  -9  -9  -3   -0.34    0.24
  -9  -9  -3   -0.27    0.27
   9   9   3   -0.11    0.17
   9   9   3    0.42    0.32
 -10  -9  -3    0.02    0.36
 -10  -9  -3   -0.06    0.32
  10   9   3    0.30    0.38
  10   9   3    0.69    0.36
 -11  -9  -3   -0.51    0.31
 -11  -9  -3    0.88    0.37
  11   9   3    0.68    0.42
  11   9   3    0.46    0.40
 -12  -9  -3    0.72    0.47
 -12  -9  -3    1.07    0.46
  12   9   3    1.14    0.46
  12   9   3    0.67    0.41
   4 -10  -3    5.58    1.03
   4 -10  -3    5.73    1.20
  -4  10   3    6.32    1.06
  -4  10   3    6.40    0.88
   3 -10  -3    0.67    0.50
   3 -10  -3    0.94    0.54
  -3  10   3    1.24    0.40
  -3  10   3    1.62    0.65
   2 -10  -3    1.36    0.51
   2 -10  -3    1.45    0.65
  -2  10   3    1.08    0.38
  -2  10   3    0.67    0.45
   1 -10  -3    3.76    0.90
   1 -10  -3    3.36    0.68
   1 -10  -3    3.76    0.58
  -1  10   3    3.97    0.55
  -1  10   3    3.61    0.51
  -1  10   3    4.31    0.85
   0 -10  -3    1.55    0.64
   0 -10  -3    4.21    0.64
   0 -10  -3    2.35    0.47
   0  10   3    2.11    0.59
   0  10   3    2.41    0.41
  -1 -10  -3    9.38    1.36
  -1 -10  -3   11.42    0.93
   1  10   3   11.19    1.27
   1  10   3    9.92    0.82
  -2 -10  -3   -0.01    0.20
  -2 -10  -3   -0.15    0.26
   2  10   3   -0.26    0.32
   2  10   3   -0.12    0.20
  -3 -10  -3   46.96    2.94
  -3 -10  -3   42.28    3.58
   3  10   3   49.63    3.27
   3  10   3   51.18    2.83
  -4 -10  -3    9.29    0.98
  -4 -10  -3   11.09    1.33
   4  10   3    8.87    1.03
   4  10   3   10.07    0.77
  -5 -10  -3    3.23    0.69
  -5 -10  -3    2.82    0.55
  -5 -10  -3    3.34    0.43
   5  10   3    2.89    0.52
   5  10   3    2.46    0.40
  -6 -10  -3    1.23    0.31
  -6 -10  -3    1.33    0.43
  -6 -10  -3    2.03    0.51
   6  10   3    1.39    0.41
   6  10   3    1.23    0.31
  -7 -10  -3    4.00    0.55
  -7 -10  -3    3.35    0.61
  -7 -10  -3    3.33    0.59
   7  10   3    3.99    0.55
   7  10   3    3.38    0.58
   7  10   3    4.40    0.55
  -8 -10  -3    0.41    0.25
  -8 -10  -3    0.96    0.42
   8  10   3    0.33    0.29
   8  10   3    0.21    0.25
  -9 -10  -3    1.93    0.50
  -9 -10  -3    0.44    0.32
   9  10   3    0.84    0.38
   9  10   3    0.23    0.26
 -10 -10  -3    1.46    0.49
 -10 -10  -3    0.32    0.36
  10  10   3    0.91    0.39
  10  10   3    1.20    0.40
 -11 -10  -3    0.84    0.46
 -11 -10  -3    1.22    0.49
  11  10   3    0.98    0.42
  11  10   3    0.44    0.40
   3 -11  -3   -0.03    0.37
   3 -11  -3    0.06    0.45
  -3  11   3    0.00    0.41
  -3  11   3    0.27    0.38
   2 -11  -3    1.38    0.55
   2 -11  -3   -0.86    0.40
  -2  11   3    1.57    0.70
  -2  11   3    0.71    0.34
   1 -11  -3    3.66    0.72
   1 -11  -3    3.56    0.62
   1 -11  -3    3.28    0.93
  -1  11   3    2.75    0.81
  -1  11   3    3.20    0.53
   0 -11  -3   10.50    1.52
   0 -11  -3    9.99    1.06
   0  11   3   10.54    1.35
   0  11   3   10.59    0.88
  -1 -11  -3   -0.18    0.25
  -1 -11  -3    0.50    0.51
   1  11   3    0.23    0.34
   1  11   3    0.16    0.26
  -2 -11  -3    1.41    0.39
  -2 -11  -3    1.74    0.60
   2  11   3    0.69    0.27
   2  11   3    1.70    0.50
  -3 -11  -3    2.59    0.52
  -3 -11  -3    2.40    0.65
   3  11   3    2.13    0.37
   3  11   3    2.75    0.58
  -4 -11  -3    3.00    0.58
  -4 -11  -3    4.34    0.87
   4  11   3    4.78    0.74
   4  11   3    3.51    0.46
  -5 -11  -3    0.56    0.47
  -5 -11  -3    0.17    0.25
   5  11   3    1.38    0.43
  -6 -11  -3    0.38    0.30
  -6 -11  -3    0.25    0.22
  -6 -11  -3   -0.35    0.31
   6  11   3   -0.24    0.25
   6  11   3    0.70    0.28
  -7 -11  -3    0.70    0.34
  -7 -11  -3    0.74    0.31
  -7 -11  -3    0.68    0.43
   7  11   3    0.57    0.35
   7  11   3    0.48    0.27
  -8 -11  -3    1.54    0.48
  -8 -11  -3    1.53    0.40
   8  11   3    1.44    0.47
   8  11   3    0.54    0.32
  -9 -11  -3    0.02    0.26
  -9 -11  -3    0.50    0.38
   9  11   3    0.03    0.29
   9  11   3    0.30    0.40
 -10 -11  -3    0.64    0.39
 -10 -11  -3    0.13    0.34
  10  11   3    0.00    0.30
  10  11   3   -0.30    0.32
   1 -12  -3    1.89    0.83
  -1  12   3    2.16    0.48
  -1  12   3    1.67    0.77
   0 -12  -3   -0.05    0.32
   0 -12  -3    0.68    0.61
   0  12   3    0.07    0.27
   0  12   3    0.73    0.59
  -1 -12  -3   -0.19    0.31
  -1 -12  -3    1.08    0.56
   1  12   3    0.51    0.45
   1  12   3    0.42    0.28
  -2 -12  -3    3.62    0.91
  -2 -12  -3    4.84    0.74
   2  12   3    4.21    0.85
   2  12   3    4.69    0.56
  -3 -12  -3    1.67    0.67
  -3 -12  -3    2.22    0.50
   3  12   3    1.67    0.36
   3  12   3    2.22    0.64
  -4 -12  -3   27.87    1.95
  -4 -12  -3   26.48    2.40
   4  12   3   26.96    1.73
   4  12   3   28.03    2.16
  -5 -12  -3    0.24    0.41
  -5 -12  -3    0.59    0.40
   5  12   3    0.58    0.40
  -6 -12  -3    0.32    0.37
  -6 -12  -3   -0.19    0.35
   6  12   3   -0.32    0.29
   6  12   3   -0.16    0.23
  -7 -12  -3   -0.02    0.24
  -7 -12  -3    0.25    0.37
  -7 -12  -3    0.40    0.42
   7  12   3   -0.34    0.22
  -8 -12  -3    2.72    0.57
  -8 -12  -3    1.41    0.41
   8  12   3    2.54    0.46
   8  12   3    2.31    0.58
  -9 -12  -3    0.17    0.34
  -9 -12  -3    0.37    0.40
   9  12   3    0.20    0.29
   9  12   3    0.78    0.35
  -1 -13  -3    0.41    0.61
   1  13   3    1.09    0.64
  -2 -13  -3    0.98    0.44
  -2 -13  -3   -0.47    0.46
   2  13   3   -0.52    0.46
  -3 -13  -3    0.69    0.61
  -3 -13  -3    0.38    0.32
   3  13   3   -0.26    0.47
  -4 -13  -3    0.95    0.66
  -4 -13  -3    0.65    0.43
   4  13   3   -0.13    0.41
  -5 -13  -3    1.30    0.63
  -5 -13  -3    0.14    0.37
   5  13   3    1.40    0.55
  -6 -13  -3    0.01    0.42
  -6 -13  -3   -0.03    0.36
   6  13   3    0.15    0.43
  -7 -13  -3    0.34    0.46
  -7 -13  -3    0.02    0.29
   5  11  -4    2.91    0.62
   5  11  -4    3.09    0.72
  -5 -11   4    3.56    0.86
  -5 -11   4    2.63    0.59
  -5 -11   4    3.32    0.63
   4  11  -4    0.77    0.39
   4  11  -4    0.62    0.39
   4  11  -4    0.09    0.38
  -4 -11   4    0.25    0.35
  -4 -11   4    0.34    0.44
  -4 -11   4   -0.03    0.28
   3  11  -4    0.76    0.42
   3  11  -4    0.22    0.31
   3  11  -4    0.83    0.37
  -3 -11   4    0.04    0.29
  -3 -11   4    1.72    0.63
  -3 -11   4    0.91    0.43
   2  11  -4    3.11    0.55
   2  11  -4    1.77    0.58
  -2 -11   4    2.22    0.56
  -2 -11   4    1.99    0.73
  -2 -11   4    1.94    0.47
   1  11  -4   -0.01    0.37
  -1 -11   4   -0.29    0.31
  -1 -11   4   -0.07    0.30
  -1 -11   4    0.20    0.52
   0  11  -4    0.11    0.31
   0 -11   4    0.27    0.30
   0 -11   4    0.14    0.60
  -1  11  -4    0.33    0.39
   1 -11   4   -0.18    0.58
   7  10  -4    0.32    0.34
   7  10  -4    0.36    0.40
  -7 -10   4   -0.07    0.33
  -7 -10   4    0.35    0.34
   6  10  -4    9.21    1.28
   6  10  -4   14.77    1.19
  -6 -10   4    8.72    1.08
  -6 -10   4    9.85    1.09
   5  10  -4    0.37    0.36
   5  10  -4    0.54    0.40
  -5 -10   4    0.23    0.44
  -5 -10   4   -0.11    0.27
  -5 -10   4   -0.25    0.29
   4  10  -4    0.37    0.30
   4  10  -4    0.46    0.38
  -4 -10   4   -0.18    0.40
  -4 -10   4    0.40    0.32
  -4 -10   4    0.54    0.35
   3  10  -4    0.29    0.29
   3  10  -4    0.43    0.35
   3  10  -4    0.00    0.30
   3  10  -4   -0.27    0.24
  -3 -10   4    0.02    0.30
  -3 -10   4    0.53    0.28
  -3 -10   4    0.08    0.35
   2  10  -4    0.52    0.31
   2  10  -4    0.45    0.35
   2  10  -4    0.49    0.32
   2  10  -4    0.64    0.31
  -2 -10   4    0.52    0.34
  -2 -10   4    0.54    0.41
  -2 -10   4    0.53    0.31
   1  10  -4    0.16    0.26
   1  10  -4    0.20    0.31
   1  10  -4    0.05    0.35
  -1 -10   4   -0.23    0.18
  -1 -10   4    0.12    0.47
  -1 -10   4    0.17    0.27
   0  10  -4    2.64    0.62
   0 -10   4    1.58    0.64
   0 -10   4    2.41    0.52
   0 -10   4    2.40    0.50
  -1  10  -4    0.27    0.41
   1 -10   4    1.60    0.62
   1 -10   4    1.57    0.50
  -2  10  -4    4.73    0.90
   2 -10   4    3.29    0.71
   2 -10   4    4.46    1.01
  -3  10  -4    0.04    0.40
   3 -10   4    0.10    0.54
   3 -10   4    0.03    0.38
  -4  10  -4    0.93    0.55
   4 -10   4    0.51    0.59
   4 -10   4    0.58    0.50
   8   9  -4    4.94    0.84
   8   9  -4    5.96    1.05
  -8  -9   4    6.80    0.96
  -8  -9   4    5.56    0.78
   7   9  -4    1.23    0.55
   7   9  -4    0.26    0.42
  -7  -9   4    1.23    0.44
  -7  -9   4    1.21    0.49
   6   9  -4    9.11    1.20
   6   9  -4    8.51    1.03
  -6  -9   4   11.03    0.93
  -6  -9   4    8.81    1.03
   5   9  -4    0.17    0.37
   5   9  -4    0.43    0.28
  -5  -9   4    0.59    0.28
  -5  -9   4    0.14    0.28
   4   9  -4    1.60    0.47
   4   9  -4    1.16    0.40
  -4  -9   4    1.44    0.55
  -4  -9   4    1.18    0.38
  -4  -9   4    0.98    0.37
   3   9  -4    0.47    0.30
   3   9  -4   -0.14    0.21
   3   9  -4   -0.14    0.15
  -3  -9   4   -0.26    0.20
  -3  -9   4   -0.27    0.28
  -3  -9   4   -0.38    0.22
   2   9  -4    0.07    0.23
   2   9  -4   -0.06    0.26
   2   9  -4    0.25    0.24
   2   9  -4   -0.24    0.21
  -2  -9   4    0.26    0.28
  -2  -9   4    0.60    0.30
  -2  -9   4   -0.18    0.27
   1   9  -4    0.20    0.27
   1   9  -4    0.20    0.23
   1   9  -4    0.20    0.31
  -1  -9   4   -0.14    0.19
  -1  -9   4    0.35    0.36
  -1  -9   4    0.08    0.28
   0   9  -4   -0.01    0.31
   0   9  -4    0.53    0.29
   0   9  -4    1.03    0.32
   0  -9   4    0.26    0.24
   0  -9   4    0.50    0.31
   0  -9   4    0.41    0.27
   0  -9   4    0.70    0.52
  -1   9  -4    0.02    0.27
  -1   9  -4    0.64    0.43
   1  -9   4    0.36    0.49
   1  -9   4   -0.03    0.20
   1  -9   4    0.43    0.32
  -2   9  -4    0.64    0.41
   2  -9   4    0.23    0.48
   2  -9   4    0.66    0.39
  -3   9  -4    0.90    0.52
  -3   9  -4    0.81    0.25
   3  -9   4    0.44    0.43
   3  -9   4    0.65    0.45
  -4   9  -4    0.21    0.25
  -4   9  -4    0.45    0.38
   4  -9   4   -0.02    0.49
   4  -9   4    0.36    0.43
  -5   9  -4    2.23    0.47
  -5   9  -4    2.47    0.73
   5  -9   4    1.64    0.72
   5  -9   4    4.60    0.92
   9   8  -4    1.05    0.61
   9   8  -4    0.86    0.35
   9   8  -4   -0.48    0.40
  -9  -8   4    0.81    0.53
   8   8  -4   -0.13    0.20
   8   8  -4    0.28    0.49
   8   8  -4    0.16    0.39
  -8  -8   4    0.34    0.36
  -8  -8   4   -0.01    0.37
   7   8  -4    5.42    1.01
   7   8  -4    6.86    0.95
   7   8  -4    7.91    0.62
  -7  -8   4    7.16    0.83
  -7  -8   4    6.70    0.92
   6   8  -4    0.29    0.16
   6   8  -4   -0.11    0.26
   6   8  -4    0.26    0.36
  -6  -8   4   -0.03    0.26
  -6  -8   4    0.48    0.35
   5   8  -4    0.56    0.14
   5   8  -4    0.76    0.36
   5   8  -4    0.60    0.41
  -5  -8   4    0.28    0.30
  -5  -8   4    0.36    0.25
   4   8  -4    0.93    0.34
   4   8  -4    1.62    0.35
   4   8  -4    1.29    0.44
  -4  -8   4    1.93    0.40
  -4  -8   4    1.47    0.51
  -4  -8   4    0.79    0.30
   3   8  -4   -0.08    0.26
   3   8  -4    0.31    0.26
   3   8  -4    0.05    0.21
  -3  -8   4   -0.03    0.18
  -3  -8   4    0.41    0.28
  -3  -8   4    0.02    0.38
   2   8  -4    0.09    0.22
   2   8  -4    0.16    0.24
   2   8  -4    0.12    0.24
  -2  -8   4    0.43    0.28
  -2  -8   4    0.50    0.27
  -2  -8   4    0.43    0.41
  -2  -8   4    0.17    0.19
   1   8  -4    2.80    0.49
   1   8  -4    2.68    0.47
  -1  -8   4    2.85    0.46
  -1  -8   4    2.84    0.43
  -1  -8   4    2.76    0.61
  -1  -8   4    2.44    0.46
   0   8  -4    4.15    0.59
   0   8  -4    4.13    0.57
   0  -8   4    4.32    0.61
   0  -8   4    4.18    0.56
   0  -8   4    6.01    0.68
   0  -8   4    3.43    0.79
  -1   8  -4    6.12    0.43
  -1   8  -4    8.23    0.76
  -1   8  -4    7.09    0.66
   1  -8   4    6.04    0.70
   1  -8   4    8.12    0.84
   1  -8   4    7.15    1.05
   1  -8   4    6.98    0.82
  -2   8  -4    2.05    0.46
  -2   8  -4    2.50    0.30
   2  -8   4    2.63    0.55
   2  -8   4    3.21    0.70
  -3   8  -4    0.37    0.34
  -3   8  -4    1.11    0.26
   3  -8   4    1.33    0.47
   3  -8   4    0.95    0.55
  -4   8  -4    0.41    0.26
   4  -8   4    0.36    0.44
   4  -8   4    0.37    0.42
  -5   8  -4    4.37    0.88
  -5   8  -4    4.57    0.63
   5  -8   4    5.19    0.95
   5  -8   4    4.02    0.87
  -6   8  -4    0.27    0.46
  -6   8  -4    0.00    0.29
   6  -8   4   -0.50    0.37
   6  -8   4   -0.37    0.43
   7  -8   4   -0.01    0.43
   7  -8   4   -0.31    0.34
   9   7  -4    0.11    0.33
   9   7  -4    0.02    0.26
   9   7  -4    0.29    0.44
  -9  -7   4    0.24    0.32
   8   7  -4    0.98    0.55
   8   7  -4    1.46    0.37
   8   7  -4    2.69    0.65
  -8  -7   4    1.57    0.43
  -8  -7   4    1.36    0.49
   7   7  -4    6.25    0.63
   7   7  -4    5.20    0.80
   7   7  -4    5.74    0.92
  -7  -7   4    7.02    0.76
  -7  -7   4    6.40    0.81
   6   7  -4    6.11    0.89
   6   7  -4    5.77    0.77
   6   7  -4    5.86    0.52
  -6  -7   4    4.51    0.68
  -6  -7   4    6.73    0.72
   5   7  -4    2.92    0.52
   5   7  -4    2.53    0.30
   5   7  -4    2.22    0.55
  -5  -7   4    3.27    0.50
  -5  -7   4    3.52    0.57
   4   7  -4    0.07    0.15
   4   7  -4    0.04    0.27
   4   7  -4    0.27    0.26
   4   7  -4    0.01    0.09
  -4  -7   4   -0.13    0.21
  -4  -7   4    0.23    0.28
  -4  -7   4   -0.11    0.22
   3   7  -4   -0.01    0.19
   3   7  -4    0.12    0.26
  -3  -7   4    0.34    0.22
  -3  -7   4   -0.06    0.29
  -3  -7   4    0.29    0.24
   2   7  -4    2.14    0.44
   2   7  -4    1.91    0.37
  -2  -7   4    1.92    0.39
  -2  -7   4    2.20    0.50
  -2  -7   4    2.67    0.41
  -2  -7   4    2.48    0.37
   1   7  -4    1.61    0.35
   1   7  -4    0.87    0.31
  -1  -7   4    0.57    0.40
  -1  -7   4    1.34    0.33
  -1  -7   4    1.22    0.28
  -1  -7   4    1.37    0.35
   0   7  -4   -0.16    0.16
   0   7  -4    0.22    0.21
   0  -7   4    0.34    0.23
   0  -7   4   -0.32    0.18
   0  -7   4   -0.03    0.18
   0  -7   4   -0.20    0.32
  -1   7  -4    3.70    0.46
  -1   7  -4    3.54    0.53
  -1   7  -4    3.57    0.28
   1  -7   4    3.11    0.49
   1  -7   4    4.27    0.59
   1  -7   4    3.44    0.66
   1  -7   4    2.64    0.44
  -2   7  -4    0.32    0.17
  -2   7  -4    0.55    0.17
  -2   7  -4    0.21    0.25
   2  -7   4    0.44    0.31
   2  -7   4    0.21    0.31
   2  -7   4    0.37    0.21
  -3   7  -4    1.38    0.38
  -3   7  -4    0.91    0.24
   3  -7   4    0.77    0.40
   3  -7   4    0.86    0.42
  -4   7  -4    0.05    0.28
  -4   7  -4    0.41    0.25
   4  -7   4    0.42    0.42
   4  -7   4    0.42    0.43
  -5   7  -4    2.01    0.42
  -5   7  -4    2.12    0.55
   5  -7   4    3.22    0.69
   5  -7   4    1.61    0.64
  -6   7  -4   -0.22    0.27
  -6   7  -4    0.10    0.23
   6  -7   4   -0.42    0.34
   6  -7   4    0.40    0.43
  -7   7  -4   -0.07    0.28
  -7   7  -4    0.39    0.43
   7  -7   4   -0.43    0.44
   7  -7   4    0.76    0.44
  -8   7  -4    0.07    0.37
  -8   7  -4    0.43    0.48
   8  -7   4    0.29    0.43
   8  -7   4    0.07    0.50
  10   6  -4   -0.19    0.25
  10   6  -4    0.51    0.47
  10   6  -4   -0.47    0.45
 -10  -6   4    0.79    0.52
   9   6  -4    0.37    0.29
   9   6  -4   -0.41    0.39
   9   6  -4    0.47    0.47
  -9  -6   4    0.18    0.42
   8   6  -4    2.74    0.72
   8   6  -4    2.69    0.47
   8   6  -4    2.49    0.56
  -8  -6   4    2.07    0.51
  -8  -6   4    2.48    0.48
   7   6  -4    0.22    0.39
   7   6  -4    0.81    0.39
   7   6  -4    0.26    0.23
  -7  -6   4    0.38    0.27
  -7  -6   4   -0.07    0.30
   6   6  -4    3.88    0.69
   6   6  -4    4.45    0.65
   6   6  -4    3.71    0.45
  -6  -6   4    4.00    0.52
  -6  -6   4    3.25    0.58
  -6  -6   4    4.44    0.45
   5   6  -4   16.07    1.02
   5   6  -4   15.32    1.19
   5   6  -4   16.55    1.40
  -5  -6   4   16.08    1.11
  -5  -6   4   15.17    0.99
  -5  -6   4   15.04    1.20
   4   6  -4    0.19    0.12
   4   6  -4    0.05    0.27
   4   6  -4   -0.14    0.20
  -4  -6   4    0.33    0.22
  -4  -6   4    0.40    0.27
  -4  -6   4    0.35    0.13
   3   6  -4   28.93    1.62
   3   6  -4   29.92    1.85
   3   6  -4   29.31    2.16
   3   6  -4   26.72    1.64
  -3  -6   4   30.42    1.79
  -3  -6   4   31.78    2.22
  -3  -6   4   25.65    1.65
  -3  -6   4   29.11    1.84
   2   6  -4    3.22    0.53
   2   6  -4    2.70    0.41
  -2  -6   4    3.52    0.58
  -2  -6   4    3.69    0.46
  -2  -6   4    3.84    0.49
   1   6  -4    5.00    0.54
   1   6  -4    5.25    0.40
   1   6  -4    4.14    0.57
  -1  -6   4    4.20    0.53
  -1  -6   4    5.60    0.59
  -1  -6   4    5.47    0.51
  -1  -6   4    4.62    0.72
   0   6  -4    0.09    0.17
   0   6  -4    0.63    0.24
   0   6  -4    0.48    0.04
   0  -6   4    0.68    0.24
   0  -6   4    0.69    0.30
   0  -6   4    0.64    0.25
   0  -6   4    0.32    0.21
  -1   6  -4   13.87    0.89
  -1   6  -4   14.92    1.13
  -1   6  -4   14.82    0.88
  -1   6  -4   15.13    1.12
   1  -6   4   14.68    1.17
   1  -6   4   13.34    1.02
   1  -6   4   15.36    1.07
   1  -6   4   16.96    1.41
  -2   6  -4    0.03    0.12
  -2   6  -4    0.05    0.13
  -2   6  -4    0.42    0.23
   2  -6   4   -0.06    0.15
   2  -6   4   -0.09    0.21
   2  -6   4   -0.07    0.21
  -3   6  -4   -0.10    0.14
  -3   6  -4    0.02    0.11
  -3   6  -4    0.07    0.20
   3  -6   4   -0.26    0.27
   3  -6   4    0.11    0.27
  -4   6  -4    1.52    0.43
  -4   6  -4    1.90    0.35
   4  -6   4    1.38    0.48
   4  -6   4    2.05    0.56
  -5   6  -4    7.27    0.92
  -5   6  -4    9.78    0.79
   5  -6   4    7.47    1.05
   5  -6   4    7.79    1.08
  -6   6  -4   -0.24    0.33
  -6   6  -4   -0.08    0.25
   6  -6   4    0.24    0.30
   6  -6   4   -0.19    0.22
  -7   6  -4    0.13    0.30
  -7   6  -4    0.08    0.38
   7  -6   4   -0.14    0.36
   7  -6   4    0.54    0.50
  -8   6  -4    5.45    0.84
  -8   6  -4    4.37    0.84
   8  -6   4    5.71    0.95
   8  -6   4    5.85    1.06
  -9   6  -4    1.87    0.57
   9  -6   4    0.51    0.57
   9  -6   4    1.17    0.52
  10   5  -4    1.55    0.47
  10   5  -4    2.84    0.67
  10   5  -4    1.65    0.59
 -10  -5   4    0.72    0.51
   9   5  -4    4.75    0.87
   9   5  -4    2.62    0.61
   9   5  -4    4.00    0.61
  -9  -5   4    3.71    0.58
  -9  -5   4    3.81    0.74
   8   5  -4    2.07    0.50
   8   5  -4    1.85    0.42
   8   5  -4    2.00    0.55
  -8  -5   4    2.21    0.55
  -8  -5   4    1.43    0.36
  -8  -5   4    2.36    0.43
   7   5  -4    7.68    0.67
   7   5  -4    7.78    0.90
   7   5  -4    5.93    0.89
  -7  -5   4    6.66    0.67
  -7  -5   4    7.47    0.65
  -7  -5   4    6.21    0.81
   6   5  -4   31.40    2.49
   6   5  -4   33.05    2.01
   6   5  -4   32.78    2.19
  -6  -5   4   34.48    2.02
  -6  -5   4   33.62    1.99
  -6  -5   4   30.22    2.12
   5   5  -4    0.63    0.34
   5   5  -4    0.42    0.16
   5   5  -4    0.54    0.26
  -5  -5   4    0.72    0.28
  -5  -5   4    0.47    0.23
  -5  -5   4    0.47    0.19
   4   5  -4    2.89    0.32
   4   5  -4    2.68    0.51
   4   5  -4    3.85    0.52
  -4  -5   4    2.93    0.40
  -4  -5   4    3.37    0.48
  -4  -5   4    3.32    0.35
  -4  -5   4    3.18    0.26
   3   5  -4    1.52    0.23
   3   5  -4    1.21    0.32
   3   5  -4    1.38    0.31
   3   5  -4    1.79    0.20
  -3  -5   4    1.39    0.30
  -3  -5   4    1.52    0.22
  -3  -5   4    1.77    0.31
   2   5  -4   38.93    2.70
   2   5  -4   39.18    2.14
   2   5  -4   36.97    2.15
   2   5  -4   40.72    2.34
  -2  -5   4   35.99    2.19
  -2  -5   4   38.12    2.31
  -2  -5   4   40.36    2.27
  -2  -5   4   36.88    2.75
   1   5  -4    1.43    0.20
   1   5  -4    1.11    0.29
   1   5  -4    1.25    0.25
   1   5  -4    1.34    0.11
   1   5  -4    1.18    0.12
  -1  -5   4    0.80    0.30
  -1  -5   4    1.28    0.25
  -1  -5   4    1.06    0.26
  -1  -5   4    1.24    0.26
   0   5  -4    2.74    0.40
   0   5  -4    3.08    0.21
   0   5  -4    2.60    0.21
   0   5  -4    3.01    0.43
   0   5  -4    3.18    0.33
   0  -5   4    3.93    0.58
   0  -5   4    3.13    0.40
   0  -5   4    3.56    0.44
   0  -5   4    3.07    0.40
  -1   5  -4    2.63    0.23
  -1   5  -4    2.83    0.41
  -1   5  -4    2.87    0.36
  -1   5  -4    2.44    0.26
   1  -5   4    1.91    0.38
   1  -5   4    3.12    0.53
   1  -5   4    2.52    0.38
   1  -5   4    2.61    0.37
  -2   5  -4    2.68    0.43
  -2   5  -4    2.39    0.30
  -2   5  -4    2.92    0.33
   2  -5   4    2.49    0.44
   2  -5   4    2.83    0.55
   2  -5   4    2.60    0.19
   2  -5   4    2.24    0.36
  -3   5  -4   -0.14    0.18
  -3   5  -4   -0.14    0.13
  -3   5  -4   -0.01    0.09
  -3   5  -4    0.00    0.15
   3  -5   4   -0.02    0.24
   3  -5   4    0.02    0.21
  -4   5  -4   -0.21    0.14
  -4   5  -4   -0.15    0.19
   4  -5   4    0.09    0.13
   4  -5   4   -0.28    0.28
   4  -5   4   -0.19    0.24
  -5   5  -4   10.39    1.05
  -5   5  -4   12.39    0.97
   5  -5   4   11.43    1.16
   5  -5   4   13.01    1.24
   5  -5   4   13.16    0.87
  -6   5  -4   13.53    1.09
  -6   5  -4   13.16    1.22
   6  -5   4   15.60    1.38
   6  -5   4   12.05    1.28
  -7   5  -4    1.98    0.47
  -7   5  -4    1.49    0.51
   7  -5   4    1.69    0.53
   7  -5   4    1.55    0.59
  -8   5  -4   -0.35    0.30
  -8   5  -4    0.38    0.44
   8  -5   4   -0.13    0.27
   8  -5   4    0.05    0.36
  -9   5  -4    7.30    1.02
  -9   5  -4    8.16    1.16
  -9   5  -4    9.35    1.20
   9  -5   4    7.27    1.22
   9  -5   4   11.97    1.33
  10   4  -4    1.73    0.52
  10   4  -4    2.17    0.54
  10   4  -4    0.66    0.53
 -10  -4   4    1.90    0.53
 -10  -4   4    1.00    0.46
   9   4  -4    1.30    0.56
   9   4  -4    3.33    0.66
   9   4  -4    1.71    0.46
  -9  -4   4    1.53    0.53
  -9  -4   4    1.71    0.45
   8   4  -4    2.01    0.57
   8   4  -4    2.75    0.49
   8   4  -4    3.24    0.60
  -8  -4   4    2.83    0.58
  -8  -4   4    3.23    0.50
   7   4  -4    0.92    0.36
   7   4  -4    0.51    0.32
   7   4  -4    1.08    0.31
  -7  -4   4    0.39    0.23
  -7  -4   4    0.15    0.22
  -7  -4   4    0.74    0.27
   6   4  -4    0.14    0.22
   6   4  -4    0.27    0.21
   6   4  -4    0.28    0.27
  -6  -4   4    0.34    0.28
  -6  -4   4    0.07    0.16
  -6  -4   4    0.12    0.17
  -6  -4   4   -0.11    0.14
   5   4  -4   18.26    1.20
   5   4  -4   17.61    1.32
   5   4  -4   18.40    1.53
  -5  -4   4   19.12    1.34
  -5  -4   4   18.36    1.18
  -5  -4   4   18.06    1.18
  -5  -4   4   19.21    1.21
   4   4  -4   14.89    1.08
   4   4  -4   13.14    1.00
   4   4  -4   15.91    0.98
   4   4  -4   14.80    0.97
   4   4  -4   15.35    1.26
  -4  -4   4   15.55    1.09
  -4  -4   4   14.61    0.97
  -4  -4   4   15.65    0.99
  -4  -4   4   15.55    0.95
   3   4  -4   19.01    1.23
   3   4  -4   20.06    1.55
   3   4  -4   20.86    1.21
   3   4  -4   18.67    1.32
  -3  -4   4   20.77    1.25
  -3  -4   4   20.97    1.34
  -3  -4   4   20.46    1.23
   2   4  -4   46.38    2.65
   2   4  -4   46.01    2.63
   2   4  -4   47.60    2.79
   2   4  -4   46.10    3.22
  -2  -4   4   51.11    3.30
  -2  -4   4   46.63    2.67
  -2  -4   4   44.57    2.57
  -2  -4   4   48.82    2.78
  -2  -4   4   49.27    2.70
   1   4  -4    1.39    0.19
   1   4  -4    1.37    0.14
   1   4  -4    1.38    0.23
   1   4  -4    1.28    0.27
   1   4  -4    1.03    0.14
  -1  -4   4    1.31    0.22
  -1  -4   4    1.24    0.30
  -1  -4   4    1.28    0.20
  -1  -4   4    1.07    0.24
  -1  -4   4    1.28    0.24
   0   4  -4    8.14    0.54
   0   4  -4    8.69    0.54
   0   4  -4    9.19    0.75
   0   4  -4    9.61    0.62
   0   4  -4    9.51    0.64
   0   4  -4    8.95    0.73
   0  -4   4    8.46    0.66
   0  -4   4    8.62    0.64
   0  -4   4    9.46    0.84
   0  -4   4    9.79    0.74
  -1   4  -4    0.94    0.19
  -1   4  -4    1.08    0.16
  -1   4  -4    1.22    0.25
  -1   4  -4    0.81    0.13
   1  -4   4    0.89    0.27
   1  -4   4    1.02    0.27
   1  -4   4    1.47    0.27
   1  -4   4    1.22    0.24
  -2   4  -4   37.89    2.39
  -2   4  -4   35.90    2.34
  -2   4  -4   32.97    2.07
   2  -4   4   37.73    2.62
   2  -4   4   34.42    2.14
   2  -4   4   36.44    2.45
  -3   4  -4    1.69    0.27
  -3   4  -4    1.96    0.35
  -3   4  -4    1.96    0.23
  -3   4  -4    1.51    0.26
  -3   4  -4    2.09    0.26
   3  -4   4    1.56    0.40
   3  -4   4    1.66    0.22
   3  -4   4    1.32    0.37
  -4   4  -4    3.50    0.44
  -4   4  -4    3.02    0.50
  -4   4  -4    3.44    0.43
   4  -4   4    3.08    0.57
   4  -4   4    3.24    0.37
   4  -4   4    3.32    0.58
  -5   4  -4    0.38    0.31
  -5   4  -4    0.25    0.23
   5  -4   4    0.38    0.18
   5  -4   4    0.49    0.30
   5  -4   4    0.03    0.23
  -6   4  -4    1.33    0.43
  -6   4  -4    1.69    0.39
   6  -4   4    1.85    0.33
   6  -4   4    1.56    0.45
   6  -4   4    1.65    0.48
  -7   4  -4    0.42    0.32
  -7   4  -4    0.74    0.40
   7  -4   4    1.24    0.45
   7  -4   4    0.86    0.29
   7  -4   4    0.22    0.43
  -8   4  -4    4.24    0.81
  -8   4  -4    5.41    0.75
   8  -4   4    4.90    0.91
   8  -4   4    5.81    0.85
   8  -4   4    5.96    0.73
  -9   4  -4    1.06    0.46
  -9   4  -4    1.29    0.59
   9  -4   4    1.40    0.47
   9  -4   4    0.61    0.45
 -10   4  -4   -0.06    0.43
 -10   4  -4   -0.24    0.35
 -10   4  -4    1.02    0.46
  10  -4   4    0.25    0.56
  10   3  -4    0.24    0.38
  10   3  -4    0.23    0.29
  10   3  -4    0.27    0.37
 -10  -3   4   -0.45    0.29
 -10  -3   4    0.59    0.43
   9   3  -4    4.81    0.83
   9   3  -4    4.32    0.74
   9   3  -4    6.79    0.83
  -9  -3   4    5.09    0.75
  -9  -3   4    3.85    0.73
   8   3  -4    0.21    0.28
   8   3  -4    0.58    0.40
   8   3  -4   -0.04    0.31
  -8  -3   4   -0.41    0.21
  -8  -3   4    0.55    0.34
   7   3  -4    0.15    0.35
   7   3  -4    0.75    0.29
   7   3  -4    0.26    0.32
  -7  -3   4    0.31    0.27
  -7  -3   4    0.74    0.35
  -7  -3   4    0.18    0.24
  -7  -3   4    0.81    0.24
   6   3  -4    0.13    0.15
   6   3  -4   -0.13    0.26
   6   3  -4    0.00    0.25
  -6  -3   4    0.26    0.17
  -6  -3   4    0.39    0.22
  -6  -3   4    0.23    0.25
  -6  -3   4   -0.03    0.20
   5   3  -4   22.06    1.34
   5   3  -4   19.40    1.42
   5   3  -4   19.43    1.39
   5   3  -4   21.98    1.64
  -5  -3   4   21.23    1.34
  -5  -3   4   20.85    1.40
  -5  -3   4   19.60    1.32
  -5  -3   4   19.62    1.26
   4   3  -4    7.58    0.80
   4   3  -4    8.05    0.55
   4   3  -4    7.67    0.69
   4   3  -4    7.66    0.60
   4   3  -4    7.21    0.64
  -4  -3   4    8.38    0.62
  -4  -3   4    8.56    0.70
  -4  -3   4    8.58    0.58
  -4  -3   4    8.49    0.61
   3   3  -4    5.59    0.55
   3   3  -4    6.53    0.49
   3   3  -4    6.15    0.48
   3   3  -4    6.54    0.51
   3   3  -4    6.35    0.64
  -3  -3   4    6.86    0.48
  -3  -3   4    5.78    0.54
  -3  -3   4    7.07    0.49
  -3  -3   4    7.29    0.52
   2   3  -4    0.33    0.15
   2   3  -4    0.20    0.11
   2   3  -4    0.36    0.19
   2   3  -4    0.41    0.11
  -2  -3   4    0.41    0.16
  -2  -3   4    0.50    0.13
  -2  -3   4    0.34    0.12
   1   3  -4   13.62    0.80
   1   3  -4   15.07    1.06
   1   3  -4   13.23    0.79
   1   3  -4   13.28    0.87
   1   3  -4   13.75    0.84
  -1  -3   4   13.02    0.96
  -1  -3   4   15.19    1.09
  -1  -3   4   12.33    0.88
  -1  -3   4   13.59    0.84
  -1  -3   4   12.96    0.84
  -1  -3   4   12.60    0.77
  -1  -3   4   12.65    0.77
   0   3  -4    1.51    0.17
   0   3  -4    1.84    0.16
   0   3  -4    1.24    0.25
   0   3  -4    2.10    0.24
   0   3  -4    1.58    0.21
   0  -3   4    1.92    0.28
   0  -3   4    1.25    0.21
   0  -3   4    1.84    0.27
   0  -3   4    2.20    0.37
   0  -3   4    1.69    0.12
   0  -3   4    1.81    0.24
   0  -3   4    1.69    0.13
  -1   3  -4    0.56    0.12
  -1   3  -4    0.77    0.18
  -1   3  -4    0.50    0.15
  -1   3  -4    0.51    0.16
  -1   3  -4    0.72    0.12
   1  -3   4    0.69    0.18
   1  -3   4    0.64    0.23
   1  -3   4    0.69    0.09
   1  -3   4    0.53    0.09
   1  -3   4    1.00    0.22
  -2   3  -4   36.75    2.24
  -2   3  -4   41.11    2.59
  -2   3  -4   39.63    2.23
  -2   3  -4   36.72    2.49
   2  -3   4   37.91    2.61
   2  -3   4   41.17    2.77
   2  -3   4   40.23    2.31
  -3   3  -4    0.05    0.16
  -3   3  -4    0.25    0.15
  -3   3  -4    0.26    0.11
  -3   3  -4    0.23    0.10
   3  -3   4    0.42    0.24
   3  -3   4    0.20    0.12
   3  -3   4    0.12    0.20
  -4   3  -4    4.78    0.36
  -4   3  -4    3.48    0.44
  -4   3  -4    3.92    0.32
  -4   3  -4    3.94    0.46
  -4   3  -4    3.68    0.53
   4  -3   4    4.70    0.64
   4  -3   4    4.17    0.42
   4  -3   4    3.80    0.58
  -5   3  -4   13.42    1.18
  -5   3  -4   12.55    1.02
   5  -3   4   15.48    1.01
   5  -3   4   16.87    1.28
   5  -3   4   14.73    1.28
  -6   3  -4   58.63    4.00
  -6   3  -4   55.48    3.63
   6  -3   4   56.05    4.17
   6  -3   4   68.02    4.31
   6  -3   4   68.60    3.62
  -7   3  -4   41.61    2.64
  -7   3  -4   38.82    2.87
   7  -3   4   39.45    3.04
   7  -3   4   43.09    2.56
   7  -3   4   43.71    3.03
  -8   3  -4    0.31    0.34
  -8   3  -4    0.39    0.33
   8  -3   4    0.08    0.28
   8  -3   4   -0.24    0.22
   8  -3   4   -0.41    0.32
  -9   3  -4    1.75    0.51
  -9   3  -4    1.68    0.59
   9  -3   4    2.30    0.46
   9  -3   4    2.51    0.72
 -10   3  -4    6.39    1.02
 -10   3  -4    6.60    0.96
  10  -3   4    7.20    1.03
  10  -3   4    4.86    1.01
 -11   3  -4   -0.31    0.42
  11  -3   4   -0.18    0.35
  10   2  -4    7.67    1.07
  10   2  -4    9.39    1.19
  10   2  -4    9.36    1.12
 -10  -2   4    7.02    1.00
   9   2  -4    1.78    0.51
   9   2  -4    1.48    0.49
   9   2  -4    0.79    0.51
  -9  -2   4    1.95    0.53
   8   2  -4    1.97    0.54
   8   2  -4    1.34    0.41
   8   2  -4    1.90    0.50
  -8  -2   4    1.50    0.44
  -8  -2   4    2.41    0.51
   7   2  -4    2.11    0.42
   7   2  -4    3.04    0.52
   7   2  -4    1.41    0.43
  -7  -2   4    3.01    0.38
  -7  -2   4    1.27    0.38
  -7  -2   4    1.33    0.39
   6   2  -4    5.79    0.70
   6   2  -4    4.05    0.67
   6   2  -4    4.63    0.57
  -6  -2   4    5.41    0.45
  -6  -2   4    4.75    0.59
  -6  -2   4    5.32    0.65
   5   2  -4   67.33    4.58
   5   2  -4   66.63    4.02
   5   2  -4   69.27    3.90
  -5  -2   4   70.50    3.79
  -5  -2   4   69.57    3.92
  -5  -2   4   64.97    3.93
  -5  -2   4   63.52    3.87
   4   2  -4   12.13    0.91
   4   2  -4   13.63    1.08
   4   2  -4   12.03    0.82
   4   2  -4   12.65    0.88
   4   2  -4   12.65    0.93
  -4  -2   4   12.84    0.88
  -4  -2   4   13.65    0.81
  -4  -2   4   12.16    0.88
  -4  -2   4   14.13    0.95
   3   2  -4    0.16    0.13
   3   2  -4    0.10    0.11
   3   2  -4    0.13    0.10
   3   2  -4    0.30    0.14
   3   2  -4    0.48    0.19
  -3  -2   4    0.01    0.15
  -3  -2   4    0.19    0.13
  -3  -2   4    0.41    0.16
  -3  -2   4    0.17    0.10
   2   2  -4   23.33    1.65
   2   2  -4   23.54    1.43
   2   2  -4   20.86    1.35
   2   2  -4   21.89    1.33
   2   2  -4   21.51    1.40
  -2  -2   4   23.47    1.41
  -2  -2   4   22.23    1.33
  -2  -2   4   23.07    1.31
  -2  -2   4   24.10    1.37
   1   2  -4  139.67    7.61
   1   2  -4  144.74    8.96
   1   2  -4  142.21    8.22
   1   2  -4  141.27    7.61
   1   2  -4  136.04    7.77
   1   2  -4  134.44    7.62
  -1  -2   4  138.49    7.61
  -1  -2   4  133.82    7.77
  -1  -2   4  137.63    7.58
  -1  -2   4  134.62    7.60
  -1  -2   4  143.55    7.69
  -1  -2   4  140.13    7.60
   0   2  -4    1.09    0.15
   0   2  -4    1.65    0.25
   0   2  -4    1.42    0.18
   0   2  -4    1.34    0.19
   0   2  -4    1.33    0.16
   0  -2   4    1.23    0.21
   0  -2   4    1.66    0.25
   0  -2   4    1.54    0.21
   0  -2   4    1.68    0.16
   0  -2   4    1.51    0.19
   0  -2   4    1.65    0.30
  -1   2  -4   59.15    3.84
  -1   2  -4   57.17    3.26
  -1   2  -4   54.47    3.27
  -1   2  -4   62.21    3.30
  -1   2  -4   58.09    3.30
  -1   2  -4   59.53    3.62
   1  -2   4   62.40    3.97
   1  -2   4   63.75    3.25
   1  -2   4   53.03    3.30
   1  -2   4   57.42    3.74
   1  -2   4   58.45    3.34
  -2   2  -4    0.72    0.14
  -2   2  -4    0.81    0.19
  -2   2  -4    0.45    0.13
  -2   2  -4    0.64    0.15
   2  -2   4    0.54    0.13
   2  -2   4    1.32    0.23
   2  -2   4    0.82    0.16
   2  -2   4    0.65    0.22
   2  -2   4    0.64    0.20
   2  -2   4    0.94    0.15
  -3   2  -4   30.40    1.97
  -3   2  -4   27.19    1.94
  -3   2  -4   26.69    1.75
  -3   2  -4   28.52    1.69
   3  -2   4   32.16    1.97
   3  -2   4   31.46    2.12
   3  -2   4   29.73    1.74
  -4   2  -4    4.59    0.41
  -4   2  -4    5.60    0.48
  -4   2  -4    4.94    0.59
  -4   2  -4    4.82    0.51
  -4   2  -4    5.41    0.38
   4  -2   4    5.25    0.44
   4  -2   4    5.23    0.39
   4  -2   4    5.25    0.65
   4  -2   4    4.68    0.59
  -5   2  -4   -0.04    0.09
  -5   2  -4   -0.03    0.16
  -5   2  -4   -0.14    0.20
   5  -2   4   -0.12    0.14
   5  -2   4    0.05    0.05
   5  -2   4   -0.13    0.13
   5  -2   4    0.23    0.22
  -6   2  -4   40.70    2.62
  -6   2  -4   40.00    2.86
   6  -2   4   45.53    2.60
   6  -2   4   40.11    3.00
   6  -2   4   43.02    2.54
   6  -2   4   46.31    3.03
  -7   2  -4    2.23    0.53
  -7   2  -4    1.47    0.39
   7  -2   4    2.14    0.40
   7  -2   4    2.37    0.35
   7  -2   4    1.44    0.36
   7  -2   4    1.89    0.49
  -8   2  -4    2.60    0.59
  -8   2  -4    3.02    0.58
   8  -2   4    3.37    0.47
   8  -2   4    3.75    0.57
   8  -2   4    2.73    0.69
   8  -2   4    4.17    0.59
  -9   2  -4   -0.15    0.26
  -9   2  -4    0.29    0.36
   9  -2   4   -0.16    0.36
   9  -2   4    0.00    0.22
   9  -2   4    0.27    0.30
 -10   2  -4    1.91    0.64
 -10   2  -4    1.57    0.56
  10  -2   4    1.59    0.56
  10  -2   4    2.74    0.49
  10  -2   4    2.85    0.55
 -11   2  -4    3.17    0.74
  11  -2   4    3.64    0.68
  11  -2   4    2.75    0.82
  10   1  -4    0.28    0.32
  10   1  -4    0.22    0.40
  10   1  -4   -0.14    0.48
 -10  -1   4    0.61    0.41
   9   1  -4    1.38    0.50
   9   1  -4    0.97    0.53
   9   1  -4    0.49    0.39
  -9  -1   4    1.69    0.49
  -9  -1   4    1.55    0.48
   8   1  -4    0.24    0.31
   8   1  -4   -0.20    0.33
   8   1  -4    0.01    0.26
  -8  -1   4   -0.29    0.27
  -8  -1   4   -0.52    0.28
   7   1  -4    0.23    0.27
   7   1  -4    0.36    0.23
   7   1  -4    0.20    0.26
  -7  -1   4    0.27    0.27
  -7  -1   4    0.47    0.31
   6   1  -4    7.88    0.71
   6   1  -4    9.65    0.89
   6   1  -4    7.81    0.86
  -6  -1   4    8.50    0.85
  -6  -1   4    8.29    0.76
   5   1  -4    1.84    0.36
   5   1  -4    1.37    0.28
   5   1  -4    1.49    0.34
  -5  -1   4    1.60    0.32
  -5  -1   4    1.73    0.33
   4   1  -4   12.52    0.90
   4   1  -4   10.12    0.77
   4   1  -4   13.47    1.02
   4   1  -4   11.48    0.82
  -4  -1   4   12.44    0.86
  -4  -1   4   11.66    0.73
  -4  -1   4   12.12    0.86
  -4  -1   4   12.06    0.86
   3   1  -4    5.20    0.43
   3   1  -4    4.80    0.40
   3   1  -4    4.99    0.45
   3   1  -4    4.34    0.49
   3   1  -4    5.38    0.53
  -3  -1   4    5.37    0.35
  -3  -1   4    4.90    0.44
  -3  -1   4    5.28    0.46
  -3  -1   4    4.98    0.46
   2   1  -4   24.03    1.54
   2   1  -4   25.66    1.50
   2   1  -4   23.64    1.57
   2   1  -4   24.51    1.52
   2   1  -4   25.35    1.79
  -2  -1   4   27.59    1.55
  -2  -1   4   24.86    1.51
  -2  -1   4   26.23    1.51
  -2  -1   4   26.18    1.42
   1   1  -4   27.36    1.62
   1   1  -4   28.29    1.65
   1   1  -4   27.61    1.73
   1   1  -4   27.92    1.63
   1   1  -4   26.64    1.92
   1   1  -4   27.22    1.61
  -1  -1   4   28.11    1.55
  -1  -1   4   26.92    1.61
  -1  -1   4   28.28    1.63
  -1  -1   4   27.16    1.64
  -1  -1   4   31.10    1.66
  -1  -1   4   28.09    1.60
   0   1  -4    4.70    0.35
   0   1  -4    5.12    0.38
   0   1  -4    4.72    0.40
   0   1  -4    5.17    0.35
   0   1  -4    4.61    0.35
   0   1  -4    5.24    0.46
   0  -1   4    4.81    0.35
   0  -1   4    5.30    0.44
   0  -1   4    4.61    0.35
   0  -1   4    4.81    0.44
   0  -1   4    4.76    0.38
   0  -1   4    5.22    0.35
  -1   1  -4    0.06    0.06
  -1   1  -4    0.10    0.05
  -1   1  -4   -0.09    0.07
  -1   1  -4    0.03    0.06
  -1   1  -4    0.02    0.07
  -1   1  -4    0.12    0.08
   1  -1   4   -0.02    0.06
   1  -1   4    0.10    0.06
   1  -1   4    0.10    0.09
   1  -1   4    0.04    0.06
   1  -1   4    0.23    0.10
  -2   1  -4   51.02    3.47
  -2   1  -4   51.30    3.28
  -2   1  -4   47.46    2.99
  -2   1  -4   53.85    3.01
  -2   1  -4   53.13    2.99
   2  -1   4   53.81    3.57
   2  -1   4   59.70    3.49
   2  -1   4   49.99    2.98
   2  -1   4   61.96    3.32
   2  -1   4   50.37    3.02
   2  -1   4   48.74    3.40
   2  -1   4   57.14    3.00
  -3   1  -4    9.12    0.70
  -3   1  -4    6.44    0.57
  -3   1  -4    8.84    0.65
  -3   1  -4    8.25    0.49
  -3   1  -4    7.94    0.58
   3  -1   4    8.37    0.59
   3  -1   4    8.47    0.70
   3  -1   4    8.45    0.70
   3  -1   4    9.16    0.64
  -4   1  -4    4.00    0.44
  -4   1  -4    3.48    0.49
  -4   1  -4    4.09    0.29
  -4   1  -4    3.91    0.36
   4  -1   4    4.08    0.30
   4  -1   4    4.23    0.35
   4  -1   4    3.82    0.41
   4  -1   4    3.70    0.50
   4  -1   4    3.98    0.42
  -5   1  -4   26.56    1.83
  -5   1  -4   26.13    2.01
  -5   1  -4   29.61    1.73
   5  -1   4   30.62    1.74
   5  -1   4   31.86    1.96
   5  -1   4   28.75    2.09
   5  -1   4   29.32    1.81
   5  -1   4   30.31    2.08
  -6   1  -4    0.85    0.25
  -6   1  -4    0.97    0.35
   6  -1   4    0.21    0.16
   6  -1   4    0.81    0.18
   6  -1   4    0.53    0.13
   6  -1   4    0.32    0.27
   6  -1   4    0.69    0.22
  -7   1  -4   51.12    3.31
  -7   1  -4   55.31    3.66
   7  -1   4   49.98    3.75
   7  -1   4   55.44    3.29
   7  -1   4   59.10    3.76
   7  -1   4   56.71    3.23
  -8   1  -4    4.06    0.73
  -8   1  -4    2.69    0.55
   8  -1   4    3.01    0.65
   8  -1   4    3.56    0.50
   8  -1   4    3.61    0.55
   8  -1   4    3.85    0.47
  -9   1  -4    0.86    0.49
  -9   1  -4    1.14    0.45
   9  -1   4    1.21    0.41
   9  -1   4    1.53    0.36
   9  -1   4    0.62    0.39
 -10   1  -4   -0.22    0.30
 -10   1  -4    0.16    0.30
  10  -1   4    0.06    0.27
  10  -1   4   -0.06    0.26
  10  -1   4    0.24    0.44
 -11   1  -4    4.47    0.79
  11  -1   4    5.04    0.70
  11  -1   4    2.40    0.69
  11  -1   4    4.12    0.75
 -12   1  -4   -0.23    0.29
  12  -1   4   -0.20    0.52
  12  -1   4   -0.02    0.40
  10   0  -4    0.22    0.42
  10   0  -4    0.11    0.47
 -10   0   4   -0.64    0.40
 -10   0   4    0.35    0.39
   9   0  -4    4.49    0.82
   9   0  -4    6.52    0.84
   9   0  -4    5.04    0.79
  -9   0   4    4.13    0.74
  -9   0   4    5.71    0.78
   8   0  -4    4.18    0.69
   8   0  -4    2.84    0.56
   8   0  -4    3.44    0.62
  -8   0   4    5.26    0.70
  -8   0   4    3.73    0.67
   7   0  -4   -0.02    0.23
   7   0  -4    0.37    0.24
   7   0  -4    0.41    0.28
  -7   0   4   -0.20    0.21
  -7   0   4   -0.02    0.28
   6   0  -4    0.94    0.30
   6   0  -4    0.95    0.37
   6   0  -4    1.99    0.41
  -6   0   4    1.29    0.35
  -6   0   4    1.39    0.23
  -6   0   4    1.40    0.36
   5   0  -4   25.56    1.84
   5   0  -4   24.19    1.66
   5   0  -4   22.28    1.57
  -5   0   4   26.16    1.60
  -5   0   4   24.81    1.56
  -5   0   4   24.20    1.63
   4   0  -4   16.94    1.23
   4   0  -4   19.28    1.29
   4   0  -4   19.19    1.43
   4   0  -4   19.61    1.25
  -4   0   4   20.20    1.25
  -4   0   4   20.07    1.28
  -4   0   4   18.59    1.22
   3   0  -4   16.98    1.16
   3   0  -4   17.23    1.13
   3   0  -4   16.30    1.16
   3   0  -4   19.00    1.34
  -3   0   4   18.87    1.15
  -3   0   4   16.75    1.15
  -3   0   4   19.19    1.16
  -3   0   4   17.70    1.15
   2   0  -4   33.65    1.99
   2   0  -4   34.95    2.29
   2   0  -4   32.95    1.94
   2   0  -4   31.73    1.96
   2   0  -4   31.85    2.05
  -2   0   4   34.99    1.95
  -2   0   4   32.98    1.95
  -2   0   4   33.94    2.04
  -2   0   4   31.86    1.95
   1   0  -4   76.49    4.62
   1   0  -4   80.54    5.06
   1   0  -4   75.78    4.32
   1   0  -4   76.33    4.39
   1   0  -4   72.75    4.30
  -1   0   4   77.91    4.31
  -1   0   4   79.61    4.39
  -1   0   4   79.86    4.32
  -1   0   4   77.54    4.62
   0   0  -4  265.94   14.08
   0   0  -4  264.05   16.50
   0   0  -4  259.36   14.12
   0   0  -4  259.83   15.19
   0   0  -4  251.96   14.11
   0   0  -4  249.91   14.34
   0   0   4  244.21   14.11
   0   0   4  262.13   14.12
   0   0   4  253.40   15.18
   0   0   4  255.16   14.34
   0   0   4  257.15   14.07
   0   0   4  282.30   16.52
  -1   0  -4    5.89    0.43
  -1   0  -4    6.16    0.48
  -1   0  -4    6.51    0.48
  -1   0  -4    6.85    0.46
  -1   0  -4    6.16    0.39
  -1   0  -4    5.98    0.52
  -1   0  -4    6.19    0.43
   1   0   4    6.90    0.43
   1   0   4    6.11    0.39
   1   0   4    6.50    0.52
   1   0   4    5.56    0.42
   1   0   4    5.89    0.44
   1   0   4    6.01    0.49
  -2   0  -4   16.16    1.11
  -2   0  -4   19.51    1.22
  -2   0  -4   19.10    1.12
  -2   0  -4   17.30    1.29
  -2   0  -4   16.84    1.23
  -2   0  -4   20.62    1.14
   2   0   4   18.01    1.27
   2   0   4   17.21    1.11
   2   0   4   20.55    1.31
   2   0   4   17.01    1.13
   2   0   4   21.03    1.26
   2   0   4   20.09    1.12
  -3   0  -4   10.75    0.81
  -3   0  -4   10.58    0.73
  -3   0  -4   11.04    0.72
  -3   0  -4    9.30    0.71
  -3   0  -4    9.86    0.80
   3   0   4    9.50    0.80
   3   0   4   10.91    0.61
   3   0   4   10.15    0.71
   3   0   4   12.03    0.83
   3   0   4   11.01    0.73
   3   0   4   11.52    0.80
  -4   0  -4    1.19    0.22
  -4   0  -4    1.55    0.24
  -4   0  -4    1.22    0.25
  -4   0  -4    1.69    0.15
  -4   0  -4    1.66    0.31
   4   0   4    1.59    0.16
   4   0   4    1.94    0.25
   4   0   4    1.57    0.25
   4   0   4    1.61    0.25
   4   0   4    1.36    0.28
  -5   0  -4    2.11    0.36
  -5   0  -4    3.04    0.25
  -5   0  -4    2.92    0.45
   5   0   4    3.40    0.34
   5   0   4    2.70    0.28
   5   0   4    2.92    0.38
   5   0   4    2.87    0.35
   5   0   4    2.28    0.41
  -6   0  -4   21.26    1.42
  -6   0  -4   20.41    1.28
  -6   0  -4   19.43    1.55
   6   0   4   21.93    1.49
   6   0   4   19.33    1.57
   6   0   4   19.90    1.38
   6   0   4   22.17    1.49
   6   0   4   21.24    1.30
  -7   0  -4   37.90    2.68
  -7   0  -4   38.04    2.42
   7   0   4   39.62    2.32
   7   0   4   39.28    2.62
   7   0   4   42.44    2.64
   7   0   4   35.34    2.71
   7   0   4   34.78    2.37
  -8   0  -4    0.39    0.39
  -8   0  -4    0.54    0.33
   8   0   4    0.49    0.25
   8   0   4    1.20    0.38
   8   0   4    1.30    0.25
   8   0   4    0.92    0.27
  -9   0  -4    0.51    0.35
  -9   0  -4   -0.28    0.18
   9   0   4   -0.12    0.28
   9   0   4   -0.01    0.19
   9   0   4    0.03    0.23
 -10   0  -4   -0.01    0.31
 -10   0  -4    0.18    0.40
  10   0   4    0.83    0.31
  10   0   4    0.44    0.38
  10   0   4    0.85    0.39
 -11   0  -4    4.29    0.79
  11   0   4    4.65    0.66
  11   0   4    5.81    0.83
  11   0   4    4.01    0.88
 -12   0  -4    0.53    0.49
  12   0   4   -0.14    0.40
  12   0   4   -0.40    0.38
  12   0   4   -0.34    0.31
  10  -1  -4    0.73    0.46
   9  -1  -4    0.13    0.28
   9  -1  -4    0.26    0.36
  -9   1   4    0.08    0.42
  -9   1   4    0.00    0.32
   8  -1  -4   -0.03    0.32
   8  -1  -4    0.11    0.27
   8  -1  -4    0.00    0.29
  -8   1   4    0.36    0.40
  -8   1   4    0.34    0.32
   7  -1  -4    1.45    0.41
   7  -1  -4    1.56    0.42
   7  -1  -4    2.08    0.42
  -7   1   4    1.19    0.35
  -7   1   4    1.85    0.48
   6  -1  -4    0.83    0.31
   6  -1  -4    1.13    0.30
   6  -1  -4    0.26    0.23
  -6   1   4    1.01    0.29
  -6   1   4    1.09    0.28
  -6   1   4    0.40    0.30
   5  -1  -4    3.24    0.51
   5  -1  -4    3.04    0.47
   5  -1  -4    2.45    0.41
  -5   1   4    2.60    0.46
  -5   1   4    2.62    0.41
  -5   1   4    3.37    0.41
   4  -1  -4   15.57    1.25
   4  -1  -4   18.78    1.23
   4  -1  -4   17.40    1.25
   4  -1  -4   18.70    1.39
  -4   1   4   18.95    1.27
  -4   1   4   19.93    1.20
  -4   1   4   19.10    1.25
   3  -1  -4    5.10    0.47
   3  -1  -4    5.71    0.56
   3  -1  -4    4.94    0.53
   3  -1  -4    5.93    0.48
  -3   1   4    5.74    0.48
  -3   1   4    5.80    0.50
  -3   1   4    5.87    0.47
   2  -1  -4   20.46    1.40
   2  -1  -4   18.57    1.18
   2  -1  -4   16.84    1.24
   2  -1  -4   19.83    1.23
  -2   1   4   19.66    1.21
  -2   1   4   19.68    1.25
  -2   1   4   18.66    1.20
   1  -1  -4   82.11    4.67
   1  -1  -4   83.89    4.61
   1  -1  -4   81.02    4.92
   1  -1  -4   81.09    5.36
   1  -1  -4   79.27    4.58
  -1   1   4   81.02    4.58
  -1   1   4   88.20    5.37
  -1   1   4   78.36    4.59
  -1   1   4   87.50    4.68
  -1   1   4   79.59    4.91
   0  -1  -4    0.00    0.08
   0  -1  -4    0.02    0.08
   0  -1  -4    0.11    0.08
   0  -1  -4   -0.01    0.05
   0  -1  -4    0.17    0.03
   0  -1  -4    0.06    0.09
   0  -1  -4    0.13    0.09
   0   1   4    0.09    0.06
   0   1   4    0.34    0.11
   0   1   4    0.04    0.10
   0   1   4    0.09    0.10
   0   1   4    0.05    0.08
   0   1   4    0.21    0.10
  -1  -1  -4    1.05    0.16
  -1  -1  -4    1.00    0.17
  -1  -1  -4    0.80    0.17
  -1  -1  -4    0.65    0.13
  -1  -1  -4    0.91    0.16
  -1  -1  -4    0.79    0.14
   1   1   4    0.73    0.16
   1   1   4    0.68    0.13
   1   1   4    1.02    0.16
   1   1   4    0.90    0.13
   1   1   4    0.85    0.17
   1   1   4    0.84    0.14
   1   1   4    0.74    0.15
  -2  -1  -4   13.64    1.04
  -2  -1  -4   14.09    0.95
  -2  -1  -4   16.04    0.90
  -2  -1  -4   12.99    0.97
  -2  -1  -4   13.08    0.89
  -2  -1  -4   15.38    0.90
   2   1   4   14.13    0.95
   2   1   4   14.25    0.89
   2   1   4   13.36    0.88
   2   1   4   15.88    0.99
   2   1   4   15.95    1.06
   2   1   4   14.54    1.00
   2   1   4   13.60    0.89
  -3  -1  -4   49.19    2.68
  -3  -1  -4   48.46    2.87
  -3  -1  -4   44.03    2.91
  -3  -1  -4   42.23    3.10
  -3  -1  -4   45.63    2.68
  -3  -1  -4   47.59    2.67
   3   1   4   50.07    3.12
   3   1   4   48.85    2.69
   3   1   4   43.50    2.66
   3   1   4   45.36    2.62
   3   1   4   43.41    2.66
   3   1   4   46.61    3.00
   3   1   4   55.23    2.95
  -4  -1  -4   10.09    0.68
  -4  -1  -4    9.14    0.69
  -4  -1  -4   10.35    0.71
  -4  -1  -4    8.60    0.75
   4   1   4    8.84    0.74
   4   1   4    9.54    0.59
   4   1   4   10.03    0.77
   4   1   4    9.00    0.67
  -5  -1  -4   10.70    0.92
  -5  -1  -4   11.60    0.83
   5   1   4   11.54    0.90
   5   1   4   11.51    0.81
   5   1   4   11.39    0.90
   5   1   4   10.93    0.72
  -6  -1  -4    0.20    0.11
  -6  -1  -4    0.51    0.23
  -6  -1  -4   -0.06    0.25
   6   1   4    0.15    0.18
   6   1   4    0.05    0.11
   6   1   4    0.16    0.18
   6   1   4    0.28    0.18
  -7  -1  -4   14.48    1.25
  -7  -1  -4   14.23    1.08
   7   1   4   13.65    1.05
   7   1   4   14.05    1.18
   7   1   4   14.17    0.96
  -8  -1  -4    0.88    0.31
  -8  -1  -4    0.23    0.36
   8   1   4    0.57    0.24
   8   1   4    0.98    0.40
   8   1   4    0.50    0.29
  -9  -1  -4    9.13    0.99
  -9  -1  -4    7.89    1.07
   9   1   4    8.43    1.06
   9   1   4    8.63    0.76
   9   1   4   10.30    0.87
 -10  -1  -4    3.48    0.65
 -10  -1  -4    3.75    0.76
  10   1   4    4.03    0.65
  10   1   4    3.40    0.53
  10   1   4    2.91    0.63
 -11  -1  -4    1.38    0.53
  11   1   4   -0.09    0.39
  11   1   4    1.22    0.49
  11   1   4    1.03    0.40
 -12  -1  -4   -0.20    0.44
  12   1   4   -0.32    0.35
  12   1   4   -0.24    0.31
  12   1   4    0.21    0.35
   9  -2  -4    0.28    0.30
   9  -2  -4    0.43    0.45
  -9   2   4    0.78    0.48
   8  -2  -4   14.78    1.25
   8  -2  -4   13.61    1.41
  -8   2   4   13.53    1.09
  -8   2   4   13.53    1.24
   7  -2  -4    0.44    0.32
   7  -2  -4    0.72    0.31
   7  -2  -4    0.70    0.32
  -7   2   4    0.87    0.35
  -7   2   4    0.92    0.32
  -7   2   4    1.00    0.41
   6  -2  -4   15.95    1.29
   6  -2  -4   13.48    1.20
   6  -2  -4   16.87    1.21
  -6   2   4   16.47    1.21
  -6   2   4   17.37    1.30
  -6   2   4   15.20    1.11
   5  -2  -4   -0.02    0.17
   5  -2  -4   -0.03    0.21
   5  -2  -4   -0.02    0.19
  -5   2   4    0.11    0.20
  -5   2   4    0.45    0.25
  -5   2   4    0.13    0.20
   4  -2  -4    0.40    0.18
   4  -2  -4    0.36    0.22
   4  -2  -4    0.17    0.20
  -4   2   4    0.57    0.25
  -4   2   4    0.61    0.26
  -4   2   4    0.60    0.19
   3  -2  -4   21.87    1.43
   3  -2  -4   21.35    1.58
   3  -2  -4   21.83    1.39
  -3   2   4   21.91    1.47
  -3   2   4   21.95    1.42
   2  -2  -4   16.02    1.03
   2  -2  -4   15.59    1.06
   2  -2  -4   14.71    1.18
  -2   2   4   16.05    1.10
  -2   2   4   16.90    1.06
   1  -2  -4    0.32    0.15
   1  -2  -4    0.16    0.11
   1  -2  -4    0.11    0.12
   1  -2  -4    0.22    0.11
  -1   2   4    0.34    0.13
  -1   2   4    0.08    0.10
  -1   2   4    0.13    0.13
  -1   2   4    0.24    0.12
   0  -2  -4    8.07    0.58
   0  -2  -4    8.92    0.65
   0  -2  -4    8.42    0.59
   0  -2  -4    7.75    0.59
   0  -2  -4    8.11    0.50
   0  -2  -4    8.44    0.70
   0   2   4    8.68    0.63
   0   2   4   10.58    0.71
   0   2   4    8.45    0.59
   0   2   4    7.62    0.57
   0   2   4    9.12    0.59
   0   2   4    8.39    0.58
  -1  -2  -4    1.33    0.19
  -1  -2  -4    0.61    0.13
  -1  -2  -4    0.90    0.12
  -1  -2  -4    0.80    0.19
  -1  -2  -4    0.74    0.14
  -1  -2  -4    0.96    0.21
   1   2   4    1.20    0.22
   1   2   4    1.00    0.16
   1   2   4    0.90    0.15
   1   2   4    1.03    0.15
   1   2   4    1.36    0.19
   1   2   4    0.77    0.18
  -2  -2  -4    0.19    0.10
  -2  -2  -4    0.01    0.10
  -2  -2  -4    0.24    0.10
  -2  -2  -4    0.18    0.12
  -2  -2  -4    0.12    0.09
   2   2   4    0.15    0.10
   2   2   4    0.05    0.12
   2   2   4    0.10    0.07
   2   2   4    0.16    0.09
   2   2   4    0.05    0.09
   2   2   4    0.19    0.12
   2   2   4    0.27    0.11
  -3  -2  -4   19.36    1.18
  -3  -2  -4   18.73    1.11
  -3  -2  -4   18.73    1.09
  -3  -2  -4   16.14    1.19
  -3  -2  -4   17.66    1.11
  -3  -2  -4   14.68    1.27
   3   2   4   18.22    1.11
   3   2   4   17.52    1.16
   3   2   4   16.75    1.09
   3   2   4   19.49    1.22
   3   2   4   18.25    1.20
   3   2   4   18.02    1.30
   3   2   4   17.18    1.09
  -4  -2  -4   13.54    0.97
  -4  -2  -4   15.66    1.01
  -4  -2  -4   15.11    1.09
  -4  -2  -4   14.99    0.95
   4   2   4   13.22    1.04
   4   2   4   15.76    1.15
   4   2   4   14.73    0.91
   4   2   4   16.32    1.00
  -5  -2  -4    0.99    0.21
  -5  -2  -4    0.62    0.20
  -5  -2  -4    0.57    0.27
   5   2   4    0.71    0.21
   5   2   4    0.84    0.21
   5   2   4    0.69    0.15
  -6  -2  -4    1.19    0.37
  -6  -2  -4    1.27    0.30
   6   2   4    0.96    0.19
   6   2   4    0.88    0.23
   6   2   4    1.47    0.31
  -7  -2  -4   19.94    1.60
  -7  -2  -4   20.07    1.43
   7   2   4   20.95    1.32
   7   2   4   19.90    1.54
   7   2   4   21.60    1.41
  -8  -2  -4   54.24    3.69
  -8  -2  -4   56.21    3.36
   8   2   4   57.19    3.33
   8   2   4   51.76    3.68
   8   2   4   54.41    3.24
  -9  -2  -4    0.26    0.33
  -9  -2  -4    0.22    0.32
   9   2   4    0.34    0.25
   9   2   4   -0.11    0.28
   9   2   4    0.27    0.25
 -10  -2  -4    5.66    0.78
 -10  -2  -4    5.10    0.85
  10   2   4    4.17    0.68
  10   2   4    4.71    0.62
  10   2   4    4.91    0.80
 -11  -2  -4   -0.03    0.37
  11   2   4    0.23    0.30
  11   2   4    0.13    0.30
  11   2   4   -0.05    0.34
 -12  -2  -4    0.27    0.45
  12   2   4   -0.38    0.22
  12   2   4   -0.24    0.31
  12   2   4   -0.65    0.27
 -13  -2  -4   -0.01    0.41
 -13  -2  -4   -0.70    0.42
  13   2   4    0.14    0.38
  13   2   4   -0.37    0.34
  13   2   4   -0.42    0.39
   9  -3  -4   -0.12    0.38
   9  -3  -4    0.19    0.39
  -9   3   4   -0.30    0.43
   8  -3  -4    0.42    0.39
   8  -3  -4    0.68    0.33
  -8   3   4    0.41    0.43
   7  -3  -4    3.66    0.66
   7  -3  -4    3.30    0.56
   7  -3  -4    3.31    0.59
  -7   3   4    3.54    0.67
  -7   3   4    2.92    0.57
   6  -3  -4    1.32    0.36
   6  -3  -4    1.77    0.46
   6  -3  -4    1.24    0.38
  -6   3   4    1.94    0.44
  -6   3   4    2.10    0.45
   5  -3  -4   13.11    0.96
   5  -3  -4    9.26    1.01
   5  -3  -4   10.85    0.97
  -5   3   4   10.53    0.98
  -5   3   4   12.59    1.00
  -5   3   4   11.39    0.81
   4  -3  -4   46.74    3.06
   4  -3  -4   50.55    2.99
   4  -3  -4   46.25    3.38
  -4   3   4   53.69    3.23
  -4   3   4   49.16    3.03
  -4   3   4   53.42    2.88
   3  -3  -4   36.83    2.43
   3  -3  -4   39.35    2.37
   3  -3  -4   38.89    2.71
  -3   3   4   40.85    2.42
  -3   3   4   41.85    2.58
   2  -3  -4    5.79    0.45
   2  -3  -4    5.02    0.54
   2  -3  -4    4.69    0.56
  -2   3   4    4.47    0.53
  -2   3   4    4.61    0.50
   1  -3  -4   10.13    0.72
   1  -3  -4   11.21    0.66
   1  -3  -4   10.24    0.86
   1  -3  -4   11.02    0.77
  -1   3   4   10.84    0.75
  -1   3   4   10.31    0.82
  -1   3   4   10.72    0.75
   0  -3  -4   10.20    0.72
   0  -3  -4   11.40    0.68
   0  -3  -4    9.03    0.85
   0   3   4   10.47    0.74
   0   3   4   12.06    0.88
   0   3   4   11.59    0.74
   0   3   4   11.20    0.83
   0   3   4   12.22    0.75
  -1  -3  -4    1.53    0.21
  -1  -3  -4    1.80    0.24
  -1  -3  -4    1.85    0.20
  -1  -3  -4    1.77    0.31
  -1  -3  -4    1.54    0.19
  -1  -3  -4    1.92    0.25
  -1  -3  -4    1.38    0.26
   1   3   4    2.02    0.24
   1   3   4    1.49    0.22
   1   3   4    1.84    0.23
   1   3   4    1.98    0.26
   1   3   4    1.38    0.26
   1   3   4    2.41    0.34
  -2  -3  -4    0.49    0.13
  -2  -3  -4    0.49    0.13
  -2  -3  -4    0.68    0.15
  -2  -3  -4    0.33    0.15
  -2  -3  -4    0.46    0.17
  -2  -3  -4    0.35    0.12
  -2  -3  -4    0.47    0.11
   2   3   4    0.42    0.17
   2   3   4    0.27    0.10
   2   3   4    0.39    0.11
   2   3   4    0.44    0.12
   2   3   4    0.47    0.20
   2   3   4    0.60    0.15
  -3  -3  -4   25.11    1.59
  -3  -3  -4   23.73    1.71
  -3  -3  -4   27.96    1.60
  -3  -3  -4   21.92    1.87
  -3  -3  -4   29.10    1.57
  -3  -3  -4   25.55    1.70
   3   3   4   27.59    1.91
   3   3   4   30.32    1.74
   3   3   4   27.37    1.70
   3   3   4   27.53    1.60
   3   3   4   27.78    1.73
   3   3   4   27.59    1.60
   3   3   4   25.75    1.56
  -4  -3  -4   78.43    4.64
  -4  -3  -4   86.68    4.58
  -4  -3  -4   81.00    4.93
  -4  -3  -4   76.19    5.02
   4   3   4   81.38    5.13
   4   3   4   85.90    4.64
   4   3   4   87.87    5.05
   4   3   4   79.16    4.61
   4   3   4   83.36    4.93
  -5  -3  -4    8.71    0.72
  -5  -3  -4   10.40    0.73
  -5  -3  -4   10.04    0.85
   5   3   4   10.31    0.76
   5   3   4    9.54    0.68
   5   3   4   10.53    0.75
  -6  -3  -4   61.47    3.86
  -6  -3  -4   67.51    4.24
  -6  -3  -4   71.62    4.10
   6   3   4   67.03    3.86
   6   3   4   68.43    3.84
   6   3   4   63.65    4.26
  -7  -3  -4   19.71    1.41
  -7  -3  -4   20.62    1.60
   7   3   4   21.65    1.34
   7   3   4   19.93    1.50
   7   3   4   20.74    1.41
  -8  -3  -4   21.46    1.56
  -8  -3  -4   23.79    1.79
   8   3   4   21.41    1.44
   8   3   4   20.82    1.50
   8   3   4   22.84    1.66
  -9  -3  -4    6.02    0.91
  -9  -3  -4    6.49    0.80
   9   3   4    6.06    0.73
   9   3   4    4.60    0.71
   9   3   4    4.72    0.60
 -10  -3  -4   -0.05    0.21
  10   3   4    0.29    0.26
  10   3   4   -0.09    0.26
  10   3   4   -0.09    0.24
 -11  -3  -4    0.45    0.42
  11   3   4    0.54    0.33
  11   3   4    0.23    0.35
  11   3   4    0.50    0.39
 -12  -3  -4    1.55    0.58
 -12  -3  -4    1.71    0.57
  12   3   4    1.10    0.51
  12   3   4    1.91    0.53
  12   3   4    1.30    0.53
 -13  -3  -4    1.31    0.51
 -13  -3  -4    1.41    0.54
  13   3   4    1.24    0.58
  13   3   4    1.19    0.50
  13   3   4    0.88    0.50
   8  -4  -4    3.86    0.73
   8  -4  -4    4.90    0.79
  -8   4   4    3.39    0.73
   7  -4  -4    3.65    0.60
   7  -4  -4    2.82    0.65
  -7   4   4    4.06    0.72
  -7   4   4    5.39    0.77
   6  -4  -4    2.50    0.45
   6  -4  -4    2.72    0.58
   6  -4  -4    2.46    0.47
  -6   4   4    2.20    0.51
  -6   4   4    3.26    0.60
   5  -4  -4    5.32    0.73
   5  -4  -4    4.88    0.63
   5  -4  -4    6.71    0.72
  -5   4   4    5.71    0.72
  -5   4   4    5.97    0.76
   4  -4  -4    2.55    0.41
   4  -4  -4    3.59    0.53
   4  -4  -4    3.29    0.48
  -4   4   4    3.49    0.57
  -4   4   4    2.84    0.51
   3  -4  -4    1.16    0.27
   3  -4  -4    1.00    0.25
   3  -4  -4    1.17    0.30
   3  -4  -4    1.46    0.31
  -3   4   4    1.10    0.31
  -3   4   4    0.67    0.30
   2  -4  -4    1.53    0.25
   2  -4  -4    2.27    0.36
   2  -4  -4    1.93    0.30
  -2   4   4    1.76    0.32
  -2   4   4    2.01    0.36
   1  -4  -4   11.20    0.77
   1  -4  -4   12.11    0.75
   1  -4  -4   12.32    0.81
   1  -4  -4   10.66    0.93
  -1   4   4   12.60    0.95
  -1   4   4   11.00    0.81
   0  -4  -4   16.62    1.05
   0  -4  -4   16.78    1.01
   0  -4  -4   14.12    1.22
   0  -4  -4   16.30    1.00
   0   4   4   16.37    1.06
   0   4   4   16.30    1.17
   0   4   4   16.96    1.05
   0   4   4   17.79    1.06
  -1  -4  -4   10.19    0.67
  -1  -4  -4    9.33    0.84
  -1  -4  -4   10.90    0.69
  -1  -4  -4   10.61    0.71
   1   4   4   11.94    0.72
   1   4   4   10.42    0.69
   1   4   4   10.33    0.72
   1   4   4   10.33    0.81
  -2  -4  -4    0.88    0.16
  -2  -4  -4    1.32    0.18
  -2  -4  -4    1.38    0.21
  -2  -4  -4    0.80    0.23
  -2  -4  -4    1.17    0.19
   2   4   4    1.10    0.17
   2   4   4    1.34    0.20
   2   4   4    1.05    0.23
   2   4   4    1.16    0.20
   2   4   4    1.33    0.17
  -3  -4  -4    0.32    0.14
  -3  -4  -4    0.06    0.11
  -3  -4  -4   -0.06    0.08
  -3  -4  -4    0.15    0.09
   3   4   4    0.17    0.13
   3   4   4   -0.03    0.08
   3   4   4    0.22    0.16
   3   4   4    0.16    0.13
   3   4   4    0.18    0.13
  -4  -4  -4    0.21    0.16
  -4  -4  -4    0.12    0.09
  -4  -4  -4   -0.16    0.10
   4   4   4   -0.10    0.12
   4   4   4    0.28    0.10
   4   4   4    0.14    0.08
   4   4   4    0.00    0.08
   4   4   4    0.02    0.09
   4   4   4   -0.11    0.14
  -5  -4  -4    0.38    0.19
  -5  -4  -4    0.31    0.13
  -5  -4  -4    0.53    0.24
   5   4   4    0.30    0.11
   5   4   4    0.54    0.17
  -6  -4  -4    6.50    0.46
  -6  -4  -4    5.20    0.62
  -6  -4  -4    7.46    0.69
   6   4   4    7.11    0.58
   6   4   4    6.47    0.54
   6   4   4    5.93    0.54
  -7  -4  -4    0.27    0.26
  -7  -4  -4    0.78    0.26
   7   4   4    0.80    0.29
   7   4   4    1.11    0.26
   7   4   4    0.88    0.24
  -8  -4  -4   24.13    1.72
  -8  -4  -4   27.04    1.98
   8   4   4   23.50    1.79
   8   4   4   26.86    1.65
   8   4   4   25.47    1.69
  -9  -4  -4    7.04    0.84
   9   4   4    6.92    0.81
   9   4   4    6.52    0.80
   9   4   4    7.00    0.73
 -10  -4  -4    6.05    0.82
  10   4   4    6.40    0.81
  10   4   4    6.15    0.81
  10   4   4    4.67    0.65
 -11  -4  -4    0.79    0.38
  11   4   4    0.18    0.31
  11   4   4    0.41    0.34
  11   4   4    0.02    0.25
 -12  -4  -4    0.90    0.46
 -12  -4  -4    0.15    0.41
  12   4   4    0.75    0.45
  12   4   4    0.84    0.44
  12   4   4    0.93    0.43
 -13  -4  -4   -0.02    0.43
 -13  -4  -4   -0.17    0.45
  13   4   4   -0.71    0.34
  13   4   4    0.20    0.47
  13   4   4   -0.13    0.34
   8  -5  -4    0.11    0.45
   8  -5  -4    0.09    0.29
  -8   5   4   -0.82    0.33
   7  -5  -4    0.08    0.32
  -7   5   4   -0.05    0.41
  -7   5   4    0.40    0.40
   6  -5  -4    0.90    0.35
  -6   5   4   -0.29    0.31
  -6   5   4    0.33    0.28
   5  -5  -4    2.08    0.41
   5  -5  -4    1.32    0.34
  -5   5   4    1.66    0.49
  -5   5   4    1.52    0.41
   4  -5  -4    0.75    0.26
   4  -5  -4    0.29    0.24
  -4   5   4    0.64    0.37
  -4   5   4    0.29    0.31
   3  -5  -4    7.27    0.71
   3  -5  -4    7.23    0.60
   3  -5  -4    8.16    0.66
  -3   5   4    7.00    0.75
  -3   5   4    7.01    0.84
   2  -5  -4    0.72    0.25
   2  -5  -4    1.19    0.18
   2  -5  -4    0.75    0.21
  -2   5   4    0.87    0.33
  -2   5   4    0.75    0.23
   1  -5  -4    0.71    0.07
   1  -5  -4    0.87    0.19
   1  -5  -4    0.64    0.23
   1  -5  -4    0.70    0.17
  -1   5   4    0.83    0.26
  -1   5   4    0.75    0.22
   0  -5  -4   10.66    0.76
   0  -5  -4   11.27    0.74
   0  -5  -4    9.65    0.91
   0   5   4   11.80    0.78
   0   5   4   11.32    0.90
   0   5   4   11.65    0.79
  -1  -5  -4    1.70    0.34
  -1  -5  -4    1.75    0.26
  -1  -5  -4    2.01    0.28
   1   5   4    2.11    0.28
   1   5   4    1.94    0.35
   1   5   4    2.17    0.28
   1   5   4    1.67    0.23
  -2  -5  -4   30.68    1.90
  -2  -5  -4   34.22    1.92
   2   5   4   30.20    1.90
   2   5   4   32.93    1.87
   2   5   4   32.84    1.91
   2   5   4   30.66    2.09
   2   5   4   33.96    1.96
  -3  -5  -4    0.10    0.14
  -3  -5  -4    0.47    0.16
  -3  -5  -4    0.22    0.11
  -3  -5  -4    0.39    0.14
   3   5   4    0.50    0.16
   3   5   4    0.54    0.15
   3   5   4    0.18    0.18
   3   5   4    0.52    0.14
   3   5   4    0.34    0.11
  -4  -5  -4   33.79    2.15
  -4  -5  -4   34.38    2.14
  -4  -5  -4   38.97    2.08
  -4  -5  -4   36.82    2.33
   4   5   4   37.34    2.35
   4   5   4   36.07    2.14
   4   5   4   38.60    2.16
   4   5   4   36.92    2.30
   4   5   4   34.29    2.08
  -5  -5  -4    4.78    0.36
  -5  -5  -4    4.23    0.47
  -5  -5  -4    3.14    0.48
  -5  -5  -4    3.75    0.46
   5   5   4    4.26    0.33
   5   5   4    4.01    0.44
   5   5   4    3.33    0.41
   5   5   4    4.43    0.47
  -6  -5  -4    7.96    0.76
  -6  -5  -4    7.01    0.58
  -6  -5  -4    6.61    0.62
   6   5   4    8.14    0.57
   6   5   4    6.66    0.59
   6   5   4    7.60    0.64
   6   5   4    7.66    0.60
  -7  -5  -4   -0.26    0.17
   7   5   4    0.17    0.16
   7   5   4    0.05    0.11
   7   5   4   -0.31    0.17
  -8  -5  -4    5.31    0.67
   8   5   4    6.31    0.70
   8   5   4    7.14    0.62
   8   5   4    5.36    0.56
  -9  -5  -4    0.10    0.24
   9   5   4    0.16    0.23
   9   5   4    0.32    0.21
   9   5   4    0.11    0.22
 -10  -5  -4   -0.08    0.22
  10   5   4    0.34    0.27
  10   5   4    0.05    0.23
  10   5   4   -0.21    0.25
 -11  -5  -4    0.00    0.25
 -11  -5  -4    0.48    0.41
  11   5   4    0.62    0.40
  11   5   4    1.06    0.47
  11   5   4    1.13    0.41
 -12  -5  -4    0.52    0.47
 -12  -5  -4    0.29    0.35
  12   5   4    0.33    0.43
  12   5   4    0.10    0.33
  12   5   4   -0.28    0.31
 -13  -5  -4   -0.40    0.25
  13   5   4    0.08    0.44
  13   5   4   -0.24    0.28
   7  -6  -4    0.44    0.47
   7  -6  -4    0.27    0.38
  -7   6   4    0.66    0.47
  -7   6   4    0.84    0.53
   6  -6  -4    0.05    0.41
   6  -6  -4    1.01    0.39
  -6   6   4    1.57    0.52
  -6   6   4    1.16    0.51
   5  -6  -4    1.33    0.39
  -5   6   4    0.60    0.41
  -5   6   4    1.76    0.49
   4  -6  -4    6.59    0.69
   4  -6  -4    7.38    0.79
  -4   6   4    8.86    1.02
  -4   6   4    7.97    0.90
   3  -6  -4    0.96    0.26
   3  -6  -4    0.30    0.22
  -3   6   4    0.76    0.41
  -3   6   4    0.69    0.31
   2  -6  -4    0.89    0.25
   2  -6  -4    0.88    0.28
  -2   6   4    0.58    0.28
  -2   6   4    0.94    0.40
   1  -6  -4    5.41    0.55
   1  -6  -4    3.88    0.56
   1  -6  -4    5.12    0.45
  -1   6   4    4.79    0.54
  -1   6   4    5.06    0.65
   0  -6  -4    1.19    0.24
   0  -6  -4    1.24    0.25
   0   6   4    1.35    0.25
   0   6   4    1.42    0.27
   0   6   4    0.90    0.33
  -1  -6  -4    4.30    0.44
  -1  -6  -4    4.15    0.44
   1   6   4    3.74    0.41
   1   6   4    3.63    0.41
   1   6   4    3.42    0.38
   1   6   4    3.89    0.52
  -2  -6  -4    2.89    0.36
  -2  -6  -4    3.48    0.41
   2   6   4    3.49    0.23
   2   6   4    3.61    0.38
   2   6   4    3.14    0.37
   2   6   4    2.73    0.31
   2   6   4    3.36    0.47
  -3  -6  -4   27.35    1.79
  -3  -6  -4   29.87    1.79
   3   6   4   29.69    1.97
   3   6   4   26.90    1.76
   3   6   4   29.54    1.71
   3   6   4   31.28    1.87
   3   6   4   32.43    1.79
  -4  -6  -4    0.33    0.17
  -4  -6  -4    0.50    0.21
  -4  -6  -4    0.35    0.11
   4   6   4    0.27    0.18
   4   6   4    0.60    0.23
   4   6   4    0.77    0.19
   4   6   4    0.60    0.17
   4   6   4    0.36    0.12
  -5  -6  -4    2.25    0.24
  -5  -6  -4    2.14    0.37
  -5  -6  -4    2.27    0.35
  -5  -6  -4    1.55    0.30
   5   6   4    1.88    0.31
   5   6   4    1.55    0.28
   5   6   4    2.40    0.34
  -6  -6  -4   -0.03    0.08
  -6  -6  -4    0.09    0.18
  -6  -6  -4    0.07    0.13
  -6  -6  -4   -0.01    0.17
   6   6   4   -0.03    0.14
   6   6   4    0.06    0.17
  -7  -6  -4    5.67    0.48
  -7  -6  -4    5.57    0.64
  -7  -6  -4    5.66    0.64
   7   6   4    5.93    0.63
   7   6   4    5.88    0.46
   7   6   4    6.88    0.54
   7   6   4    4.54    0.57
  -8  -6  -4    0.13    0.20
  -8  -6  -4    0.66    0.32
   8   6   4   -0.04    0.21
   8   6   4   -0.02    0.13
   8   6   4    0.24    0.23
  -9  -6  -4    0.93    0.37
  -9  -6  -4    0.04    0.30
   9   6   4    0.52    0.32
   9   6   4    0.80    0.32
 -10  -6  -4    0.76    0.39
 -10  -6  -4    0.08    0.37
  10   6   4    0.94    0.34
  10   6   4    0.89    0.38
 -11  -6  -4   -0.41    0.30
 -11  -6  -4    0.57    0.41
  11   6   4    0.25    0.37
  11   6   4   -0.16    0.32
 -12  -6  -4    1.30    0.47
  12   6   4    1.21    0.49
  12   6   4    0.63    0.43
 -13  -6  -4    0.51    0.40
  13   6   4    1.22    0.54
  13   6   4    0.94    0.52
   6  -7  -4    0.08    0.44
  -6   7   4   -0.14    0.44
  -6   7   4   -0.45    0.33
   5  -7  -4    2.08    0.48
   5  -7  -4    1.24    0.60
  -5   7   4    3.68    0.76
  -5   7   4    2.88    0.62
   4  -7  -4    0.01    0.23
   4  -7  -4    0.36    0.46
  -4   7   4    0.17    0.29
  -4   7   4    0.84    0.34
   3  -7  -4    6.81    0.73
  -3   7   4    7.35    0.96
  -3   7   4    6.83    0.79
   2  -7  -4    0.05    0.18
  -2   7   4    0.04    0.32
  -2   7   4    0.11    0.23
   1  -7  -4   11.91    0.88
   1  -7  -4   11.40    0.87
  -1   7   4   12.36    1.13
  -1   7   4   12.20    0.92
   0  -7  -4    2.46    0.38
   0  -7  -4    2.87    0.38
   0   7   4    3.10    0.39
   0   7   4    3.04    0.41
   0   7   4    2.61    0.49
  -1  -7  -4    5.27    0.54
  -1  -7  -4    5.46    0.48
   1   7   4    4.46    0.50
   1   7   4    5.13    0.66
   1   7   4    5.08    0.51
   1   7   4    4.55    0.42
  -2  -7  -4    5.29    0.47
  -2  -7  -4    5.30    0.56
   2   7   4    4.81    0.64
   2   7   4    5.55    0.47
   2   7   4    5.43    0.48
   2   7   4    5.22    0.42
  -3  -7  -4    4.26    0.49
  -3  -7  -4    4.04    0.65
  -3  -7  -4    4.57    0.47
   3   7   4    3.51    0.53
   3   7   4    3.85    0.35
   3   7   4    3.94    0.33
   3   7   4    3.31    0.41
   3   7   4    3.96    0.42
  -4  -7  -4    4.72    0.67
  -4  -7  -4    4.73    0.46
  -4  -7  -4    4.78    0.50
  -4  -7  -4    4.75    0.55
   4   7   4    5.13    0.53
   4   7   4    4.81    0.48
   4   7   4    3.75    0.45
   4   7   4    4.39    0.56
   4   7   4    4.01    0.35
  -5  -7  -4    2.10    0.42
  -5  -7  -4    1.92    0.37
  -5  -7  -4    2.07    0.33
  -5  -7  -4    2.38    0.23
  -5  -7  -4    1.97    0.33
   5   7   4    2.22    0.35
   5   7   4    2.06    0.32
   5   7   4    1.86    0.32
  -6  -7  -4    0.27    0.11
  -6  -7  -4    0.36    0.21
  -6  -7  -4    0.00    0.19
  -6  -7  -4    0.10    0.21
  -6  -7  -4    0.13    0.20
   6   7   4    0.59    0.22
  -7  -7  -4    0.21    0.17
  -7  -7  -4    0.27    0.25
  -7  -7  -4    0.41    0.27
  -7  -7  -4    0.37    0.25
   7   7   4    0.11    0.18
   7   7   4    0.07    0.18
   7   7   4    0.29    0.23
  -8  -7  -4    0.42    0.29
  -8  -7  -4    0.36    0.22
  -8  -7  -4    0.84    0.34
   8   7   4    0.70    0.29
   8   7   4    0.93    0.31
   8   7   4    0.43    0.19
  -9  -7  -4    0.51    0.30
  -9  -7  -4    1.61    0.36
  -9  -7  -4    1.96    0.44
   9   7   4    0.91    0.36
   9   7   4    1.45    0.36
 -10  -7  -4    1.47    0.45
 -10  -7  -4    1.29    0.44
 -10  -7  -4    1.40    0.41
  10   7   4    1.31    0.39
  10   7   4    1.01    0.40
 -11  -7  -4    0.07    0.39
 -11  -7  -4    0.62    0.31
  11   7   4    0.84    0.41
  11   7   4    0.58    0.32
 -12  -7  -4    0.56    0.33
 -12  -7  -4    0.32    0.43
  12   7   4    0.43    0.41
  12   7   4    0.48    0.42
 -13  -7  -4    0.02    0.50
 -13  -7  -4   -0.22    0.35
  13   7   4    0.35    0.44
  13   7   4   -0.24    0.42
   6  -8  -4    0.47    0.44
  -6   8   4    0.48    0.37
  -6   8   4    0.27    0.52
   5  -8  -4    0.49    0.52
  -5   8   4    0.78    0.46
  -5   8   4    0.83    0.45
   4  -8  -4    3.87    0.91
  -4   8   4    5.11    0.76
  -4   8   4    5.79    0.95
   3  -8  -4    0.04    0.38
   3  -8  -4    0.10    0.24
  -3   8   4    0.21    0.31
  -3   8   4    0.51    0.45
   2  -8  -4    0.08    0.29
   2  -8  -4    0.91    0.28
  -2   8   4    0.64    0.41
  -2   8   4    0.95    0.33
   1  -8  -4    5.23    0.58
   1  -8  -4    5.22    0.61
   1  -8  -4    5.23    0.89
  -1   8   4    4.28    0.76
  -1   8   4    5.40    0.63
  -1   8   4    4.87    0.57
   0  -8  -4    0.14    0.16
   0  -8  -4    0.01    0.19
   0  -8  -4   -0.07    0.32
   0   8   4   -0.18    0.16
   0   8   4   -0.12    0.16
   0   8   4    0.06    0.31
  -1  -8  -4    2.60    0.40
  -1  -8  -4    2.26    0.35
  -1  -8  -4    1.41    0.47
   1   8   4    2.16    0.35
   1   8   4    2.08    0.50
   1   8   4    2.57    0.33
  -2  -8  -4    7.81    0.63
  -2  -8  -4    7.06    1.00
  -2  -8  -4    6.57    0.72
   2   8   4    7.21    0.85
   2   8   4    7.21    0.63
   2   8   4    8.17    0.56
  -3  -8  -4    0.07    0.25
  -3  -8  -4    0.72    0.29
  -3  -8  -4    0.86    0.23
   3   8   4    1.13    0.23
   3   8   4    0.52    0.15
   3   8   4    0.57    0.21
   3   8   4    0.43    0.32
   3   8   4    0.79    0.15
  -4  -8  -4    9.57    1.01
  -4  -8  -4   10.32    0.79
  -4  -8  -4   10.47    0.84
  -4  -8  -4   11.07    0.75
   4   8   4   12.94    0.87
   4   8   4   12.71    0.98
   4   8   4    9.99    0.78
   4   8   4    9.79    0.84
  -5  -8  -4    4.43    0.49
  -5  -8  -4    4.74    0.70
  -5  -8  -4    5.18    0.55
  -5  -8  -4    4.82    0.59
   5   8   4    4.77    0.59
   5   8   4    3.67    0.47
  -6  -8  -4    0.76    0.26
  -6  -8  -4    0.87    0.32
  -6  -8  -4    1.03    0.27
  -6  -8  -4    0.90    0.32
   6   8   4    1.24    0.30
  -7  -8  -4    5.93    0.70
  -7  -8  -4    5.73    0.61
  -7  -8  -4    5.80    0.66
  -7  -8  -4    6.02    0.66
   7   8   4    5.90    0.57
   7   8   4    5.82    0.66
  -8  -8  -4    2.43    0.45
  -8  -8  -4    2.09    0.45
  -8  -8  -4    2.21    0.46
   8   8   4    2.33    0.47
   8   8   4    2.56    0.45
   8   8   4    1.89    0.33
  -9  -8  -4    0.53    0.35
  -9  -8  -4    0.65    0.32
   9   8   4    0.76    0.30
   9   8   4    0.40    0.29
 -10  -8  -4    2.46    0.54
 -10  -8  -4    3.31    0.60
  10   8   4    3.42    0.60
  10   8   4    2.48    0.55
 -11  -8  -4    0.10    0.26
 -11  -8  -4   -0.33    0.36
  11   8   4    0.89    0.41
  11   8   4    0.20    0.35
 -12  -8  -4    4.06    0.73
 -12  -8  -4    3.62    0.76
  12   8   4    4.77    0.77
  12   8   4    4.92    0.80
   5  -9  -4    3.12    0.82
   5  -9  -4    1.67    0.66
  -5   9   4    2.70    0.68
  -5   9   4    3.36    0.87
   4  -9  -4    2.38    0.72
  -4   9   4    2.71    0.61
  -4   9   4    3.22    0.82
   3  -9  -4    0.28    0.36
  -3   9   4    0.38    0.36
  -3   9   4   -0.04    0.32
   2  -9  -4    3.83    0.87
  -2   9   4    3.16    0.72
  -2   9   4    3.66    0.58
  -2   9   4    3.46    0.56
   1  -9  -4    0.03    0.39
   1  -9  -4    1.21    0.33
  -1   9   4    0.95    0.32
  -1   9   4    0.99    0.50
  -1   9   4    1.18    0.32
   0  -9  -4    1.21    0.57
   0  -9  -4    1.22    0.33
   0   9   4    0.98    0.40
   0   9   4    0.99    0.28
   0   9   4    1.08    0.31
  -1  -9  -4    1.35    0.57
  -1  -9  -4    1.76    0.33
  -1  -9  -4    1.52    0.35
   1   9   4    1.23    0.46
   1   9   4    2.16    0.32
   1   9   4    0.86    0.28
  -2  -9  -4    3.51    0.52
  -2  -9  -4    5.23    0.87
  -2  -9  -4    3.41    0.46
   2   9   4    4.43    0.70
   2   9   4    3.52    0.46
   2   9   4    4.17    0.37
  -3  -9  -4    0.66    0.43
  -3  -9  -4    0.99    0.30
  -3  -9  -4    1.70    0.31
   3   9   4    1.61    0.21
   3   9   4    0.84    0.33
   3   9   4    0.72    0.25
  -4  -9  -4    0.68    0.23
  -4  -9  -4    0.87    0.41
  -4  -9  -4    0.53    0.24
   4   9   4    0.79    0.32
   4   9   4    0.84    0.24
  -5  -9  -4    6.43    0.57
  -5  -9  -4    6.88    0.62
  -5  -9  -4    6.32    0.90
  -5  -9  -4    6.09    0.73
   5   9   4    7.12    0.60
   5   9   4    7.19    0.80
  -6  -9  -4    5.97    0.64
  -6  -9  -4    7.51    0.89
  -6  -9  -4    5.42    0.72
   6   9   4    6.12    0.72
  -7  -9  -4    1.47    0.42
  -7  -9  -4    1.56    0.40
  -7  -9  -4    1.78    0.38
   7   9   4    1.51    0.37
   7   9   4    1.84    0.38
  -8  -9  -4    1.28    0.38
  -8  -9  -4    1.27    0.44
   8   9   4    1.08    0.31
   8   9   4    2.42    0.44
   8   9   4    1.06    0.38
  -9  -9  -4    0.05    0.31
  -9  -9  -4   -0.21    0.25
   9   9   4    0.47    0.31
   9   9   4    0.21    0.27
 -10  -9  -4   -0.04    0.32
 -10  -9  -4   -0.22    0.28
  10   9   4    0.34    0.27
  10   9   4   -0.04    0.27
 -11  -9  -4    0.21    0.40
 -11  -9  -4    1.56    0.50
  11   9   4    1.29    0.44
  11   9   4    0.93    0.42
 -12  -9  -4   -0.08    0.30
 -12  -9  -4    0.34    0.41
  12   9   4    0.38    0.35
  12   9   4    0.88    0.44
   4 -10  -4    0.64    0.54
   4 -10  -4    1.56    0.64
  -4  10   4    1.73    0.59
  -4  10   4    1.59    0.59
  -4  10   4    1.62    0.52
   3 -10  -4    0.06    0.43
   3 -10  -4    0.16    0.49
  -3  10   4   -0.60    0.27
  -3  10   4   -0.81    0.27
  -3  10   4    0.50    0.54
   2 -10  -4    1.47    0.68
   2 -10  -4    1.01    0.47
  -2  10   4    1.86    0.59
  -2  10   4    0.56    0.34
  -2  10   4    2.14    0.48
   1 -10  -4    3.22    0.55
   1 -10  -4    2.46    0.57
   1 -10  -4    1.23    0.64
  -1  10   4    1.79    0.46
  -1  10   4    2.29    0.43
  -1  10   4    2.98    0.69
   0 -10  -4    1.57    0.62
   0 -10  -4    2.11    0.44
   0 -10  -4    1.60    0.47
   0  10   4    1.70    0.39
   0  10   4    1.70    0.34
   0  10   4    2.07    0.55
  -1 -10  -4    0.03    0.17
  -1 -10  -4    0.27    0.26
  -1 -10  -4   -0.21    0.27
   1  10   4   -0.17    0.35
   1  10   4   -0.09    0.22
  -2 -10  -4   -0.48    0.33
  -2 -10  -4    0.35    0.29
   2  10   4    0.23    0.22
   2  10   4    0.07    0.34
  -3 -10  -4    6.35    0.77
  -3 -10  -4    5.36    0.98
   3  10   4    6.40    0.88
   3  10   4    6.98    0.61
  -4 -10  -4    1.32    0.46
  -4 -10  -4    0.99    0.40
   4  10   4    0.85    0.28
   4  10   4    1.31    0.46
  -5 -10  -4    4.28    0.52
  -5 -10  -4    4.46    0.79
  -5 -10  -4    3.22    0.56
   5  10   4    3.37    0.61
   5  10   4    3.96    0.50
  -6 -10  -4    0.36    0.35
  -6 -10  -4   -0.32    0.27
  -6 -10  -4    0.10    0.17
   6  10   4   -0.23    0.22
  -7 -10  -4    1.02    0.40
  -7 -10  -4    1.21    0.32
  -7 -10  -4    1.25    0.41
   7  10   4    1.34    0.36
   7  10   4    1.25    0.34
  -8 -10  -4    0.69    0.36
  -8 -10  -4    0.63    0.30
   8  10   4    1.00    0.37
   8  10   4    1.04    0.36
  -9 -10  -4    1.62    0.47
  -9 -10  -4    0.95    0.39
   9  10   4    1.10    0.36
   9  10   4    1.47    0.45
 -10 -10  -4    4.27    0.75
 -10 -10  -4    4.51    0.72
  10  10   4    4.58    0.74
  10  10   4    3.78    0.68
 -11 -10  -4    1.64    0.53
 -11 -10  -4    2.11    0.59
  11  10   4    1.41    0.49
  11  10   4    1.09    0.49
   2 -11  -4   -0.29    0.42
   2 -11  -4    0.50    0.50
  -2  11   4    0.41    0.33
  -2  11   4   -0.54    0.48
   1 -11  -4   -0.29    0.47
   1 -11  -4    0.46    0.45
   1 -11  -4    0.49    0.37
  -1  11   4    0.54    0.36
  -1  11   4    0.65    0.60
   0 -11  -4    0.22    0.56
   0 -11  -4    0.36    0.27
   0  11   4    0.02    0.51
   0  11   4    0.67    0.31
  -1 -11  -4    2.28    0.70
  -1 -11  -4    3.34    0.57
   1  11   4    1.73    0.39
   1  11   4    2.67    0.64
  -2 -11  -4    0.01    0.47
  -2 -11  -4    0.61    0.35
   2  11   4    0.83    0.47
   2  11   4    0.24    0.22
  -3 -11  -4    2.63    0.53
  -3 -11  -4    2.55    0.73
   3  11   4    2.78    0.45
   3  11   4    3.09    0.66
  -4 -11  -4    0.34    0.28
  -4 -11  -4    0.60    0.48
   4  11   4    0.04    0.35
   4  11   4    0.58    0.27
  -5 -11  -4    1.80    0.49
  -5 -11  -4    1.54    0.58
   5  11   4    1.22    0.47
   5  11   4    1.43    0.34
  -6 -11  -4    1.77    0.59
  -6 -11  -4    0.77    0.34
   6  11   4    1.41    0.44
  -7 -11  -4    0.21    0.36
  -7 -11  -4    0.24    0.30
  -7 -11  -4    0.30    0.25
   7  11   4    0.36    0.28
   7  11   4    0.20    0.32
  -8 -11  -4   -0.05    0.24
  -8 -11  -4    0.41    0.38
   8  11   4    0.25    0.24
   8  11   4    0.29    0.31
  -9 -11  -4    0.84    0.38
  -9 -11  -4    0.39    0.39
   9  11   4    0.60    0.37
   9  11   4    1.09    0.39
 -10 -11  -4    0.06    0.25
 -10 -11  -4    0.00    0.33
  10  11   4    0.51    0.32
  10  11   4    0.02    0.32
 -11 -11  -4    0.33    0.40
 -11 -11  -4   -0.11    0.33
  11  11   4    0.73    0.41
  11  11   4    0.55    0.41
   1 -12  -4    1.96    0.79
  -1  12   4    1.65    0.49
  -1  12   4    2.02    0.73
   0 -12  -4    0.00    0.55
   0 -12  -4    0.54    0.40
   0  12   4    0.54    0.57
   0  12   4    0.06    0.29
  -1 -12  -4    0.26    0.45
  -1 -12  -4    0.08    0.31
   1  12   4    0.04    0.49
   1  12   4   -0.15    0.22
  -2 -12  -4    0.47    0.53
  -2 -12  -4   -0.06    0.32
   2  12   4    0.26    0.25
   2  12   4   -0.41    0.43
  -3 -12  -4    0.23    0.47
  -3 -12  -4    0.42    0.36
   3  12   4   -0.46    0.36
   3  12   4    0.15    0.25
  -4 -12  -4    0.51    0.54
  -4 -12  -4    0.43    0.35
   4  12   4    0.16    0.42
   4  12   4    0.19    0.25
  -5 -12  -4    1.67    0.64
  -5 -12  -4    1.67    0.49
   5  12   4    0.86    0.48
   5  12   4    0.83    0.31
  -6 -12  -4    0.55    0.42
  -6 -12  -4    0.84    0.49
   6  12   4    0.56    0.39
  -7 -12  -4    0.85    0.46
  -7 -12  -4    1.91    0.59
   7  12   4    1.00    0.37
   7  12   4    1.84    0.48
  -8 -12  -4    0.83    0.43
  -8 -12  -4    0.45    0.30
   8  12   4    0.35    0.35
   8  12   4    0.20    0.33
  -9 -12  -4   -0.39    0.24
  -9 -12  -4   -0.18    0.35
   9  12   4    0.13    0.30
   9  12   4   -0.05    0.35
 -10 -12  -4    1.39    0.52
 -10 -12  -4    1.09    0.43
  10  12   4    1.58    0.50
  10  12   4    1.52    0.51
  -2 -13  -4    0.31    0.37
  -2 -13  -4   -0.69    0.44
   2  13   4    0.09    0.25
   2  13   4   -0.22    0.35
  -3 -13  -4    0.53    0.60
  -3 -13  -4    0.83    0.44
   3  13   4   -0.10    0.47
   3  13   4    0.53    0.30
  -4 -13  -4   10.74    1.26
  -4 -13  -4   15.27    1.83
   4  13   4   13.98    1.03
   4  13   4   12.04    1.44
  -5 -13  -4    3.62    0.66
  -5 -13  -4    2.21    0.76
   5  13   4    2.42    0.44
   5  13   4    3.08    0.74
  -6 -13  -4    0.53    0.37
  -6 -13  -4    0.51    0.50
   6  13   4    0.04    0.41
  -7 -13  -4   -0.28    0.32
  -7 -13  -4   -0.10    0.39
   7  13   4   -0.45    0.23
  -8 -13  -4   -0.03    0.41
   8  13   4   -0.16    0.29
   8  13   4    0.79    0.44
   3  11  -5    0.49    0.36
   3  11  -5    0.17    0.30
   3  11  -5    0.32    0.32
  -3 -11   5    0.19    0.35
  -3 -11   5    1.06    0.65
  -3 -11   5    0.25    0.41
   2  11  -5    0.97    0.43
  -2 -11   5    0.12    0.55
  -2 -11   5    0.32    0.36
  -2 -11   5    0.04    0.32
   1  11  -5    0.56    0.42
  -1 -11   5   -0.11    0.40
  -1 -11   5    0.16    0.34
  -1 -11   5    0.56    0.43
   0  11  -5    1.50    0.59
   0 -11   5    0.21    0.44
   0 -11   5    0.65    0.41
   6  10  -5    5.60    0.89
   6  10  -5    6.80    1.05
  -6 -10   5    5.52    0.84
  -6 -10   5    6.74    0.85
   5  10  -5    0.80    0.47
   5  10  -5    0.22    0.36
  -5 -10   5    0.19    0.36
  -5 -10   5   -0.38    0.27
   4  10  -5    5.59    0.89
   4  10  -5    6.32    0.84
  -4 -10   5    7.25    0.86
  -4 -10   5    5.66    1.03
   3  10  -5   -0.01    0.32
   3  10  -5    0.30    0.33
   3  10  -5    0.51    0.35
  -3 -10   5   -0.14    0.47
  -3 -10   5   -0.39    0.25
  -3 -10   5   -0.04    0.29
   2  10  -5    0.48    0.34
   2  10  -5    0.18    0.31
   2  10  -5    0.00    0.28
   2  10  -5    0.50    0.33
  -2 -10   5   -0.04    0.31
  -2 -10   5    0.07    0.49
  -2 -10   5   -0.04    0.30
   1  10  -5    2.51    0.64
   1  10  -5    3.78    0.64
   1  10  -5    3.37    0.55
  -1 -10   5    3.02    0.60
  -1 -10   5    2.74    0.56
  -1 -10   5    2.35    0.69
   0  10  -5    1.23    0.47
   0  10  -5    1.18    0.50
   0 -10   5    0.06    0.58
   0 -10   5    0.51    0.34
  -1  10  -5   -0.07    0.35
   1 -10   5   -0.04    0.31
   1 -10   5    0.29    0.54
  -2  10  -5    0.45    0.37
   2 -10   5    0.24    0.43
   2 -10   5   -0.56    0.42
  -3  10  -5    1.37    0.53
   3 -10   5    0.49    0.46
   3 -10   5    0.86    0.51
   7   9  -5    0.96    0.49
   7   9  -5    0.95    0.45
  -7  -9   5    1.30    0.45
  -7  -9   5    0.99    0.44
   6   9  -5    2.40    0.69
   6   9  -5    1.49    0.53
  -6  -9   5    2.55    0.54
  -6  -9   5    2.13    0.57
   5   9  -5    0.92    0.43
   5   9  -5    0.58    0.44
  -5  -9   5    0.52    0.41
  -5  -9   5    0.91    0.37
   4   9  -5    0.67    0.37
   4   9  -5    0.57    0.44
  -4  -9   5    1.12    0.42
  -4  -9   5    0.96    0.38
   3   9  -5   -0.19    0.28
   3   9  -5    0.05    0.23
   3   9  -5    0.43    0.31
  -3  -9   5    0.27    0.29
  -3  -9   5    0.06    0.27
  -3  -9   5    0.16    0.43
   2   9  -5    0.92    0.36
   2   9  -5    0.92    0.32
   2   9  -5    1.08    0.40
   2   9  -5    0.34    0.32
  -2  -9   5    0.96    0.38
  -2  -9   5    0.02    0.27
  -2  -9   5    0.04    0.43
   1   9  -5    4.64    0.68
   1   9  -5    4.01    0.66
   1   9  -5    4.40    0.77
   1   9  -5    4.32    0.59
  -1  -9   5    4.09    0.62
  -1  -9   5    4.99    0.92
  -1  -9   5    3.26    0.60
   0   9  -5    1.54    0.43
   0   9  -5    0.96    0.38
   0  -9   5    1.11    0.38
   0  -9   5    2.19    0.47
   0  -9   5    1.75    0.67
   0  -9   5    1.47    0.43
  -1   9  -5    1.03    0.42
   1  -9   5    1.00    0.35
   1  -9   5    0.93    0.43
   1  -9   5    1.25    0.54
  -2   9  -5    0.41    0.31
   2  -9   5   -0.17    0.33
   2  -9   5    0.19    0.34
  -3   9  -5    6.78    1.08
   3  -9   5    7.01    1.03
   3  -9   5    8.18    1.28
  -4   9  -5    0.98    0.55
   4  -9   5    0.25    0.46
   4  -9   5    0.17    0.54
  -5   9  -5    0.61    0.34
  -5   9  -5    1.53    0.58
   5  -9   5    0.51    0.46
   5  -9   5    1.45    0.60
   8   8  -5    0.69    0.50
   8   8  -5    0.61    0.28
   8   8  -5    0.70    0.56
  -8  -8   5    0.56    0.47
   7   8  -5    0.48    0.39
   7   8  -5    0.75    0.38
   7   8  -5    0.47    0.23
  -7  -8   5    0.39    0.36
  -7  -8   5    0.58    0.46
   6   8  -5    0.68    0.51
   6   8  -5    0.21    0.39
  -6  -8   5    0.80    0.36
  -6  -8   5    0.85    0.40
   5   8  -5    0.92    0.39
   5   8  -5    1.28    0.43
  -5  -8   5    0.59    0.32
  -5  -8   5    1.14    0.35
   4   8  -5    0.02    0.23
   4   8  -5    0.25    0.30
  -4  -8   5   -0.59    0.17
  -4  -8   5   -0.27    0.23
   3   8  -5    1.39    0.38
   3   8  -5    0.72    0.38
   3   8  -5    1.58    0.37
  -3  -8   5    1.20    0.50
  -3  -8   5    0.89    0.30
  -3  -8   5    1.37    0.35
   2   8  -5    1.26    0.36
   2   8  -5    0.72    0.28
   2   8  -5    1.37    0.41
  -2  -8   5    1.02    0.36
  -2  -8   5    0.90    0.35
  -2  -8   5    1.16    0.44
   1   8  -5    1.56    0.42
   1   8  -5    1.99    0.44
   1   8  -5    1.63    0.37
  -1  -8   5    1.88    0.40
  -1  -8   5    1.86    0.42
  -1  -8   5    1.93    0.42
  -1  -8   5    1.86    0.55
   0   8  -5    0.77    0.30
   0   8  -5    0.33    0.27
   0  -8   5    0.23    0.27
   0  -8   5    0.25    0.26
   0  -8   5   -0.09    0.41
   0  -8   5    0.71    0.32
  -1   8  -5    1.29    0.38
  -1   8  -5    1.20    0.32
   1  -8   5    1.71    0.40
   1  -8   5    2.29    0.61
   1  -8   5    1.60    0.44
  -2   8  -5    0.77    0.34
  -2   8  -5    0.91    0.18
   2  -8   5    0.60    0.30
   2  -8   5    1.88    0.61
   2  -8   5    1.12    0.43
  -3   8  -5    1.04    0.43
  -3   8  -5    0.88    0.24
   3  -8   5    0.80    0.45
   3  -8   5    1.44    0.56
  -4   8  -5    0.65    0.27
  -4   8  -5    0.54    0.36
   4  -8   5   -0.30    0.41
   4  -8   5    0.68    0.47
  -5   8  -5    0.83    0.34
   5  -8   5    1.04    0.53
   5  -8   5    0.45    0.53
  -6   8  -5    2.26    0.71
  -6   8  -5    1.75    0.44
   6  -8   5    1.11    0.61
   6  -8   5    1.37    0.65
   8   7  -5    2.29    0.67
   8   7  -5    2.85    0.48
   8   7  -5    3.66    0.79
  -8  -7   5    3.05    0.68
   7   7  -5    1.09    0.48
   7   7  -5    1.10    0.54
   7   7  -5    1.00    0.30
  -7  -7   5    1.33    0.41
  -7  -7   5    0.61    0.34
   6   7  -5    4.02    0.46
   6   7  -5    3.61    0.67
   6   7  -5    3.51    0.75
  -6  -7   5    4.89    0.61
  -6  -7   5    4.12    0.67
   5   7  -5    1.05    0.41
   5   7  -5    1.45    0.24
   5   7  -5    2.28    0.53
  -5  -7   5    2.29    0.42
  -5  -7   5    1.57    0.45
   4   7  -5    1.50    0.40
   4   7  -5    1.67    0.47
   4   7  -5    2.04    0.23
   4   7  -5    2.38    0.39
  -4  -7   5    1.83    0.41
  -4  -7   5    2.73    0.44
   3   7  -5    6.73    0.73
   3   7  -5    6.20    0.83
  -3  -7   5    5.61    0.88
  -3  -7   5    5.67    0.71
  -3  -7   5    7.11    0.72
   2   7  -5    0.00    0.22
   2   7  -5    0.19    0.20
  -2  -7   5   -0.08    0.22
  -2  -7   5   -0.07    0.19
  -2  -7   5    0.03    0.22
   1   7  -5    6.24    0.65
   1   7  -5    6.00    0.74
   1   7  -5    5.69    0.73
  -1  -7   5    5.87    0.68
  -1  -7   5    6.60    0.70
  -1  -7   5    6.89    0.65
  -1  -7   5    5.21    0.88
   0   7  -5    0.22    0.22
   0   7  -5    0.17    0.19
   0   7  -5    0.27    0.23
   0  -7   5    0.48    0.25
   0  -7   5   -0.13    0.34
   0  -7   5    0.41    0.26
   0  -7   5    0.50    0.23
  -1   7  -5   -0.02    0.07
  -1   7  -5    0.09    0.17
  -1   7  -5   -0.13    0.15
   1  -7   5    0.35    0.27
   1  -7   5   -0.17    0.19
   1  -7   5   -0.11    0.24
  -2   7  -5    2.60    0.37
  -2   7  -5    1.80    0.42
  -2   7  -5    1.85    0.27
   2  -7   5    2.51    0.44
   2  -7   5    2.13    0.51
   2  -7   5    2.20    0.56
  -3   7  -5    0.89    0.24
  -3   7  -5    0.67    0.34
   3  -7   5    0.46    0.36
   3  -7   5    0.70    0.42
  -4   7  -5    0.43    0.32
  -4   7  -5   -0.15    0.20
   4  -7   5    0.62    0.49
   4  -7   5   -0.49    0.32
  -5   7  -5    0.15    0.33
  -5   7  -5   -0.11    0.23
   5  -7   5    0.54    0.40
   5  -7   5   -0.02    0.30
  -6   7  -5    4.85    0.67
  -6   7  -5    3.30    0.71
   6  -7   5    4.66    0.92
   6  -7   5    5.00    0.92
  -7   7  -5   -0.20    0.27
   7  -7   5    0.40    0.50
   7  -7   5   -0.01    0.35
   9   6  -5   -0.28    0.28
   9   6  -5   -0.07    0.41
   9   6  -5    0.18    0.31
  -9  -6   5    0.80    0.45
   8   6  -5   -0.01    0.31
   8   6  -5    1.00    0.52
   8   6  -5    0.31    0.28
  -8  -6   5    0.93    0.42
   7   6  -5    3.40    0.75
   7   6  -5    2.21    0.55
   7   6  -5    3.35    0.47
  -7  -6   5    2.43    0.58
   6   6  -5    1.41    0.45
   6   6  -5    1.26    0.28
   6   6  -5    0.77    0.41
  -6  -6   5    1.89    0.38
  -6  -6   5    1.64    0.46
   5   6  -5   -0.09    0.24
   5   6  -5    0.39    0.17
   5   6  -5    0.91    0.42
  -5  -6   5    0.24    0.17
  -5  -6   5    0.00    0.29
  -5  -6   5   -0.10    0.22
   4   6  -5   -0.21    0.25
   4   6  -5    0.32    0.14
   4   6  -5    0.42    0.23
  -4  -6   5    0.50    0.24
  -4  -6   5   -0.20    0.25
  -4  -6   5    0.35    0.16
   3   6  -5    0.74    0.14
   3   6  -5    1.08    0.38
   3   6  -5    0.63    0.28
  -3  -6   5    0.55    0.17
  -3  -6   5    0.83    0.31
  -3  -6   5    0.60    0.25
   2   6  -5    6.00    0.73
   2   6  -5    5.57    0.38
   2   6  -5    5.90    0.38
   2   6  -5    5.97    0.62
  -2  -6   5    6.20    0.68
  -2  -6   5    5.89    0.48
  -2  -6   5    6.72    0.84
  -2  -6   5    6.33    0.56
   1   6  -5    8.53    0.74
   1   6  -5    9.40    0.87
  -1  -6   5    9.77    0.77
  -1  -6   5   10.01    0.81
  -1  -6   5    9.44    0.81
  -1  -6   5   11.33    1.06
   0   6  -5   26.00    1.50
   0   6  -5   28.17    1.91
   0   6  -5   27.54    1.98
   0   6  -5   28.93    1.72
   0   6  -5   26.02    1.49
   0  -6   5   28.61    2.19
   0  -6   5   26.23    1.74
   0  -6   5   28.62    1.93
   0  -6   5   27.11    1.73
  -1   6  -5    5.27    0.53
  -1   6  -5    4.45    0.61
  -1   6  -5    4.87    0.35
  -1   6  -5    4.17    0.35
   1  -6   5    5.66    0.68
   1  -6   5    5.28    0.82
   1  -6   5    5.04    0.60
  -2   6  -5    4.53    0.47
  -2   6  -5    4.17    0.41
  -2   6  -5    3.63    0.55
   2  -6   5    5.40    0.81
   2  -6   5    3.80    0.62
   2  -6   5    3.81    0.51
  -3   6  -5    2.25    0.34
  -3   6  -5    2.14    0.45
  -3   6  -5    2.44    0.35
   3  -6   5    2.08    0.48
   3  -6   5    2.95    0.60
  -4   6  -5    1.86    0.36
  -4   6  -5    1.84    0.46
   4  -6   5    2.24    0.59
   4  -6   5    2.18    0.57
  -5   6  -5    1.40    0.45
  -5   6  -5    1.93    0.39
   5  -6   5    1.57    0.49
   5  -6   5    2.11    0.57
  -6   6  -5   -0.01    0.24
  -6   6  -5    0.33    0.39
   6  -6   5   -0.05    0.37
   6  -6   5   -0.20    0.30
  -7   6  -5    0.77    0.38
  -7   6  -5    0.14    0.40
   7  -6   5    0.20    0.38
   7  -6   5    0.06    0.31
  -8   6  -5    2.16    0.54
   8  -6   5    0.81    0.60
   8  -6   5    2.57    0.67
   9   5  -5    0.83    0.53
   9   5  -5    0.77    0.38
   9   5  -5    0.79    0.53
  -9  -5   5    0.27    0.34
   8   5  -5    4.09    0.77
   8   5  -5    3.87    0.79
   8   5  -5    2.83    0.54
  -8  -5   5    2.97    0.60
  -8  -5   5    3.94    0.56
   7   5  -5   -0.09    0.22
   7   5  -5   -0.31    0.33
   7   5  -5   -0.29    0.34
  -7  -5   5   -0.41    0.26
  -7  -5   5   -0.08    0.18
   6   5  -5    2.96    0.56
   6   5  -5    2.25    0.38
   6   5  -5    3.87    0.70
  -6  -5   5    2.53    0.50
  -6  -5   5    2.90    0.41
  -6  -5   5    3.89    0.47
   5   5  -5    0.83    0.35
   5   5  -5    0.05    0.17
   5   5  -5    0.11    0.23
  -5  -5   5    0.08    0.27
  -5  -5   5   -0.09    0.17
  -5  -5   5   -0.03    0.16
   4   5  -5    2.85    0.52
   4   5  -5    3.64    0.51
   4   5  -5    2.81    0.34
  -4  -5   5    2.66    0.46
  -4  -5   5    2.64    0.35
  -4  -5   5    3.14    0.40
   3   5  -5    4.04    0.62
   3   5  -5    5.00    0.57
   3   5  -5    4.67    0.37
  -3  -5   5    4.58    0.57
  -3  -5   5    3.92    0.43
  -3  -5   5    5.35    0.51
   2   5  -5    0.43    0.28
   2   5  -5    0.58    0.12
   2   5  -5    1.06    0.26
   2   5  -5    0.82    0.15
  -2  -5   5    0.68    0.29
  -2  -5   5    0.75    0.21
  -2  -5   5    1.02    0.29
  -2  -5   5    0.60    0.17
   1   5  -5    4.26    0.48
   1   5  -5    5.13    0.61
   1   5  -5    5.01    0.33
   1   5  -5    4.53    0.32
  -1  -5   5    3.78    0.62
  -1  -5   5    4.88    0.55
  -1  -5   5    5.48    0.58
  -1  -5   5    5.03    0.51
  -1  -5   5    3.51    0.42
   0   5  -5    1.27    0.16
   0   5  -5    1.55    0.16
   0   5  -5    1.00    0.28
   0   5  -5    1.34    0.25
   0   5  -5    1.20    0.29
   0  -5   5    1.44    0.31
   0  -5   5    1.20    0.27
   0  -5   5    1.57    0.43
   0  -5   5    1.55    0.30
  -1   5  -5    1.44    0.32
  -1   5  -5    0.86    0.17
  -1   5  -5    0.79    0.14
  -1   5  -5    0.89    0.25
   1  -5   5    1.19    0.29
   1  -5   5    0.58    0.36
   1  -5   5    1.07    0.30
  -2   5  -5    3.65    0.45
  -2   5  -5    4.36    0.38
  -2   5  -5    3.85    0.34
  -2   5  -5    3.65    0.54
   2  -5   5    3.55    0.65
   2  -5   5    5.08    0.63
   2  -5   5    3.46    0.47
  -3   5  -5    1.65    0.26
  -3   5  -5    1.84    0.40
  -3   5  -5    1.23    0.26
   3  -5   5    1.31    0.45
   3  -5   5    1.51    0.43
  -4   5  -5    0.20    0.17
  -4   5  -5    0.27    0.26
   4  -5   5    0.54    0.35
   4  -5   5    0.39    0.29
  -5   5  -5    0.00    0.29
  -5   5  -5   -0.06    0.20
   5  -5   5   -0.13    0.20
   5  -5   5    0.39    0.30
  -6   5  -5    2.13    0.55
  -6   5  -5    4.41    0.59
   6  -5   5    3.73    0.72
   6  -5   5    3.70    0.77
  -7   5  -5   -0.18    0.29
  -7   5  -5    0.05    0.36
   7  -5   5    0.27    0.33
   7  -5   5    0.31    0.36
  -8   5  -5    6.41    0.83
  -8   5  -5    4.26    0.81
   8  -5   5    3.82    0.90
   8  -5   5    5.52    0.87
  -9   5  -5    1.59    0.52
  -9   5  -5    0.56    0.51
   9  -5   5    2.57    0.63
   9  -5   5    1.85    0.75
   9   4  -5   -0.06    0.44
   9   4  -5    0.44    0.43
   9   4  -5   -0.64    0.24
  -9  -4   5    0.11    0.32
  -9  -4   5    0.10    0.28
   8   4  -5    1.93    0.61
   8   4  -5    2.57    0.50
   8   4  -5    3.31    0.73
  -8  -4   5    2.47    0.55
  -8  -4   5    2.84    0.54
   7   4  -5    3.78    0.52
   7   4  -5    3.05    0.62
   7   4  -5    2.98    0.66
  -7  -4   5    2.41    0.46
  -7  -4   5    3.34    0.60
   6   4  -5    7.76    0.87
   6   4  -5    7.03    0.96
   6   4  -5    7.59    0.67
  -6  -4   5    6.72    0.70
  -6  -4   5    8.25    0.62
  -6  -4   5    6.64    0.79
   5   4  -5    4.51    0.54
   5   4  -5    5.18    0.76
   5   4  -5    6.30    0.74
  -5  -4   5    7.03    0.57
  -5  -4   5    6.99    0.53
  -5  -4   5    5.66    0.69
  -5  -4   5    6.27    0.53
   4   4  -5   27.95    1.90
   4   4  -5   29.67    1.78
   4   4  -5   31.51    2.24
  -4  -4   5   29.09    1.91
  -4  -4   5   31.11    1.75
  -4  -4   5   29.86    1.76
  -4  -4   5   26.70    1.77
   3   4  -5    4.33    0.38
   3   4  -5    4.38    0.52
   3   4  -5    4.15    0.60
   3   4  -5    5.03    0.48
  -3  -4   5    4.65    0.45
  -3  -4   5    4.69    0.42
  -3  -4   5    4.29    0.54
   2   4  -5    4.29    0.48
   2   4  -5    4.49    0.37
   2   4  -5    3.77    0.56
   2   4  -5    4.24    0.34
  -2  -4   5    4.29    0.53
  -2  -4   5    4.39    0.43
  -2  -4   5    4.64    0.39
  -2  -4   5    4.18    0.29
   1   4  -5   35.99    2.20
   1   4  -5   35.55    2.08
   1   4  -5   38.23    2.59
   1   4  -5   35.14    2.08
  -1  -4   5   36.83    2.23
  -1  -4   5   39.09    2.16
  -1  -4   5   35.78    2.15
  -1  -4   5   39.67    2.69
  -1  -4   5   36.72    2.45
   0   4  -5    2.95    0.32
   0   4  -5    2.96    0.24
   0   4  -5    2.49    0.41
   0   4  -5    2.50    0.38
   0   4  -5    2.53    0.25
   0  -4   5    2.70    0.36
   0  -4   5    2.78    0.40
   0  -4   5    2.46    0.37
   0  -4   5    3.06    0.51
   0  -4   5    2.15    0.31
  -1   4  -5   16.09    0.97
  -1   4  -5   17.43    1.22
  -1   4  -5   13.70    0.98
  -1   4  -5   15.67    1.21
  -1   4  -5   17.59    1.03
   1  -4   5   17.73    1.37
   1  -4   5   17.09    1.24
   1  -4   5   16.97    1.12
  -2   4  -5    0.28    0.14
  -2   4  -5    0.27    0.22
  -2   4  -5    0.20    0.13
  -2   4  -5    0.30    0.13
   2  -4   5    0.29    0.09
   2  -4   5    0.30    0.18
   2  -4   5    0.27    0.18
   2  -4   5    0.39    0.24
  -3   4  -5    0.45    0.16
  -3   4  -5    0.46    0.16
  -3   4  -5    0.47    0.18
  -3   4  -5    0.17    0.17
  -3   4  -5    0.42    0.14
   3  -4   5    0.20    0.24
   3  -4   5    0.18    0.28
  -4   4  -5    2.19    0.34
  -4   4  -5    1.60    0.22
  -4   4  -5    1.86    0.25
  -4   4  -5    1.59    0.36
   4  -4   5    1.59    0.43
   4  -4   5    1.83    0.27
   4  -4   5    2.15    0.49
  -5   4  -5    2.85    0.43
  -5   4  -5    2.34    0.50
   5  -4   5    2.41    0.56
   5  -4   5    2.11    0.34
   5  -4   5    2.12    0.49
  -6   4  -5    2.89    0.55
  -6   4  -5    1.95    0.42
   6  -4   5    2.15    0.55
   6  -4   5    1.67    0.35
   6  -4   5    2.20    0.54
  -7   4  -5   19.42    1.44
  -7   4  -5   17.47    1.59
   7  -4   5   16.71    1.66
   7  -4   5   20.50    1.38
   7  -4   5   22.33    1.72
  -8   4  -5    3.02    0.55
  -8   4  -5    2.02    0.63
   8  -4   5    2.62    0.58
   8  -4   5    2.83    0.72
  -9   4  -5    6.15    1.03
  -9   4  -5    8.45    1.01
   9  -4   5    5.98    1.11
   9  -4   5    9.52    1.12
 -10   4  -5    0.11    0.47
 -10   4  -5    0.88    0.49
  10  -4   5    0.48    0.59
   9   3  -5   -0.56    0.39
   9   3  -5    0.52    0.37
   9   3  -5    1.10    0.52
  -9  -3   5    1.17    0.43
  -9  -3   5    0.14    0.40
   8   3  -5    2.58    0.52
   8   3  -5    2.62    0.63
   8   3  -5    2.79    0.61
  -8  -3   5    3.62    0.60
  -8  -3   5    3.41    0.64
   7   3  -5    0.82    0.35
   7   3  -5    1.25    0.41
   7   3  -5    1.32    0.35
  -7  -3   5    1.35    0.42
  -7  -3   5    0.78    0.33
   6   3  -5    3.54    0.61
   6   3  -5    4.02    0.65
   6   3  -5    3.28    0.48
  -6  -3   5    4.00    0.51
  -6  -3   5    3.18    0.51
  -6  -3   5    4.10    0.52
   5   3  -5    1.47    0.30
   5   3  -5    1.60    0.41
   5   3  -5    1.58    0.45
  -5  -3   5    1.90    0.34
  -5  -3   5    1.91    0.27
  -5  -3   5    2.05    0.39
  -5  -3   5    1.72    0.32
   4   3  -5    1.01    0.18
   4   3  -5    1.14    0.24
   4   3  -5    0.82    0.25
   4   3  -5    0.90    0.32
   4   3  -5    1.33    0.35
  -4  -3   5    1.33    0.22
  -4  -3   5    0.97    0.25
  -4  -3   5    1.23    0.35
  -4  -3   5    1.09    0.23
   3   3  -5   12.42    0.91
   3   3  -5   12.96    0.89
   3   3  -5   14.30    1.16
   3   3  -5   14.23    0.99
   3   3  -5   13.84    0.93
  -3  -3   5   14.45    0.93
  -3  -3   5   13.29    0.86
  -3  -3   5   14.25    0.88
  -3  -3   5   13.45    0.99
   2   3  -5    2.72    0.28
   2   3  -5    2.32    0.34
   2   3  -5    2.31    0.29
   2   3  -5    2.59    0.34
   2   3  -5    2.60    0.43
  -2  -3   5    2.67    0.32
  -2  -3   5    3.08    0.40
  -2  -3   5    2.89    0.30
   1   3  -5   23.42    1.38
   1   3  -5   23.56    1.73
   1   3  -5   23.65    1.46
   1   3  -5   23.74    1.39
  -1  -3   5   23.74    1.63
  -1  -3   5   24.14    1.50
  -1  -3   5   22.27    1.43
  -1  -3   5   24.82    1.41
   0   3  -5    1.82    0.22
   0   3  -5    2.04    0.25
   0   3  -5    1.92    0.22
   0   3  -5    2.19    0.35
   0  -3   5    2.33    0.30
   0  -3   5    1.92    0.32
   0  -3   5    2.23    0.18
   0  -3   5    2.43    0.34
   0  -3   5    2.37    0.40
   0  -3   5    2.32    0.29
  -1   3  -5    4.82    0.55
  -1   3  -5    4.91    0.49
  -1   3  -5    4.47    0.37
  -1   3  -5    4.84    0.37
  -1   3  -5    5.10    0.37
   1  -3   5    5.29    0.50
   1  -3   5    4.65    0.61
   1  -3   5    5.57    0.34
   1  -3   5    5.01    0.52
   1  -3   5    4.25    0.47
  -2   3  -5    6.20    0.53
  -2   3  -5    7.35    0.66
  -2   3  -5    7.90    0.53
  -2   3  -5    7.92    0.63
   2  -3   5    7.56    0.73
   2  -3   5    9.07    0.72
   2  -3   5    7.01    0.59
  -3   3  -5    9.96    0.77
  -3   3  -5   10.05    0.85
  -3   3  -5    9.99    0.70
  -3   3  -5    9.32    0.71
  -3   3  -5    9.84    0.63
   3  -3   5    9.80    0.88
   3  -3   5   11.71    0.94
   3  -3   5    9.86    0.67
  -4   3  -5    1.10    0.20
  -4   3  -5    1.25    0.17
  -4   3  -5    0.95    0.25
  -4   3  -5    0.75    0.30
   4  -3   5    1.31    0.24
   4  -3   5    1.02    0.35
   4  -3   5    1.23    0.34
  -5   3  -5    7.00    0.69
  -5   3  -5    6.28    0.46
  -5   3  -5    5.34    0.72
   5  -3   5    5.31    0.75
   5  -3   5    6.02    0.81
   5  -3   5    6.35    0.54
  -6   3  -5   -0.33    0.19
  -6   3  -5    0.10    0.29
   6  -3   5   -0.12    0.26
   6  -3   5    0.02    0.17
   6  -3   5   -0.32    0.29
  -7   3  -5   -0.12    0.25
  -7   3  -5    0.93    0.42
   7  -3   5    0.91    0.48
   7  -3   5    0.73    0.30
   7  -3   5    0.36    0.34
  -8   3  -5    2.95    0.71
  -8   3  -5    4.75    0.72
   8  -3   5    5.14    0.64
   8  -3   5    6.33    0.96
   8  -3   5    4.23    0.67
  -9   3  -5    1.98    0.53
  -9   3  -5    1.78    0.62
   9  -3   5    2.21    0.49
   9  -3   5    0.88    0.52
   9  -3   5    1.83    0.46
 -10   3  -5    2.70    0.67
 -10   3  -5    3.56    0.86
  10  -3   5    4.35    0.90
 -11   3  -5    0.92    0.44
 -11   3  -5    0.88    0.55
 -11   3  -5    1.02    0.61
  11  -3   5    0.49    0.48
   9   2  -5    2.42    0.64
   9   2  -5    0.88    0.55
   9   2  -5    1.97    0.50
  -9  -2   5    1.16    0.48
  -9  -2   5    2.28    0.54
   8   2  -5   -0.01    0.30
   8   2  -5   -0.07    0.29
   8   2  -5    0.16    0.34
  -8  -2   5    0.15    0.35
  -8  -2   5   -0.25    0.27
   7   2  -5    0.33    0.30
   7   2  -5    0.73    0.41
   7   2  -5    0.37    0.35
  -7  -2   5   -0.23    0.25
  -7  -2   5    0.49    0.30
  -7  -2   5    0.21    0.27
   6   2  -5    0.28    0.30
   6   2  -5    0.00    0.21
   6   2  -5   -0.21    0.21
  -6  -2   5    0.01    0.23
  -6  -2   5   -0.23    0.20
  -6  -2   5   -0.04    0.21
   5   2  -5   15.91    1.11
   5   2  -5   14.96    1.20
   5   2  -5   15.36    1.33
  -5  -2   5   16.33    0.99
  -5  -2   5   17.67    1.15
  -5  -2   5   16.33    1.14
  -5  -2   5   15.10    1.15
   4   2  -5    0.53    0.25
   4   2  -5    0.32    0.13
   4   2  -5    0.30    0.19
   4   2  -5    0.36    0.21
  -4  -2   5    0.07    0.23
  -4  -2   5    0.44    0.21
  -4  -2   5    0.28    0.19
  -4  -2   5    0.20    0.12
   3   2  -5    5.67    0.50
   3   2  -5    4.79    0.63
   3   2  -5    5.13    0.46
   3   2  -5    6.32    0.56
   3   2  -5    5.93    0.48
  -3  -2   5    5.83    0.50
  -3  -2   5    6.19    0.61
  -3  -2   5    6.44    0.50
  -3  -2   5    5.82    0.40
   2   2  -5    0.00    0.14
   2   2  -5    0.05    0.19
   2   2  -5    0.13    0.11
   2   2  -5    0.18    0.12
   2   2  -5    0.18    0.12
  -2  -2   5    0.24    0.09
  -2  -2   5    0.24    0.11
  -2  -2   5    0.03    0.12
  -2  -2   5    0.13    0.14
   1   2  -5    0.26    0.13
   1   2  -5    0.09    0.16
   1   2  -5    0.29    0.15
   1   2  -5    0.28    0.12
   1   2  -5    0.25    0.11
  -1  -2   5    0.32    0.14
  -1  -2   5    0.38    0.12
  -1  -2   5    0.28    0.12
  -1  -2   5    0.52    0.16
  -1  -2   5    0.57    0.12
   0   2  -5   37.66    2.11
   0   2  -5   36.08    2.11
   0   2  -5   38.63    2.54
   0   2  -5   36.84    2.14
   0  -2   5   38.76    2.20
   0  -2   5   36.09    2.15
   0  -2   5   36.22    2.44
   0  -2   5   36.48    2.10
  -1   2  -5    0.18    0.08
  -1   2  -5    0.26    0.10
  -1   2  -5    0.05    0.14
  -1   2  -5    0.17    0.13
  -1   2  -5    0.03    0.08
   1  -2   5    0.03    0.09
   1  -2   5   -0.04    0.15
   1  -2   5   -0.09    0.11
   1  -2   5    0.12    0.12
  -2   2  -5    2.58    0.33
  -2   2  -5    2.51    0.38
  -2   2  -5    2.94    0.29
  -2   2  -5    2.40    0.18
  -2   2  -5    2.36    0.28
   2  -2   5    2.04    0.34
   2  -2   5    2.29    0.26
   2  -2   5    2.45    0.40
   2  -2   5    2.37    0.32
   2  -2   5    2.91    0.35
   2  -2   5    2.51    0.33
  -3   2  -5   25.69    1.73
  -3   2  -5   29.11    1.64
  -3   2  -5   26.35    1.94
  -3   2  -5   27.87    1.98
  -3   2  -5   30.20    1.74
   3  -2   5   28.49    2.02
   3  -2   5   33.59    1.99
   3  -2   5   30.59    2.12
   3  -2   5   29.58    1.73
  -4   2  -5    0.19    0.07
  -4   2  -5    0.03    0.13
  -4   2  -5    0.01    0.12
  -4   2  -5   -0.20    0.18
  -4   2  -5   -0.03    0.11
   4  -2   5   -0.09    0.15
   4  -2   5    0.00    0.08
   4  -2   5   -0.17    0.11
   4  -2   5   -0.08    0.19
  -5   2  -5    7.93    0.91
  -5   2  -5    8.98    0.75
  -5   2  -5    8.72    0.60
   5  -2   5    9.75    0.72
   5  -2   5    9.62    0.89
   5  -2   5    9.88    0.86
   5  -2   5    9.95    0.68
  -6   2  -5   25.87    1.93
  -6   2  -5   26.21    1.59
  -6   2  -5   23.01    1.72
   6  -2   5   28.56    1.74
   6  -2   5   26.91    1.98
   6  -2   5   25.46    2.02
   6  -2   5   26.58    1.70
  -7   2  -5    0.65    0.33
  -7   2  -5   -0.01    0.32
   7  -2   5    1.08    0.32
   7  -2   5    1.09    0.39
   7  -2   5    1.10    0.33
  -8   2  -5    7.13    0.88
  -8   2  -5    6.56    0.98
   8  -2   5    8.31    0.66
   8  -2   5    6.27    1.00
   8  -2   5    7.85    0.80
   8  -2   5    7.36    0.81
  -9   2  -5    3.56    0.76
  -9   2  -5    3.69    0.68
   9  -2   5    4.82    0.68
   9  -2   5    2.58    0.72
   9  -2   5    3.50    0.49
 -10   2  -5   -0.16    0.35
 -10   2  -5   -0.59    0.37
  10  -2   5   -0.18    0.42
  10  -2   5   -0.33    0.26
 -11   2  -5    0.09    0.43
 -11   2  -5   -0.06    0.43
  11  -2   5    0.43    0.45
  11  -2   5    0.19    0.53
   9   1  -5    0.35    0.41
   9   1  -5   -0.02    0.37
   9   1  -5    0.47    0.47
  -9  -1   5   -0.95    0.29
  -9  -1   5   -0.25    0.34
   8   1  -5   -0.02    0.22
   8   1  -5    0.13    0.40
   8   1  -5   -0.06    0.23
  -8  -1   5   -0.13    0.33
  -8  -1   5   -0.14    0.30
  -8  -1   5   -0.29    0.25
   7   1  -5    0.17    0.26
   7   1  -5    0.34    0.31
   7   1  -5    0.76    0.39
  -7  -1   5    0.94    0.37
  -7  -1   5    0.61    0.33
  -7  -1   5   -0.15    0.28
   6   1  -5    1.14    0.33
   6   1  -5    1.20    0.34
   6   1  -5    0.87    0.33
  -6  -1   5    0.98    0.30
  -6  -1   5    1.43    0.39
  -6  -1   5    1.09    0.36
   5   1  -5    8.84    0.89
   5   1  -5   10.14    0.78
   5   1  -5    8.12    0.86
  -5  -1   5    8.44    0.58
  -5  -1   5    8.66    0.76
  -5  -1   5    8.85    0.75
  -5  -1   5    8.92    0.77
   4   1  -5   18.10    1.53
   4   1  -5   18.24    1.29
   4   1  -5   21.66    1.33
   4   1  -5   19.48    1.38
  -4  -1   5   21.13    1.35
  -4  -1   5   21.92    1.34
  -4  -1   5   20.58    1.34
  -4  -1   5   20.36    1.16
   3   1  -5   -0.03    0.17
   3   1  -5    0.15    0.20
   3   1  -5   -0.02    0.10
   3   1  -5    0.11    0.10
   3   1  -5    0.06    0.12
  -3  -1   5   -0.29    0.10
  -3  -1   5    0.04    0.11
  -3  -1   5    0.14    0.06
  -3  -1   5    0.20    0.17
   2   1  -5    1.12    0.23
   2   1  -5    0.72    0.21
   2   1  -5    0.88    0.19
   2   1  -5    1.01    0.25
   2   1  -5    1.49    0.22
  -2  -1   5    0.54    0.18
  -2  -1   5    0.60    0.17
  -2  -1   5    1.26    0.11
  -2  -1   5    0.76    0.21
   1   1  -5    0.72    0.16
   1   1  -5    0.66    0.20
   1   1  -5    0.94    0.18
   1   1  -5    0.53    0.14
   1   1  -5    1.14    0.20
  -1  -1   5    0.93    0.17
  -1  -1   5    0.73    0.19
  -1  -1   5    0.63    0.17
  -1  -1   5    0.64    0.15
   0   1  -5   22.25    1.27
   0   1  -5   22.53    1.53
   0   1  -5   22.10    1.27
   0   1  -5   22.73    1.39
   0   1  -5   19.74    1.26
   0  -1   5   20.78    1.29
   0  -1   5   21.48    1.26
   0  -1   5   20.03    1.45
   0  -1   5   21.01    1.31
   0  -1   5   19.85    1.25
  -1   1  -5    2.69    0.36
  -1   1  -5    3.58    0.36
  -1   1  -5    2.91    0.24
  -1   1  -5    3.78    0.29
  -1   1  -5    2.84    0.30
   1  -1   5    3.05    0.27
   1  -1   5    3.26    0.35
   1  -1   5    3.83    0.40
   1  -1   5    3.52    0.41
  -2   1  -5   77.42    4.90
  -2   1  -5   78.53    5.23
  -2   1  -5   77.02    4.49
  -2   1  -5   84.36    4.49
   2  -1   5   91.42    5.25
   2  -1   5   80.53    4.53
   2  -1   5   73.60    4.50
   2  -1   5   79.13    5.09
  -3   1  -5    3.06    0.36
  -3   1  -5    2.72    0.33
  -3   1  -5    2.96    0.43
  -3   1  -5    3.29    0.38
   3  -1   5    4.12    0.37
   3  -1   5    3.22    0.44
   3  -1   5    3.35    0.37
   3  -1   5    3.46    0.44
  -4   1  -5    3.17    0.41
  -4   1  -5    3.45    0.38
  -4   1  -5    4.09    0.43
  -4   1  -5    3.70    0.24
  -4   1  -5    3.54    0.50
   4  -1   5    5.04    0.40
   4  -1   5    3.84    0.52
   4  -1   5    4.34    0.45
   4  -1   5    3.65    0.41
  -5   1  -5    0.75    0.27
  -5   1  -5    1.09    0.15
  -5   1  -5    0.96    0.24
   5  -1   5    1.69    0.30
   5  -1   5    1.33    0.29
   5  -1   5    1.60    0.23
   5  -1   5    0.98    0.33
  -6   1  -5    4.39    0.35
  -6   1  -5    2.83    0.47
  -6   1  -5    4.31    0.65
   6  -1   5    4.50    0.54
   6  -1   5    4.89    0.40
   6  -1   5    3.61    0.63
   6  -1   5    4.41    0.55
   6  -1   5    4.47    0.38
  -7   1  -5   14.74    1.29
  -7   1  -5   12.47    1.10
   7  -1   5   14.37    0.97
   7  -1   5   13.60    1.27
   7  -1   5   14.56    1.03
   7  -1   5   14.75    1.10
   7  -1   5   16.61    1.19
  -8   1  -5    0.61    0.30
  -8   1  -5    0.75    0.42
   8  -1   5    0.40    0.23
   8  -1   5   -0.02    0.17
   8  -1   5    0.04    0.23
   8  -1   5   -0.29    0.31
  -9   1  -5    1.58    0.56
  -9   1  -5    2.44    0.56
   9  -1   5    1.97    0.37
   9  -1   5    1.65    0.40
   9  -1   5    1.50    0.50
 -10   1  -5   -0.16    0.25
 -10   1  -5   -0.25    0.42
  10  -1   5    0.09    0.24
  10  -1   5    0.41    0.25
  10  -1   5    0.17    0.33
 -11   1  -5    3.60    0.73
 -11   1  -5    3.89    0.88
  11  -1   5    3.55    0.66
  11  -1   5    3.08    0.78
 -12   1  -5   -0.03    0.48
  12  -1   5   -0.24    0.27
  12  -1   5   -0.59    0.41
   9   0  -5   -0.32    0.31
   9   0  -5    0.57    0.42
   9   0  -5   -0.32    0.25
  -9   0   5   -0.49    0.29
  -9   0   5    0.12    0.43
   8   0  -5   -0.10    0.31
   8   0  -5   -0.40    0.23
   8   0  -5   -0.32    0.26
  -8   0   5    0.13    0.31
  -8   0   5   -0.14    0.32
   7   0  -5    2.77    0.56
   7   0  -5    2.99    0.61
   7   0  -5    2.26    0.51
  -7   0   5    2.96    0.54
  -7   0   5    2.98    0.51
   6   0  -5    0.73    0.36
   6   0  -5    0.94    0.33
   6   0  -5    0.54    0.31
  -6   0   5    0.45    0.17
  -6   0   5    0.92    0.32
  -6   0   5    1.05    0.36
   5   0  -5   20.94    1.59
   5   0  -5   23.13    1.57
   5   0  -5   22.39    1.79
  -5   0   5   24.34    1.52
  -5   0   5   24.01    1.60
  -5   0   5   24.81    1.61
  -5   0   5   24.97    1.56
   4   0  -5    0.12    0.19
   4   0  -5    0.24    0.19
   4   0  -5    0.21    0.15
   4   0  -5    0.31    0.21
  -4   0   5   -0.17    0.15
  -4   0   5   -0.04    0.19
  -4   0   5    0.01    0.14
  -4   0   5    0.02    0.13
  -4   0   5   -0.02    0.08
   3   0  -5    2.84    0.42
   3   0  -5    2.57    0.35
   3   0  -5    3.11    0.41
   3   0  -5    3.37    0.37
  -3   0   5    3.07    0.39
  -3   0   5    2.96    0.33
  -3   0   5    2.93    0.37
  -3   0   5    1.88    0.33
   2   0  -5    7.74    0.63
   2   0  -5    8.86    0.74
   2   0  -5    7.38    0.61
   2   0  -5    8.73    0.61
   2   0  -5    7.89    0.62
  -2   0   5    8.50    0.62
  -2   0   5    8.33    0.61
  -2   0   5    8.50    0.63
  -2   0   5    7.90    0.61
   1   0  -5    2.56    0.31
   1   0  -5    2.52    0.37
   1   0  -5    2.48    0.31
   1   0  -5    2.34    0.29
   1   0  -5    1.99    0.26
  -1   0   5    2.42    0.30
  -1   0   5    2.57    0.30
  -1   0   5    2.56    0.29
  -1   0   5    2.67    0.31
   0   0  -5  134.48    7.44
   0   0  -5  131.09    7.54
   0   0  -5  135.23    8.71
   0   0  -5  138.65    7.45
   0   0  -5  135.43    8.01
   0   0   5  128.12    7.43
   0   0   5  134.56    7.43
   0   0   5  142.10    7.47
   0   0   5  135.20    7.54
  -1   0  -5    1.47    0.21
  -1   0  -5    1.31    0.15
  -1   0  -5    1.50    0.24
  -1   0  -5    1.29    0.20
  -1   0  -5    1.29    0.25
  -1   0  -5    1.09    0.22
   1   0   5    1.50    0.25
   1   0   5    1.34    0.21
   1   0   5    1.84    0.23
   1   0   5    1.49    0.15
  -2   0  -5   57.64    3.53
  -2   0  -5   63.59    4.13
  -2   0  -5   65.42    3.53
  -2   0  -5   60.04    3.85
   2   0   5   63.78    3.55
   2   0   5   61.75    3.52
   2   0   5   63.51    4.00
   2   0   5   69.48    4.14
   2   0   5   61.70    3.55
   2   0   5   60.66    3.47
  -3   0  -5   55.93    3.69
  -3   0  -5   55.73    3.91
  -3   0  -5   62.23    3.38
  -3   0  -5   57.60    3.39
   3   0   5   68.24    3.93
   3   0   5   56.52    3.39
   3   0   5   59.82    3.82
  -4   0  -5   44.32    2.35
  -4   0  -5   39.96    2.59
  -4   0  -5   35.03    2.66
  -4   0  -5   34.75    2.34
   4   0   5   41.97    2.22
   4   0   5   38.13    2.33
   4   0   5   44.28    2.68
   4   0   5   38.61    2.65
  -5   0  -5    0.17    0.14
  -5   0  -5   -0.13    0.19
   5   0   5    0.12    0.19
   5   0   5    0.06    0.11
   5   0   5   -0.01    0.12
   5   0   5    0.15    0.09
   5   0   5    0.10    0.14
  -6   0  -5   -0.07    0.19
  -6   0  -5    0.26    0.29
  -6   0  -5    0.50    0.13
   6   0   5    0.32    0.17
   6   0   5    0.46    0.14
   6   0   5    0.40    0.18
   6   0   5    0.81    0.21
   6   0   5    0.47    0.22
  -7   0  -5   11.30    1.08
  -7   0  -5    9.96    0.93
   7   0   5   10.75    1.09
   7   0   5   11.64    0.95
   7   0   5   13.87    0.97
   7   0   5   12.02    0.83
   7   0   5   12.94    0.96
  -8   0  -5    0.56    0.28
  -8   0  -5    0.19    0.37
   8   0   5    1.01    0.24
   8   0   5    0.62    0.26
   8   0   5    1.09    0.25
   8   0   5    0.68    0.39
  -9   0  -5    3.94    0.79
  -9   0  -5    3.42    0.65
   9   0   5    5.67    0.73
   9   0   5    4.98    0.82
   9   0   5    4.75    0.53
 -10   0  -5   -0.03    0.30
 -10   0  -5    0.41    0.37
  10   0   5   -0.74    0.27
  10   0   5    0.15    0.31
  10   0   5    0.27    0.26
 -11   0  -5    5.83    1.03
 -11   0  -5    4.94    0.84
  11   0   5    4.42    0.64
  11   0   5    4.32    0.88
  11   0   5    5.20    0.79
 -12   0  -5    0.83    0.50
  12   0   5    0.69    0.38
  12   0   5    0.52    0.55
   9  -1  -5    2.13    0.53
   9  -1  -5    0.46    0.53
  -9   1   5    2.23    0.56
  -9   1   5    2.35    0.64
   8  -1  -5    3.89    0.69
   8  -1  -5    3.98    0.70
   8  -1  -5    2.38    0.62
  -8   1   5    2.81    0.55
  -8   1   5    2.92    0.65
   7  -1  -5    0.29    0.30
   7  -1  -5    0.12    0.34
   7  -1  -5    0.17    0.28
  -7   1   5    0.00    0.21
  -7   1   5    0.33    0.28
   6  -1  -5    1.92    0.48
   6  -1  -5    3.58    0.58
   6  -1  -5    1.92    0.42
  -6   1   5    2.60    0.49
  -6   1   5    2.82    0.39
  -6   1   5    3.53    0.49
   5  -1  -5    1.07    0.35
   5  -1  -5    1.53    0.36
   5  -1  -5    1.04    0.31
  -5   1   5    1.57    0.38
  -5   1   5    1.03    0.27
  -5   1   5    1.57    0.33
   4  -1  -5  111.79    6.76
   4  -1  -5  115.53    6.64
   4  -1  -5  111.38    7.70
  -4   1   5  122.49    7.04
  -4   1   5  123.03    6.61
  -4   1   5  112.71    6.63
  -4   1   5  125.73    6.69
   3  -1  -5    1.27    0.32
   3  -1  -5    1.37    0.30
   3  -1  -5    1.23    0.26
  -3   1   5    0.87    0.21
  -3   1   5    1.67    0.30
  -3   1   5    1.36    0.25
  -3   1   5    1.24    0.28
   2  -1  -5   62.15    3.89
   2  -1  -5   67.28    4.47
   2  -1  -5   63.62    3.81
  -2   1   5   70.71    3.81
  -2   1   5   69.41    3.85
  -2   1   5   70.69    4.08
  -2   1   5   66.06    3.83
   1  -1  -5    1.17    0.23
   1  -1  -5    1.28    0.27
   1  -1  -5    1.21    0.20
   1  -1  -5    1.29    0.23
   1  -1  -5    1.29    0.23
  -1   1   5    1.29    0.24
  -1   1   5    1.24    0.22
  -1   1   5    1.02    0.21
   0  -1  -5    9.14    0.63
   0  -1  -5    8.51    0.68
   0  -1  -5    9.36    0.76
   0  -1  -5    9.09    0.62
   0  -1  -5    8.93    0.62
   0   1   5    9.14    0.63
   0   1   5    9.82    0.65
   0   1   5    8.44    0.67
   0   1   5    9.33    0.63
  -1  -1  -5   16.93    0.99
  -1  -1  -5   14.67    1.06
  -1  -1  -5   15.51    1.06
  -1  -1  -5   14.97    0.98
  -1  -1  -5   15.06    1.17
  -1  -1  -5   15.38    0.95
   1   1   5   16.23    1.00
   1   1   5   15.96    1.06
   1   1   5   16.92    0.96
   1   1   5   15.90    0.99
   1   1   5   15.74    1.11
  -2  -1  -5    5.09    0.43
  -2  -1  -5    5.34    0.52
  -2  -1  -5    4.90    0.42
  -2  -1  -5    5.72    0.48
   2   1   5    5.75    0.44
   2   1   5    4.72    0.46
   2   1   5    5.34    0.43
   2   1   5    6.23    0.53
   2   1   5    6.35    0.49
   2   1   5    5.47    0.47
   2   1   5    5.79    0.37
  -3  -1  -5   25.46    1.91
  -3  -1  -5   26.48    1.81
  -3  -1  -5   27.78    1.65
  -3  -1  -5   28.21    1.67
   3   1   5   27.14    1.66
   3   1   5   26.23    1.64
   3   1   5   31.97    1.94
   3   1   5   27.68    1.85
  -4  -1  -5   21.01    1.23
  -4  -1  -5   18.13    1.34
  -4  -1  -5   17.18    1.22
  -4  -1  -5   17.54    1.38
   4   1   5   18.80    1.10
   4   1   5   19.11    1.35
   4   1   5   22.23    1.42
  -5  -1  -5    0.41    0.21
  -5  -1  -5   -0.03    0.15
   5   1   5    0.46    0.10
   5   1   5    0.28    0.15
   5   1   5    0.39    0.19
   5   1   5    0.59    0.20
  -6  -1  -5    1.37    0.35
  -6  -1  -5    1.03    0.27
   6   1   5    1.17    0.30
   6   1   5    1.42    0.20
   6   1   5    1.21    0.29
  -7  -1  -5   68.30    4.17
  -7  -1  -5   71.56    4.59
   7   1   5   68.06    4.66
   7   1   5   72.19    4.16
   7   1   5   74.08    4.08
  -8  -1  -5    6.80    0.91
  -8  -1  -5    5.93    0.75
   8   1   5    6.92    0.77
   8   1   5    5.35    0.81
   8   1   5    5.63    0.52
  -9  -1  -5    3.32    0.68
  -9  -1  -5    3.80    0.60
   9   1   5    4.03    0.48
   9   1   5    2.90    0.60
   9   1   5    3.28    0.55
 -10  -1  -5    6.95    1.06
 -10  -1  -5    6.43    0.89
  10   1   5    7.62    1.04
  10   1   5    6.49    0.73
  10   1   5    7.01    0.90
 -11  -1  -5    2.47    0.65
 -11  -1  -5    1.76    0.59
  11   1   5    3.17    0.61
  11   1   5    3.27    0.72
  11   1   5    1.90    0.47
 -12  -1  -5    5.36    0.90
  12   1   5    5.64    0.85
  12   1   5    4.93    0.94
  12   1   5    4.47    0.69
   9  -2  -5    0.22    0.31
   9  -2  -5    0.39    0.39
  -9   2   5    0.35    0.36
   8  -2  -5    0.81    0.40
   8  -2  -5    0.88    0.44
  -8   2   5    0.15    0.38
   7  -2  -5    2.29    0.52
   7  -2  -5    2.23    0.57
   7  -2  -5    2.44    0.52
  -7   2   5    2.18    0.44
  -7   2   5    2.18    0.57
   6  -2  -5    0.53    0.31
   6  -2  -5    0.32    0.34
   6  -2  -5    0.49    0.25
  -6   2   5    0.20    0.25
  -6   2   5    1.00    0.29
  -6   2   5    0.16    0.26
   5  -2  -5   16.77    1.40
   5  -2  -5   19.06    1.37
   5  -2  -5   20.02    1.53
  -5   2   5   19.63    1.42
  -5   2   5   18.91    1.38
  -5   2   5   20.15    1.29
   4  -2  -5   19.07    1.44
   4  -2  -5   16.92    1.25
   4  -2  -5   15.87    1.27
  -4   2   5   18.96    1.32
  -4   2   5   19.44    1.32
  -4   2   5   18.40    1.18
   3  -2  -5    2.63    0.43
   3  -2  -5    1.76    0.32
   3  -2  -5    2.02    0.39
  -3   2   5    2.57    0.32
  -3   2   5    2.71    0.41
  -3   2   5    1.63    0.33
  -3   2   5    2.66    0.38
   2  -2  -5   26.28    1.73
   2  -2  -5   28.44    1.98
   2  -2  -5   26.66    1.68
  -2   2   5   28.58    1.81
  -2   2   5   28.55    1.71
  -2   2   5   26.46    1.70
   1  -2  -5   20.12    1.30
   1  -2  -5   19.45    1.26
   1  -2  -5   20.48    1.50
  -1   2   5   19.58    1.28
  -1   2   5   21.62    1.37
  -1   2   5   20.87    1.29
   0  -2  -5  173.93   10.03
   0  -2  -5  177.65    9.73
   0  -2  -5  177.36   11.55
   0  -2  -5  179.45    9.88
   0   2   5  181.10   10.63
   0   2   5  173.25    9.88
   0   2   5  178.32    9.84
   0   2   5  195.02   10.06
  -1  -2  -5   70.07    4.01
  -1  -2  -5   66.42    4.69
  -1  -2  -5   69.93    4.30
  -1  -2  -5   71.53    3.91
  -1  -2  -5   73.43    4.02
   1   2   5   68.72    4.00
   1   2   5   75.83    4.05
   1   2   5   72.71    4.31
   1   2   5   72.53    3.99
  -2  -2  -5   40.93    2.42
  -2  -2  -5   43.95    2.43
  -2  -2  -5   38.46    2.83
  -2  -2  -5   40.44    2.60
   2   2   5   46.72    2.62
   2   2   5   42.04    2.60
   2   2   5   40.22    2.69
   2   2   5   45.96    2.42
   2   2   5   44.30    2.47
   2   2   5   40.16    2.40
   2   2   5   38.22    2.41
  -3  -2  -5    0.82    0.20
  -3  -2  -5    0.87    0.18
  -3  -2  -5    0.93    0.19
  -3  -2  -5    1.27    0.28
   3   2   5    1.11    0.21
   3   2   5    1.04    0.21
   3   2   5    0.83    0.19
   3   2   5    0.82    0.18
   3   2   5    1.14    0.21
  -4  -2  -5   15.28    1.16
  -4  -2  -5   16.78    1.06
  -4  -2  -5   15.68    1.22
   4   2   5   16.92    1.14
   4   2   5   15.87    1.04
   4   2   5   14.61    1.03
  -5  -2  -5   11.84    0.91
  -5  -2  -5   12.78    1.02
   5   2   5   13.28    0.99
   5   2   5   13.22    0.81
   5   2   5   13.38    0.92
  -6  -2  -5    7.05    0.66
  -6  -2  -5    7.95    0.78
   6   2   5    8.62    0.58
   6   2   5    7.35    0.67
   6   2   5    8.77    0.74
  -7  -2  -5    0.18    0.24
  -7  -2  -5   -0.15    0.13
   7   2   5    0.12    0.13
   7   2   5   -0.12    0.19
   7   2   5   -0.03    0.13
  -8  -2  -5    4.25    0.72
  -8  -2  -5    4.11    0.62
   8   2   5    3.91    0.46
   8   2   5    3.27    0.52
   8   2   5    4.05    0.64
  -9  -2  -5    3.32    0.57
  -9  -2  -5    2.98    0.61
   9   2   5    2.51    0.41
   9   2   5    3.63    0.56
   9   2   5    2.75    0.58
 -10  -2  -5    3.60    0.81
 -10  -2  -5    4.47    0.72
  10   2   5    4.41    0.56
  10   2   5    3.15    0.67
  10   2   5    4.25    0.68
 -11  -2  -5    7.57    0.99
 -11  -2  -5    7.50    1.16
  11   2   5    7.27    1.06
  11   2   5    8.68    1.01
  11   2   5    7.05    0.80
 -12  -2  -5    4.07    0.81
  12   2   5    3.59    0.79
  12   2   5    3.63    0.65
  12   2   5    4.68    0.81
 -13  -2  -5    1.80    0.61
  13   2   5    1.78    0.65
  13   2   5    1.13    0.57
   8  -3  -5    0.40    0.47
   8  -3  -5    0.36    0.39
  -8   3   5    0.24    0.32
   7  -3  -5    0.55    0.39
   7  -3  -5    1.13    0.43
   7  -3  -5    0.33    0.35
  -7   3   5    0.95    0.47
   6  -3  -5    2.92    0.59
   6  -3  -5    2.62    0.52
   6  -3  -5    1.98    0.48
  -6   3   5    2.96    0.53
  -6   3   5    3.82    0.65
   5  -3  -5    5.85    0.77
   5  -3  -5    5.54    0.72
   5  -3  -5    6.71    0.75
  -5   3   5    5.62    0.72
  -5   3   5    6.72    0.75
   4  -3  -5    6.95    0.70
   4  -3  -5    5.82    0.66
   4  -3  -5    5.38    0.70
  -4   3   5    5.72    0.51
  -4   3   5    6.49    0.70
  -4   3   5    6.32    0.73
   3  -3  -5   39.63    2.34
   3  -3  -5   36.41    2.67
   3  -3  -5   35.22    2.38
  -3   3   5   38.61    2.37
  -3   3   5   41.34    2.52
   2  -3  -5    0.63    0.20
   2  -3  -5    0.99    0.26
   2  -3  -5    0.35    0.23
  -2   3   5    0.08    0.19
  -2   3   5    0.63    0.24
  -2   3   5    0.67    0.20
   1  -3  -5    0.79    0.26
   1  -3  -5    0.76    0.23
   1  -3  -5    0.43    0.17
  -1   3   5    0.69    0.21
  -1   3   5    0.55    0.19
  -1   3   5    0.49    0.20
   0  -3  -5    5.41    0.52
   0  -3  -5    4.72    0.34
   0  -3  -5    4.72    0.41
   0  -3  -5    5.37    0.39
   0   3   5    4.17    0.49
   0   3   5    4.61    0.43
   0   3   5    4.75    0.43
  -1  -3  -5    0.17    0.12
  -1  -3  -5    0.42    0.12
  -1  -3  -5    0.46    0.11
  -1  -3  -5    0.17    0.20
   1   3   5    0.45    0.18
   1   3   5    0.44    0.13
   1   3   5    0.40    0.13
   1   3   5    0.33    0.14
  -2  -3  -5    0.50    0.12
  -2  -3  -5    0.54    0.15
  -2  -3  -5    0.39    0.22
  -2  -3  -5    0.59    0.16
   2   3   5    0.52    0.15
   2   3   5    0.87    0.22
   2   3   5    0.44    0.17
   2   3   5    0.37    0.13
   2   3   5    0.54    0.17
  -3  -3  -5    0.82    0.23
  -3  -3  -5    0.79    0.20
  -3  -3  -5    0.67    0.17
   3   3   5    0.69    0.16
   3   3   5    0.54    0.17
   3   3   5    0.82    0.21
   3   3   5    0.76    0.19
   3   3   5    0.45    0.15
  -4  -3  -5   71.46    5.33
  -4  -3  -5   76.36    4.58
  -4  -3  -5   77.20    4.96
   4   3   5   82.44    4.57
   4   3   5   88.98    4.90
   4   3   5   83.54    4.54
   4   3   5   85.09    5.08
  -5  -3  -5   18.41    1.44
  -5  -3  -5   20.12    1.33
   5   3   5   21.92    1.27
   5   3   5   19.60    1.35
   5   3   5   21.49    1.42
  -6  -3  -5    1.67    0.39
  -6  -3  -5    1.06    0.29
   6   3   5    1.33    0.27
   6   3   5    1.15    0.28
   6   3   5    1.18    0.21
  -7  -3  -5   11.58    1.07
  -7  -3  -5   12.28    0.99
   7   3   5   12.90    1.01
   7   3   5   12.49    0.95
   7   3   5   12.49    0.86
  -8  -3  -5   21.62    1.56
  -8  -3  -5   22.58    1.76
   8   3   5   20.62    1.62
   8   3   5   23.35    1.55
   8   3   5   21.38    1.41
  -9  -3  -5    0.57    0.35
  -9  -3  -5    0.31    0.41
   9   3   5    0.59    0.32
   9   3   5    0.92    0.27
   9   3   5    0.58    0.28
 -10  -3  -5    2.13    0.52
 -10  -3  -5    1.51    0.57
  10   3   5    2.07    0.41
  10   3   5    2.87    0.56
  10   3   5    2.41    0.52
 -11  -3  -5    0.45    0.33
  11   3   5    0.11    0.32
  11   3   5    0.24    0.27
  11   3   5   -0.40    0.28
 -12  -3  -5    6.31    0.98
  12   3   5    7.65    1.05
  12   3   5    6.69    1.02
  12   3   5    8.41    0.93
 -13  -3  -5   -0.06    0.33
  13   3   5   -0.16    0.34
  13   3   5    0.05    0.31
  13   3   5    0.16    0.42
   8  -4  -5    2.63    0.69
   8  -4  -5    1.60    0.48
  -8   4   5    1.32    0.60
   7  -4  -5    8.33    1.06
   7  -4  -5    8.95    1.05
  -7   4   5    9.88    1.16
   6  -4  -5    0.11    0.37
   6  -4  -5    0.14    0.27
   6  -4  -5    0.37    0.31
  -6   4   5   -0.16    0.31
  -6   4   5    0.01    0.34
   5  -4  -5    6.90    0.87
   5  -4  -5    7.12    0.79
   5  -4  -5    6.14    0.79
  -5   4   5    8.63    0.92
  -5   4   5    8.41    0.92
   4  -4  -5   15.48    1.14
   4  -4  -5   14.30    1.23
   4  -4  -5   13.71    1.16
  -4   4   5   16.46    1.27
  -4   4   5   15.89    1.18
   3  -4  -5   14.93    1.14
   3  -4  -5   14.69    1.05
   3  -4  -5   13.50    1.18
  -3   4   5   16.28    1.22
  -3   4   5   14.17    1.09
   2  -4  -5    1.60    0.27
   2  -4  -5    1.81    0.35
   2  -4  -5    1.91    0.31
   2  -4  -5    1.59    0.36
  -2   4   5    1.67    0.33
  -2   4   5    1.37    0.33
  -2   4   5    2.25    0.38
   1  -4  -5    0.35    0.12
   1  -4  -5    0.82    0.26
   1  -4  -5    0.68    0.21
  -1   4   5    0.02    0.21
  -1   4   5    0.13    0.18
  -1   4   5    0.38    0.21
   0  -4  -5    5.29    0.49
   0  -4  -5    5.90    0.62
   0  -4  -5    6.03    0.44
   0  -4  -5    6.39    0.44
   0   4   5    6.41    0.50
   0   4   5    5.89    0.57
   0   4   5    6.35    0.51
  -1  -4  -5   32.46    1.85
  -1  -4  -5   27.38    2.17
  -1  -4  -5   30.64    1.90
  -1  -4  -5   31.37    1.78
   1   4   5   30.26    1.85
   1   4   5   30.40    1.82
   1   4   5   32.97    2.02
  -2  -4  -5    5.81    0.49
  -2  -4  -5    5.60    0.47
  -2  -4  -5    5.59    0.44
  -2  -4  -5    4.65    0.61
   2   4   5    5.81    0.53
   2   4   5    6.25    0.46
   2   4   5    6.86    0.46
   2   4   5    6.03    0.49
  -3  -4  -5    6.54    0.50
  -3  -4  -5    6.36    0.56
  -3  -4  -5    5.52    0.64
  -3  -4  -5    7.72    0.56
   3   4   5    7.36    0.60
   3   4   5    6.94    0.54
   3   4   5    7.21    0.52
   3   4   5    7.08    0.60
   3   4   5    8.27    0.57
  -4  -4  -5   53.84    3.33
  -4  -4  -5   53.30    3.59
   4   4   5   55.14    3.27
   4   4   5   62.16    3.66
   4   4   5   54.64    3.32
   4   4   5   67.21    3.64
   4   4   5   58.87    3.56
  -5  -4  -5    0.53    0.19
  -5  -4  -5    0.17    0.20
   5   4   5    0.66    0.21
   5   4   5    0.61    0.16
   5   4   5    0.56    0.18
  -6  -4  -5   20.82    1.58
  -6  -4  -5   20.54    1.43
   6   4   5   21.38    1.44
   6   4   5   21.99    1.37
   6   4   5   22.34    1.43
   6   4   5   22.10    1.49
  -7  -4  -5    1.90    0.47
  -7  -4  -5    2.62    0.45
   7   4   5    2.45    0.38
   7   4   5    1.48    0.35
   7   4   5    2.65    0.36
  -8  -4  -5   12.83    1.10
  -8  -4  -5   13.34    1.25
   8   4   5   13.70    1.10
   8   4   5   15.22    1.11
   8   4   5   13.57    0.99
  -9  -4  -5    7.39    1.02
  -9  -4  -5    7.40    0.89
   9   4   5    7.17    0.74
   9   4   5    6.92    0.72
   9   4   5    7.14    0.82
 -10  -4  -5    0.28    0.35
 -10  -4  -5    0.52    0.37
  10   4   5    0.45    0.26
  10   4   5    0.62    0.31
  10   4   5    0.19    0.27
 -11  -4  -5    0.82    0.46
  11   4   5    0.91    0.36
  11   4   5    0.22    0.33
  11   4   5    0.15    0.29
 -12  -4  -5    3.69    0.72
  12   4   5    4.07    0.78
  12   4   5    2.88    0.67
  12   4   5    3.03    0.62
 -13  -4  -5   -0.33    0.42
 -13  -4  -5    0.85    0.56
  13   4   5    0.35    0.44
  13   4   5    0.17    0.36
  13   4   5    0.30    0.44
   7  -5  -5    0.61    0.40
  -7   5   5    0.31    0.35
   6  -5  -5   -0.36    0.22
  -6   5   5    0.08    0.27
  -6   5   5    0.07    0.40
   5  -5  -5   -0.29    0.19
   5  -5  -5    0.02    0.26
  -5   5   5    0.01    0.32
  -5   5   5    0.00    0.31
   4  -5  -5    9.48    0.83
   4  -5  -5    8.27    0.86
  -4   5   5    9.04    1.02
  -4   5   5    9.83    1.00
   3  -5  -5    5.57    0.62
   3  -5  -5    4.85    0.64
  -3   5   5    4.55    0.63
  -3   5   5    5.07    0.69
   2  -5  -5   13.61    1.02
   2  -5  -5   13.87    1.22
   2  -5  -5   15.91    1.09
  -2   5   5   17.97    1.17
  -2   5   5   16.37    1.12
  -2   5   5   16.97    1.26
   1  -5  -5    0.14    0.14
   1  -5  -5    0.21    0.14
   1  -5  -5    0.37    0.09
   1  -5  -5    0.42    0.23
   1  -5  -5    0.10    0.09
  -1   5   5    0.39    0.27
  -1   5   5    0.27    0.21
  -1   5   5    0.12    0.14
   0  -5  -5    1.08    0.12
   0  -5  -5    1.13    0.20
   0  -5  -5    1.27    0.25
   0  -5  -5    0.83    0.28
   0   5   5    1.17    0.33
   0   5   5    1.54    0.29
   0   5   5    1.06    0.22
  -1  -5  -5    9.79    0.96
  -1  -5  -5   11.50    0.81
  -1  -5  -5   12.41    0.78
  -1  -5  -5   10.98    0.74
   1   5   5   13.21    0.95
   1   5   5   13.13    0.84
   1   5   5   11.79    0.80
  -2  -5  -5    3.35    0.39
  -2  -5  -5    3.00    0.29
  -2  -5  -5    3.17    0.47
  -2  -5  -5    3.16    0.36
   2   5   5    3.10    0.44
   2   5   5    4.85    0.46
   2   5   5    3.71    0.37
  -3  -5  -5    3.74    0.39
  -3  -5  -5    4.35    0.46
  -3  -5  -5    4.37    0.45
   3   5   5    4.90    0.39
   3   5   5    3.61    0.47
   3   5   5    4.20    0.37
   3   5   5    4.74    0.42
   3   5   5    4.89    0.52
  -4  -5  -5    7.98    0.60
  -4  -5  -5    7.52    0.65
  -4  -5  -5    8.12    0.63
   4   5   5    8.36    0.58
   4   5   5    8.55    0.68
   4   5   5    8.43    0.66
   4   5   5    6.72    0.60
  -5  -5  -5   69.64    4.45
  -5  -5  -5   69.65    4.12
   5   5   5   69.41    4.09
   5   5   5   73.12    4.37
   5   5   5   74.96    4.48
  -6  -5  -5   -0.09    0.11
  -6  -5  -5    0.01    0.21
   6   5   5    0.26    0.17
   6   5   5    0.09    0.10
  -7  -5  -5    3.43    0.59
  -7  -5  -5    3.77    0.54
   7   5   5    3.57    0.44
   7   5   5    4.63    0.55
   7   5   5    4.35    0.47
   7   5   5    4.51    0.50
  -8  -5  -5   -0.09    0.25
  -8  -5  -5    0.14    0.24
   8   5   5    0.14    0.16
   8   5   5    0.58    0.20
   8   5   5   -0.16    0.16
  -9  -5  -5    7.48    0.86
   9   5   5    7.10    0.74
   9   5   5    6.40    0.80
   9   5   5    7.15    0.70
 -10  -5  -5    1.21    0.39
  10   5   5    1.09    0.36
  10   5   5    0.53    0.27
  10   5   5    0.76    0.40
 -11  -5  -5    0.40    0.30
  11   5   5   -0.01    0.25
  11   5   5    0.10    0.27
  11   5   5   -0.43    0.27
 -12  -5  -5    0.23    0.45
 -12  -5  -5   -0.50    0.33
  12   5   5   -0.07    0.26
  12   5   5   -0.21    0.35
  12   5   5    0.10    0.32
 -13  -5  -5   -0.21    0.43
 -13  -5  -5    0.12    0.48
  13   5   5   -0.12    0.38
  13   5   5    1.06    0.52
   7  -6  -5    7.33    0.94
   7  -6  -5    4.84    1.00
  -7   6   5    6.41    0.97
   6  -6  -5    7.89    0.92
  -6   6   5    5.44    0.84
  -6   6   5    6.68    1.01
   5  -6  -5   -0.17    0.26
  -5   6   5   -0.17    0.35
  -5   6   5   -0.08    0.33
   4  -6  -5    2.65    0.47
   4  -6  -5    3.14    0.51
  -4   6   5    3.29    0.68
  -4   6   5    3.13    0.59
   3  -6  -5   21.04    1.89
   3  -6  -5   26.89    1.73
  -3   6   5   28.79    1.83
  -3   6   5   31.01    2.02
   2  -6  -5   13.53    1.27
   2  -6  -5   17.17    1.14
  -2   6   5   15.80    1.16
  -2   6   5   17.31    1.34
  -2   6   5   16.23    1.16
   1  -6  -5    8.63    0.64
   1  -6  -5    6.04    0.81
   1  -6  -5    8.26    0.69
  -1   6   5    8.15    0.70
  -1   6   5   10.87    0.92
  -1   6   5    8.82    0.70
   0  -6  -5    0.21    0.15
   0  -6  -5   -0.08    0.17
   0  -6  -5    0.22    0.17
   0   6   5    0.06    0.12
   0   6   5   -0.05    0.18
   0   6   5   -0.06    0.15
  -1  -6  -5   10.92    0.75
  -1  -6  -5   10.72    0.77
  -1  -6  -5    8.72    0.90
   1   6   5   10.03    0.89
   1   6   5   11.24    0.76
   1   6   5   10.93    0.79
  -2  -6  -5   17.23    1.15
  -2  -6  -5   16.90    1.14
   2   6   5   18.04    1.31
   2   6   5   17.57    1.16
   2   6   5   18.56    1.12
  -3  -6  -5   11.67    0.87
  -3  -6  -5   11.82    0.86
   3   6   5   13.13    0.99
   3   6   5   11.95    0.80
   3   6   5   12.82    0.83
   3   6   5   12.14    0.86
  -4  -6  -5   18.10    1.19
  -4  -6  -5   18.39    1.21
  -4  -6  -5   18.70    1.12
  -4  -6  -5   17.88    1.25
   4   6   5   17.32    1.12
   4   6   5   20.16    1.27
   4   6   5   16.61    1.17
   4   6   5   18.16    1.30
  -5  -6  -5   25.16    1.69
  -5  -6  -5   24.50    1.58
  -5  -6  -5   25.36    1.57
   5   6   5   22.53    1.47
   5   6   5   25.52    1.66
   5   6   5   24.76    1.55
  -6  -6  -5    0.59    0.27
  -6  -6  -5    0.60    0.25
  -6  -6  -5    0.87    0.29
  -6  -6  -5    0.66    0.24
   6   6   5    0.97    0.25
   6   6   5    0.65    0.15
  -7  -6  -5    0.58    0.28
  -7  -6  -5    0.69    0.18
   7   6   5    0.69    0.25
   7   6   5    0.36    0.19
   7   6   5    0.95    0.19
   7   6   5    0.65    0.24
  -8  -6  -5   12.18    1.00
   8   6   5   12.13    0.92
   8   6   5   12.21    0.89
   8   6   5   10.32    0.95
  -9  -6  -5   32.73    2.12
   9   6   5   30.22    2.05
   9   6   5   31.68    2.03
   9   6   5   30.45    2.11
 -10  -6  -5    0.13    0.30
  10   6   5    0.78    0.36
  10   6   5    0.47    0.37
 -11  -6  -5    0.27    0.40
 -11  -6  -5    1.01    0.48
  11   6   5    0.48    0.39
  11   6   5    0.99    0.35
 -12  -6  -5   -0.12    0.37
 -12  -6  -5    0.05    0.42
  12   6   5    0.35    0.36
  12   6   5   -0.12    0.35
 -13  -6  -5    1.12    0.48
  13   6   5    2.36    0.67
  13   6   5    1.08    0.47
   6  -7  -5    0.16    0.46
  -6   7   5    0.54    0.49
  -6   7   5    0.34    0.51
   5  -7  -5    0.26    0.25
  -5   7   5    0.09    0.41
  -5   7   5   -0.64    0.35
   4  -7  -5    1.76    0.42
  -4   7   5    1.12    0.46
  -4   7   5    1.58    0.51
   3  -7  -5   14.56    1.39
   3  -7  -5   18.73    1.30
  -3   7   5   21.36    1.63
  -3   7   5   20.13    1.42
   2  -7  -5    0.14    0.22
   2  -7  -5    0.00    0.22
  -2   7   5   -0.06    0.24
  -2   7   5   -0.36    0.31
  -2   7   5    0.61    0.25
   1  -7  -5    1.71    0.33
   1  -7  -5    2.27    0.37
  -1   7   5    2.21    0.38
  -1   7   5    2.00    0.38
  -1   7   5    2.17    0.50
   0  -7  -5    2.07    0.35
   0  -7  -5    2.61    0.37
   0   7   5    1.90    0.34
   0   7   5    1.92    0.35
   0   7   5    1.83    0.43
  -1  -7  -5   11.62    0.85
  -1  -7  -5   11.85    0.85
   1   7   5   11.21    0.86
   1   7   5   11.19    1.01
   1   7   5   12.17    0.83
  -2  -7  -5   14.75    1.01
  -2  -7  -5   14.44    1.01
   2   7   5   14.11    1.18
   2   7   5   15.23    0.96
   2   7   5   13.88    1.00
  -3  -7  -5    2.57    0.37
  -3  -7  -5    2.57    0.38
   3   7   5    2.87    0.25
   3   7   5    2.25    0.29
   3   7   5    2.45    0.46
   3   7   5    2.15    0.35
  -4  -7  -5    6.00    0.64
  -4  -7  -5    6.90    0.59
   4   7   5    6.35    0.57
   4   7   5    7.57    0.67
   4   7   5    6.19    0.50
   4   7   5    6.98    0.58
  -5  -7  -5    4.46    0.54
  -5  -7  -5    3.62    0.58
  -5  -7  -5    3.73    0.33
  -5  -7  -5    3.24    0.42
  -5  -7  -5    3.76    0.49
   5   7   5    4.37    0.49
   5   7   5    4.08    0.51
   5   7   5    3.80    0.39
  -6  -7  -5   15.01    1.10
  -6  -7  -5   14.16    1.23
  -6  -7  -5   16.45    1.14
   6   7   5   16.61    1.16
   6   7   5   15.29    1.09
  -7  -7  -5    0.29    0.24
  -7  -7  -5    0.11    0.18
  -7  -7  -5    0.25    0.25
   7   7   5    0.50    0.23
   7   7   5    0.26    0.22
  -8  -7  -5   -0.12    0.23
  -8  -7  -5    0.34    0.22
  -8  -7  -5    0.08    0.20
   8   7   5    0.32    0.20
   8   7   5    0.24    0.24
   8   7   5   -0.06    0.21
  -9  -7  -5    0.44    0.32
  -9  -7  -5    0.36    0.32
  -9  -7  -5    0.07    0.21
   9   7   5   -0.10    0.19
   9   7   5    0.34    0.26
 -10  -7  -5    0.33    0.30
 -10  -7  -5   -0.01    0.31
 -10  -7  -5    0.20    0.32
  10   7   5    0.07    0.29
  10   7   5    0.57    0.32
 -11  -7  -5   -0.03    0.34
 -11  -7  -5    0.53    0.42
 -11  -7  -5   -0.09    0.24
  11   7   5   -0.15    0.30
  11   7   5   -0.13    0.34
 -12  -7  -5    4.85    0.85
 -12  -7  -5    4.36    0.71
  12   7   5    6.95    0.87
  12   7   5    4.10    0.77
 -13  -7  -5    1.66    0.63
 -13  -7  -5    1.68    0.55
  13   7   5    1.60    0.49
  13   7   5    0.98    0.49
   5  -8  -5    5.64    1.12
  -5   8   5    6.53    0.97
  -5   8   5    5.92    1.07
   4  -8  -5    0.03    0.34
  -4   8   5    0.26    0.31
  -4   8   5   -0.24    0.41
   3  -8  -5    7.87    0.88
   3  -8  -5    6.91    1.15
  -3   8   5    9.83    1.21
  -3   8   5    9.94    1.02
  -3   8   5    8.26    0.94
   2  -8  -5    4.84    0.64
  -2   8   5    5.70    0.73
  -2   8   5    5.73    0.86
  -2   8   5    5.79    0.71
   1  -8  -5    0.74    0.26
   1  -8  -5    1.15    0.30
  -1   8   5    0.68    0.37
  -1   8   5    0.54    0.26
  -1   8   5    0.81    0.28
   0  -8  -5    3.35    0.46
   0  -8  -5    3.25    0.45
   0   8   5    3.52    0.46
   0   8   5    3.90    0.69
   0   8   5    2.97    0.46
  -1  -8  -5    7.59    0.64
  -1  -8  -5    7.46    0.64
   1   8   5    6.04    0.82
   1   8   5    6.31    0.57
   1   8   5    8.10    0.67
  -2  -8  -5    0.95    0.24
  -2  -8  -5    0.16    0.21
   2   8   5    0.62    0.18
   2   8   5    0.38    0.21
   2   8   5    0.55    0.35
  -3  -8  -5    3.66    0.49
  -3  -8  -5    4.79    0.52
   3   8   5    3.55    0.38
   3   8   5    4.29    0.60
   3   8   5    3.79    0.47
  -4  -8  -5    0.42    0.22
  -4  -8  -5    0.68    0.27
  -4  -8  -5    0.14    0.28
   4   8   5    0.50    0.25
   4   8   5    0.74    0.17
   4   8   5    0.79    0.24
  -5  -8  -5    6.11    0.52
  -5  -8  -5    6.13    0.68
  -5  -8  -5    7.47    0.88
  -5  -8  -5    5.65    0.64
   5   8   5    6.15    0.71
   5   8   5    5.86    0.62
  -6  -8  -5    8.79    0.74
  -6  -8  -5    9.44    0.91
  -6  -8  -5    9.64    0.83
  -6  -8  -5    9.98    0.81
   6   8   5    7.81    0.73
   6   8   5   10.04    0.83
  -7  -8  -5    0.37    0.24
  -7  -8  -5    0.71    0.31
  -7  -8  -5    0.94    0.28
  -7  -8  -5    0.48    0.25
   7   8   5   -0.01    0.21
   7   8   5    0.23    0.21
  -8  -8  -5    4.02    0.60
  -8  -8  -5    6.93    0.76
  -8  -8  -5    5.20    0.69
   8   8   5    5.23    0.66
   8   8   5    5.24    0.66
   8   8   5    5.58    0.61
  -9  -8  -5    5.56    0.78
  -9  -8  -5    7.09    0.83
  -9  -8  -5    6.37    0.79
   9   8   5    7.46    0.82
   9   8   5    5.68    0.76
   9   8   5    7.75    0.64
 -10  -8  -5    2.83    0.55
 -10  -8  -5    1.78    0.49
  10   8   5    2.61    0.54
  10   8   5    2.90    0.55
 -11  -8  -5    0.74    0.43
 -11  -8  -5    0.54    0.33
  11   8   5    0.58    0.39
  11   8   5    1.08    0.45
 -12  -8  -5   -0.11    0.36
 -12  -8  -5   -0.31    0.32
  12   8   5   -0.17    0.37
  12   8   5    0.40    0.41
   4  -9  -5    0.67    0.58
  -4   9   5    0.17    0.39
  -4   9   5    0.71    0.49
  -4   9   5    0.62    0.47
   3  -9  -5    1.15    0.62
  -3   9   5    1.56    0.49
  -3   9   5    1.40    0.47
  -3   9   5    0.56    0.51
   2  -9  -5    1.10    0.57
  -2   9   5    2.13    0.49
  -2   9   5    2.41    0.59
  -2   9   5    1.95    0.45
   1  -9  -5    1.88    0.41
   1  -9  -5    1.16    0.49
  -1   9   5    1.63    0.38
  -1   9   5    1.57    0.40
  -1   9   5    1.08    0.47
   0  -9  -5    1.07    0.31
   0  -9  -5    1.25    0.34
   0  -9  -5    0.44    0.39
   0   9   5    1.06    0.47
   0   9   5    0.88    0.29
   0   9   5    0.96    0.34
  -1  -9  -5    0.46    0.36
  -1  -9  -5    0.78    0.26
  -1  -9  -5    0.75    0.28
   1   9   5    1.33    0.41
   1   9   5    0.51    0.21
   1   9   5    0.60    0.26
  -2  -9  -5    5.22    0.60
  -2  -9  -5    4.85    0.87
  -2  -9  -5    4.64    0.61
   2   9   5    6.19    0.64
   2   9   5    5.95    0.49
   2   9   5    5.05    0.75
  -3  -9  -5    1.21    0.34
  -3  -9  -5    0.07    0.34
  -3  -9  -5    0.81    0.26
   3   9   5    0.83    0.32
   3   9   5    0.64    0.24
   3   9   5    0.75    0.18
  -4  -9  -5    0.44    0.37
  -4  -9  -5    0.08    0.22
  -4  -9  -5    0.70    0.25
   4   9   5    0.46    0.23
   4   9   5   -0.01    0.20
   4   9   5    0.59    0.16
  -5  -9  -5    2.66    0.48
  -5  -9  -5    2.15    0.32
  -5  -9  -5    1.61    0.48
  -5  -9  -5    2.01    0.39
   5   9   5    1.90    0.36
   5   9   5    2.58    0.49
  -6  -9  -5    1.62    0.44
  -6  -9  -5    0.87    0.34
  -6  -9  -5    1.04    0.31
  -6  -9  -5    0.95    0.25
   6   9   5    0.90    0.34
   6   9   5    1.09    0.30
  -7  -9  -5    6.67    0.81
  -7  -9  -5    5.03    0.71
  -7  -9  -5    6.14    0.67
   7   9   5    5.92    0.69
  -8  -9  -5    2.04    0.45
  -8  -9  -5    2.37    0.47
   8   9   5    3.11    0.47
   8   9   5    2.03    0.46
   8   9   5    3.15    0.52
  -9  -9  -5    0.71    0.38
  -9  -9  -5    0.62    0.35
   9   9   5    0.74    0.34
   9   9   5    0.93    0.38
 -10  -9  -5    8.27    0.99
 -10  -9  -5    7.55    0.97
  10   9   5    9.84    1.04
  10   9   5   11.68    1.11
 -11  -9  -5    2.01    0.53
 -11  -9  -5    2.70    0.64
  11   9   5    3.34    0.66
  11   9   5    2.71    0.56
 -12  -9  -5    2.25    0.59
 -12  -9  -5    2.44    0.64
  12   9   5    2.38    0.56
  12   9   5    2.88    0.68
   3 -10  -5    0.52    0.57
  -3  10   5    0.96    0.62
  -3  10   5    1.74    0.51
  -3  10   5    1.72    0.52
   2 -10  -5    0.00    0.36
  -2  10   5    0.05    0.30
  -2  10   5    0.20    0.50
  -2  10   5   -0.45    0.25
   1 -10  -5   -0.58    0.38
   1 -10  -5    0.16    0.29
  -1  10   5   -0.32    0.38
  -1  10   5   -0.03    0.29
  -1  10   5   -0.30    0.23
   0 -10  -5    0.51    0.31
   0 -10  -5    0.20    0.51
   0  10   5    0.47    0.32
   0  10   5    0.27    0.24
   0  10   5    0.00    0.44
  -1 -10  -5   -0.07    0.42
  -1 -10  -5    0.01    0.24
   1  10   5   -0.13    0.14
   1  10   5   -0.15    0.19
   1  10   5   -0.16    0.26
  -2 -10  -5    1.63    0.40
  -2 -10  -5    1.69    0.58
   2  10   5    1.89    0.37
   2  10   5    0.70    0.47
  -3 -10  -5   -0.34    0.37
  -3 -10  -5    0.28    0.28
   3  10   5    0.10    0.19
   3  10   5   -0.10    0.32
  -4 -10  -5   -0.25    0.15
  -4 -10  -5    0.21    0.32
   4  10   5    0.06    0.22
   4  10   5    0.46    0.38
  -5 -10  -5   -0.28    0.23
  -5 -10  -5    0.40    0.36
   5  10   5   -0.22    0.29
   5  10   5   -0.03    0.20
  -6 -10  -5    0.96    0.38
  -6 -10  -5    1.08    0.28
  -6 -10  -5    0.53    0.35
   6  10   5    0.47    0.26
   6  10   5    1.01    0.36
  -7 -10  -5    5.03    0.77
  -7 -10  -5    3.93    0.55
  -7 -10  -5    4.90    0.71
   7  10   5    4.53    0.64
  -8 -10  -5    0.11    0.24
  -8 -10  -5   -0.02    0.22
   8  10   5    0.08    0.23
   8  10   5    0.43    0.27
   8  10   5    0.28    0.25
  -9 -10  -5    0.28    0.29
  -9 -10  -5    0.38    0.33
   9  10   5    0.68    0.34
   9  10   5    0.31    0.33
 -10 -10  -5    1.47    0.48
 -10 -10  -5    2.39    0.55
  10  10   5    2.06    0.51
  10  10   5    1.72    0.48
 -11 -10  -5    1.70    0.53
 -11 -10  -5    1.57    0.47
  11  10   5    1.36    0.51
  11  10   5    1.54    0.49
 -12 -10  -5    0.98    0.52
 -12 -10  -5    0.85    0.44
  12  10   5    0.20    0.38
  12  10   5    1.08    0.51
   2 -11  -5    0.31    0.56
   2 -11  -5    0.30    0.47
  -2  11   5    0.03    0.56
  -2  11   5    0.04    0.33
   1 -11  -5    0.37    0.55
   1 -11  -5    0.31    0.34
   1 -11  -5    0.18    0.37
  -1  11   5   -0.02    0.30
  -1  11   5    0.77    0.59
   0 -11  -5    0.14    0.32
   0 -11  -5   -0.38    0.43
   0 -11  -5    0.05    0.30
   0  11   5    0.11    0.28
   0  11   5   -0.08    0.49
  -1 -11  -5    0.17    0.26
  -1 -11  -5    0.49    0.49
   1  11   5    0.02    0.26
   1  11   5    0.12    0.35
  -2 -11  -5   -0.25    0.38
  -2 -11  -5    0.66    0.35
   2  11   5    0.56    0.46
   2  11   5    0.81    0.30
  -3 -11  -5    0.09    0.29
  -3 -11  -5   -0.45    0.22
   3  11   5   -0.62    0.30
   3  11   5   -0.17    0.20
  -4 -11  -5   -0.22    0.29
  -4 -11  -5   -0.09    0.39
   4  11   5    0.39    0.26
   4  11   5    0.39    0.40
  -5 -11  -5    0.49    0.48
  -5 -11  -5    0.55    0.30
   5  11   5    0.45    0.32
   5  11   5    1.95    0.37
  -6 -11  -5   -0.54    0.24
  -6 -11  -5   -0.12    0.32
   6  11   5   -0.11    0.22
   6  11   5   -0.26    0.28
  -7 -11  -5    4.03    0.75
  -7 -11  -5    3.35    0.64
  -7 -11  -5    3.49    0.51
   7  11   5    3.63    0.63
  -8 -11  -5   -0.09    0.30
  -8 -11  -5    0.23    0.28
   8  11   5   -0.26    0.27
   8  11   5    0.11    0.30
  -9 -11  -5    2.65    0.59
  -9 -11  -5    2.45    0.51
   9  11   5    2.50    0.52
   9  11   5    3.34    0.64
 -10 -11  -5   -0.37    0.27
 -10 -11  -5    0.18    0.38
  10  11   5    0.23    0.35
  10  11   5    0.42    0.36
 -11 -11  -5    0.58    0.40
 -11 -11  -5    0.67    0.46
  11  11   5    1.76    0.54
  11  11   5    1.77    0.53
   0 -12  -5    0.96    0.64
   0 -12  -5   -0.31    0.30
   0  12   5   -0.03    0.30
   0  12   5    1.72    0.72
  -1 -12  -5    0.27    0.33
  -1 -12  -5    0.20    0.43
   1  12   5    0.34    0.34
   1  12   5    0.01    0.50
  -2 -12  -5   -0.13    0.45
  -2 -12  -5    0.26    0.35
   2  12   5   -0.01    0.34
   2  12   5   -0.08    0.26
  -3 -12  -5    1.53    0.48
  -3 -12  -5    1.51    0.61
   3  12   5    1.60    0.40
   3  12   5    1.78    0.56
  -4 -12  -5   -0.28    0.18
  -4 -12  -5    0.60    0.53
   4  12   5   -0.02    0.39
   4  12   5   -0.17    0.25
  -5 -12  -5   -0.07    0.35
  -5 -12  -5    0.53    0.52
   5  12   5   -0.31    0.34
   5  12   5   -0.22    0.21
  -6 -12  -5    1.39    0.44
  -6 -12  -5    0.08    0.41
   6  12   5    1.34    0.48
   6  12   5    0.73    0.33
  -7 -12  -5    0.27    0.39
  -7 -12  -5   -0.19    0.30
   7  12   5   -0.13    0.33
  -8 -12  -5    0.76    0.44
  -8 -12  -5    0.89    0.34
   8  12   5    0.84    0.38
  -9 -12  -5    0.23    0.30
  -9 -12  -5    0.19    0.29
   9  12   5    0.25    0.30
   9  12   5   -0.18    0.33
 -10 -12  -5    0.74    0.37
 -10 -12  -5   -0.11    0.31
  10  12   5    0.11    0.24
  10  12   5   -0.20    0.36
  -2 -13  -5    1.26    0.73
  -2 -13  -5    1.35    0.47
   2  13   5    1.01    0.68
   2  13   5    0.40    0.33
  -3 -13  -5   -0.05    0.38
  -3 -13  -5   -0.16    0.29
   3  13   5    0.09    0.51
   3  13   5    0.09    0.27
  -4 -13  -5    5.39    1.07
  -4 -13  -5    3.93    0.70
   4  13   5    4.67    0.63
   4  13   5    4.03    0.88
  -5 -13  -5    0.24    0.53
  -5 -13  -5    0.16    0.35
   5  13   5    0.12    0.26
   5  13   5   -0.36    0.38
  -6 -13  -5    2.07    0.68
  -6 -13  -5    0.37    0.45
   6  13   5    0.72    0.51
  -7 -13  -5   -0.13    0.36
  -7 -13  -5    0.31    0.46
   7  13   5   -0.17    0.40
   7  13   5    0.50    0.34
  -8 -13  -5    0.00    0.29
   8  13   5   -0.08    0.31
   4  10  -6    0.86    0.42
   4  10  -6    2.02    0.60
   4  10  -6    0.80    0.42
  -4 -10   6   -0.12    0.34
  -4 -10   6    1.13    0.49
   3  10  -6    0.41    0.39
   3  10  -6    0.64    0.36
  -3 -10   6   -0.02    0.45
  -3 -10   6    0.13    0.35
  -3 -10   6   -0.25    0.31
   2  10  -6    0.22    0.32
   2  10  -6    0.44    0.34
   2  10  -6    0.81    0.37
  -2 -10   6    0.01    0.35
  -2 -10   6    0.13    0.31
  -2 -10   6    0.52    0.46
   1  10  -6    5.37    0.81
   1  10  -6    4.63    0.81
  -1 -10   6    3.43    0.64
  -1 -10   6    5.64    1.10
  -1 -10   6    3.76    0.64
   0  10  -6    0.72    0.38
   0  10  -6    0.90    0.48
   0 -10   6    0.55    0.52
   0 -10   6    0.73    0.41
  -1  10  -6    0.48    0.44
   1 -10   6    0.79    0.53
   1 -10   6    1.28    0.47
  -2  10  -6    0.01    0.37
   2 -10   6    0.01    0.46
   2 -10   6   -0.25    0.37
   6   9  -6    1.47    0.56
   6   9  -6    1.89    0.57
  -6  -9   6    1.25    0.52
   5   9  -6    0.60    0.42
   5   9  -6    1.74    0.58
  -5  -9   6    1.12    0.41
  -5  -9   6    1.46    0.50
   4   9  -6    2.51    0.60
   4   9  -6    1.17    0.43
  -4  -9   6    1.60    0.47
  -4  -9   6    2.25    0.48
   3   9  -6    0.19    0.36
   3   9  -6    0.02    0.32
   3   9  -6    0.57    0.38
  -3  -9   6    0.03    0.30
  -3  -9   6   -0.02    0.24
   2   9  -6   -0.21    0.22
   2   9  -6    0.42    0.32
   2   9  -6    0.22    0.33
   2   9  -6   -0.11    0.21
  -2  -9   6    0.40    0.35
  -2  -9   6    1.19    0.56
  -2  -9   6    0.38    0.31
   1   9  -6    0.12    0.28
   1   9  -6    0.26    0.25
   1   9  -6   -0.12    0.27
  -1  -9   6    0.14    0.49
  -1  -9   6    0.11    0.32
  -1  -9   6    0.33    0.33
   0   9  -6    9.17    1.10
   0  -9   6    8.57    1.31
   0  -9   6   10.71    0.99
   0  -9   6    9.53    1.02
  -1   9  -6    1.89    0.47
   1  -9   6    2.12    0.54
   1  -9   6    1.21    0.64
   1  -9   6    1.46    0.44
  -2   9  -6    1.46    0.47
   2  -9   6    2.05    0.57
   2  -9   6    1.49    0.67
   3  -9   6    2.35    0.73
   3  -9   6    1.53    0.54
   4  -9   6    2.96    0.87
   4  -9   6    2.85    0.73
   7   8  -6   -0.32    0.45
   7   8  -6    0.60    0.52
  -7  -8   6    0.84    0.51
   6   8  -6    0.99    0.47
   6   8  -6    0.73    0.49
  -6  -8   6    1.33    0.53
   5   8  -6    2.11    0.54
   5   8  -6    1.70    0.60
  -5  -8   6    2.06    0.45
  -5  -8   6    1.83    0.54
   4   8  -6    0.09    0.29
   4   8  -6    0.33    0.37
  -4  -8   6    0.21    0.34
  -4  -8   6    0.20    0.28
   3   8  -6    1.44    0.43
   3   8  -6    1.96    0.46
  -3  -8   6    0.79    0.33
  -3  -8   6    0.18    0.32
   2   8  -6    0.93    0.39
   2   8  -6    1.16    0.32
   2   8  -6    1.59    0.42
  -2  -8   6    0.24    0.32
  -2  -8   6    1.38    0.55
  -2  -8   6    0.42    0.31
   1   8  -6   14.79    1.09
   1   8  -6   13.83    1.21
   1   8  -6   13.27    1.25
  -1  -8   6   15.80    1.51
  -1  -8   6   14.66    1.13
  -1  -8   6   13.82    1.17
  -1  -8   6   12.40    1.12
   0   8  -6   12.70    1.20
   0   8  -6   13.91    1.05
   0   8  -6   12.10    1.21
   0  -8   6   17.22    1.53
   0  -8   6   14.44    1.15
   0  -8   6   15.04    1.21
  -1   8  -6    0.13    0.29
   1  -8   6    0.35    0.34
   1  -8   6    0.25    0.29
   1  -8   6    1.03    0.56
  -2   8  -6    0.21    0.31
   2  -8   6    0.09    0.45
   2  -8   6    0.66    0.38
   2  -8   6    0.33    0.28
  -3   8  -6    1.74    0.54
   3  -8   6    3.84    0.72
   3  -8   6    4.49    0.92
  -4   8  -6    0.69    0.26
  -4   8  -6    0.79    0.44
   4  -8   6    1.75    0.68
   4  -8   6    1.71    0.59
  -5   8  -6    2.37    0.44
   5  -8   6    3.25    0.78
   5  -8   6    1.91    0.63
  -6   8  -6    0.69    0.35
   6  -8   6    0.71    0.53
   6  -8   6    0.86    0.46
   8   7  -6    0.15    0.48
   8   7  -6    1.04    0.35
   8   7  -6    2.06    0.70
  -8  -7   6    0.43    0.47
   7   7  -6    1.96    0.38
   7   7  -6    2.29    0.70
   7   7  -6    1.46    0.60
  -7  -7   6    2.04    0.54
   6   7  -6    0.04    0.32
   6   7  -6    0.22    0.38
   6   7  -6    0.26    0.19
  -6  -7   6   -0.02    0.26
   5   7  -6    9.11    1.00
   5   7  -6    9.37    0.66
   5   7  -6    9.89    1.22
  -5  -7   6    8.90    0.78
  -5  -7   6    6.56    0.89
   4   7  -6    0.01    0.11
   4   7  -6   -0.18    0.27
   4   7  -6    0.37    0.36
  -4  -7   6    0.14    0.25
  -4  -7   6    0.00    0.30
   3   7  -6    1.04    0.36
   3   7  -6    1.47    0.42
  -3  -7   6    0.95    0.37
  -3  -7   6    2.11    0.39
   2   7  -6    0.29    0.24
   2   7  -6   -0.06    0.26
  -2  -7   6   -0.44    0.28
  -2  -7   6    0.09    0.23
  -2  -7   6    0.03    0.19
   1   7  -6    0.86    0.35
   1   7  -6    0.93    0.36
   1   7  -6    1.26    0.31
  -1  -7   6    1.09    0.49
  -1  -7   6    1.35    0.35
  -1  -7   6    1.31    0.37
  -1  -7   6    1.27    0.33
   0   7  -6    2.62    0.40
   0   7  -6    3.41    0.53
   0   7  -6    2.41    0.49
   0  -7   6    2.25    0.62
   0  -7   6    2.11    0.45
   0  -7   6    3.03    0.50
   0  -7   6    1.54    0.40
  -1   7  -6    5.91    0.61
  -1   7  -6    6.02    0.79
  -1   7  -6    6.01    0.71
   1  -7   6    5.59    0.71
   1  -7   6    6.47    0.79
   1  -7   6    6.05    0.95
  -2   7  -6   16.62    1.34
  -2   7  -6   17.46    1.42
  -2   7  -6   16.76    1.07
   2  -7   6   14.75    1.25
   2  -7   6   20.07    1.73
   2  -7   6   20.31    1.50
  -3   7  -6    4.17    0.46
  -3   7  -6    3.98    0.69
   3  -7   6    4.64    0.76
   3  -7   6    5.57    0.97
  -4   7  -6   15.59    1.53
  -4   7  -6   19.75    1.31
   4  -7   6   20.96    1.84
   4  -7   6   21.46    1.74
  -5   7  -6    4.52    0.60
  -5   7  -6    3.64    0.71
   5  -7   6    5.46    0.95
   5  -7   6    5.08    0.96
  -6   7  -6    0.04    0.31
  -6   7  -6   -0.03    0.38
   6  -7   6    0.00    0.46
   6  -7   6    0.25    0.48
  -7   7  -6    0.87    0.41
   7  -7   6   -0.32    0.45
   7  -7   6    0.79    0.50
   8   6  -6    1.57    0.42
   8   6  -6    1.40    0.57
   8   6  -6    0.29    0.51
  -8  -6   6    1.06    0.53
   7   6  -6    0.24    0.32
   7   6  -6   -0.03    0.23
   7   6  -6    0.15    0.35
  -7  -6   6    0.49    0.41
   6   6  -6    1.99    0.60
   6   6  -6    0.95    0.41
   6   6  -6    1.19    0.29
  -6  -6   6    0.09    0.36
   5   6  -6    1.06    0.26
   5   6  -6    0.85    0.39
   5   6  -6    0.54    0.29
  -5  -6   6    0.55    0.28
  -5  -6   6    0.40    0.36
   4   6  -6    0.87    0.38
   4   6  -6    1.04    0.35
   4   6  -6    0.38    0.15
  -4  -6   6    1.29    0.29
  -4  -6   6    0.48    0.20
  -4  -6   6    0.42    0.31
   3   6  -6    2.76    0.46
   3   6  -6    2.33    0.50
   3   6  -6    2.83    0.29
  -3  -6   6    2.35    0.37
  -3  -6   6    1.76    0.31
  -3  -6   6    2.10    0.47
   2   6  -6    1.42    0.18
   2   6  -6    0.92    0.37
   2   6  -6    1.69    0.35
  -2  -6   6    1.55    0.33
  -2  -6   6    1.21    0.37
  -2  -6   6    1.49    0.27
   1   6  -6    2.63    0.22
   1   6  -6    3.10    0.42
   1   6  -6    2.24    0.47
   1   6  -6    2.94    0.52
  -1  -6   6    3.64    0.51
  -1  -6   6    3.33    0.52
  -1  -6   6    3.45    0.64
  -1  -6   6    2.91    0.44
   0   6  -6   13.62    1.10
   0   6  -6   12.08    1.04
   0   6  -6   11.26    0.73
   0   6  -6   12.45    0.89
   0  -6   6   11.90    0.97
   0  -6   6   12.20    0.94
   0  -6   6   13.47    1.27
   0  -6   6   12.99    1.04
  -1   6  -6    2.86    0.29
  -1   6  -6    2.33    0.45
  -1   6  -6    2.36    0.43
  -1   6  -6    3.14    0.39
   1  -6   6    3.15    0.64
   1  -6   6    3.25    0.53
   1  -6   6    2.74    0.47
  -2   6  -6    5.21    0.71
  -2   6  -6    4.11    0.45
  -2   6  -6    6.14    0.59
   2  -6   6    6.34    0.90
   2  -6   6    5.67    0.75
   2  -6   6    4.97    0.64
  -3   6  -6   -0.16    0.25
  -3   6  -6    0.63    0.21
   3  -6   6    0.64    0.36
   3  -6   6    0.29    0.31
  -4   6  -6    7.95    0.96
  -4   6  -6    7.71    0.69
   4  -6   6    7.72    1.03
   4  -6   6    9.40    1.19
  -5   6  -6   -0.48    0.25
  -5   6  -6   -0.05    0.21
   5  -6   6    0.06    0.29
   5  -6   6    0.43    0.45
  -6   6  -6    0.23    0.32
  -6   6  -6   -0.33    0.30
   6  -6   6    0.59    0.44
   6  -6   6    0.26    0.43
  -7   6  -6    0.78    0.38
  -7   6  -6   -0.08    0.41
   7  -6   6    0.68    0.50
   7  -6   6    0.85    0.57
  -8   6  -6    1.13    0.46
  -8   6  -6   -0.17    0.43
   8  -6   6    0.68    0.50
   8  -6   6    0.16    0.46
   8   5  -6    0.43    0.32
   8   5  -6    0.23    0.51
   8   5  -6   -0.04    0.45
  -8  -5   6    0.45    0.44
   7   5  -6    0.01    0.41
   7   5  -6    0.22    0.26
   7   5  -6    0.56    0.46
  -7  -5   6   -0.14    0.24
  -7  -5   6   -0.06    0.35
   6   5  -6    2.58    0.57
   6   5  -6    2.50    0.60
   6   5  -6    2.06    0.37
  -6  -5   6    1.88    0.51
  -6  -5   6    2.16    0.40
   5   5  -6    7.11    0.84
   5   5  -6    7.20    0.63
   5   5  -6    7.25    1.00
  -5  -5   6    7.77    0.65
  -5  -5   6    6.10    0.82
  -5  -5   6    8.70    0.65
   4   5  -6   -0.22    0.22
   4   5  -6    0.56    0.34
   4   5  -6    0.20    0.15
  -4  -5   6    0.11    0.23
  -4  -5   6    0.17    0.17
  -4  -5   6    0.28    0.19
   3   5  -6    5.73    0.46
   3   5  -6    5.29    0.64
   3   5  -6    5.23    0.76
  -3  -5   6    5.59    0.68
  -3  -5   6    6.12    0.52
  -3  -5   6    5.31    0.55
   2   5  -6   19.18    1.60
   2   5  -6   21.14    1.37
   2   5  -6   19.29    1.21
  -2  -5   6   21.61    1.31
  -2  -5   6   19.69    1.40
  -2  -5   6   20.46    1.30
   1   5  -6    4.63    0.35
   1   5  -6    4.19    0.34
   1   5  -6    4.50    0.63
   1   5  -6    4.59    0.50
  -1  -5   6    2.99    0.42
  -1  -5   6    4.50    0.57
  -1  -5   6    4.60    0.57
  -1  -5   6    5.94    0.57
  -1  -5   6    5.19    0.73
   0   5  -6    0.25    0.10
   0   5  -6    0.17    0.24
   0   5  -6    0.17    0.24
   0   5  -6    0.59    0.21
   0   5  -6    0.35    0.12
   0  -5   6    0.71    0.41
   0  -5   6    0.53    0.23
   0  -5   6   -0.07    0.18
   0  -5   6    0.42    0.25
  -1   5  -6   13.71    0.81
  -1   5  -6   13.45    0.88
  -1   5  -6   10.80    0.80
  -1   5  -6   13.24    1.06
  -1   5  -6   13.72    1.09
   1  -5   6   12.32    0.98
   1  -5   6   13.51    1.25
   1  -5   6   12.71    1.07
  -2   5  -6    2.87    0.42
  -2   5  -6    2.53    0.33
  -2   5  -6    2.76    0.47
  -2   5  -6    2.48    0.32
   2  -5   6    3.33    0.56
   2  -5   6    2.53    0.43
   2  -5   6    3.71    0.63
  -3   5  -6   24.18    1.85
  -3   5  -6   26.04    1.81
  -3   5  -6   23.59    1.58
   3  -5   6   28.05    1.96
   3  -5   6   24.43    1.69
   3  -5   6   29.34    2.14
  -4   5  -6    0.79    0.34
  -4   5  -6    0.05    0.20
   4  -5   6   -0.05    0.29
   4  -5   6    0.46    0.37
  -5   5  -6    4.88    0.60
  -5   5  -6    3.68    0.68
   5  -5   6    5.09    0.83
   5  -5   6    5.47    0.83
  -6   5  -6    0.25    0.38
  -6   5  -6    0.12    0.27
   6  -5   6    0.78    0.47
   6  -5   6    0.53    0.40
  -7   5  -6   -0.15    0.35
  -7   5  -6   -0.49    0.22
   7  -5   6    0.43    0.40
   7  -5   6    0.07    0.43
  -8   5  -6    0.51    0.38
  -8   5  -6    0.34    0.47
   8  -5   6   -0.17    0.31
   8  -5   6    0.13    0.37
  -9   5  -6   10.64    1.21
  -9   5  -6    8.74    1.27
   9  -5   6    9.15    1.42
   9  -5   6   11.70    1.36
   9   4  -6   -0.48    0.32
   9   4  -6    0.25    0.32
   9   4  -6    0.34    0.45
  -9  -4   6   -0.31    0.39
   8   4  -6    2.21    0.49
   8   4  -6    1.74    0.61
   8   4  -6    3.02    0.72
  -8  -4   6    2.64    0.53
  -8  -4   6    1.65    0.56
   7   4  -6    0.88    0.49
   7   4  -6   -0.67    0.31
   7   4  -6    0.71    0.32
  -7  -4   6    1.06    0.45
  -7  -4   6    1.21    0.36
   6   4  -6    6.75    0.93
   6   4  -6    5.10    0.63
   6   4  -6    7.13    0.85
  -6  -4   6    5.12    0.77
  -6  -4   6    6.89    0.70
   5   4  -6    0.90    0.25
   5   4  -6    0.70    0.29
   5   4  -6    0.56    0.38
  -5  -4   6    0.81    0.36
  -5  -4   6    0.67    0.25
   4   4  -6    1.37    0.37
   4   4  -6    1.16    0.43
   4   4  -6    1.43    0.27
  -4  -4   6    1.85    0.27
  -4  -4   6    1.36    0.34
  -4  -4   6    1.89    0.32
   3   4  -6    5.71    0.64
   3   4  -6    5.85    0.79
   3   4  -6    6.20    0.50
  -3  -4   6    5.82    0.70
  -3  -4   6    5.90    0.53
  -3  -4   6    6.48    0.50
   2   4  -6    2.89    0.32
   2   4  -6    3.38    0.53
   2   4  -6    2.76    0.34
   2   4  -6    3.81    0.45
  -2  -4   6    3.53    0.41
  -2  -4   6    3.51    0.38
  -2  -4   6    3.40    0.47
  -2  -4   6    2.98    0.25
   1   4  -6   20.75    1.51
   1   4  -6   19.47    1.16
   1   4  -6   19.34    1.25
   1   4  -6   19.10    1.16
  -1  -4   6   17.22    1.21
  -1  -4   6   20.34    1.42
  -1  -4   6   17.31    1.28
  -1  -4   6   19.62    1.22
   0   4  -6    0.44    0.21
   0   4  -6    0.63    0.25
   0   4  -6    0.04    0.15
   0   4  -6    0.25    0.13
   0   4  -6    0.40    0.13
   0  -4   6    0.17    0.27
   0  -4   6    0.27    0.22
   0  -4   6    0.00    0.19
   0  -4   6    0.37    0.19
  -1   4  -6    9.95    0.88
  -1   4  -6    8.61    0.67
  -1   4  -6   11.23    0.89
  -1   4  -6   11.77    0.71
  -1   4  -6   10.60    0.67
   1  -4   6    9.66    0.57
   1  -4   6   10.53    0.89
   1  -4   6   10.86    0.83
   1  -4   6   11.98    1.02
   1  -4   6   10.03    0.58
  -2   4  -6    3.40    0.49
  -2   4  -6    2.62    0.39
  -2   4  -6    3.04    0.30
  -2   4  -6    2.60    0.33
  -2   4  -6    2.72    0.31
   2  -4   6    2.75    0.48
   2  -4   6    3.46    0.58
   2  -4   6    3.25    0.43
   2  -4   6    2.71    0.23
  -3   4  -6    0.16    0.15
  -3   4  -6    0.17    0.24
  -3   4  -6    0.17    0.17
  -3   4  -6    0.11    0.14
   3  -4   6    0.11    0.20
   3  -4   6    0.44    0.30
   3  -4   6    0.32    0.23
  -4   4  -6    0.31    0.20
  -4   4  -6    0.24    0.21
  -4   4  -6    0.36    0.18
   4  -4   6    0.65    0.37
   4  -4   6    0.24    0.24
   4  -4   6    0.60    0.17
  -5   4  -6    6.32    0.72
  -5   4  -6    6.47    0.86
   5  -4   6    9.73    0.95
   5  -4   6    8.40    0.64
   5  -4   6    7.00    0.97
  -6   4  -6   -0.49    0.17
  -6   4  -6   -0.35    0.27
   6  -4   6   -0.08    0.27
   6  -4   6   -0.23    0.27
  -7   4  -6    1.52    0.42
  -7   4  -6    1.35    0.51
   7  -4   6    1.64    0.53
   7  -4   6    1.28    0.46
  -8   4  -6    0.21    0.33
  -8   4  -6    0.15    0.42
   8  -4   6    0.53    0.52
   8  -4   6    0.73    0.41
  -9   4  -6   -0.05    0.46
  -9   4  -6   -0.02    0.34
   9  -4   6    0.43    0.42
   9  -4   6   -0.17    0.31
 -10   4  -6    0.36    0.42
 -10   4  -6    0.37    0.52
  10  -4   6    0.47    0.57
   9   3  -6    3.31    0.79
   9   3  -6    3.71    0.67
   9   3  -6    2.84    0.78
  -9  -3   6    2.24    0.58
  -9  -3   6    2.27    0.55
   8   3  -6    0.91    0.53
   8   3  -6    1.26    0.43
   8   3  -6    1.43    0.50
  -8  -3   6    0.61    0.43
  -8  -3   6    1.10    0.44
   7   3  -6    0.73    0.32
   7   3  -6    0.48    0.33
   7   3  -6   -0.51    0.34
  -7  -3   6   -0.05    0.24
  -7  -3   6    0.61    0.30
   6   3  -6    1.60    0.42
   6   3  -6    0.74    0.42
   6   3  -6    1.80    0.37
  -6  -3   6    2.11    0.48
  -6  -3   6    1.49    0.37
   5   3  -6    0.07    0.31
   5   3  -6    0.53    0.24
   5   3  -6    0.51    0.32
  -5  -3   6    0.46    0.24
  -5  -3   6    0.62    0.31
  -5  -3   6    0.36    0.21
   4   3  -6    6.10    0.55
   4   3  -6    7.19    0.86
   4   3  -6    5.85    0.67
  -4  -3   6    5.81    0.61
  -4  -3   6    6.48    0.55
  -4  -3   6    6.97    0.48
  -4  -3   6    5.72    0.68
   3   3  -6   10.94    0.79
   3   3  -6   12.35    0.90
   3   3  -6   11.34    1.07
  -3  -3   6   10.97    0.90
  -3  -3   6   11.33    0.73
  -3  -3   6   11.33    0.77
  -3  -3   6   10.89    0.82
   2   3  -6    1.70    0.31
   2   3  -6    1.87    0.26
   2   3  -6    1.63    0.28
   2   3  -6    1.77    0.37
  -2  -3   6    1.95    0.25
  -2  -3   6    2.09    0.26
  -2  -3   6    1.61    0.29
  -2  -3   6    1.73    0.33
   1   3  -6    3.52    0.38
   1   3  -6    3.10    0.32
   1   3  -6    3.10    0.49
   1   3  -6    2.99    0.33
  -1  -3   6    2.81    0.41
  -1  -3   6    3.58    0.36
  -1  -3   6    3.50    0.39
   0   3  -6    9.27    0.58
   0   3  -6    8.78    0.74
   0   3  -6    7.98    0.59
   0   3  -6    7.85    0.74
   0   3  -6    8.13    0.57
   0  -3   6    8.11    0.64
   0  -3   6    7.27    0.65
   0  -3   6    8.72    0.73
  -1   3  -6   16.85    0.99
  -1   3  -6   15.63    1.19
  -1   3  -6   15.72    0.97
  -1   3  -6   14.66    0.99
  -1   3  -6   16.26    1.22
   1  -3   6   14.74    1.07
   1  -3   6   16.51    1.21
   1  -3   6   15.21    1.06
   1  -3   6   17.45    1.34
  -2   3  -6   22.85    1.48
  -2   3  -6   23.87    1.43
  -2   3  -6   26.82    1.48
  -2   3  -6   23.26    1.70
  -2   3  -6   25.41    1.75
   2  -3   6   25.03    1.77
   2  -3   6   22.89    1.57
   2  -3   6   27.31    1.91
  -3   3  -6    0.46    0.19
  -3   3  -6    0.28    0.15
  -3   3  -6    0.16    0.17
  -3   3  -6    0.25    0.16
  -3   3  -6    0.28    0.08
  -3   3  -6    0.36    0.08
   3  -3   6    0.24    0.17
   3  -3   6    0.46    0.15
   3  -3   6    0.32    0.25
   3  -3   6    0.10    0.25
  -4   3  -6    8.23    0.68
  -4   3  -6    8.21    0.52
  -4   3  -6    9.35    0.85
  -4   3  -6    8.41    0.66
  -4   3  -6    7.72    0.69
   4  -3   6    7.81    0.63
   4  -3   6    9.09    0.85
   4  -3   6    9.91    0.88
  -5   3  -6    7.99    0.74
  -5   3  -6    8.77    0.96
  -5   3  -6    7.45    0.66
   5  -3   6    9.02    1.03
   5  -3   6    9.38    0.69
   5  -3   6    9.96    0.89
  -6   3  -6   -0.12    0.28
  -6   3  -6   -0.02    0.21
   6  -3   6    0.00    0.17
   6  -3   6   -0.21    0.20
   6  -3   6   -0.04    0.24
  -7   3  -6    3.55    0.57
  -7   3  -6    2.76    0.64
   7  -3   6    3.97    0.64
   7  -3   6    3.18    0.49
   7  -3   6    2.55    0.67
  -8   3  -6    0.66    0.36
  -8   3  -6   -0.21    0.34
   8  -3   6    0.88    0.36
   8  -3   6    1.20    0.36
   8  -3   6    0.06    0.43
  -9   3  -6    2.12    0.67
  -9   3  -6    3.43    0.67
   9  -3   6    4.26    0.89
   9  -3   6    3.43    0.63
 -10   3  -6    3.02    0.80
 -10   3  -6    3.87    0.71
  10  -3   6    2.97    0.78
 -11   3  -6    1.86    0.74
  11  -3   6    2.27    0.77
   9   2  -6    1.65    0.55
   9   2  -6    0.79    0.46
   9   2  -6    2.25    0.70
  -9  -2   6    0.12    0.41
  -9  -2   6    1.32    0.53
   8   2  -6    0.01    0.38
   8   2  -6   -0.31    0.28
   8   2  -6    0.13    0.47
  -8  -2   6   -0.53    0.27
  -8  -2   6    0.58    0.41
   7   2  -6    0.71    0.35
   7   2  -6    0.51    0.34
   7   2  -6    0.37    0.39
  -7  -2   6    0.45    0.29
  -7  -2   6   -0.09    0.30
   6   2  -6    0.02    0.21
   6   2  -6    0.14    0.24
   6   2  -6    0.30    0.36
  -6  -2   6    0.21    0.25
  -6  -2   6    0.25    0.27
  -6  -2   6    0.17    0.21
   5   2  -6   19.56    1.62
   5   2  -6   17.84    1.31
   5   2  -6   20.27    1.44
  -5  -2   6   18.64    1.32
  -5  -2   6   19.95    1.33
  -5  -2   6   19.69    1.39
   4   2  -6    2.91    0.45
   4   2  -6    3.07    0.54
   4   2  -6    2.67    0.39
  -4  -2   6    3.00    0.40
  -4  -2   6    2.63    0.42
  -4  -2   6    3.26    0.45
   3   2  -6   40.49    2.57
   3   2  -6   40.78    2.53
   3   2  -6   46.55    3.09
   3   2  -6   41.02    2.62
   3   2  -6   42.19    2.68
  -3  -2   6   45.34    2.54
  -3  -2   6   43.76    2.62
  -3  -2   6   42.69    2.56
  -3  -2   6   45.96    2.41
   2   2  -6    0.74    0.21
   2   2  -6    0.73    0.25
   2   2  -6    0.83    0.18
   2   2  -6    0.75    0.23
  -2  -2   6    0.82    0.19
  -2  -2   6    0.83    0.14
  -2  -2   6    0.84    0.22
  -2  -2   6    0.87    0.26
   1   2  -6    1.86    0.34
   1   2  -6    1.84    0.26
   1   2  -6    1.85    0.27
   1   2  -6    1.32    0.22
  -1  -2   6    1.49    0.22
  -1  -2   6    1.12    0.27
  -1  -2   6    1.57    0.26
   0   2  -6    6.15    0.48
   0   2  -6    7.12    0.66
   0   2  -6    6.50    0.49
   0   2  -6    7.02    0.50
   0  -2   6    7.21    0.54
   0  -2   6    6.09    0.47
   0  -2   6    7.26    0.63
   0  -2   6    6.98    0.58
  -1   2  -6    2.37    0.39
  -1   2  -6    2.97    0.25
  -1   2  -6    2.50    0.30
  -1   2  -6    2.96    0.42
  -1   2  -6    3.21    0.32
   1  -2   6    2.72    0.29
   1  -2   6    2.63    0.39
   1  -2   6    3.16    0.40
   1  -2   6    2.63    0.35
  -2   2  -6    5.40    0.41
  -2   2  -6    4.58    0.31
  -2   2  -6    4.30    0.55
  -2   2  -6    4.00    0.43
  -2   2  -6    4.97    0.50
   2  -2   6    5.71    0.57
   2  -2   6    5.54    0.41
   2  -2   6    4.60    0.51
   2  -2   6    5.49    0.54
   2  -2   6    5.38    0.55
  -3   2  -6    4.28    0.39
  -3   2  -6    4.21    0.46
  -3   2  -6    4.76    0.46
  -3   2  -6    4.48    0.56
   3  -2   6    4.17    0.39
   3  -2   6    4.74    0.59
   3  -2   6    4.07    0.50
   3  -2   6    4.86    0.60
  -4   2  -6   31.11    1.82
  -4   2  -6   27.79    2.04
  -4   2  -6   27.66    1.83
  -4   2  -6   26.26    2.03
   4  -2   6   32.04    2.20
   4  -2   6   31.88    2.15
   4  -2   6   32.59    2.05
   4  -2   6   28.84    1.80
  -5   2  -6    4.81    0.68
  -5   2  -6    4.87    0.32
  -5   2  -6    4.74    0.57
  -5   2  -6    4.36    0.46
   5  -2   6    4.66    0.67
   5  -2   6    4.79    0.63
   5  -2   6    5.47    0.45
   5  -2   6    4.81    0.53
  -6   2  -6    2.22    0.52
  -6   2  -6    2.62    0.46
   6  -2   6    2.70    0.49
   6  -2   6    2.00    0.51
   6  -2   6    2.56    0.30
   6  -2   6    2.31    0.38
  -7   2  -6    0.14    0.26
  -7   2  -6    0.70    0.41
   7  -2   6    0.18    0.18
   7  -2   6    0.29    0.26
   7  -2   6    0.08    0.33
  -8   2  -6    1.88    0.57
  -8   2  -6    2.88    0.54
   8  -2   6    2.72    0.52
   8  -2   6    3.00    0.52
   8  -2   6    3.19    0.70
  -9   2  -6   -0.48    0.24
  -9   2  -6   -0.12    0.27
   9  -2   6   -0.16    0.26
   9  -2   6    0.62    0.33
 -10   2  -6   -0.07    0.32
 -10   2  -6    0.01    0.35
  10  -2   6    0.13    0.49
  10  -2   6    0.71    0.40
 -11   2  -6    0.29    0.36
  11  -2   6   -0.36    0.49
   9   1  -6    0.71    0.53
   9   1  -6    0.99    0.49
   9   1  -6    0.49    0.42
  -9  -1   6    0.14    0.47
  -9  -1   6    1.74    0.52
   8   1  -6    7.42    1.03
   8   1  -6    8.10    0.95
   8   1  -6    8.40    1.09
  -8  -1   6    7.22    0.95
  -8  -1   6    6.47    0.88
   7   1  -6   -0.27    0.34
   7   1  -6   -0.23    0.25
   7   1  -6    0.31    0.36
  -7  -1   6    0.03    0.28
  -7  -1   6   -0.28    0.28
  -7  -1   6   -0.50    0.26
   6   1  -6    6.69    0.90
   6   1  -6    7.78    0.81
   6   1  -6    8.33    0.90
  -6  -1   6    6.84    0.82
  -6  -1   6    7.45    0.85
  -6  -1   6    8.27    0.86
   5   1  -6   11.58    1.11
   5   1  -6   10.18    0.87
   5   1  -6   11.74    0.97
  -5  -1   6   12.23    0.95
  -5  -1   6   11.60    0.93
  -5  -1   6   11.39    0.94
   4   1  -6    9.13    0.81
   4   1  -6    9.81    0.97
   4   1  -6   10.00    0.79
  -4  -1   6    9.73    0.81
  -4  -1   6   10.98    0.84
  -4  -1   6   10.11    0.80
   3   1  -6   35.22    2.27
   3   1  -6   37.66    2.22
   3   1  -6   37.67    2.65
  -3  -1   6   36.40    2.22
  -3  -1   6   37.48    2.26
  -3  -1   6   36.87    2.24
   2   1  -6    6.21    0.57
   2   1  -6    7.02    0.68
   2   1  -6    6.35    0.53
   2   1  -6    7.15    0.57
  -2  -1   6    6.61    0.54
  -2  -1   6    6.63    0.56
  -2  -1   6    6.80    0.57
   1   1  -6   26.76    1.67
   1   1  -6   27.29    2.01
   1   1  -6   28.31    1.70
   1   1  -6   28.69    1.71
  -1  -1   6   29.17    1.72
  -1  -1   6   28.38    1.68
  -1  -1   6   28.57    1.73
   0   1  -6    4.08    0.37
   0   1  -6    3.81    0.50
   0   1  -6    4.21    0.36
   0   1  -6    4.65    0.38
   0  -1   6    4.76    0.37
   0  -1   6    4.72    0.48
   0  -1   6    4.44    0.45
   0  -1   6    5.02    0.43
   0  -1   6    4.11    0.34
  -1   1  -6   26.28    1.49
  -1   1  -6   24.83    1.77
  -1   1  -6   25.07    1.49
  -1   1  -6   23.83    1.44
  -1   1  -6   24.79    1.67
   1  -1   6   25.95    1.54
   1  -1   6   23.76    1.47
   1  -1   6   25.01    1.72
   1  -1   6   24.06    1.52
  -2   1  -6   28.27    1.61
  -2   1  -6   28.96    2.01
  -2   1  -6   28.73    1.92
  -2   1  -6   30.94    1.72
  -2   1  -6   26.47    1.71
   2  -1   6   30.89    1.99
   2  -1   6   27.78    1.70
   2  -1   6   29.50    1.77
   2  -1   6   28.78    1.76
  -3   1  -6   16.77    1.25
  -3   1  -6   17.62    1.28
  -3   1  -6   16.10    1.11
  -3   1  -6   19.50    1.12
   3  -1   6   15.75    1.14
   3  -1   6   17.30    1.29
   3  -1   6   16.26    1.09
   3  -1   6   19.04    1.16
  -4   1  -6   46.57    2.64
  -4   1  -6   40.36    2.63
  -4   1  -6   43.68    3.01
  -4   1  -6   40.62    2.89
   4  -1   6   50.72    3.02
   4  -1   6   42.87    2.62
   4  -1   6   44.79    3.02
   4  -1   6   48.12    3.12
  -5   1  -6    0.15    0.15
  -5   1  -6    0.01    0.12
  -5   1  -6    0.06    0.23
   5  -1   6    0.13    0.23
   5  -1   6    0.03    0.17
   5  -1   6    0.05    0.12
   5  -1   6    0.12    0.13
  -6   1  -6    3.61    0.52
  -6   1  -6    3.84    0.60
  -6   1  -6    3.89    0.30
   6  -1   6    3.74    0.39
   6  -1   6    3.90    0.54
   6  -1   6    3.98    0.62
   6  -1   6    3.89    0.51
  -7   1  -6    0.84    0.35
  -7   1  -6    0.56    0.39
   7  -1   6    1.91    0.39
   7  -1   6    1.60    0.24
   7  -1   6    1.80    0.36
   7  -1   6    1.16    0.44
  -8   1  -6    0.23    0.30
  -8   1  -6    1.07    0.39
   8  -1   6    1.07    0.33
   8  -1   6    1.31    0.48
   8  -1   6    1.08    0.23
  -9   1  -6   -0.67    0.25
  -9   1  -6   -0.37    0.34
   9  -1   6   -0.12    0.36
   9  -1   6   -0.01    0.28
   9  -1   6    0.31    0.20
 -10   1  -6    0.03    0.28
 -10   1  -6    0.07    0.45
  10  -1   6   -0.28    0.37
  10  -1   6   -0.32    0.27
 -11   1  -6   -0.03    0.36
 -11   1  -6   -0.11    0.36
  11  -1   6    0.31    0.39
  11  -1   6   -0.31    0.39
 -12   1  -6    0.24    0.58
 -12   1  -6    0.19    0.48
  12  -1   6   -0.21    0.48
   9   0  -6    0.59    0.47
   9   0  -6   -0.07    0.41
   9   0  -6    0.47    0.40
  -9   0   6    0.26    0.50
  -9   0   6    0.14    0.38
   8   0  -6    2.15    0.57
   8   0  -6    1.96    0.54
   8   0  -6    2.18    0.54
  -8   0   6    1.66    0.58
  -8   0   6    1.75    0.50
  -8   0   6    1.69    0.47
   7   0  -6    0.56    0.37
   7   0  -6    2.81    0.55
   7   0  -6    2.95    0.59
  -7   0   6    1.17    0.39
  -7   0   6    2.19    0.54
  -7   0   6    1.49    0.45
   6   0  -6    1.99    0.51
   6   0  -6    2.01    0.42
   6   0  -6    2.01    0.47
  -6   0   6    2.09    0.50
  -6   0   6    1.82    0.41
  -6   0   6    2.10    0.43
   5   0  -6   10.94    1.02
   5   0  -6   10.86    0.90
   5   0  -6   10.03    0.91
  -5   0   6   10.77    0.90
  -5   0   6   10.55    0.91
  -5   0   6   11.47    0.88
  -5   0   6   10.44    0.79
   4   0  -6   13.65    1.18
   4   0  -6   13.74    1.06
   4   0  -6   13.91    1.00
  -4   0   6   13.48    0.99
  -4   0   6   13.36    1.02
  -4   0   6   11.75    0.97
  -4   0   6   13.54    0.95
   3   0  -6    5.53    0.61
   3   0  -6    6.19    0.66
   3   0  -6    6.59    0.55
  -3   0   6    5.59    0.60
  -3   0   6    6.08    0.53
  -3   0   6    7.06    0.58
  -3   0   6    6.11    0.55
   2   0  -6    6.84    0.58
   2   0  -6    7.50    0.63
   2   0  -6    8.33    0.76
  -2   0   6    6.81    0.59
  -2   0   6    7.27    0.59
  -2   0   6    7.81    0.62
  -2   0   6    9.10    0.64
   1   0  -6    2.24    0.31
   1   0  -6    2.14    0.30
   1   0  -6    1.99    0.29
   1   0  -6    2.36    0.38
  -1   0   6    2.01    0.30
  -1   0   6    1.67    0.29
  -1   0   6    2.46    0.33
  -1   0   6    2.03    0.29
   0   0  -6   57.63    3.31
   0   0  -6   56.89    3.87
   0   0  -6   58.66    3.29
   0   0  -6   59.56    3.30
   0   0   6   56.70    3.30
   0   0   6   59.24    3.29
   0   0   6   56.87    3.30
   0   0   6   56.57    3.30
  -1   0  -6   12.09    0.80
  -1   0  -6   13.04    1.02
  -1   0  -6   14.14    0.97
  -1   0  -6   13.32    0.85
  -1   0  -6   12.85    0.85
   1   0   6   12.74    0.88
   1   0   6   12.96    0.85
   1   0   6   13.80    0.88
   1   0   6   12.94    0.98
   1   0   6   12.88    0.80
  -2   0  -6    9.40    0.80
  -2   0  -6    9.64    0.76
  -2   0  -6    9.50    0.67
  -2   0  -6   10.82    0.68
   2   0   6    9.98    0.77
   2   0   6    8.88    0.56
   2   0   6   10.44    0.70
   2   0   6    8.69    0.65
   2   0   6    9.41    0.70
  -3   0  -6   13.03    1.03
  -3   0  -6   12.92    1.06
  -3   0  -6   12.70    0.91
  -3   0  -6   14.79    0.93
   3   0   6   15.78    1.08
   3   0   6   14.08    0.96
   3   0   6   13.81    0.91
  -4   0  -6    3.67    0.46
  -4   0  -6    3.57    0.49
  -4   0  -6    4.10    0.44
  -4   0  -6    3.57    0.43
   4   0   6    3.82    0.43
   4   0   6    3.70    0.49
  -5   0  -6    0.10    0.16
  -5   0  -6    0.38    0.18
  -5   0  -6    0.21    0.23
   5   0   6    0.12    0.18
   5   0   6    0.38    0.22
  -6   0  -6    5.54    0.66
  -6   0  -6    5.31    0.74
   6   0   6    6.13    0.77
   6   0   6    6.38    0.43
   6   0   6    5.76    0.63
  -7   0  -6   12.73    1.08
  -7   0  -6   15.24    1.28
   7   0   6   14.28    0.90
   7   0   6   14.93    1.26
   7   0   6   12.36    1.02
  -8   0  -6    1.55    0.43
  -8   0  -6    1.48    0.52
   8   0   6    2.26    0.31
   8   0   6    1.57    0.38
   8   0   6    1.59    0.50
  -9   0  -6    0.26    0.33
  -9   0  -6   -0.06    0.36
   9   0   6   -0.04    0.17
   9   0   6    0.34    0.31
   9   0   6   -0.29    0.32
 -10   0  -6    1.16    0.48
 -10   0  -6    0.59    0.52
  10   0   6    1.06    0.37
  10   0   6    0.75    0.48
  10   0   6    0.47    0.26
 -11   0  -6    5.16    0.97
 -11   0  -6    5.72    0.91
  11   0   6    5.06    0.81
  11   0   6    7.31    1.13
 -12   0  -6    3.02    0.66
 -12   0  -6    2.87    0.86
  12   0   6    3.25    0.81
  12   0   6    2.75    0.68
   8  -1  -6    0.43    0.49
   8  -1  -6    0.26    0.40
   8  -1  -6    1.18    0.49
  -8   1   6    0.37    0.46
  -8   1   6    1.26    0.52
  -8   1   6    1.03    0.43
   7  -1  -6    9.39    1.12
   7  -1  -6    9.52    1.03
   7  -1  -6    7.98    1.03
  -7   1   6    9.45    0.96
  -7   1   6    9.62    1.07
  -7   1   6    8.87    1.04
   6  -1  -6    0.31    0.31
   6  -1  -6    0.28    0.30
   6  -1  -6    0.15    0.32
  -6   1   6    0.11    0.31
  -6   1   6    0.16    0.31
  -6   1   6    0.57    0.30
   5  -1  -6   10.19    0.92
   5  -1  -6    9.75    0.96
   5  -1  -6   13.36    1.14
  -5   1   6   13.14    1.01
  -5   1   6   12.69    0.92
  -5   1   6   11.94    1.01
  -5   1   6   12.45    0.93
   4  -1  -6    1.78    0.37
   4  -1  -6    1.75    0.41
   4  -1  -6    2.36    0.47
  -4   1   6    2.09    0.35
  -4   1   6    2.38    0.43
  -4   1   6    2.82    0.46
  -4   1   6    3.02    0.41
   3  -1  -6   29.48    1.86
   3  -1  -6   26.92    2.14
   3  -1  -6   28.01    1.90
  -3   1   6   31.61    1.84
  -3   1   6   30.52    1.93
  -3   1   6   31.72    1.90
  -3   1   6   30.20    1.88
   2  -1  -6    2.50    0.35
   2  -1  -6    2.69    0.37
   2  -1  -6    2.26    0.40
  -2   1   6    2.15    0.35
  -2   1   6    2.62    0.38
  -2   1   6    3.16    0.37
  -2   1   6    2.80    0.37
   1  -1  -6   32.66    2.34
   1  -1  -6   31.77    1.98
   1  -1  -6   32.23    2.01
  -1   1   6   32.79    1.99
  -1   1   6   33.71    2.12
  -1   1   6   34.84    1.98
  -1   1   6   34.92    2.02
   0  -1  -6    3.15    0.34
   0  -1  -6    3.23    0.36
   0  -1  -6    2.62    0.33
   0  -1  -6    3.12    0.43
   0   1   6    3.59    0.37
   0   1   6    3.13    0.36
   0   1   6    2.62    0.34
   0   1   6    2.70    0.33
   0   1   6    3.20    0.34
  -1  -1  -6   52.46    2.92
  -1  -1  -6   49.65    2.90
  -1  -1  -6   52.04    2.92
  -1  -1  -6   48.30    3.41
  -1  -1  -6   49.13    3.15
   1   1   6   51.13    2.92
   1   1   6   50.29    2.91
   1   1   6   50.54    3.13
   1   1   6   51.89    2.91
   1   1   6   51.97    2.91
  -2  -1  -6   14.25    1.03
  -2  -1  -6   16.72    1.14
  -2  -1  -6   17.43    1.05
  -2  -1  -6   16.56    1.24
   2   1   6   14.84    1.04
   2   1   6   17.67    0.98
   2   1   6   16.72    1.05
   2   1   6   16.72    1.18
   2   1   6   15.08    1.03
  -3  -1  -6   52.01    3.71
  -3  -1  -6   52.89    3.46
  -3  -1  -6   51.28    3.18
  -3  -1  -6   61.28    3.20
   3   1   6   59.49    3.10
   3   1   6   54.27    3.17
   3   1   6   58.01    3.59
   3   1   6   52.80    3.19
  -4  -1  -6    1.00    0.26
  -4  -1  -6    1.39    0.29
  -4  -1  -6    0.82    0.23
   4   1   6    0.79    0.22
   4   1   6    1.00    0.25
   4   1   6    0.95    0.09
  -5  -1  -6    2.11    0.36
  -5  -1  -6    3.02    0.46
  -5  -1  -6    2.17    0.37
   5   1   6    2.85    0.40
   5   1   6    2.64    0.40
   5   1   6    2.63    0.20
  -6  -1  -6    0.31    0.19
  -6  -1  -6    0.32    0.23
   6   1   6    0.65    0.12
   6   1   6    0.27    0.18
   6   1   6    0.17    0.18
  -7  -1  -6    0.70    0.40
  -7  -1  -6    1.05    0.31
   7   1   6    1.01    0.29
   7   1   6    0.88    0.18
   7   1   6    0.69    0.34
  -8  -1  -6    2.69    0.53
  -8  -1  -6    2.33    0.58
   8   1   6    2.74    0.49
   8   1   6    2.53    0.34
   8   1   6    3.03    0.56
  -9  -1  -6    0.23    0.42
  -9  -1  -6    0.80    0.35
   9   1   6    0.98    0.39
   9   1   6    1.35    0.38
   9   1   6    1.29    0.27
 -10  -1  -6   -0.22    0.29
 -10  -1  -6   -0.14    0.28
  10   1   6    0.24    0.23
  10   1   6   -0.25    0.26
  10   1   6   -0.13    0.30
 -11  -1  -6    1.78    0.70
 -11  -1  -6    1.58    0.54
  11   1   6    1.15    0.55
  11   1   6    0.54    0.42
  11   1   6    0.80    0.34
 -12  -1  -6    0.67    0.50
 -12  -1  -6    0.07    0.45
  12   1   6   -0.01    0.41
  12   1   6   -0.31    0.35
   8  -2  -6   -0.12    0.34
   8  -2  -6    0.27    0.45
  -8   2   6    0.06    0.42
  -8   2   6   -0.09    0.44
   7  -2  -6    1.83    0.49
   7  -2  -6    1.93    0.52
   7  -2  -6    0.92    0.42
  -7   2   6    0.82    0.44
  -7   2   6    0.97    0.49
   6  -2  -6   -0.01    0.34
   6  -2  -6    0.41    0.31
   6  -2  -6   -0.19    0.25
  -6   2   6   -0.16    0.31
  -6   2   6    0.32    0.36
  -6   2   6    0.50    0.28
  -6   2   6    0.53    0.29
   5  -2  -6   -0.10    0.20
   5  -2  -6    0.34    0.27
   5  -2  -6    0.26    0.29
  -5   2   6    0.25    0.23
  -5   2   6    0.26    0.24
  -5   2   6   -0.02    0.20
  -5   2   6    0.23    0.24
   4  -2  -6   -0.41    0.19
   4  -2  -6    0.38    0.25
   4  -2  -6    0.02    0.20
  -4   2   6    0.07    0.26
  -4   2   6    0.50    0.23
  -4   2   6    0.24    0.21
  -4   2   6   -0.28    0.20
   3  -2  -6    0.25    0.18
   3  -2  -6    0.34    0.21
   3  -2  -6    0.23    0.26
  -3   2   6    0.43    0.23
  -3   2   6    0.16    0.18
  -3   2   6    0.26    0.18
  -3   2   6   -0.05    0.23
   2  -2  -6    0.08    0.21
   2  -2  -6   -0.01    0.11
   2  -2  -6   -0.10    0.12
  -2   2   6    0.26    0.21
  -2   2   6   -0.09    0.11
  -2   2   6    0.18    0.17
  -2   2   6   -0.03    0.17
   1  -2  -6   18.51    1.17
   1  -2  -6   17.23    1.37
   1  -2  -6   16.09    1.18
  -1   2   6   18.04    1.19
  -1   2   6   19.59    1.27
  -1   2   6   18.69    1.12
  -1   2   6   17.41    1.19
   0  -2  -6    0.20    0.12
   0  -2  -6    0.42    0.06
   0  -2  -6    0.27    0.14
   0  -2  -6    0.56    0.20
   0   2   6    0.50    0.18
   0   2   6    0.55    0.19
   0   2   6    0.32    0.15
  -1  -2  -6    1.93    0.34
  -1  -2  -6    1.99    0.20
  -1  -2  -6    2.56    0.31
  -1  -2  -6    1.86    0.28
   1   2   6    2.10    0.30
   1   2   6    2.38    0.30
   1   2   6    2.16    0.33
   1   2   6    2.72    0.30
  -2  -2  -6    1.87    0.27
  -2  -2  -6    2.12    0.37
  -2  -2  -6    1.77    0.28
   2   2   6    1.92    0.31
   2   2   6    2.16    0.31
   2   2   6    1.62    0.25
   2   2   6    1.68    0.27
   2   2   6    2.13    0.24
  -3  -2  -6    0.02    0.10
  -3  -2  -6    0.21    0.19
  -3  -2  -6    0.19    0.12
   3   2   6   -0.03    0.13
   3   2   6    0.32    0.15
   3   2   6    0.19    0.14
   3   2   6    0.09    0.08
   3   2   6    0.32    0.16
  -4  -2  -6   18.17    1.20
  -4  -2  -6   17.71    1.31
  -4  -2  -6   16.83    1.39
   4   2   6   17.32    1.18
   4   2   6   20.51    1.21
   4   2   6   19.54    1.32
  -5  -2  -6    8.65    0.69
  -5  -2  -6    8.98    0.79
  -5  -2  -6    7.19    0.73
   5   2   6    8.59    0.72
   5   2   6    8.26    0.54
  -6  -2  -6    9.87    0.81
  -6  -2  -6   10.18    0.94
   6   2   6    9.88    0.85
   6   2   6   10.63    0.80
   6   2   6    9.81    0.66
  -7  -2  -6    1.51    0.39
  -7  -2  -6    1.08    0.37
   7   2   6    1.96    0.27
   7   2   6    2.58    0.41
   7   2   6    2.31    0.41
  -8  -2  -6   30.71    2.13
  -8  -2  -6   24.06    1.84
   8   2   6   27.59    1.70
   8   2   6   27.60    1.86
   8   2   6   29.25    2.06
  -9  -2  -6    0.98    0.40
  -9  -2  -6    1.03    0.48
   9   2   6    0.88    0.39
   9   2   6    1.67    0.31
   9   2   6    0.51    0.28
 -10  -2  -6   -0.11    0.27
 -10  -2  -6   -0.26    0.28
  10   2   6    0.03    0.29
  10   2   6    0.02    0.22
  10   2   6    0.24    0.25
 -11  -2  -6    0.26    0.30
 -11  -2  -6    0.80    0.61
  11   2   6    0.67    0.31
  11   2   6    0.70    0.43
  11   2   6    0.02    0.35
 -12  -2  -6    0.37    0.59
 -12  -2  -6    0.22    0.46
  12   2   6   -0.19    0.37
  12   2   6   -0.05    0.36
  12   2   6    0.08    0.30
 -13  -2  -6    0.25    0.39
  13   2   6    0.27    0.42
  13   2   6   -0.11    0.33
   8  -3  -6    3.41    0.79
   8  -3  -6    5.32    0.86
  -8   3   6    4.58    0.87
  -8   3   6    6.15    0.91
   7  -3  -6    0.18    0.36
   7  -3  -6    0.81    0.46
   7  -3  -6    0.14    0.37
  -7   3   6    0.29    0.34
  -7   3   6    0.34    0.42
   6  -3  -6    0.89    0.36
   6  -3  -6    1.30    0.42
   6  -3  -6    0.66    0.37
  -6   3   6    1.27    0.43
  -6   3   6    1.38    0.43
  -6   3   6    0.41    0.32
   5  -3  -6    7.62    0.89
   5  -3  -6    6.17    0.81
   5  -3  -6    6.93    0.80
  -5   3   6    6.77    0.79
  -5   3   6    7.32    0.87
  -5   3   6    5.83    0.78
   4  -3  -6   11.15    1.06
   4  -3  -6    9.72    0.94
   4  -3  -6   11.15    0.95
  -4   3   6   11.67    0.98
  -4   3   6   13.41    1.03
  -4   3   6   12.24    0.85
  -4   3   6   12.39    0.99
   3  -3  -6   87.20    5.00
   3  -3  -6   85.72    5.81
   3  -3  -6   80.59    5.10
  -3   3   6   91.65    4.89
  -3   3   6   95.07    5.37
  -3   3   6   83.44    5.02
  -3   3   6   83.28    5.00
   2  -3  -6    0.98    0.32
   2  -3  -6   -0.40    0.17
   2  -3  -6   -0.09    0.15
  -2   3   6    0.05    0.15
  -2   3   6    0.10    0.20
  -2   3   6    0.01    0.21
   1  -3  -6   11.87    0.88
   1  -3  -6   12.85    1.05
   1  -3  -6   11.50    0.85
  -1   3   6   13.12    0.96
  -1   3   6   11.63    0.86
  -1   3   6   11.47    0.88
   0  -3  -6    7.50    0.73
   0  -3  -6    7.85    0.49
   0  -3  -6    8.66    0.61
   0  -3  -6    6.45    0.58
   0   3   6    8.21    0.63
   0   3   6    8.14    0.63
   0   3   6    7.67    0.68
  -1  -3  -6   10.52    0.65
  -1  -3  -6   10.52    0.76
  -1  -3  -6   10.46    0.92
  -1  -3  -6   10.59    0.75
   1   3   6   10.04    0.73
   1   3   6   10.51    0.82
   1   3   6   10.67    0.75
  -2  -3  -6    2.00    0.37
  -2  -3  -6    3.14    0.36
  -2  -3  -6    2.89    0.29
  -2  -3  -6    2.75    0.35
   2   3   6    2.93    0.35
   2   3   6    2.64    0.33
   2   3   6    2.34    0.35
   2   3   6    3.05    0.33
  -3  -3  -6    0.40    0.18
  -3  -3  -6    0.36    0.20
  -3  -3  -6    0.69    0.17
   3   3   6    0.34    0.16
   3   3   6    0.41    0.14
   3   3   6    0.13    0.10
   3   3   6    0.21    0.18
  -4  -3  -6    0.21    0.17
  -4  -3  -6    0.09    0.16
  -4  -3  -6   -0.06    0.10
   4   3   6    0.09    0.12
   4   3   6    0.20    0.16
   4   3   6   -0.15    0.11
   4   3   6    0.22    0.13
  -5  -3  -6    0.24    0.15
  -5  -3  -6   -0.12    0.18
   5   3   6    0.12    0.15
   5   3   6    0.29    0.15
   5   3   6   -0.10    0.09
   5   3   6    0.08    0.11
  -6  -3  -6   14.35    1.05
  -6  -3  -6   12.74    1.12
   6   3   6   13.91    1.07
   6   3   6   13.78    1.01
   6   3   6   14.41    0.90
  -7  -3  -6    3.09    0.47
  -7  -3  -6    2.20    0.47
   7   3   6    2.76    0.34
   7   3   6    2.97    0.45
   7   3   6    3.62    0.51
  -8  -3  -6   57.88    3.52
  -8  -3  -6   58.53    3.87
   8   3   6   59.80    3.38
   8   3   6   55.92    3.83
   8   3   6   56.05    3.48
  -9  -3  -6   -0.25    0.21
  -9  -3  -6   -0.19    0.17
   9   3   6   -0.15    0.18
   9   3   6   -0.24    0.16
   9   3   6    0.15    0.27
 -10  -3  -6    2.09    0.50
 -10  -3  -6    2.31    0.66
  10   3   6    2.34    0.40
  10   3   6    2.52    0.54
  10   3   6    2.20    0.53
 -11  -3  -6    0.63    0.34
 -11  -3  -6    1.22    0.57
  11   3   6    0.46    0.31
  11   3   6    0.88    0.46
  11   3   6    0.57    0.40
 -12  -3  -6    1.92    0.63
  12   3   6    2.78    0.54
  12   3   6    2.32    0.58
  12   3   6    3.13    0.72
 -13  -3  -6   -0.01    0.33
  13   3   6   -0.57    0.40
  13   3   6    0.16    0.42
   7  -4  -6    1.81    0.53
   7  -4  -6    2.90    0.64
  -7   4   6    2.32    0.59
  -7   4   6    2.83    0.70
   6  -4  -6   -0.07    0.32
   6  -4  -6    0.20    0.34
   6  -4  -6   -0.17    0.31
  -6   4   6    0.12    0.35
  -6   4   6    0.04    0.29
  -6   4   6    0.59    0.41
   5  -4  -6    1.67    0.43
   5  -4  -6    1.12    0.35
   5  -4  -6    0.59    0.39
  -5   4   6    0.55    0.32
  -5   4   6    1.67    0.49
  -5   4   6    1.28    0.42
   4  -4  -6    1.23    0.37
   4  -4  -6    0.46    0.30
   4  -4  -6    1.10    0.35
  -4   4   6    0.62    0.35
  -4   4   6    0.47    0.35
  -4   4   6    1.07    0.40
   3  -4  -6    1.43    0.34
   3  -4  -6    1.12    0.38
  -3   4   6    1.17    0.38
  -3   4   6    1.48    0.38
  -3   4   6    1.76    0.41
   2  -4  -6    7.82    0.67
   2  -4  -6    7.48    0.79
   2  -4  -6    7.23    0.77
  -2   4   6    6.41    0.71
  -2   4   6    8.71    0.79
  -2   4   6    6.18    0.69
   1  -4  -6    1.09    0.32
   1  -4  -6    2.12    0.32
  -1   4   6    2.03    0.40
  -1   4   6    1.74    0.31
  -1   4   6    2.12    0.37
   0  -4  -6   33.05    1.97
   0  -4  -6   31.59    2.02
   0  -4  -6   28.86    2.30
   0  -4  -6   32.73    1.85
   0   4   6   34.73    1.98
   0   4   6   34.88    2.17
   0   4   6   31.41    1.98
  -1  -4  -6   19.53    1.17
  -1  -4  -6   18.87    1.27
  -1  -4  -6   19.57    1.52
  -1  -4  -6   20.78    1.27
   1   4   6   19.90    1.25
   1   4   6   20.95    1.40
   1   4   6   17.76    1.25
  -2  -4  -6    4.14    0.39
  -2  -4  -6    5.05    0.50
  -2  -4  -6    5.15    0.37
  -2  -4  -6    4.51    0.59
   2   4   6    4.07    0.43
   2   4   6    3.63    0.44
   2   4   6    3.87    0.48
  -3  -4  -6    0.00    0.14
  -3  -4  -6   -0.05    0.09
  -3  -4  -6    0.07    0.14
  -3  -4  -6    0.15    0.14
   3   4   6    0.05    0.10
   3   4   6   -0.03    0.16
   3   4   6   -0.10    0.10
   3   4   6    0.05    0.11
  -4  -4  -6   37.07    2.21
  -4  -4  -6   34.19    2.35
  -4  -4  -6   30.77    2.56
   4   4   6   39.21    2.39
   4   4   6   35.62    2.15
   4   4   6   37.44    2.19
   4   4   6   40.02    2.35
  -5  -4  -6    0.60    0.27
  -5  -4  -6    0.37    0.18
   5   4   6    0.53    0.17
   5   4   6    0.69    0.20
   5   4   6    0.72    0.18
   5   4   6    0.61    0.21
  -6  -4  -6    1.11    0.36
  -6  -4  -6    1.72    0.32
   6   4   6    1.74    0.32
   6   4   6    1.84    0.29
   6   4   6    1.18    0.23
  -7  -4  -6   11.70    1.10
  -7  -4  -6   11.43    0.99
   7   4   6   13.73    1.00
   7   4   6   12.64    0.88
   7   4   6   12.49    0.98
  -8  -4  -6    3.23    0.64
  -8  -4  -6    3.07    0.55
   8   4   6    3.89    0.56
   8   4   6    3.19    0.43
   8   4   6    3.85    0.53
  -9  -4  -6    8.08    0.91
  -9  -4  -6    7.05    1.00
   9   4   6    7.84    0.86
   9   4   6    7.76    0.67
   9   4   6    7.76    0.79
 -10  -4  -6    2.06    0.50
 -10  -4  -6    1.19    0.51
  10   4   6    1.19    0.39
  10   4   6    1.59    0.36
  10   4   6    1.57    0.41
 -11  -4  -6    0.04    0.28
 -11  -4  -6    0.69    0.49
  11   4   6    0.17    0.32
  11   4   6    0.13    0.29
  11   4   6    0.01    0.27
 -12  -4  -6    1.92    0.62
  12   4   6    2.46    0.64
  12   4   6    1.51    0.53
  12   4   6    1.16    0.44
 -13  -4  -6   -0.43    0.44
  13   4   6    0.34    0.36
  13   4   6    0.00    0.28
  13   4   6   -0.35    0.33
   7  -5  -6    0.37    0.43
  -7   5   6    1.93    0.57
  -7   5   6    0.90    0.52
   6  -5  -6   -0.10    0.33
  -6   5   6   -0.51    0.33
  -6   5   6   -0.47    0.23
  -6   5   6   -0.14    0.28
   5  -5  -6    2.11    0.49
   5  -5  -6    2.43    0.49
  -5   5   6    2.30    0.59
  -5   5   6    2.63    0.60
  -5   5   6    2.12    0.50
   4  -5  -6    4.51    0.70
   4  -5  -6    5.76    0.70
  -4   5   6    8.74    0.93
  -4   5   6    4.97    0.72
  -4   5   6    5.10    0.72
   3  -5  -6   23.10    1.92
   3  -5  -6   25.62    1.70
  -3   5   6   25.56    1.77
  -3   5   6   28.59    1.93
  -3   5   6   25.32    1.75
   2  -5  -6   24.16    1.96
   2  -5  -6   25.54    1.71
  -2   5   6   25.22    1.74
  -2   5   6   27.44    1.77
  -2   5   6   30.40    1.96
   1  -5  -6    3.73    0.37
   1  -5  -6    4.42    0.35
   1  -5  -6    4.36    0.62
   1  -5  -6    3.58    0.48
   1  -5  -6    4.13    0.41
  -1   5   6    5.25    0.63
  -1   5   6    4.36    0.55
  -1   5   6    4.20    0.53
   0  -5  -6    2.79    0.48
   0  -5  -6    2.42    0.36
   0  -5  -6    3.19    0.28
   0  -5  -6    3.89    0.36
   0   5   6    3.26    0.41
   0   5   6    2.71    0.46
   0   5   6    3.34    0.44
  -1  -5  -6   25.12    1.58
  -1  -5  -6   24.27    1.50
  -1  -5  -6   22.32    1.87
  -1  -5  -6   25.52    1.58
   1   5   6   25.58    1.59
   1   5   6   27.34    1.57
   1   5   6   26.06    1.76
  -2  -5  -6    1.33    0.22
  -2  -5  -6    1.38    0.23
  -2  -5  -6    0.96    0.28
  -2  -5  -6    1.21    0.27
   2   5   6    1.10    0.23
   2   5   6    1.46    0.33
   2   5   6    1.18    0.25
  -3  -5  -6    5.08    0.75
  -3  -5  -6    8.19    0.60
  -3  -5  -6    7.77    0.63
  -3  -5  -6    7.43    0.62
   3   5   6    7.45    0.58
   3   5   6    7.41    0.67
   3   5   6   10.19    0.62
   3   5   6    8.08    0.63
  -4  -5  -6    0.83    0.24
  -4  -5  -6    0.76    0.20
  -4  -5  -6    1.14    0.27
   4   5   6    0.26    0.15
   4   5   6    0.68    0.20
   4   5   6    0.93    0.24
   4   5   6    0.96    0.23
  -5  -5  -6    0.78    0.22
  -5  -5  -6    0.32    0.23
   5   5   6    0.52    0.18
   5   5   6    0.56    0.23
   5   5   6    0.66    0.23
   5   5   6    0.76    0.18
  -6  -5  -6    9.47    0.91
  -6  -5  -6   10.44    0.86
   6   5   6   10.97    0.85
   6   5   6   11.30    0.86
   6   5   6   12.02    0.84
  -7  -5  -6   10.39    0.92
  -7  -5  -6   11.01    1.01
   7   5   6   11.07    0.86
   7   5   6   11.02    0.84
   7   5   6   13.43    0.96
   7   5   6   11.19    0.88
  -8  -5  -6   25.77    2.01
  -8  -5  -6   27.73    1.86
   8   5   6   28.14    1.84
   8   5   6   27.21    1.74
   8   5   6   27.19    1.88
  -9  -5  -6   52.15    3.56
  -9  -5  -6   50.12    3.22
   9   5   6   49.60    3.18
   9   5   6   52.32    3.42
   9   5   6   52.76    3.12
 -10  -5  -6    0.25    0.41
 -10  -5  -6    0.15    0.35
  10   5   6    0.70    0.30
  10   5   6    0.23    0.24
  10   5   6   -0.30    0.26
 -11  -5  -6   -0.31    0.31
  11   5   6   -0.12    0.24
  11   5   6   -0.07    0.34
  11   5   6    0.37    0.29
 -12  -5  -6    4.65    0.81
  12   5   6    4.35    0.74
  12   5   6    4.17    0.77
  12   5   6    3.85    0.64
 -13  -5  -6    3.36    0.78
  13   5   6    3.64    0.68
  13   5   6    3.50    0.72
  13   5   6    3.19    0.69
   6  -6  -6   -0.16    0.31
  -6   6   6    0.08    0.48
  -6   6   6   -0.08    0.29
  -6   6   6    0.38    0.46
   5  -6  -6    0.12    0.31
  -5   6   6   -0.32    0.40
  -5   6   6    0.07    0.30
  -5   6   6   -0.08    0.33
   4  -6  -6    0.57    0.32
   4  -6  -6    0.23    0.29
  -4   6   6    0.10    0.40
  -4   6   6   -0.21    0.30
  -4   6   6    0.49    0.38
   3  -6  -6   12.65    1.07
   3  -6  -6   11.80    1.17
  -3   6   6   13.38    1.15
  -3   6   6   15.10    1.16
  -3   6   6   16.35    1.33
   2  -6  -6   31.81    2.03
   2  -6  -6   26.57    2.31
  -2   6   6   34.54    2.32
  -2   6   6   33.98    2.10
  -2   6   6   34.70    2.10
   1  -6  -6    2.90    0.43
   1  -6  -6    3.04    0.54
   1  -6  -6    3.81    0.41
  -1   6   6    3.21    0.48
  -1   6   6    3.18    0.57
  -1   6   6    2.83    0.47
   0  -6  -6   13.65    0.90
   0  -6  -6   15.45    1.00
   0  -6  -6   11.07    1.14
   0   6   6   13.25    1.00
   0   6   6   14.99    1.00
   0   6   6   13.02    1.12
  -1  -6  -6   25.61    2.24
  -1  -6  -6   30.68    1.92
  -1  -6  -6   32.62    1.87
   1   6   6   36.31    2.19
   1   6   6   31.60    1.90
   1   6   6   30.92    1.94
  -2  -6  -6    1.07    0.16
  -2  -6  -6    0.52    0.31
  -2  -6  -6    0.98    0.23
  -2  -6  -6    1.02    0.24
   2   6   6    1.31    0.32
   2   6   6    1.44    0.29
   2   6   6    1.20    0.24
  -3  -6  -6   -0.10    0.13
  -3  -6  -6    0.15    0.13
  -3  -6  -6    0.06    0.13
   3   6   6    0.21    0.10
   3   6   6    0.02    0.15
   3   6   6    0.06    0.15
   3   6   6   -0.05    0.11
  -4  -6  -6    1.49    0.28
  -4  -6  -6    1.86    0.33
  -4  -6  -6    1.62    0.30
   4   6   6    1.35    0.24
   4   6   6    1.81    0.29
   4   6   6    1.36    0.34
   4   6   6    1.39    0.29
  -5  -6  -6    0.43    0.18
  -5  -6  -6    0.65    0.25
  -5  -6  -6    0.15    0.21
   5   6   6    0.29    0.16
   5   6   6    0.30    0.16
   5   6   6    0.40    0.20
  -6  -6  -6    0.13    0.21
  -6  -6  -6    0.28    0.17
  -6  -6  -6    0.06    0.22
   6   6   6    0.14    0.16
   6   6   6    0.46    0.20
   6   6   6    0.30    0.14
  -7  -6  -6    0.47    0.33
  -7  -6  -6    0.72    0.26
   7   6   6    0.80    0.19
   7   6   6    0.82    0.26
  -8  -6  -6    8.27    0.99
  -8  -6  -6    7.96    0.87
   8   6   6    7.94    0.85
   8   6   6    8.28    0.72
  -9  -6  -6    2.36    0.51
  -9  -6  -6    2.24    0.53
   9   6   6    2.78    0.41
   9   6   6    2.57    0.43
   9   6   6    2.33    0.51
 -10  -6  -6    0.76    0.35
  10   6   6    0.62    0.26
  10   6   6    0.66    0.31
  10   6   6    0.50    0.37
 -11  -6  -6   -0.09    0.24
  11   6   6   -0.14    0.33
  11   6   6    0.32    0.27
 -12  -6  -6    0.45    0.42
  12   6   6    0.65    0.47
  12   6   6   -0.11    0.31
 -13  -6  -6    1.29    0.50
  13   6   6    0.48    0.52
  13   6   6    2.16    0.54
   6  -7  -6   -0.40    0.21
  -6   7   6   -0.44    0.45
  -6   7   6    0.47    0.38
  -6   7   6    0.21    0.39
   5  -7  -6    0.45    0.35
  -5   7   6    0.12    0.52
  -5   7   6    0.80    0.39
  -5   7   6    0.75    0.40
   4  -7  -6    0.01    0.23
  -4   7   6    0.17    0.37
  -4   7   6    0.56    0.32
  -4   7   6    0.21    0.35
   3  -7  -6    8.07    0.83
   3  -7  -6    5.51    0.78
  -3   7   6    6.47    0.83
  -3   7   6    6.22    0.83
  -3   7   6    7.14    0.97
   2  -7  -6    3.72    0.62
   2  -7  -6    4.31    0.59
  -2   7   6    4.65    0.64
  -2   7   6    4.97    0.78
  -2   7   6    5.38    0.69
   1  -7  -6   19.09    1.20
   1  -7  -6   19.81    1.28
   1  -7  -6   14.27    1.42
  -1   7   6   19.45    1.53
  -1   7   6   16.67    1.26
  -1   7   6   18.04    1.31
   0  -7  -6    0.93    0.24
   0  -7  -6    0.32    0.22
   0  -7  -6    0.33    0.29
   0   7   6    0.52    0.30
   0   7   6    0.82    0.25
   0   7   6    0.64    0.26
  -1  -7  -6    2.47    0.36
  -1  -7  -6    0.89    0.38
  -1  -7  -6    2.67    0.40
   1   7   6    1.90    0.33
   1   7   6    1.67    0.32
   1   7   6    1.69    0.45
  -2  -7  -6    0.12    0.17
  -2  -7  -6    0.27    0.19
   2   7   6    0.12    0.15
   2   7   6    0.08    0.20
   2   7   6    0.15    0.22
  -3  -7  -6    7.35    0.61
  -3  -7  -6    7.21    0.65
   3   7   6    8.26    0.75
   3   7   6    7.02    0.58
   3   7   6    7.52    0.63
  -4  -7  -6    0.12    0.19
  -4  -7  -6    0.10    0.17
   4   7   6    0.74    0.30
   4   7   6    0.36    0.15
   4   7   6    0.27    0.17
   4   7   6    0.18    0.14
  -5  -7  -6    0.92    0.25
  -5  -7  -6    1.40    0.31
   5   7   6    1.50    0.25
   5   7   6    0.97    0.24
   5   7   6    1.26    0.34
  -6  -7  -6    5.85    0.65
  -6  -7  -6    6.14    0.66
   6   7   6    4.65    0.60
   6   7   6    4.85    0.57
  -7  -7  -6    3.20    0.49
  -7  -7  -6    4.61    0.57
  -7  -7  -6    3.11    0.51
   7   7   6    3.80    0.50
  -8  -7  -6    3.21    0.55
  -8  -7  -6    4.54    0.63
   8   7   6    3.72    0.58
   8   7   6    4.56    0.59
   8   7   6    4.41    0.53
  -9  -7  -6   22.55    1.63
  -9  -7  -6   24.88    1.72
   9   7   6   23.98    1.64
   9   7   6   22.65    1.67
 -10  -7  -6   24.42    1.87
  10   7   6   27.06    1.88
  10   7   6   26.93    1.82
 -11  -7  -6    0.03    0.35
 -11  -7  -6    0.35    0.37
  11   7   6   -0.44    0.21
  11   7   6    0.26    0.36
 -12  -7  -6    0.34    0.41
  12   7   6    0.10    0.39
  12   7   6   -0.29    0.25
 -13  -7  -6    0.75    0.53
  13   7   6    0.02    0.35
  13   7   6    1.53    0.53
   5  -8  -6   -0.17    0.47
  -5   8   6   -0.24    0.37
  -5   8   6   -0.55    0.50
  -5   8   6   -0.35    0.42
  -4   8   6    2.27    0.61
  -4   8   6    1.45    0.59
  -4   8   6    1.18    0.61
   3  -8  -6   -0.33    0.21
  -3   8   6   -0.06    0.33
  -3   8   6   -0.34    0.29
  -3   8   6    0.67    0.39
   2  -8  -6   45.01    2.80
  -2   8   6   45.55    2.88
  -2   8   6   47.16    3.22
  -2   8   6   42.97    2.82
   1  -8  -6   13.86    1.09
   1  -8  -6   16.09    1.17
  -1   8   6   14.83    1.20
  -1   8   6   17.24    1.46
  -1   8   6   16.29    1.19
   0  -8  -6    1.42    0.32
   0  -8  -6    0.88    0.28
   0   8   6    0.25    0.30
   0   8   6    1.40    0.37
   0   8   6    0.92    0.28
  -1  -8  -6    0.50    0.24
  -1  -8  -6    0.61    0.24
   1   8   6    0.12    0.22
   1   8   6    0.07    0.23
   1   8   6    0.36    0.21
  -2  -8  -6    6.84    0.68
  -2  -8  -6    5.10    0.62
   2   8   6    6.92    0.56
   2   8   6    6.10    0.66
   2   8   6    6.38    0.79
  -3  -8  -6   10.00    0.79
  -3  -8  -6    9.31    0.76
   3   8   6    8.23    0.74
   3   8   6   11.16    0.97
   3   8   6    9.70    0.71
  -4  -8  -6    1.00    0.29
  -4  -8  -6    0.73    0.25
   4   8   6    0.23    0.31
   4   8   6    0.06    0.20
   4   8   6    0.37    0.17
  -5  -8  -6    2.84    0.37
  -5  -8  -6    2.86    0.44
  -5  -8  -6    2.23    0.42
   5   8   6    2.17    0.39
   5   8   6    2.10    0.43
   5   8   6    2.04    0.31
  -6  -8  -6    2.42    0.43
  -6  -8  -6    1.72    0.33
  -6  -8  -6    1.88    0.38
  -6  -8  -6    0.99    0.38
   6   8   6    1.66    0.36
   6   8   6    1.52    0.37
  -7  -8  -6    0.52    0.25
  -7  -8  -6    0.20    0.26
  -7  -8  -6    0.68    0.30
  -7  -8  -6    1.00    0.32
   7   8   6    1.05    0.32
  -8  -8  -6    0.78    0.30
  -8  -8  -6    1.07    0.35
  -8  -8  -6    0.41    0.26
   8   8   6    0.65    0.29
   8   8   6    0.97    0.30
   8   8   6    1.52    0.36
  -9  -8  -6   28.24    1.86
  -9  -8  -6   23.83    1.84
  -9  -8  -6   24.46    1.83
   9   8   6   27.77    1.83
   9   8   6   26.41    1.84
   9   8   6   29.74    1.89
 -10  -8  -6    4.13    0.66
 -10  -8  -6    4.30    0.71
 -10  -8  -6    2.52    0.58
  10   8   6    4.09    0.61
  10   8   6    4.04    0.67
 -11  -8  -6    2.79    0.56
 -11  -8  -6    2.20    0.58
  11   8   6    3.49    0.62
  11   8   6    3.21    0.64
 -12  -8  -6    1.55    0.56
 -12  -8  -6    1.03    0.40
  12   8   6    1.75    0.56
  12   8   6    2.01    0.54
 -13  -8  -6   -0.48    0.34
 -13  -8  -6   -0.02    0.28
  13   8   6   -0.32    0.23
  13   8   6   -0.37    0.39
   4  -9  -6    1.08    0.69
  -4   9   6    1.05    0.49
  -4   9   6    1.37    0.54
  -4   9   6    1.37    0.72
   3  -9  -6    1.88    0.71
  -3   9   6    2.97    0.62
  -3   9   6    2.07    0.58
  -3   9   6    2.56    0.70
   2  -9  -6    6.07    1.19
  -2   9   6   13.19    1.09
  -2   9   6   10.42    1.06
  -2   9   6   12.70    1.41
   1  -9  -6    2.86    0.49
  -1   9   6    2.95    0.52
  -1   9   6    2.78    0.71
  -1   9   6    2.42    0.53
   0  -9  -6    2.11    0.43
   0  -9  -6    1.88    0.39
   0   9   6    1.72    0.42
   0   9   6    1.87    0.38
   0   9   6    0.60    0.49
  -1  -9  -6    0.03    0.19
  -1  -9  -6    0.01    0.21
   1   9   6   -0.48    0.17
   1   9   6   -0.35    0.34
   1   9   6   -0.09    0.17
  -2  -9  -6    4.28    0.58
  -2  -9  -6    3.90    0.53
   2   9   6    4.24    0.48
   2   9   6    5.36    0.62
   2   9   6    4.15    0.68
  -3  -9  -6    2.41    0.43
  -3  -9  -6    1.38    0.35
   3   9   6    1.68    0.49
   3   9   6    2.43    0.33
   3   9   6    2.34    0.41
  -4  -9  -6    0.31    0.26
  -4  -9  -6    0.09    0.21
  -4  -9  -6   -0.34    0.26
   4   9   6    0.05    0.31
   4   9   6    0.16    0.14
   4   9   6   -0.08    0.18
  -5  -9  -6    0.14    0.21
  -5  -9  -6    0.09    0.31
  -5  -9  -6    0.86    0.29
   5   9   6    0.31    0.31
   5   9   6    0.41    0.17
   5   9   6    0.47    0.24
  -6  -9  -6    3.17    0.46
  -6  -9  -6    4.53    0.71
  -6  -9  -6    3.80    0.54
  -6  -9  -6    2.50    0.51
   6   9   6    3.12    0.54
   6   9   6    2.74    0.44
  -7  -9  -6    0.05    0.20
  -7  -9  -6   -0.02    0.23
  -7  -9  -6   -0.15    0.15
  -7  -9  -6    0.23    0.28
   7   9   6   -0.17    0.21
  -8  -9  -6    0.37    0.28
  -8  -9  -6   -0.06    0.28
   8   9   6    0.31    0.27
   8   9   6    0.20    0.26
  -9  -9  -6    0.92    0.39
  -9  -9  -6    0.30    0.28
   9   9   6    0.44    0.25
   9   9   6    0.50    0.33
   9   9   6    0.79    0.30
 -10  -9  -6    5.62    0.80
 -10  -9  -6    4.65    0.73
  10   9   6    4.57    0.73
  10   9   6    6.42    0.80
 -11  -9  -6    1.04    0.37
 -11  -9  -6    0.12    0.36
  11   9   6    0.28    0.34
  11   9   6    0.81    0.43
 -12  -9  -6    0.25    0.44
 -12  -9  -6    0.14    0.38
  12   9   6   -0.23    0.31
  12   9   6   -0.09    0.35
   3 -10  -6   -0.07    0.37
  -3  10   6   -0.35    0.33
  -3  10   6   -0.16    0.37
  -3  10   6   -0.13    0.36
   2 -10  -6    1.36    0.71
  -2  10   6    3.55    0.66
  -2  10   6    1.96    0.51
  -2  10   6    2.88    0.79
   1 -10  -6    8.11    1.37
   1 -10  -6   10.15    0.92
  -1  10   6    9.49    1.29
  -1  10   6   11.91    0.97
  -1  10   6   10.37    1.09
   0 -10  -6    0.94    0.57
   0 -10  -6    0.91    0.34
   0  10   6    0.48    0.51
   0  10   6    0.73    0.31
   0  10   6    0.81    0.37
  -1 -10  -6    0.03    0.23
  -1 -10  -6    0.18    0.44
   1  10   6    0.11    0.20
   1  10   6   -0.23    0.22
   1  10   6    0.14    0.33
  -2 -10  -6    0.16    0.43
  -2 -10  -6    0.09    0.23
   2  10   6   -0.04    0.22
   2  10   6   -0.02    0.37
   2  10   6    0.00    0.17
  -3 -10  -6    2.10    0.46
  -3 -10  -6    1.07    0.59
   3  10   6    1.82    0.49
   3  10   6    2.05    0.40
  -4 -10  -6    0.09    0.39
  -4 -10  -6    0.77    0.28
   4  10   6   -0.02    0.19
   4  10   6    0.19    0.35
  -5 -10  -6   -0.04    0.20
  -5 -10  -6   -0.19    0.28
   5  10   6   -0.51    0.29
   5  10   6   -0.03    0.19
  -6 -10  -6    1.00    0.46
  -6 -10  -6    0.96    0.38
   6  10   6    1.17    0.34
   6  10   6    1.05    0.40
  -7 -10  -6    3.33    0.57
  -7 -10  -6    2.77    0.65
  -7 -10  -6    3.77    0.53
   7  10   6    4.83    0.67
  -8 -10  -6    0.39    0.26
  -8 -10  -6   -0.09    0.28
   8  10   6    0.12    0.29
   8  10   6    0.68    0.33
  -9 -10  -6    4.95    0.76
  -9 -10  -6    5.68    0.72
   9  10   6    4.97    0.70
   9  10   6    6.58    0.82
 -10 -10  -6   17.53    1.39
 -10 -10  -6   17.67    1.42
  10  10   6   15.99    1.40
  10  10   6   17.93    1.41
 -11 -10  -6    0.38    0.38
 -11 -10  -6    0.37    0.38
  11  10   6   -0.32    0.34
  11  10   6    0.74    0.41
 -12 -10  -6    0.11    0.37
 -12 -10  -6    0.25    0.38
  12  10   6   -0.25    0.32
  12  10   6   -0.27    0.34
   1 -11  -6    6.17    1.22
  -1  11   6    9.71    1.29
  -1  11   6    9.89    1.06
   0 -11  -6   -0.60    0.25
   0 -11  -6    0.61    0.34
   0  11   6   -0.18    0.53
   0  11   6    0.30    0.36
  -1 -11  -6    0.98    0.37
  -1 -11  -6    0.16    0.41
   1  11   6    0.12    0.36
   1  11   6    1.03    0.37
  -2 -11  -6    1.41    0.57
  -2 -11  -6    0.88    0.34
   2  11   6    1.84    0.43
   2  11   6    2.16    0.67
  -3 -11  -6    0.47    0.32
  -3 -11  -6    0.64    0.53
   3  11   6    0.79    0.46
   3  11   6    0.00    0.24
  -4 -11  -6    0.16    0.47
  -4 -11  -6    0.38    0.32
   4  11   6    0.20    0.24
   4  11   6   -0.44    0.20
  -5 -11  -6    1.67    0.47
  -5 -11  -6    1.42    0.58
   5  11   6    1.81    0.41
   5  11   6    1.86    0.54
  -6 -11  -6    0.66    0.42
  -6 -11  -6    0.93    0.39
   6  11   6    0.94    0.43
   6  11   6    1.28    0.37
  -7 -11  -6    1.02    0.52
  -7 -11  -6    0.93    0.36
   7  11   6    1.89    0.50
  -8 -11  -6    0.30    0.26
  -8 -11  -6    0.30    0.26
   8  11   6    0.48    0.31
   8  11   6   -0.53    0.28
  -9 -11  -6    0.36    0.37
  -9 -11  -6    0.64    0.33
   9  11   6    0.92    0.41
   9  11   6    0.50    0.38
 -10 -11  -6    1.55    0.47
 -10 -11  -6    0.83    0.46
  10  11   6    1.27    0.48
  10  11   6    0.81    0.41
 -11 -11  -6    0.68    0.42
 -11 -11  -6   -0.25    0.33
  11  11   6    0.51    0.41
  11  11   6    0.62    0.41
   0 -12  -6    1.78    0.51
   0 -12  -6    2.44    0.80
   0  12   6    1.10    0.43
   0  12   6    2.04    0.64
  -1 -12  -6   -0.14    0.34
  -1 -12  -6   -0.04    0.27
   1  12   6    0.13    0.55
   1  12   6   -0.18    0.30
  -2 -12  -6    0.83    0.64
  -2 -12  -6    0.64    0.39
   2  12   6    0.40    0.30
   2  12   6    0.45    0.42
  -3 -12  -6    0.51    0.39
  -3 -12  -6    0.77    0.52
   3  12   6    1.70    0.66
   3  12   6    0.97    0.37
  -4 -12  -6    1.53    0.50
  -4 -12  -6    0.99    0.58
   4  12   6    2.61    0.48
   4  12   6    2.05    0.58
  -5 -12  -6    0.54    0.41
  -5 -12  -6    0.04    0.45
   5  12   6    0.01    0.25
   5  12   6    0.58    0.48
  -6 -12  -6    2.35    0.56
  -6 -12  -6    1.70    0.64
   6  12   6    1.80    0.56
   6  12   6    2.23    0.45
  -7 -12  -6    1.65    0.59
  -7 -12  -6    1.03    0.46
   7  12   6    1.73    0.54
  -8 -12  -6    2.32    0.55
   8  12   6    2.69    0.53
   8  12   6    2.81    0.59
  -9 -12  -6   -0.41    0.26
  -9 -12  -6    0.06    0.36
   9  12   6    0.37    0.28
   9  12   6    0.05    0.33
 -10 -12  -6    2.27    0.56
 -10 -12  -6    2.28    0.54
  10  12   6    2.14    0.51
  10  12   6    3.74    0.68
  -2 -13  -6   -0.16    0.60
   2  13   6   -0.09    0.57
  -3 -13  -6   -0.12    0.32
  -3 -13  -6    0.15    0.33
   3  13   6   -0.34    0.30
   3  13   6   -0.36    0.24
  -4 -13  -6    0.06    0.41
  -4 -13  -6    0.58    0.35
   4  13   6   -0.13    0.28
   4  13   6    0.14    0.39
  -5 -13  -6    0.41    0.39
  -5 -13  -6    0.05    0.45
   5  13   6    0.43    0.31
   5  13   6    0.29    0.48
  -6 -13  -6    0.29    0.51
  -6 -13  -6    0.47    0.41
   6  13   6   -0.24    0.39
   6  13   6   -0.15    0.24
  -7 -13  -6    0.07    0.49
  -7 -13  -6    0.46    0.44
   7  13   6    0.05    0.44
  -8 -13  -6    0.60    0.43
   8  13   6    1.46    0.44
   2  10  -7    0.34    0.38
   2  10  -7    0.66    0.39
  -2 -10   7    0.18    0.37
   1  10  -7    2.75    0.64
   1  10  -7    2.57    0.65
  -1 -10   7    5.74    1.11
  -1 -10   7    2.23    0.62
   0  10  -7    1.84    0.55
   0  10  -7    0.98    0.49
   0 -10   7    1.18    0.71
   0 -10   7    1.33    0.52
   5   9  -7    2.70    0.64
   4   9  -7    1.14    0.54
   4   9  -7    1.13    0.49
  -4  -9   7    0.46    0.42
  -4  -9   7    1.03    0.44
   3   9  -7    0.52    0.39
   3   9  -7   -0.04    0.40
  -3  -9   7    0.23    0.37
  -3  -9   7    0.10    0.36
   2   9  -7    0.11    0.37
   2   9  -7   -0.08    0.34
  -2  -9   7   -0.08    0.30
  -2  -9   7    0.18    0.36
   1   9  -7   11.96    1.32
   1   9  -7   12.43    1.22
  -1  -9   7   12.09    1.55
  -1  -9   7    9.49    1.13
   0   9  -7    9.24    1.17
   0  -9   7    9.23    1.09
   0  -9   7   10.47    1.15
   0  -9   7   11.41    1.56
  -1   9  -7    2.03    0.56
   1  -9   7    1.67    0.47
   1  -9   7    2.11    0.55
   1  -9   7    2.52    0.71
  -2   9  -7   -0.13    0.31
   2  -9   7   -0.09    0.33
   2  -9   7    0.13    0.37
   3  -9   7    7.26    1.09
   3  -9   7    7.67    1.30
   6   8  -7   -0.38    0.38
   6   8  -7   -0.23    0.45
  -6  -8   7    0.03    0.33
   5   8  -7    0.19    0.33
   5   8  -7    0.10    0.36
  -5  -8   7    0.07    0.34
   4   8  -7    0.24    0.33
   4   8  -7    0.41    0.41
  -4  -8   7    0.08    0.31
  -4  -8   7    0.24    0.41
   3   8  -7   11.31    1.04
   3   8  -7   12.25    1.26
  -3  -8   7    8.72    1.08
  -3  -8   7   12.44    0.99
   2   8  -7    0.03    0.32
   2   8  -7   -0.12    0.25
   2   8  -7    0.52    0.32
  -2  -8   7   -0.47    0.27
  -2  -8   7   -0.20    0.26
   1   8  -7    1.85    0.47
   1   8  -7    2.03    0.53
  -1  -8   7    1.81    0.64
  -1  -8   7    1.18    0.44
   0   8  -7    0.17    0.29
   0   8  -7   -0.58    0.22
   0  -8   7    0.60    0.51
   0  -8   7    0.43    0.34
   0  -8   7    0.13    0.31
  -1   8  -7    0.30    0.33
   1  -8   7   -0.10    0.30
   1  -8   7    0.04    0.28
   1  -8   7    0.26    0.45
  -2   8  -7    0.13    0.35
   2  -8   7   -0.08    0.36
   2  -8   7    0.41    0.40
   2  -8   7    0.20    0.32
  -3   8  -7    2.49    0.64
   3  -8   7    4.28    0.78
   3  -8   7    3.68    0.90
  -4   8  -7    0.18    0.39
   4  -8   7    0.64    0.59
   4  -8   7    0.60    0.44
  -5   8  -7    1.21    0.59
   5  -8   7    3.64    0.83
   5  -8   7    1.99    0.75
   7   7  -7    0.11    0.23
   7   7  -7   -0.29    0.43
   7   7  -7   -0.52    0.39
  -7  -7   7    0.40    0.36
   6   7  -7    1.66    0.54
   6   7  -7    1.90    0.36
   6   7  -7    1.11    0.55
  -6  -7   7    1.52    0.55
   5   7  -7    0.35    0.35
   5   7  -7    0.87    0.42
  -5  -7   7    0.62    0.34
   4   7  -7    8.39    0.94
   4   7  -7    6.46    1.01
  -4  -7   7    7.70    0.98
  -4  -7   7   10.97    0.83
   3   7  -7    0.23    0.36
   3   7  -7    0.28    0.29
  -3  -7   7    0.09    0.25
  -3  -7   7    0.21    0.28
   2   7  -7   -0.05    0.19
   2   7  -7   -0.17    0.18
   2   7  -7    0.04    0.26
  -2  -7   7    0.13    0.25
  -2  -7   7   -0.30    0.26
   1   7  -7    2.11    0.47
   1   7  -7    1.80    0.37
   1   7  -7    1.39    0.43
  -1  -7   7    2.28    0.60
  -1  -7   7    1.51    0.41
  -1  -7   7    2.04    0.47
   0   7  -7   12.64    1.19
   0   7  -7   15.10    1.26
   0  -7   7   15.95    1.46
   0  -7   7   13.82    1.19
   0  -7   7   12.52    1.12
  -1   7  -7   22.49    1.78
  -1   7  -7   22.17    1.75
   1  -7   7   24.40    2.08
   1  -7   7   19.13    1.57
   1  -7   7   27.12    1.83
  -2   7  -7    1.03    0.40
   2  -7   7    1.41    0.60
   2  -7   7    0.73    0.35
   2  -7   7    1.05    0.42
  -3   7  -7    0.83    0.35
  -3   7  -7    1.21    0.26
   3  -7   7    1.51    0.62
   3  -7   7    0.98    0.46
  -4   7  -7   -0.31    0.30
  -4   7  -7    0.17    0.22
   4  -7   7    0.21    0.38
   4  -7   7    0.76    0.55
  -5   7  -7    1.30    0.36
  -5   7  -7    0.27    0.42
   5  -7   7    0.23    0.42
   5  -7   7    0.70    0.54
  -6   7  -7    2.01    0.45
  -6   7  -7    1.53    0.60
   6  -7   7    1.37    0.62
   6  -7   7    1.32    0.59
  -7   7  -7    0.41    0.38
   7  -7   7    1.28    0.58
   7  -7   7    1.12    0.61
   7   6  -7   10.91    1.24
   7   6  -7   11.51    0.93
   7   6  -7   11.03    1.45
  -7  -6   7   10.10    1.19
   6   6  -7    2.26    0.40
   6   6  -7    1.71    0.66
   6   6  -7    1.13    0.53
  -6  -6   7    1.60    0.53
   5   6  -7    2.44    0.66
   5   6  -7    2.66    0.39
   5   6  -7    3.49    0.63
  -5  -6   7    2.78    0.60
   4   6  -7    7.98    0.61
   4   6  -7    8.42    0.89
   4   6  -7    7.00    1.01
  -4  -6   7    6.78    0.85
   3   6  -7    3.20    0.53
   3   6  -7    3.45    0.65
   3   6  -7    3.04    0.34
  -3  -6   7    2.35    0.39
  -3  -6   7    3.94    0.50
  -3  -6   7    3.88    0.61
   2   6  -7    0.56    0.15
   2   6  -7    0.75    0.36
   2   6  -7    0.85    0.30
  -2  -6   7    1.01    0.31
  -2  -6   7    0.42    0.21
  -2  -6   7    0.08    0.20
   1   6  -7    2.48    0.52
   1   6  -7    2.64    0.40
   1   6  -7    1.96    0.24
   1   6  -7    2.68    0.53
  -1  -6   7    1.81    0.44
  -1  -6   7    2.38    0.42
   0   6  -7   37.97    2.36
   0   6  -7   41.80    2.53
   0   6  -7   45.32    3.01
   0   6  -7   39.76    2.84
   0  -6   7   45.89    3.22
   0  -6   7   43.06    2.89
   0  -6   7   43.09    2.65
  -1   6  -7   17.17    1.43
  -1   6  -7   18.56    1.19
  -1   6  -7   15.76    1.40
  -1   6  -7   17.38    1.10
   1  -6   7   18.14    1.34
   1  -6   7   21.09    1.73
   1  -6   7   19.73    1.48
  -2   6  -7    2.15    0.54
  -2   6  -7    2.95    0.47
  -2   6  -7    3.00    0.35
   2  -6   7    2.75    0.63
   2  -6   7    2.87    0.51
   2  -6   7    2.26    0.52
  -3   6  -7    9.64    0.77
  -3   6  -7    9.17    1.10
   3  -6   7   10.40    1.31
   3  -6   7   14.38    1.16
   3  -6   7    9.73    0.89
  -4   6  -7   11.59    1.25
  -4   6  -7   13.74    1.05
   4  -6   7   16.40    1.49
   4  -6   7   17.33    1.44
  -5   6  -7    1.77    0.54
  -5   6  -7    1.59    0.38
   5  -6   7    2.61    0.65
   5  -6   7    1.31    0.56
  -6   6  -7    4.23    0.64
  -6   6  -7    4.19    0.82
   6  -6   7    6.17    0.99
   6  -6   7    4.84    0.92
  -7   6  -7   -0.34    0.34
  -7   6  -7    0.49    0.37
   7  -6   7    0.44    0.46
   7  -6   7    1.40    0.56
  -8   6  -7    1.83    0.68
  -8   6  -7    2.00    0.55
   8  -6   7    3.56    0.88
   8  -6   7    1.97    0.67
   8   5  -7    0.14    0.50
   8   5  -7    0.39    0.50
   8   5  -7   -0.40    0.23
  -8  -5   7   -0.09    0.43
   7   5  -7    1.68    0.42
   7   5  -7    0.76    0.50
   7   5  -7    2.20    0.62
  -7  -5   7    1.68    0.48
   6   5  -7    1.11    0.56
   6   5  -7    0.63    0.38
   6   5  -7    0.24    0.26
  -6  -5   7    0.72    0.42
  -6  -5   7    0.84    0.33
   5   5  -7   -0.36    0.28
   5   5  -7   -0.05    0.18
   5   5  -7   -0.18    0.26
  -5  -5   7   -0.26    0.16
  -5  -5   7    0.17    0.33
   4   5  -7   17.56    1.46
   4   5  -7   15.29    1.03
   4   5  -7   14.13    1.18
  -4  -5   7   14.66    1.06
  -4  -5   7   14.14    1.18
   3   5  -7    0.72    0.20
   3   5  -7    0.40    0.27
   3   5  -7    0.58    0.31
  -3  -5   7    0.50    0.23
  -3  -5   7    0.57    0.22
  -3  -5   7    0.22    0.28
   2   5  -7   -0.14    0.11
   2   5  -7   -0.05    0.27
   2   5  -7    0.16    0.22
  -2  -5   7    0.17    0.20
  -2  -5   7    0.33    0.21
  -2  -5   7    0.11    0.20
   1   5  -7    5.99    0.77
   1   5  -7    7.25    0.60
   1   5  -7    5.77    0.74
   1   5  -7    5.32    0.45
  -1  -5   7    5.83    0.61
  -1  -5   7    6.34    0.74
   0   5  -7    5.80    0.73
   0   5  -7    6.37    0.54
   0   5  -7    5.22    0.45
   0   5  -7    6.56    0.77
   0  -5   7    5.63    0.60
   0  -5   7    5.13    0.67
   0  -5   7    7.86    0.72
  -1   5  -7   40.71    2.88
  -1   5  -7   37.67    2.46
  -1   5  -7   43.44    2.54
  -1   5  -7   43.19    3.01
   1  -5   7   44.23    2.68
   1  -5   7   51.87    3.30
   1  -5   7   44.67    2.96
  -2   5  -7    1.08    0.32
  -2   5  -7    0.79    0.37
  -2   5  -7    0.87    0.22
  -2   5  -7    1.52    0.23
   2  -5   7    0.83    0.37
   2  -5   7    1.56    0.40
   2  -5   7    2.37    0.54
  -3   5  -7   10.92    0.91
  -3   5  -7   10.32    1.01
  -3   5  -7    9.50    0.78
   3  -5   7   13.76    1.24
   3  -5   7    9.98    1.02
   3  -5   7   10.03    0.90
  -4   5  -7    0.06    0.33
  -4   5  -7    0.69    0.26
   4  -5   7    0.71    0.42
   4  -5   7    0.42    0.39
  -5   5  -7    1.80    0.51
  -5   5  -7    1.85    0.41
   5  -5   7    1.17    0.48
   5  -5   7    1.95    0.53
  -6   5  -7    0.51    0.40
  -6   5  -7    0.62    0.32
   6  -5   7   -0.03    0.39
   6  -5   7    0.47    0.41
  -7   5  -7    1.11    0.41
  -7   5  -7    0.36    0.44
   7  -5   7    1.48    0.62
   7  -5   7    0.92    0.51
  -8   5  -7    0.50    0.54
  -8   5  -7    0.99    0.45
   8  -5   7    0.86    0.49
   8  -5   7    0.99    0.60
  -9   5  -7   -0.66    0.37
  -9   5  -7    0.14    0.36
   9  -5   7    0.16    0.44
   9  -5   7    0.63    0.50
   8   4  -7    2.05    0.71
   8   4  -7    3.89    0.64
   8   4  -7    2.75    0.66
  -8  -4   7    3.21    0.66
  -8  -4   7    3.45    0.72
   7   4  -7    2.32    0.61
   7   4  -7    1.53    0.41
   7   4  -7    2.07    0.61
  -7  -4   7    0.97    0.39
  -7  -4   7    1.37    0.44
   6   4  -7    8.16    0.97
   6   4  -7    6.79    0.74
   6   4  -7    7.30    1.07
  -6  -4   7    6.58    0.87
  -6  -4   7    6.74    0.75
   5   4  -7    0.26    0.24
   5   4  -7    0.72    0.37
   5   4  -7    0.16    0.36
  -5  -4   7    0.35    0.34
  -5  -4   7    0.40    0.25
   4   4  -7    1.29    0.29
   4   4  -7    2.01    0.54
   4   4  -7    1.52    0.40
  -4  -4   7    1.72    0.34
  -4  -4   7    1.64    0.40
   3   4  -7    1.17    0.34
   3   4  -7    1.21    0.25
   3   4  -7    2.37    0.49
  -3  -4   7    2.06    0.34
  -3  -4   7    1.67    0.27
  -3  -4   7    1.20    0.38
   2   4  -7    1.40    0.25
   2   4  -7    1.32    0.40
   2   4  -7    1.23    0.31
  -2  -4   7    1.28    0.25
  -2  -4   7    1.58    0.32
  -2  -4   7    0.93    0.30
   1   4  -7   11.90    0.86
   1   4  -7   13.83    0.95
   1   4  -7   13.80    1.19
  -1  -4   7   13.95    1.05
  -1  -4   7   13.90    0.96
   0   4  -7    0.06    0.19
   0   4  -7   -0.08    0.15
   0   4  -7   -0.10    0.11
   0   4  -7    0.06    0.20
   0  -4   7   -0.08    0.17
   0  -4   7    0.18    0.24
   0  -4   7   -0.11    0.05
   0  -4   7   -0.07    0.23
  -1   4  -7   65.95    3.59
  -1   4  -7   58.16    3.54
  -1   4  -7   63.26    4.02
  -1   4  -7   66.36    4.25
   1  -4   7   68.01    4.14
   1  -4   7   67.32    4.43
   1  -4   7   52.42    3.60
   1  -4   7   60.79    3.44
   1  -4   7   64.30    3.71
  -2   4  -7   26.27    1.94
  -2   4  -7   26.46    1.66
  -2   4  -7   28.97    1.98
  -2   4  -7   27.09    1.60
   2  -4   7   27.52    1.99
   2  -4   7   30.74    2.20
   2  -4   7   26.41    1.56
   2  -4   7   26.55    1.79
  -3   4  -7    3.83    0.28
  -3   4  -7    3.54    0.58
  -3   4  -7    3.09    0.41
  -3   4  -7    3.32    0.47
   3  -4   7    3.58    0.54
   3  -4   7    2.76    0.62
   3  -4   7    5.11    0.70
  -4   4  -7   21.17    1.44
  -4   4  -7   19.50    1.64
  -4   4  -7   21.15    1.59
   4  -4   7   24.86    1.88
   4  -4   7   25.13    1.80
  -5   4  -7   14.60    1.15
  -5   4  -7   13.79    1.31
   5  -4   7   17.70    1.45
   5  -4   7   19.49    1.53
  -6   4  -7    0.76    0.40
  -6   4  -7    0.65    0.30
   6  -4   7    0.92    0.44
   6  -4   7    0.54    0.35
  -7   4  -7   -0.11    0.25
  -7   4  -7   -0.32    0.32
   7  -4   7   -0.16    0.31
   7  -4   7    0.35    0.40
  -8   4  -7   -0.10    0.37
  -8   4  -7   -0.40    0.27
   8  -4   7    0.11    0.35
   8  -4   7   -0.31    0.31
  -9   4  -7   -0.29    0.31
  -9   4  -7    0.06    0.48
   9  -4   7   -0.44    0.34
   9  -4   7    0.36    0.56
 -10   4  -7    0.27    0.40
 -10   4  -7   -0.29    0.47
  10  -4   7   -0.43    0.33
   8   3  -7    1.46    0.46
   8   3  -7    0.32    0.38
   8   3  -7    0.32    0.50
  -8  -3   7    1.23    0.47
  -8  -3   7    1.24    0.52
   7   3  -7    3.62    0.59
   7   3  -7    4.49    0.79
   7   3  -7    4.18    0.84
  -7  -3   7    3.66    0.69
  -7  -3   7    3.78    0.64
   6   3  -7    4.02    0.58
   6   3  -7    3.77    0.76
   6   3  -7    3.11    0.60
  -6  -3   7    3.34    0.54
  -6  -3   7    3.42    0.58
   5   3  -7    0.95    0.29
   5   3  -7    1.36    0.45
   5   3  -7    0.28    0.34
  -5  -3   7    0.63    0.28
  -5  -3   7    0.29    0.25
   4   3  -7   -0.11    0.15
   4   3  -7    0.01    0.24
   4   3  -7    0.39    0.30
  -4  -3   7   -0.08    0.18
  -4  -3   7    0.09    0.19
   3   3  -7    4.82    0.68
   3   3  -7    4.45    0.55
   3   3  -7    3.40    0.44
  -3  -3   7    2.93    0.50
  -3  -3   7    4.48    0.52
  -3  -3   7    4.09    0.43
   2   3  -7    3.81    0.42
   2   3  -7    3.54    0.46
   2   3  -7    3.37    0.59
  -2  -3   7    3.57    0.47
  -2  -3   7    3.49    0.50
  -2  -3   7    4.16    0.36
   1   3  -7   37.35    2.62
   1   3  -7   36.21    2.14
   1   3  -7   36.00    2.18
   1   3  -7   35.29    2.11
  -1  -3   7   35.36    2.18
  -1  -3   7   36.87    2.25
   0   3  -7    1.08    0.21
   0   3  -7    1.13    0.31
   0   3  -7    0.94    0.27
   0   3  -7    1.25    0.23
   0   3  -7    1.11    0.22
   0  -3   7    0.93    0.25
   0  -3   7    1.24    0.32
   0  -3   7    1.36    0.30
  -1   3  -7    0.86    0.20
  -1   3  -7    0.95    0.31
  -1   3  -7    1.27    0.19
  -1   3  -7    1.35    0.24
  -1   3  -7    1.14    0.31
   1  -3   7    1.19    0.27
   1  -3   7    1.52    0.33
   1  -3   7    0.94    0.30
  -2   3  -7    4.00    0.57
  -2   3  -7    4.44    0.54
  -2   3  -7    4.49    0.43
  -2   3  -7    4.04    0.30
  -2   3  -7    3.56    0.42
   2  -3   7    3.71    0.56
   2  -3   7    3.97    0.53
   2  -3   7    4.01    0.61
   2  -3   7    3.50    0.48
  -3   3  -7    3.82    0.45
  -3   3  -7    4.04    0.58
  -3   3  -7    4.58    0.46
  -3   3  -7    4.40    0.54
   3  -3   7    3.44    0.57
   3  -3   7    3.50    0.53
   3  -3   7    3.95    0.40
   3  -3   7    4.42    0.66
  -4   3  -7    0.06    0.25
  -4   3  -7    0.01    0.14
  -4   3  -7   -0.02    0.17
   4  -3   7   -0.18    0.16
   4  -3   7   -0.03    0.13
   4  -3   7    0.05    0.27
  -5   3  -7    0.35    0.23
  -5   3  -7    0.10    0.29
  -5   3  -7    0.37    0.20
   5  -3   7    0.45    0.32
   5  -3   7    0.23    0.24
   5  -3   7    0.21    0.21
  -6   3  -7    0.27    0.37
  -6   3  -7    0.43    0.27
   6  -3   7    1.24    0.30
   6  -3   7    0.82    0.39
   6  -3   7    1.19    0.43
  -7   3  -7   -0.26    0.32
  -7   3  -7    0.05    0.23
   7  -3   7    0.59    0.37
   7  -3   7    0.26    0.23
   7  -3   7   -0.60    0.30
  -8   3  -7    0.78    0.46
  -8   3  -7    0.59    0.36
   8  -3   7    0.18    0.32
   8  -3   7    0.43    0.48
  -9   3  -7    0.21    0.35
  -9   3  -7    0.27    0.37
   9  -3   7   -0.15    0.47
   9  -3   7    0.32    0.37
 -10   3  -7    3.92    0.90
 -10   3  -7    6.26    0.91
  10  -3   7    5.27    1.05
   8   2  -7    2.16    0.68
   8   2  -7    1.69    0.61
   8   2  -7    1.90    0.54
  -8  -2   7    1.27    0.43
  -8  -2   7    1.05    0.48
   7   2  -7    0.12    0.29
   7   2  -7   -0.21    0.38
   7   2  -7   -0.08    0.40
  -7  -2   7   -0.16    0.28
  -7  -2   7    0.17    0.27
   6   2  -7    2.24    0.44
   6   2  -7    2.14    0.53
   6   2  -7    2.35    0.55
  -6  -2   7    2.20    0.50
  -6  -2   7    2.38    0.53
   5   2  -7    0.31    0.22
   5   2  -7   -0.01    0.31
   5   2  -7    0.30    0.25
  -5  -2   7    0.05    0.20
  -5  -2   7    0.15    0.25
  -5  -2   7    0.04    0.26
   4   2  -7    2.09    0.37
   4   2  -7    2.19    0.54
   4   2  -7    2.58    0.45
  -4  -2   7    1.86    0.39
  -4  -2   7    2.21    0.44
  -4  -2   7    2.79    0.40
   3   2  -7   19.22    1.45
   3   2  -7   23.40    1.78
   3   2  -7   21.71    1.40
  -3  -2   7   21.65    1.49
  -3  -2   7   22.38    1.45
  -3  -2   7   22.48    1.40
   2   2  -7    2.77    0.52
   2   2  -7    4.05    0.44
   2   2  -7    3.97    0.47
  -2  -2   7    3.89    0.48
  -2  -2   7    3.82    0.42
  -2  -2   7    4.22    0.54
   1   2  -7   31.89    1.94
   1   2  -7   33.00    2.35
   1   2  -7   30.37    1.96
   1   2  -7   32.77    1.93
  -1  -2   7   32.84    2.02
  -1  -2   7   33.80    1.92
  -1  -2   7   32.27    1.98
   0   2  -7   10.29    0.72
   0   2  -7   10.34    0.94
   0   2  -7   11.17    0.74
   0   2  -7   11.82    0.91
   0   2  -7    9.69    0.72
   0  -2   7    9.67    0.78
   0  -2   7   10.98    0.90
   0  -2   7   11.57    0.83
   0  -2   7   10.20    0.71
  -1   2  -7    3.62    0.50
  -1   2  -7    3.12    0.45
  -1   2  -7    3.13    0.29
  -1   2  -7    3.67    0.38
  -1   2  -7    3.28    0.37
   1  -2   7    3.26    0.42
   1  -2   7    3.35    0.49
   1  -2   7    3.60    0.36
   1  -2   7    2.76    0.41
  -2   2  -7   40.68    2.35
  -2   2  -7   42.75    2.75
  -2   2  -7   44.62    2.45
  -2   2  -7   39.74    2.45
  -2   2  -7   43.14    2.89
   2  -2   7   40.30    2.52
   2  -2   7   46.13    2.85
   2  -2   7   38.73    2.49
  -3   2  -7   26.22    1.89
  -3   2  -7   24.30    1.65
  -3   2  -7   30.37    1.66
  -3   2  -7   25.40    1.91
   3  -2   7   25.22    1.62
   3  -2   7   27.11    1.73
   3  -2   7   30.87    1.98
  -4   2  -7    4.74    0.56
  -4   2  -7    4.75    0.58
  -4   2  -7    4.92    0.66
  -4   2  -7    5.74    0.50
   4  -2   7    5.26    0.54
   4  -2   7    6.46    0.75
   4  -2   7    6.63    0.75
  -5   2  -7   10.07    0.99
  -5   2  -7    9.87    0.87
  -5   2  -7   10.25    0.84
   5  -2   7    9.82    1.01
   5  -2   7   10.74    0.80
   5  -2   7   12.64    1.04
  -6   2  -7    5.39    0.79
  -6   2  -7    4.57    0.63
   6  -2   7    5.27    0.60
   6  -2   7    5.47    0.72
   6  -2   7    5.15    0.77
  -7   2  -7   -0.28    0.29
  -7   2  -7   -0.44    0.20
   7  -2   7   -0.23    0.17
   7  -2   7   -0.27    0.21
   7  -2   7   -0.23    0.28
  -8   2  -7    0.68    0.31
  -8   2  -7   -0.02    0.36
   8  -2   7    1.19    0.38
   8  -2   7    0.74    0.32
   8  -2   7    0.20    0.30
  -9   2  -7    0.11    0.32
  -9   2  -7   -0.18    0.28
   9  -2   7    0.30    0.47
   9  -2   7   -0.04    0.25
 -10   2  -7    2.72    0.62
 -10   2  -7    1.37    0.55
  10  -2   7    1.79    0.60
 -11   2  -7    0.90    0.51
 -11   2  -7    0.20    0.47
  11  -2   7    1.57    0.61
   8   1  -7    1.30    0.47
   8   1  -7    0.00    0.44
   8   1  -7    0.89    0.53
  -8  -1   7    0.25    0.38
  -8  -1   7    0.54    0.44
   7   1  -7    0.57    0.37
   7   1  -7    0.90    0.48
   7   1  -7    0.59    0.46
  -7  -1   7    0.93    0.42
  -7  -1   7    0.51    0.35
   6   1  -7    2.33    0.49
   6   1  -7    2.66    0.58
   6   1  -7    2.37    0.57
  -6  -1   7    2.05    0.48
  -6  -1   7    2.26    0.50
  -6  -1   7    3.16    0.56
   5   1  -7    7.82    0.81
   5   1  -7    7.41    0.88
   5   1  -7    8.67    1.04
  -5  -1   7    9.89    0.81
  -5  -1   7    6.93    0.81
  -5  -1   7    8.19    0.86
   4   1  -7    2.84    0.42
   4   1  -7    2.90    0.50
   4   1  -7    2.10    0.50
  -4  -1   7    2.42    0.43
  -4  -1   7    2.37    0.40
  -4  -1   7    3.18    0.49
   3   1  -7    0.90    0.24
   3   1  -7    0.53    0.27
   3   1  -7    0.36    0.32
  -3  -1   7    0.97    0.25
  -3  -1   7    0.83    0.24
  -3  -1   7    1.14    0.29
   2   1  -7    5.00    0.55
   2   1  -7    5.00    0.53
   2   1  -7    5.21    0.69
  -2  -1   7    5.26    0.57
  -2  -1   7    5.22    0.58
  -2  -1   7    6.31    0.52
   1   1  -7    2.49    0.34
   1   1  -7    2.29    0.32
   1   1  -7    1.91    0.31
   1   1  -7    1.78    0.39
  -1  -1   7    2.44    0.37
  -1  -1   7    2.36    0.31
  -1  -1   7    2.80    0.38
   0   1  -7   11.68    0.78
   0   1  -7   11.17    0.79
   0   1  -7   12.12    0.81
   0   1  -7   11.05    0.98
   0  -1   7   11.72    0.78
   0  -1   7   11.19    0.83
   0  -1   7   10.83    0.84
  -1   1  -7    5.65    0.62
  -1   1  -7    5.50    0.45
  -1   1  -7    4.78    0.43
  -1   1  -7    4.79    0.38
  -1   1  -7    4.90    0.59
   1  -1   7    5.21    0.61
   1  -1   7    5.23    0.38
   1  -1   7    5.11    0.43
   1  -1   7    5.36    0.54
   1  -1   7    5.93    0.52
  -2   1  -7   82.65    5.22
  -2   1  -7   85.80    5.58
  -2   1  -7   80.52    4.69
  -2   1  -7   78.83    4.75
  -2   1  -7   90.50    4.76
   2  -1   7   82.18    4.79
   2  -1   7   84.46    4.74
   2  -1   7   87.25    4.83
   2  -1   7   89.60    5.43
  -3   1  -7    8.65    0.63
  -3   1  -7    6.80    0.77
  -3   1  -7    7.14    0.69
  -3   1  -7    8.17    0.60
   3  -1   7    8.10    0.72
   3  -1   7    6.41    0.61
   3  -1   7    7.10    0.64
  -4   1  -7    4.39    0.51
  -4   1  -7    3.92    0.58
  -4   1  -7    4.74    0.49
  -4   1  -7    4.03    0.52
   4  -1   7    4.55    0.48
   4  -1   7    4.00    0.57
  -5   1  -7   -0.04    0.15
  -5   1  -7   -0.12    0.16
  -5   1  -7   -0.18    0.23
   5  -1   7   -0.11    0.14
   5  -1   7   -0.04    0.15
  -6   1  -7    3.57    0.53
  -6   1  -7    3.57    0.48
  -6   1  -7    3.45    0.62
   6  -1   7    3.53    0.49
   6  -1   7    3.61    0.63
  -7   1  -7    0.77    0.42
  -7   1  -7    0.71    0.35
   7  -1   7    1.19    0.34
   7  -1   7    0.40    0.35
  -8   1  -7    2.47    0.57
  -8   1  -7    2.52    0.54
   8  -1   7    2.63    0.49
   8  -1   7    3.25    0.69
  -9   1  -7    3.10    0.67
  -9   1  -7    1.93    0.52
   9  -1   7    3.40    0.58
   9  -1   7    2.85    0.73
 -10   1  -7   -0.20    0.31
 -10   1  -7   -0.12    0.31
  10  -1   7    0.28    0.35
  10  -1   7   -0.29    0.28
 -11   1  -7    0.92    0.56
 -11   1  -7    1.32    0.58
  11  -1   7    1.75    0.55
  11  -1   7    1.52    0.65
  12  -1   7    0.09    0.50
   8   0  -7    1.37    0.48
   8   0  -7    1.77    0.57
   8   0  -7    1.45    0.58
  -8   0   7    0.97    0.46
  -8   0   7    2.70    0.68
   7   0  -7    2.98    0.67
   7   0  -7    2.47    0.59
   7   0  -7    3.22    0.59
  -7   0   7    3.12    0.65
  -7   0   7    3.30    0.60
  -7   0   7    3.44    0.68
   6   0  -7   -0.06    0.30
   6   0  -7    0.16    0.29
   6   0  -7   -0.06    0.25
  -6   0   7   -0.35    0.27
  -6   0   7   -0.03    0.22
  -6   0   7   -0.02    0.26
   5   0  -7    4.85    0.71
   5   0  -7    5.69    0.69
   5   0  -7    5.23    0.80
  -5   0   7    7.32    0.76
  -5   0   7    4.72    0.67
  -5   0   7    5.93    0.71
   4   0  -7    4.44    0.68
   4   0  -7    3.84    0.52
   4   0  -7    4.21    0.60
  -4   0   7    3.99    0.55
  -4   0   7    4.11    0.56
  -4   0   7    4.73    0.57
   3   0  -7   30.58    2.02
   3   0  -7   33.59    2.37
   3   0  -7   31.63    1.98
  -3   0   7   31.33    1.98
  -3   0   7   30.97    1.99
  -3   0   7   32.03    2.01
   2   0  -7    8.71    0.72
   2   0  -7    9.72    0.91
   2   0  -7   10.19    0.79
  -2   0   7    9.89    0.76
  -2   0   7   10.45    0.77
  -2   0   7    9.59    0.76
   1   0  -7   29.40    2.09
   1   0  -7   27.92    1.75
   1   0  -7   27.38    1.73
  -1   0   7   29.03    1.77
  -1   0   7   28.86    1.75
  -1   0   7   27.59    1.73
   0   0  -7    0.83    0.20
   0   0  -7    0.88    0.22
   0   0  -7    0.82    0.19
   0   0  -7    0.43    0.21
   0   0   7    1.11    0.24
   0   0   7    0.68    0.18
   0   0   7    0.91    0.22
  -1   0  -7   11.06    0.76
  -1   0  -7   10.36    0.69
  -1   0  -7    8.81    0.82
  -1   0  -7   10.83    0.92
  -1   0  -7    9.90    0.74
   1   0   7   10.73    0.74
   1   0   7   10.78    0.68
   1   0   7   11.37    0.87
   1   0   7   10.85    0.77
   1   0   7   10.35    0.77
  -2   0  -7   18.37    1.37
  -2   0  -7   17.29    1.14
  -2   0  -7   15.24    1.25
  -2   0  -7   18.91    1.15
   2   0   7   18.55    1.18
   2   0   7   17.38    1.17
   2   0   7   18.59    1.31
   2   0   7   17.17    1.03
   2   0   7   18.26    1.14
  -3   0  -7   30.74    1.69
  -3   0  -7   25.59    1.84
  -3   0  -7   25.44    1.66
  -3   0  -7   28.70    1.96
   3   0   7   27.78    1.90
   3   0   7   25.23    1.68
   3   0   7   27.27    1.66
   3   0   7   26.00    1.69
  -4   0  -7    1.39    0.32
  -4   0  -7    1.18    0.30
  -4   0  -7    1.50    0.28
   4   0   7    0.83    0.24
   4   0   7    1.47    0.34
  -5   0  -7    8.02    0.71
  -5   0  -7    7.90    0.75
  -5   0  -7    8.58    0.83
   5   0   7    9.22    0.80
   5   0   7    7.83    0.68
  -6   0  -7    1.12    0.29
  -6   0  -7    1.08    0.39
  -6   0  -7    0.93    0.28
   6   0   7    0.49    0.26
   6   0   7    1.08    0.37
  -7   0  -7    0.60    0.26
  -7   0  -7    0.87    0.35
   7   0   7    0.80    0.14
   7   0   7    0.74    0.30
   7   0   7    0.53    0.28
  -8   0  -7    0.71    0.43
  -8   0  -7    0.60    0.33
   8   0   7    0.62    0.17
   8   0   7    0.36    0.39
   8   0   7    0.15    0.28
  -9   0  -7    1.00    0.52
  -9   0  -7    0.36    0.37
   9   0   7    0.68    0.30
   9   0   7    1.07    0.47
   9   0   7    0.65    0.21
 -10   0  -7    2.48    0.58
 -10   0  -7    2.81    0.74
  10   0   7    2.32    0.62
  10   0   7    2.00    0.50
 -11   0  -7   -0.03    0.28
 -11   0  -7   -0.04    0.34
  11   0   7    0.07    0.28
  11   0   7    0.22    0.47
 -12   0  -7    1.33    0.74
 -12   0  -7    1.78    0.66
  12   0   7    2.15    0.59
  12   0   7    1.78    0.72
   8  -1  -7    5.25    0.93
   8  -1  -7    6.06    0.90
   8  -1  -7    4.28    0.86
  -8   1   7    5.43    0.86
  -8   1   7    6.66    0.98
  -8   1   7    5.81    0.80
   7  -1  -7    0.32    0.46
   7  -1  -7    0.48    0.38
   7  -1  -7    0.32    0.41
  -7   1   7    0.66    0.38
  -7   1   7    0.66    0.47
  -7   1   7    0.06    0.30
   6  -1  -7    6.18    0.79
   6  -1  -7    6.96    0.93
   6  -1  -7    5.54    0.82
  -6   1   7    5.68    0.82
  -6   1   7    6.32    0.76
  -6   1   7    5.70    0.78
   5  -1  -7    0.12    0.24
   5  -1  -7    0.13    0.32
   5  -1  -7    0.32    0.27
  -5   1   7    0.10    0.23
  -5   1   7    0.41    0.24
  -5   1   7   -0.12    0.26
  -5   1   7    0.12    0.20
   4  -1  -7    1.44    0.33
   4  -1  -7    1.26    0.38
   4  -1  -7    1.67    0.41
  -4   1   7    2.03    0.38
  -4   1   7    2.03    0.36
  -4   1   7    1.82    0.37
  -4   1   7    1.12    0.35
   3  -1  -7    4.53    0.60
   3  -1  -7    5.09    0.61
   3  -1  -7    6.57    0.79
  -3   1   7    5.96    0.60
  -3   1   7    5.29    0.63
  -3   1   7    5.35    0.63
  -3   1   7    6.26    0.62
   2  -1  -7   10.55    0.83
   2  -1  -7   10.77    0.98
   2  -1  -7   12.10    0.85
  -2   1   7   10.69    0.84
  -2   1   7   12.56    0.83
  -2   1   7   10.26    0.85
  -2   1   7    9.95    0.81
   1  -1  -7   -0.14    0.14
   1  -1  -7    0.04    0.16
   1  -1  -7   -0.05    0.13
  -1   1   7    0.22    0.15
  -1   1   7   -0.24    0.10
  -1   1   7    0.10    0.18
  -1   1   7    0.14    0.13
   0  -1  -7    4.18    0.46
   0  -1  -7    4.50    0.42
   0  -1  -7    4.89    0.61
   0   1   7    4.46    0.48
   0   1   7    5.37    0.45
   0   1   7    4.35    0.49
   0   1   7    5.09    0.53
  -1  -1  -7   15.77    1.06
  -1  -1  -7   15.02    1.25
  -1  -1  -7   16.71    1.15
  -1  -1  -7   14.85    1.00
   1   1   7   16.19    1.05
   1   1   7   17.01    1.07
   1   1   7   16.23    1.14
   1   1   7   17.00    1.08
   1   1   7   16.35    1.01
  -2  -1  -7   19.76    1.26
  -2  -1  -7   19.37    1.48
  -2  -1  -7   19.19    1.37
   2   1   7   20.11    1.28
   2   1   7   20.20    1.42
   2   1   7   21.33    1.28
   2   1   7   20.30    1.17
   2   1   7   17.15    1.22
  -3  -1  -7    0.48    0.19
  -3  -1  -7    0.82    0.21
  -3  -1  -7    0.66    0.23
   3   1   7    0.59    0.22
   3   1   7    0.53    0.18
   3   1   7    0.44    0.16
   3   1   7    0.61    0.09
  -4  -1  -7    2.02    0.38
  -4  -1  -7    2.04    0.37
  -4  -1  -7    2.40    0.36
   4   1   7    2.12    0.36
   4   1   7    1.84    0.34
   4   1   7    1.87    0.31
  -5  -1  -7   14.29    1.02
  -5  -1  -7   12.38    1.10
  -5  -1  -7   13.38    1.13
   5   1   7   13.56    1.10
   5   1   7   15.83    1.02
  -6  -1  -7    0.22    0.21
  -6  -1  -7    0.38    0.31
  -6  -1  -7    0.33    0.25
   6   1   7    0.34    0.20
   6   1   7    0.19    0.08
   6   1   7   -0.21    0.19
  -7  -1  -7    0.96    0.37
  -7  -1  -7    1.71    0.42
   7   1   7    1.09    0.31
   7   1   7    1.74    0.21
   7   1   7    1.42    0.38
  -8  -1  -7    9.81    1.02
  -8  -1  -7    8.64    1.11
   8   1   7   10.89    1.03
   8   1   7    9.70    0.89
  -9  -1  -7   14.99    1.41
  -9  -1  -7   12.27    1.30
   9   1   7   14.60    1.19
   9   1   7   14.91    0.98
   9   1   7   13.88    1.30
 -10  -1  -7    5.71    0.92
 -10  -1  -7    5.32    0.81
  10   1   7    5.08    0.55
  10   1   7    5.14    0.77
  10   1   7    4.74    0.86
 -11  -1  -7   -0.06    0.49
 -11  -1  -7    0.10    0.40
  11   1   7    0.04    0.40
  11   1   7    0.26    0.37
 -12  -1  -7   -0.41    0.26
 -12  -1  -7    0.11    0.30
  12   1   7    0.01    0.39
  12   1   7    0.20    0.32
   8  -2  -7    6.78    0.99
   8  -2  -7    6.95    1.04
  -8   2   7    7.87    1.07
   7  -2  -7    1.32    0.53
   7  -2  -7    1.38    0.51
   7  -2  -7    1.29    0.57
  -7   2   7    0.22    0.33
  -7   2   7    0.97    0.45
   6  -2  -7    7.24    0.87
   6  -2  -7    5.13    0.78
   6  -2  -7    5.41    0.84
  -6   2   7    7.27    0.89
  -6   2   7    5.17    0.75
  -6   2   7    5.14    0.66
   5  -2  -7    0.93    0.41
   5  -2  -7    0.17    0.34
   5  -2  -7    0.53    0.30
  -5   2   7    1.21    0.43
  -5   2   7    1.11    0.34
  -5   2   7    1.41    0.36
  -5   2   7    0.96    0.39
   4  -2  -7    7.65    0.86
   4  -2  -7    7.00    0.80
   4  -2  -7    7.34    0.92
  -4   2   7    7.83    0.86
  -4   2   7    8.00    0.76
  -4   2   7    9.11    0.70
  -4   2   7    8.11    0.88
   3  -2  -7    1.06    0.28
   3  -2  -7    0.56    0.33
   3  -2  -7    1.09    0.33
  -3   2   7    0.68    0.30
  -3   2   7    0.70    0.26
  -3   2   7    1.61    0.31
  -3   2   7    0.99    0.31
   2  -2  -7    7.90    0.62
   2  -2  -7    5.60    0.75
   2  -2  -7    5.89    0.67
  -2   2   7    7.17    0.66
  -2   2   7    6.62    0.55
  -2   2   7    7.51    0.64
  -2   2   7    5.84    0.67
   1  -2  -7   20.42    1.38
   1  -2  -7   19.32    1.60
   1  -2  -7   21.53    1.37
  -1   2   7   21.47    1.38
  -1   2   7   21.82    1.46
  -1   2   7   18.70    1.35
  -1   2   7   22.71    1.32
   0  -2  -7    0.25    0.14
   0  -2  -7    0.67    0.21
   0  -2  -7    0.68    0.24
   0  -2  -7    0.49    0.17
   0   2   7    0.83    0.22
   0   2   7    0.45    0.20
   0   2   7    1.14    0.22
   0   2   7    0.84    0.23
  -1  -2  -7    2.00    0.32
  -1  -2  -7    2.23    0.18
  -1  -2  -7    2.07    0.32
  -1  -2  -7    2.39    0.40
   1   2   7    2.00    0.32
   1   2   7    2.64    0.36
   1   2   7    2.15    0.30
   1   2   7    1.88    0.32
  -2  -2  -7    2.04    0.31
  -2  -2  -7    1.94    0.32
  -2  -2  -7    2.10    0.39
   2   2   7    1.23    0.25
   2   2   7    2.24    0.30
   2   2   7    1.78    0.28
   2   2   7    1.70    0.33
   2   2   7    1.81    0.32
   2   2   7    2.52    0.27
  -3  -2  -7   14.00    1.02
  -3  -2  -7   13.44    1.18
  -3  -2  -7   14.93    1.11
   3   2   7   14.44    1.01
   3   2   7   15.89    1.13
   3   2   7   14.30    1.02
   3   2   7   14.99    1.09
   3   2   7   17.20    0.94
  -4  -2  -7    0.11    0.12
  -4  -2  -7    0.13    0.19
  -4  -2  -7    0.02    0.15
   4   2   7    0.08    0.13
   4   2   7   -0.08    0.13
   4   2   7    0.37    0.16
   4   2   7    0.14    0.09
  -5  -2  -7    4.06    0.56
  -5  -2  -7    3.56    0.48
  -5  -2  -7    3.62    0.53
   5   2   7    3.07    0.45
   5   2   7    4.05    0.51
   5   2   7    3.73    0.28
  -6  -2  -7    1.65    0.40
  -6  -2  -7    1.35    0.34
   6   2   7    1.32    0.34
   6   2   7    1.62    0.20
   6   2   7    1.14    0.30
  -7  -2  -7    0.44    0.23
  -7  -2  -7    0.17    0.32
   7   2   7    0.30    0.13
   7   2   7    0.17    0.25
   7   2   7   -0.12    0.16
  -8  -2  -7   -0.02    0.26
  -8  -2  -7   -0.45    0.30
   8   2   7   -0.14    0.13
   8   2   7   -0.34    0.19
   8   2   7   -0.15    0.15
  -9  -2  -7    0.73    0.32
  -9  -2  -7    0.41    0.41
   9   2   7    0.46    0.21
   9   2   7    0.96    0.35
   9   2   7    0.44    0.27
 -10  -2  -7    8.74    1.03
 -10  -2  -7    6.48    1.05
  10   2   7    8.52    0.71
  10   2   7    8.38    0.96
  10   2   7    8.17    1.05
 -11  -2  -7   -0.52    0.43
 -11  -2  -7    0.21    0.33
  11   2   7    0.19    0.37
  11   2   7    0.24    0.40
  11   2   7   -0.12    0.20
 -12  -2  -7    5.50    1.09
 -12  -2  -7    5.05    0.89
  12   2   7    5.39    0.89
  12   2   7    4.69    0.88
 -13  -2  -7    0.96    0.49
 -13  -2  -7   -0.14    0.37
  13   2   7    0.00    0.41
  13   2   7    0.77    0.53
   7  -3  -7    1.69    0.63
   7  -3  -7    3.55    0.64
  -7   3   7    3.49    0.75
  -7   3   7    3.29    0.70
   6  -3  -7   -0.27    0.32
   6  -3  -7    0.11    0.29
   6  -3  -7   -0.41    0.29
  -6   3   7   -0.21    0.25
  -6   3   7   -0.33    0.34
   5  -3  -7    0.30    0.31
   5  -3  -7   -0.18    0.26
   5  -3  -7   -0.02    0.33
  -5   3   7    0.06    0.26
  -5   3   7   -0.07    0.32
  -5   3   7   -0.33    0.27
   4  -3  -7    1.62    0.41
   4  -3  -7    2.80    0.56
   4  -3  -7    2.35    0.51
  -4   3   7    2.51    0.47
  -4   3   7    1.90    0.49
  -4   3   7    2.47    0.50
   3  -3  -7    1.59    0.37
   3  -3  -7    2.14    0.50
   3  -3  -7    1.98    0.42
  -3   3   7    2.05    0.43
  -3   3   7    2.37    0.35
  -3   3   7    2.19    0.45
  -3   3   7    2.40    0.46
   2  -3  -7    2.95    0.53
   2  -3  -7    3.29    0.49
   2  -3  -7    2.39    0.42
  -2   3   7    2.80    0.36
  -2   3   7    2.64    0.47
  -2   3   7    2.86    0.48
  -2   3   7    2.92    0.44
   1  -3  -7    1.13    0.29
   1  -3  -7    0.72    0.26
   1  -3  -7    1.08    0.35
  -1   3   7    1.04    0.28
  -1   3   7    1.06    0.20
  -1   3   7    1.08    0.29
  -1   3   7    1.14    0.30
   0  -3  -7    1.98    0.29
   0  -3  -7    1.76    0.15
   0  -3  -7    1.65    0.29
   0  -3  -7    2.03    0.43
   0   3   7    1.97    0.28
   0   3   7    1.98    0.32
   0   3   7    1.37    0.33
   0   3   7    1.42    0.30
  -1  -3  -7    0.71    0.19
  -1  -3  -7    0.50    0.28
  -1  -3  -7    1.11    0.23
  -1  -3  -7    0.96    0.14
   1   3   7    0.63    0.20
   1   3   7    0.71    0.26
   1   3   7    1.04    0.21
   1   3   7    0.94    0.22
  -2  -3  -7    2.11    0.32
  -2  -3  -7    2.84    0.28
  -2  -3  -7    1.92    0.31
  -2  -3  -7    2.50    0.44
   2   3   7    2.24    0.38
   2   3   7    2.28    0.35
   2   3   7    2.16    0.32
  -3  -3  -7    2.17    0.35
  -3  -3  -7    2.60    0.36
  -3  -3  -7    2.26    0.43
   3   3   7    2.57    0.30
   3   3   7    2.70    0.38
   3   3   7    2.01    0.31
   3   3   7    2.24    0.32
   3   3   7    2.47    0.36
  -4  -3  -7    4.05    0.58
  -4  -3  -7    3.69    0.48
  -4  -3  -7    4.40    0.52
   4   3   7    3.95    0.45
   4   3   7    3.95    0.48
   4   3   7    3.80    0.46
   4   3   7    4.44    0.45
  -5  -3  -7    4.13    0.51
  -5  -3  -7    3.15    0.55
  -5  -3  -7    3.74    0.54
   5   3   7    4.06    0.49
   5   3   7    4.16    0.50
   5   3   7    3.93    0.47
  -6  -3  -7    0.11    0.16
  -6  -3  -7    0.32    0.23
   6   3   7    0.18    0.10
   6   3   7    0.00    0.14
  -7  -3  -7   10.06    1.01
  -7  -3  -7   10.03    0.93
   7   3   7   12.65    0.98
   7   3   7   11.10    0.93
   7   3   7   11.74    0.77
  -8  -3  -7    5.99    0.84
  -8  -3  -7    6.30    0.75
   8   3   7    5.51    0.72
   8   3   7    5.67    0.74
   8   3   7    5.95    0.51
  -9  -3  -7    8.82    1.17
  -9  -3  -7    9.62    1.06
   9   3   7   11.13    0.79
   9   3   7   11.20    1.01
   9   3   7    9.83    1.03
 -10  -3  -7    0.26    0.30
 -10  -3  -7   -0.01    0.29
  10   3   7    0.24    0.26
  10   3   7    0.45    0.30
  10   3   7    0.55    0.26
 -11  -3  -7    0.29    0.28
 -11  -3  -7   -0.41    0.35
  11   3   7    0.06    0.27
  11   3   7    0.02    0.22
  11   3   7    0.04    0.25
 -12  -3  -7    2.31    0.74
 -12  -3  -7    2.05    0.62
  12   3   7    0.79    0.48
  12   3   7    1.13    0.50
 -13  -3  -7    0.84    0.48
  13   3   7    1.18    0.50
  13   3   7    2.14    0.62
   7  -4  -7    0.36    0.34
   7  -4  -7    0.10    0.47
  -7   4   7    0.05    0.43
  -7   4   7   -0.47    0.41
   6  -4  -7    0.16    0.41
   6  -4  -7    0.98    0.45
   6  -4  -7    0.27    0.41
  -6   4   7    0.24    0.43
  -6   4   7    0.58    0.46
   5  -4  -7   -0.24    0.28
   5  -4  -7   -0.02    0.29
   5  -4  -7    0.18    0.29
  -5   4   7   -0.20    0.32
  -5   4   7   -0.45    0.31
  -5   4   7   -0.31    0.34
   4  -4  -7    1.21    0.38
   4  -4  -7    1.48    0.44
   4  -4  -7    0.57    0.36
  -4   4   7    1.03    0.41
  -4   4   7    0.79    0.32
  -4   4   7    0.64    0.39
   3  -4  -7    4.96    0.63
   3  -4  -7    3.40    0.61
   3  -4  -7    4.16    0.63
  -3   4   7    4.85    0.67
  -3   4   7    4.53    0.61
  -3   4   7    2.84    0.55
   2  -4  -7   10.50    1.08
   2  -4  -7   10.60    0.90
   2  -4  -7   11.86    0.99
  -2   4   7   12.22    0.98
  -2   4   7   12.69    0.97
  -2   4   7   13.50    1.06
   1  -4  -7    3.70    0.62
   1  -4  -7    4.59    0.56
  -1   4   7    4.58    0.54
  -1   4   7    5.32    0.63
  -1   4   7    4.31    0.56
   0  -4  -7    1.88    0.20
   0  -4  -7    1.60    0.25
   0  -4  -7    1.29    0.27
   0  -4  -7    1.96    0.41
   0   4   7    1.41    0.33
   0   4   7    1.70    0.31
   0   4   7    1.47    0.29
  -1  -4  -7    8.53    0.67
  -1  -4  -7    8.56    0.69
  -1  -4  -7    8.35    0.84
  -1  -4  -7    8.77    0.58
   1   4   7    9.30    0.72
   1   4   7    9.58    0.72
   1   4   7    8.85    0.79
  -2  -4  -7   39.36    2.26
  -2  -4  -7   40.75    2.38
  -2  -4  -7   38.11    2.80
  -2  -4  -7   38.13    2.48
   2   4   7   39.79    2.34
   2   4   7   40.11    2.56
   2   4   7   39.69    2.36
  -3  -4  -7   20.78    1.41
  -3  -4  -7   22.87    1.33
  -3  -4  -7   21.45    1.48
  -3  -4  -7   19.58    1.67
   3   4   7   23.04    1.52
   3   4   7   22.31    1.40
   3   4   7   22.27    1.41
  -4  -4  -7    4.90    0.58
  -4  -4  -7    4.39    0.54
  -4  -4  -7    5.00    0.66
   4   4   7    4.93    0.52
   4   4   7    4.62    0.55
   4   4   7    5.48    0.49
   4   4   7    5.82    0.50
  -5  -4  -7    4.56    0.55
  -5  -4  -7    4.14    0.57
  -5  -4  -7    3.34    0.59
   5   4   7    4.61    0.51
   5   4   7    4.35    0.45
   5   4   7    5.15    0.55
   5   4   7    4.84    0.52
  -6  -4  -7    4.95    0.64
  -6  -4  -7    6.90    0.77
   6   4   7    6.44    0.57
   6   4   7    4.96    0.58
   6   4   7    5.57    0.55
  -7  -4  -7    0.11    0.30
  -7  -4  -7    0.43    0.22
   7   4   7    0.12    0.15
   7   4   7    0.15    0.18
   7   4   7    0.05    0.24
  -8  -4  -7    0.22    0.29
  -8  -4  -7    0.46    0.25
   8   4   7    0.31    0.18
   8   4   7    0.51    0.31
   8   4   7    0.59    0.27
  -9  -4  -7    2.11    0.59
  -9  -4  -7    3.08    0.58
   9   4   7    2.94    0.50
   9   4   7    2.65    0.50
   9   4   7    1.96    0.35
 -10  -4  -7    0.28    0.43
 -10  -4  -7   -0.28    0.18
  10   4   7    0.01    0.21
  10   4   7    0.27    0.27
  10   4   7    0.06    0.21
 -11  -4  -7   11.22    1.44
 -11  -4  -7    9.43    1.19
  11   4   7   12.62    1.28
  11   4   7   12.25    1.15
  11   4   7   12.57    0.98
 -12  -4  -7    0.66    0.48
 -12  -4  -7    0.01    0.48
  12   4   7    0.28    0.34
  12   4   7    0.61    0.38
  12   4   7   -0.16    0.26
 -13  -4  -7   -0.21    0.45
  13   4   7    0.10    0.46
  13   4   7   -0.20    0.33
   6  -5  -7   -0.03    0.33
  -6   5   7    0.38    0.36
  -6   5   7    0.26    0.46
   5  -5  -7   -0.18    0.32
   5  -5  -7    0.07    0.32
  -5   5   7   -0.15    0.35
  -5   5   7    0.03    0.37
  -5   5   7   -0.77    0.38
   4  -5  -7   -0.18    0.26
   4  -5  -7    0.34    0.31
  -4   5   7    0.20    0.36
  -4   5   7   -0.12    0.23
  -4   5   7   -0.07    0.32
   3  -5  -7    1.85    0.42
   3  -5  -7    1.54    0.44
  -3   5   7    1.56    0.41
  -3   5   7    1.45    0.42
  -3   5   7    1.24    0.42
   2  -5  -7    0.42    0.30
   2  -5  -7    0.20    0.19
  -2   5   7    0.23    0.27
  -2   5   7    0.05    0.19
  -2   5   7    0.21    0.23
   1  -5  -7    0.92    0.38
   1  -5  -7    0.85    0.26
   1  -5  -7    1.37    0.21
  -1   5   7    1.16    0.32
  -1   5   7    1.43    0.36
  -1   5   7    1.65    0.44
   0  -5  -7   14.81    1.03
   0  -5  -7   12.27    1.20
   0  -5  -7   13.67    0.88
   0  -5  -7   13.81    0.95
   0   5   7   14.71    1.02
   0   5   7   14.32    1.04
   0   5   7   14.12    1.13
  -1  -5  -7    6.05    0.47
  -1  -5  -7    6.41    0.79
  -1  -5  -7    6.26    0.50
  -1  -5  -7    6.97    0.58
   1   5   7    5.98    0.71
   1   5   7    5.95    0.61
   1   5   7    6.44    0.58
  -2  -5  -7   29.24    1.73
  -2  -5  -7   28.68    1.87
  -2  -5  -7   27.12    2.17
  -2  -5  -7   29.15    1.83
   2   5   7   30.77    2.00
   2   5   7   29.68    1.80
   2   5   7   29.85    1.83
  -3  -5  -7    1.99    0.45
  -3  -5  -7    1.80    0.32
  -3  -5  -7    1.97    0.30
  -3  -5  -7    2.04    0.32
   3   5   7    2.13    0.33
   3   5   7    2.19    0.35
   3   5   7    1.72    0.37
  -4  -5  -7    5.05    0.48
  -4  -5  -7    3.37    0.45
  -4  -5  -7    3.17    0.58
  -4  -5  -7    4.04    0.50
   4   5   7    3.31    0.45
   4   5   7    3.24    0.42
   4   5   7    4.26    0.51
  -5  -5  -7    9.13    0.75
  -5  -5  -7    9.08    0.81
   5   5   7    8.98    0.75
   5   5   7    8.20    0.78
   5   5   7    9.63    0.73
   5   5   7    9.86    0.74
  -6  -5  -7    2.79    0.49
  -6  -5  -7    2.67    0.45
   6   5   7    3.18    0.39
   6   5   7    2.14    0.37
   6   5   7    2.15    0.35
   6   5   7    3.05    0.44
  -7  -5  -7    4.88    0.68
  -7  -5  -7    5.37    0.66
   7   5   7    5.82    0.54
   7   5   7    4.76    0.52
   7   5   7    4.58    0.58
  -8  -5  -7    0.91    0.42
  -8  -5  -7    1.13    0.33
   8   5   7    0.84    0.34
   8   5   7    0.91    0.25
   8   5   7    0.88    0.26
  -9  -5  -7    1.09    0.47
  -9  -5  -7    1.94    0.49
   9   5   7    1.59    0.43
   9   5   7    1.92    0.34
   9   5   7    1.04    0.33
 -10  -5  -7    0.52    0.32
 -10  -5  -7    0.34    0.30
  10   5   7    0.19    0.22
  10   5   7    0.22    0.26
  10   5   7   -0.20    0.28
 -11  -5  -7    0.88    0.41
 -11  -5  -7    0.43    0.37
  11   5   7    0.93    0.34
  11   5   7    1.06    0.35
  11   5   7    1.07    0.48
 -12  -5  -7    0.18    0.31
  12   5   7   -0.16    0.26
  12   5   7   -0.16    0.37
  12   5   7    0.37    0.36
 -13  -5  -7    1.43    0.60
  13   5   7    1.61    0.50
  13   5   7    2.01    0.66
  13   5   7    1.62    0.50
   6  -6  -7    2.91    0.67
  -6   6   7    2.94    0.74
  -6   6   7    3.23    0.74
   5  -6  -7   -0.03    0.22
  -5   6   7    0.13    0.28
  -5   6   7    0.61    0.46
  -5   6   7   -0.93    0.36
   4  -6  -7    0.25    0.33
   4  -6  -7   -0.09    0.28
  -4   6   7    0.21    0.28
  -4   6   7   -0.01    0.37
  -4   6   7   -0.14    0.37
   3  -6  -7    9.30    0.92
   3  -6  -7    5.17    0.84
  -3   6   7    8.02    0.90
  -3   6   7    7.71    0.91
  -3   6   7    8.21    1.01
   2  -6  -7    7.53    0.98
   2  -6  -7    8.32    0.78
  -2   6   7   10.35    0.90
  -2   6   7    8.10    0.92
  -2   6   7   11.60    1.06
   1  -6  -7   15.77    1.49
   1  -6  -7   17.47    1.17
   1  -6  -7   20.22    1.31
  -1   6   7   19.18    1.35
  -1   6   7   20.01    1.53
  -1   6   7   19.41    1.34
   0  -6  -7    6.34    0.47
   0  -6  -7    6.84    0.71
   0  -6  -7    5.32    0.79
   0  -6  -7    7.15    0.53
   0   6   7    6.83    0.72
   0   6   7    6.76    0.80
   0   6   7    7.54    0.73
  -1  -6  -7    8.08    0.57
  -1  -6  -7    5.50    0.79
  -1  -6  -7    6.19    0.49
  -1  -6  -7    7.13    0.72
   1   6   7    8.88    0.78
   1   6   7    6.44    0.70
   1   6   7    7.64    0.64
  -2  -6  -7    7.94    0.59
  -2  -6  -7    7.14    0.65
  -2  -6  -7    6.75    0.56
  -2  -6  -7    7.02    0.87
   2   6   7    7.32    0.81
   2   6   7    7.58    0.67
   2   6   7    9.03    0.66
  -3  -6  -7    0.38    0.30
  -3  -6  -7    0.92    0.21
  -3  -6  -7    1.21    0.25
  -3  -6  -7    1.16    0.27
   3   6   7    0.98    0.25
   3   6   7    0.87    0.27
   3   6   7    1.31    0.36
  -4  -6  -7   -0.09    0.13
  -4  -6  -7   -0.16    0.14
  -4  -6  -7   -0.30    0.18
   4   6   7   -0.01    0.14
   4   6   7    0.04    0.13
   4   6   7    0.08    0.19
  -5  -6  -7   33.87    2.28
  -5  -6  -7   31.25    2.14
  -5  -6  -7   35.33    2.10
   5   6   7   34.20    2.08
   5   6   7   36.90    2.30
   5   6   7   34.79    2.14
  -6  -6  -7    0.37    0.22
  -6  -6  -7    0.01    0.15
  -6  -6  -7    0.11    0.25
   6   6   7    0.63    0.26
   6   6   7    0.62    0.26
   6   6   7    0.41    0.18
   6   6   7    0.19    0.18
  -7  -6  -7    8.76    0.92
  -7  -6  -7   10.12    0.94
   7   6   7    9.61    0.75
   7   6   7    8.71    0.78
  -8  -6  -7    1.78    0.45
  -8  -6  -7    1.60    0.43
   8   6   7    1.88    0.39
   8   6   7    1.15    0.28
   8   6   7    0.99    0.30
  -9  -6  -7    3.35    0.60
  -9  -6  -7    3.65    0.70
   9   6   7    3.13    0.57
   9   6   7    4.06    0.53
   9   6   7    3.66    0.51
 -10  -6  -7    5.41    0.91
 -10  -6  -7    5.64    0.84
  10   6   7    7.28    0.75
  10   6   7    6.86    0.88
  10   6   7    6.92    0.68
 -11  -6  -7   -0.31    0.35
  11   6   7    0.31    0.24
  11   6   7    0.19    0.38
  11   6   7   -0.41    0.17
 -12  -6  -7    5.80    0.90
  12   6   7    3.29    0.62
  12   6   7    5.16    0.85
 -13  -6  -7    0.13    0.45
  13   6   7    1.59    0.52
  13   6   7    0.90    0.43
   5  -7  -7   -0.16    0.31
  -5   7   7    0.06    0.45
  -5   7   7   -0.69    0.42
  -5   7   7    0.03    0.31
   4  -7  -7    0.12    0.25
  -4   7   7   -0.10    0.44
  -4   7   7   -0.14    0.35
  -4   7   7   -0.69    0.27
   3  -7  -7    1.65    0.43
   3  -7  -7    0.81    0.33
  -3   7   7    0.49    0.47
  -3   7   7    1.83    0.47
  -3   7   7    0.21    0.36
   2  -7  -7    1.04    0.40
   2  -7  -7    1.92    0.44
  -2   7   7    1.18    0.41
  -2   7   7    2.09    0.58
  -2   7   7    2.97    0.53
   1  -7  -7    0.15    0.19
   1  -7  -7    0.43    0.26
   1  -7  -7    0.45    0.32
  -1   7   7   -0.16    0.22
  -1   7   7    0.38    0.29
  -1   7   7    0.32    0.39
   0  -7  -7   11.25    1.19
   0  -7  -7   14.42    0.94
   0  -7  -7   14.13    1.04
   0   7   7   13.60    1.04
   0   7   7   13.10    1.02
   0   7   7   13.36    1.23
  -1  -7  -7    2.30    0.36
  -1  -7  -7    2.39    0.43
  -1  -7  -7    2.81    0.55
   1   7   7    2.68    0.54
   1   7   7    2.57    0.40
   1   7   7    2.62    0.43
  -2  -7  -7   22.82    1.56
  -2  -7  -7   23.75    1.50
  -2  -7  -7   21.08    1.87
   2   7   7   24.94    1.53
   2   7   7   27.22    1.82
   2   7   7   23.36    1.56
  -3  -7  -7    0.24    0.12
  -3  -7  -7    0.64    0.27
  -3  -7  -7    0.21    0.18
   3   7   7    0.93    0.35
   3   7   7    0.48    0.21
   3   7   7    0.52    0.20
  -4  -7  -7    1.56    0.33
  -4  -7  -7    2.06    0.40
  -4  -7  -7    1.86    0.30
   4   7   7    2.04    0.37
   4   7   7    1.99    0.32
   4   7   7    1.94    0.43
  -5  -7  -7    4.66    0.58
  -5  -7  -7    6.85    0.71
  -5  -7  -7    5.40    0.60
   5   7   7    6.42    0.54
   5   7   7    5.31    0.62
   5   7   7    5.94    0.68
  -6  -7  -7    3.03    0.45
  -6  -7  -7    3.74    0.54
  -6  -7  -7    2.80    0.48
   6   7   7    2.29    0.36
   6   7   7    2.56    0.43
   6   7   7    3.07    0.48
  -7  -7  -7    2.72    0.47
  -7  -7  -7    3.68    0.58
   7   7   7    3.56    0.52
   7   7   7    2.50    0.45
  -8  -7  -7    2.03    0.42
  -8  -7  -7    2.54    0.54
  -8  -7  -7    2.62    0.52
   8   7   7    2.76    0.52
   8   7   7    3.34    0.48
   8   7   7    2.79    0.44
  -9  -7  -7    4.61    0.72
   9   7   7    6.09    0.78
   9   7   7    6.00    0.68
 -10  -7  -7    2.96    0.60
  10   7   7    4.37    0.59
  10   7   7    3.46    0.63
 -11  -7  -7    0.38    0.42
  11   7   7    1.28    0.46
  11   7   7    0.85    0.32
 -12  -7  -7    0.57    0.47
  12   7   7    0.12    0.34
  12   7   7    0.95    0.49
 -13  -7  -7    2.60    0.69
  13   7   7    3.30    0.64
  13   7   7    4.05    0.83
   4  -8  -7    1.33    0.42
  -4   8   7   -0.02    0.37
  -4   8   7   -0.17    0.53
  -4   8   7    0.21    0.43
   3  -8  -7    0.35    0.33
  -3   8   7   -0.01    0.35
  -3   8   7    0.00    0.32
  -3   8   7   -0.16    0.46
   2  -8  -7    1.35    0.43
   2  -8  -7    0.82    0.30
  -2   8   7    1.35    0.44
  -2   8   7    0.74    0.54
  -2   8   7    0.92    0.36
   1  -8  -7    0.57    0.37
   1  -8  -7    0.25    0.22
   1  -8  -7    0.11    0.24
  -1   8   7    0.18    0.32
  -1   8   7    0.19    0.43
  -1   8   7   -0.27    0.24
   0  -8  -7    7.09    0.61
   0  -8  -7    5.07    0.65
   0   8   7    6.42    0.91
   0   8   7    6.85    0.78
   0   8   7    5.80    0.69
  -1  -8  -7    2.80    0.42
  -1  -8  -7    3.01    0.49
   1   8   7    2.80    0.62
   1   8   7    2.86    0.44
   1   8   7    2.26    0.43
  -2  -8  -7   11.24    0.90
  -2  -8  -7   10.85    0.84
   2   8   7   11.87    0.86
   2   8   7   12.82    1.12
   2   8   7    8.86    0.86
  -3  -8  -7    0.22    0.23
  -3  -8  -7    0.36    0.21
   3   8   7   -0.05    0.30
   3   8   7    0.07    0.22
   3   8   7    0.21    0.17
  -4  -8  -7    1.80    0.38
  -4  -8  -7    1.61    0.37
   4   8   7    2.32    0.42
   4   8   7    1.80    0.46
   4   8   7    2.08    0.34
  -5  -8  -7    3.89    0.54
  -5  -8  -7    4.31    0.56
   5   8   7    4.13    0.58
   5   8   7    3.36    0.51
   5   8   7    2.90    0.41
  -6  -8  -7   18.30    1.28
  -6  -8  -7   18.53    1.27
   6   8   7   19.40    1.37
   6   8   7   15.38    1.14
   6   8   7   15.59    1.22
  -7  -8  -7   -0.10    0.24
  -7  -8  -7    0.52    0.28
  -7  -8  -7    0.18    0.25
   7   8   7    0.17    0.23
   7   8   7    0.10    0.21
  -8  -8  -7    1.31    0.40
  -8  -8  -7    0.96    0.38
   8   8   7    1.58    0.37
   8   8   7    1.14    0.35
  -9  -8  -7    3.19    0.60
  -9  -8  -7    3.06    0.53
   9   8   7    2.66    0.45
   9   8   7    3.55    0.56
   9   8   7    3.29    0.60
 -10  -8  -7    0.77    0.40
 -10  -8  -7    0.80    0.35
  10   8   7    1.30    0.45
  10   8   7    1.46    0.41
 -11  -8  -7    0.40    0.35
 -11  -8  -7    0.56    0.42
  11   8   7    0.19    0.32
  11   8   7    1.02    0.47
 -12  -8  -7    0.05    0.34
 -12  -8  -7   -0.11    0.37
  12   8   7    0.36    0.43
  12   8   7   -0.02    0.32
 -13  -8  -7    0.04    0.43
 -13  -8  -7   -0.31    0.31
  13   8   7   -0.23    0.34
  13   8   7   -0.24    0.44
  -3   9   7    0.08    0.31
  -3   9   7   -0.24    0.51
  -3   9   7    1.42    0.47
  -2   9   7    4.49    0.72
  -2   9   7    5.90    0.81
  -2   9   7    6.94    1.03
   1  -9  -7    6.18    0.79
  -1   9   7    6.24    0.81
  -1   9   7    7.69    1.05
  -1   9   7    7.27    0.89
   0  -9  -7   -0.27    0.20
   0  -9  -7    0.30    0.23
   0   9   7   -0.16    0.26
   0   9   7   -0.15    0.29
   0   9   7    0.20    0.26
  -1  -9  -7    0.38    0.24
  -1  -9  -7   -0.12    0.21
   1   9   7   -0.14    0.19
   1   9   7   -0.14    0.24
   1   9   7   -0.18    0.37
  -2  -9  -7    1.45    0.36
  -2  -9  -7    1.25    0.33
   2   9   7    1.80    0.53
   2   9   7    1.94    0.34
   2   9   7    1.42    0.38
  -3  -9  -7    0.32    0.24
  -3  -9  -7   -0.08    0.18
   3   9   7    0.12    0.17
   3   9   7   -0.34    0.31
   3   9   7   -0.06    0.14
  -4  -9  -7    2.49    0.47
  -4  -9  -7    2.79    0.47
   4   9   7    2.21    0.42
   4   9   7    2.91    0.39
   4   9   7    3.37    0.61
  -5  -9  -7    0.34    0.26
  -5  -9  -7    0.02    0.16
   5   9   7   -0.20    0.28
   5   9   7   -0.05    0.14
   5   9   7    0.25    0.23
  -6  -9  -7    0.98    0.42
  -6  -9  -7    1.40    0.36
  -6  -9  -7    0.83    0.25
  -6  -9  -7    0.79    0.29
   6   9   7    1.50    0.43
   6   9   7    1.13    0.32
   6   9   7    1.06    0.25
  -7  -9  -7    0.00    0.19
  -7  -9  -7   -0.18    0.25
  -7  -9  -7   -0.32    0.20
  -7  -9  -7    0.10    0.28
   7   9   7    0.02    0.22
   7   9   7    0.13    0.28
  -8  -9  -7    0.50    0.33
  -8  -9  -7   -0.01    0.20
  -8  -9  -7   -0.36    0.23
   8   9   7   -0.05    0.24
  -9  -9  -7    0.38    0.31
  -9  -9  -7    0.23    0.29
   9   9   7    0.31    0.24
   9   9   7    0.50    0.35
   9   9   7    0.58    0.28
 -10  -9  -7   12.55    1.16
 -10  -9  -7   12.62    1.14
  10   9   7   13.53    1.17
  10   9   7   17.18    1.29
 -11  -9  -7    1.81    0.54
 -11  -9  -7    1.83    0.53
  11   9   7    1.44    0.43
  11   9   7    2.18    0.53
 -12  -9  -7    0.01    0.37
 -12  -9  -7   -0.02    0.27
  12   9   7   -0.11    0.32
  12   9   7    0.38    0.40
   2 -10  -7    0.37    0.44
  -2  10   7    1.68    0.54
  -2  10   7    1.23    0.45
  -2  10   7    1.20    0.56
   1 -10  -7    1.82    0.73
  -1  10   7    1.65    0.66
  -1  10   7    1.84    0.48
  -1  10   7    2.23    0.55
   0 -10  -7    1.19    0.40
   0  10   7    0.81    0.45
   0  10   7    1.59    0.43
  -1 -10  -7    3.33    0.51
   1  10   7    2.17    0.50
   1  10   7    2.33    0.67
   1  10   7    2.44    0.43
  -2 -10  -7    2.76    0.47
   2  10   7    3.00    0.53
   2  10   7    3.00    0.66
   2  10   7    2.61    0.42
  -3 -10  -7   16.01    1.72
  -3 -10  -7   20.47    1.42
   3  10   7   24.27    1.72
   3  10   7   18.52    1.40
  -4 -10  -7   -0.08    0.36
  -4 -10  -7    0.33    0.24
   4  10   7    0.62    0.30
   4  10   7    0.86    0.46
  -5 -10  -7    6.37    0.74
  -5 -10  -7    3.90    0.82
   5  10   7    6.98    0.86
   5  10   7    4.83    0.64
  -6 -10  -7    0.80    0.45
  -6 -10  -7    1.59    0.39
   6  10   7    1.71    0.49
   6  10   7    1.50    0.37
  -7 -10  -7    8.61    1.08
  -7 -10  -7    7.92    0.92
  -7 -10  -7    7.84    0.71
   7  10   7    9.11    0.91
   7  10   7    8.90    0.97
  -8 -10  -7   -0.05    0.28
  -8 -10  -7   -0.05    0.21
  -8 -10  -7   -0.23    0.17
   8  10   7   -0.14    0.27
  -9 -10  -7    0.01    0.32
  -9 -10  -7   -0.10    0.27
   9  10   7    0.16    0.23
   9  10   7   -0.15    0.23
   9  10   7    0.13    0.31
 -10 -10  -7   -0.04    0.26
 -10 -10  -7    0.46    0.32
  10  10   7    0.33    0.35
  10  10   7    0.08    0.33
 -11 -10  -7    0.45    0.39
 -11 -10  -7    0.03    0.35
  11  10   7    0.68    0.37
  11  10   7    0.62    0.42
 -12 -10  -7    0.30    0.40
 -12 -10  -7    0.13    0.37
  12  10   7   -0.18    0.37
  12  10   7   -0.17    0.33
   1 -11  -7    3.58    0.96
  -1  11   7    5.63    1.08
  -1  11   7    5.19    0.82
   0 -11  -7    3.24    0.60
   0 -11  -7    2.84    0.90
   0  11   7    4.20    0.72
   0  11   7    5.45    0.96
  -1 -11  -7    0.59    0.33
  -1 -11  -7    0.49    0.44
   1  11   7    0.57    0.38
   1  11   7    0.40    0.42
  -2 -11  -7    0.64    0.49
  -2 -11  -7    0.00    0.27
   2  11   7   -0.21    0.25
   2  11   7   -0.07    0.42
  -3 -11  -7    0.12    0.27
  -3 -11  -7    0.07    0.47
   3  11   7   -0.09    0.44
   3  11   7    0.54    0.31
  -4 -11  -7    0.49    0.52
  -4 -11  -7    0.92    0.38
   4  11   7    0.39    0.28
   4  11   7    0.48    0.45
  -5 -11  -7    0.60    0.37
  -5 -11  -7    0.65    0.47
   5  11   7    0.71    0.45
   5  11   7   -0.37    0.19
  -6 -11  -7    8.89    0.98
  -6 -11  -7   10.57    1.30
   6  11   7    8.56    1.06
   6  11   7    7.67    0.87
  -7 -11  -7    3.70    0.75
  -7 -11  -7    3.81    0.66
   7  11   7    3.75    0.60
   7  11   7    3.32    0.64
  -8 -11  -7    1.10    0.46
  -8 -11  -7    1.22    0.59
  -8 -11  -7    1.20    0.35
   8  11   7    1.58    0.45
  -9 -11  -7    0.00    0.27
  -9 -11  -7    0.19    0.30
   9  11   7   -0.41    0.29
   9  11   7   -0.18    0.27
   9  11   7   -0.26    0.27
 -10 -11  -7    2.97    0.60
 -10 -11  -7    1.63    0.46
  10  11   7    1.84    0.50
 -11 -11  -7    6.25    0.91
 -11 -11  -7    6.34    0.92
  11  11   7    8.78    1.03
  11  11   7    9.44    1.08
  -1 -12  -7    1.43    0.73
  -1 -12  -7    1.57    0.48
   1  12   7    1.15    0.68
   1  12   7    0.73    0.46
  -2 -12  -7    0.70    0.36
  -2 -12  -7    0.14    0.53
   2  12   7    0.50    0.34
   2  12   7    0.83    0.63
  -3 -12  -7    5.54    1.10
  -3 -12  -7    7.16    0.89
   3  12   7    7.26    0.84
   3  12   7    7.35    1.12
  -4 -12  -7    4.69    0.73
  -4 -12  -7    4.07    0.99
   4  12   7    5.93    0.97
   4  12   7    5.33    0.72
  -5 -12  -7    1.53    0.44
  -5 -12  -7    2.51    0.76
   5  12   7    1.55    0.51
   5  12   7    1.99    0.46
  -6 -12  -7    1.77    0.53
  -6 -12  -7    2.56    0.74
   6  12   7    0.75    0.36
   6  12   7    0.74    0.47
  -7 -12  -7    0.81    0.47
  -7 -12  -7    0.88    0.44
   7  12   7    0.56    0.45
   7  12   7    1.08    0.37
  -8 -12  -7    0.53    0.43
   8  12   7   -0.02    0.37
  -9 -12  -7   -0.20    0.24
  -9 -12  -7   -0.02    0.27
   9  12   7    0.07    0.36
   9  12   7    0.09    0.21
 -10 -12  -7    2.53    0.65
 -10 -12  -7    2.10    0.51
  10  12   7    2.81    0.59
  10  12   7    4.29    0.70
  -3 -13  -7    0.58    0.63
  -3 -13  -7    0.68    0.41
   3  13   7    1.54    0.74
   3  13   7    0.88    0.38
  -4 -13  -7    0.68    0.33
  -4 -13  -7    0.12    0.42
   4  13   7    0.57    0.38
   4  13   7   -0.07    0.50
  -5 -13  -7    0.08    0.47
  -5 -13  -7    0.14    0.39
   5  13   7    0.85    0.39
   5  13   7    0.56    0.54
  -6 -13  -7    1.62    0.65
  -6 -13  -7    1.59    0.46
   6  13   7    1.27    0.61
   6  13   7    0.91    0.38
  -7 -13  -7    6.24    0.88
  -7 -13  -7    4.87    1.00
   7  13   7    5.64    0.91
  -8 -13  -7    0.09    0.31
   8  13   7    0.48    0.47
   2   9  -8    0.37    0.37
   2   9  -8   -0.33    0.32
  -2  -9   8    0.49    0.45
   1   9  -8    2.47    0.60
   1   9  -8    1.80    0.55
  -1  -9   8    3.26    0.69
   0   9  -8   -0.03    0.33
   0  -9   8    0.20    0.35
   0  -9   8    0.11    0.36
   0  -9   8   -0.52    0.49
  -1   9  -8    0.44    0.36
   1  -9   8    0.54    0.44
   1  -9   8    0.45    0.66
   1  -9   8    0.28    0.38
  -2   9  -8    0.54    0.45
   2  -9   8   -0.79    0.52
   2  -9   8    0.10    0.40
   4   8  -8   -0.46    0.33
  -4  -8   8    0.28    0.39
   3   8  -8    0.18    0.38
   3   8  -8    1.15    0.52
  -3  -8   8   -0.14    0.25
   2   8  -8    1.82    0.60
   2   8  -8    2.60    0.60
  -2  -8   8    1.28    0.45
   1   8  -8    2.76    0.63
   1   8  -8    3.02    0.64
  -1  -8   8    2.71    0.61
   0   8  -8    9.68    1.13
   0   8  -8    7.10    0.96
   0  -8   8    8.75    1.05
   0  -8   8    5.97    1.10
   0  -8   8    8.17    0.99
  -1   8  -8    1.95    0.56
   1  -8   8    1.39    0.50
   1  -8   8    1.17    0.60
   1  -8   8    1.70    0.51
  -2   8  -8    0.09    0.38
   2  -8   8    1.45    0.51
   2  -8   8    0.28    0.54
   2  -8   8    0.53    0.39
  -3   8  -8    1.46    0.54
   3  -8   8    3.44    0.88
   3  -8   8    3.00    0.69
  -4   8  -8    0.35    0.47
   4  -8   8    0.40    0.44
   4  -8   8    0.52    0.40
   5  -8   8    0.93    0.55
   5  -8   8   -0.18    0.54
   5   7  -8    1.01    0.58
   5   7  -8    0.22    0.41
  -5  -7   8    1.21    0.52
   4   7  -8    0.52    0.43
   4   7  -8    0.54    0.48
  -4  -7   8    0.14    0.29
   3   7  -8    0.03    0.29
   3   7  -8    0.87    0.45
  -3  -7   8    0.25    0.38
   2   7  -8    4.51    0.74
   2   7  -8    3.70    0.71
  -2  -7   8    3.74    0.66
   1   7  -8    0.88    0.41
   1   7  -8    0.48    0.39
  -1  -7   8    0.58    0.39
   0   7  -8    4.88    0.80
   0   7  -8    5.81    0.82
   0  -7   8    5.37    0.78
   0  -7   8    7.25    0.87
  -1   7  -8   -0.25    0.27
  -1   7  -8   -0.07    0.29
   1  -7   8    0.40    0.39
   1  -7   8    0.26    0.32
   1  -7   8    0.41    0.32
  -2   7  -8    4.95    0.80
   2  -7   8    7.67    0.97
   2  -7   8    6.79    1.08
   2  -7   8    5.50    0.79
  -3   7  -8    0.62    0.45
   3  -7   8    1.64    0.57
   3  -7   8    1.84    0.61
  -4   7  -8    8.42    0.70
  -4   7  -8    6.09    0.94
   4  -7   8    8.65    1.28
   4  -7   8    7.86    1.14
  -5   7  -8    3.86    0.58
  -5   7  -8    3.75    0.81
   5  -7   8    4.08    0.93
   5  -7   8    3.39    0.82
  -6   7  -8    0.10    0.30
  -6   7  -8    0.24    0.44
   6  -7   8    0.28    0.49
   6  -7   8    0.02    0.49
   6   6  -8    0.83    0.50
   6   6  -8    0.68    0.44
   6   6  -8    0.43    0.26
  -6  -6   8    0.87    0.52
   5   6  -8    0.17    0.38
   5   6  -8    0.50    0.55
   5   6  -8    0.23    0.21
  -5  -6   8   -0.18    0.37
   4   6  -8    0.04    0.18
   4   6  -8   -0.15    0.31
   4   6  -8   -0.01    0.40
  -4  -6   8    0.73    0.42
   3   6  -8    2.82    0.61
   3   6  -8    3.06    0.56
   3   6  -8    2.14    0.32
  -3  -6   8    2.25    0.51
   2   6  -8    9.37    1.13
   2   6  -8    9.56    0.80
   2   6  -8    8.45    0.62
  -2  -6   8    9.05    1.00
  -2  -6   8    7.49    0.71
   1   6  -8   -0.02    0.18
   1   6  -8   -0.06    0.11
   1   6  -8   -0.31    0.20
   1   6  -8    0.18    0.33
  -1  -6   8   -0.07    0.30
   0   6  -8    7.61    0.94
   0   6  -8    7.44    0.56
   0   6  -8    8.96    0.88
   0  -6   8    7.75    0.90
   0  -6   8    8.81    0.87
  -1   6  -8    2.59    0.52
  -1   6  -8    1.44    0.24
  -1   6  -8    2.62    0.53
   1  -6   8    1.75    0.45
   1  -6   8    2.32    0.50
   1  -6   8    1.17    0.49
  -2   6  -8   -0.11    0.14
  -2   6  -8    0.05    0.23
  -2   6  -8    0.24    0.32
   2  -6   8   -0.39    0.25
   2  -6   8    0.52    0.33
   2  -6   8   -0.13    0.35
  -3   6  -8    1.20    0.43
  -3   6  -8    1.15    0.27
   3  -6   8    0.67    0.50
   3  -6   8    0.79    0.39
   3  -6   8    0.68    0.41
  -4   6  -8    0.78    0.29
  -4   6  -8    0.04    0.33
   4  -6   8    0.17    0.38
   4  -6   8   -0.35    0.39
  -5   6  -8    0.80    0.32
  -5   6  -8    0.53    0.48
   5  -6   8    1.71    0.55
   5  -6   8    0.89    0.51
  -6   6  -8   -0.08    0.29
  -6   6  -8   -0.33    0.26
   6  -6   8    0.00    0.45
   6  -6   8    0.15    0.38
  -7   6  -8    0.05    0.47
  -7   6  -8    0.82    0.38
   7  -6   8    0.86    0.51
   7  -6   8    0.89    0.60
   7   5  -8    2.44    0.70
   7   5  -8    0.60    0.62
   7   5  -8    1.68    0.46
  -7  -5   8    1.73    0.53
   6   5  -8    0.96    0.51
   6   5  -8    1.18    0.66
   6   5  -8    0.49    0.30
  -6  -5   8    0.75    0.48
   5   5  -8    0.22    0.36
   5   5  -8   -0.07    0.21
   5   5  -8   -0.09    0.36
  -5  -5   8   -0.60    0.28
  -5  -5   8    0.14    0.21
   4   5  -8    0.93    0.41
   4   5  -8    0.52    0.22
   4   5  -8    0.11    0.34
  -4  -5   8    0.81    0.30
  -4  -5   8    0.14    0.34
   3   5  -8    0.52    0.20
   3   5  -8   -0.11    0.32
   3   5  -8    0.73    0.33
  -3  -5   8   -0.07    0.19
  -3  -5   8    0.00    0.30
   2   5  -8    0.03    0.13
   2   5  -8   -0.24    0.20
   2   5  -8    0.18    0.23
  -2  -5   8    0.03    0.20
  -2  -5   8    0.20    0.27
   1   5  -8    1.48    0.34
   1   5  -8    2.63    0.50
   1   5  -8    1.46    0.45
   1   5  -8    2.14    0.30
  -1  -5   8    1.69    0.35
  -1  -5   8    1.72    0.44
   0   5  -8    3.67    0.44
   0   5  -8    3.43    0.60
   0   5  -8    3.39    0.38
   0   5  -8    4.26    0.65
   0  -5   8    2.84    0.53
   0  -5   8    5.03    0.65
   0  -5   8    3.42    0.47
  -1   5  -8    9.34    0.71
  -1   5  -8    9.73    0.95
  -1   5  -8    9.98    0.98
   1  -5   8   10.77    0.96
   1  -5   8   11.03    0.93
  -2   5  -8    1.11    0.40
  -2   5  -8    0.94    0.25
  -2   5  -8    0.73    0.31
   2  -5   8    0.95    0.47
   2  -5   8    0.86    0.37
   2  -5   8    0.74    0.34
  -3   5  -8    4.94    0.60
  -3   5  -8    2.81    0.58
  -3   5  -8    4.18    0.49
   3  -5   8    4.25    0.80
   3  -5   8    4.08    0.61
   3  -5   8    5.17    0.75
  -4   5  -8    0.12    0.33
  -4   5  -8    0.10    0.22
   4  -5   8   -0.05    0.33
   4  -5   8    0.27    0.40
  -5   5  -8    1.58    0.54
  -5   5  -8    0.86    0.33
   5  -5   8    2.23    0.63
   5  -5   8    1.20    0.44
  -6   5  -8    2.60    0.62
  -6   5  -8    3.50    0.56
   6  -5   8    5.01    0.89
   6  -5   8    4.06    0.80
  -7   5  -8    0.77    0.52
  -7   5  -8   -0.13    0.30
   7  -5   8    0.50    0.40
   7  -5   8    1.08    0.50
  -8   5  -8    0.52    0.37
  -8   5  -8   -0.30    0.38
   8  -5   8    0.22    0.39
   8  -5   8    0.17    0.47
   7   4  -8    1.35    0.55
   7   4  -8    1.34    0.59
   7   4  -8    0.61    0.34
  -7  -4   8    0.87    0.41
  -7  -4   8    1.26    0.51
   6   4  -8   12.70    1.39
   6   4  -8   15.50    1.61
   6   4  -8   14.72    1.16
  -6  -4   8   16.58    1.23
  -6  -4   8   14.70    1.27
   5   4  -8    2.78    0.45
   5   4  -8    3.11    0.68
   5   4  -8    1.55    0.49
  -5  -4   8    1.00    0.45
  -5  -4   8    2.61    0.46
   4   4  -8    0.31    0.35
   4   4  -8    0.38    0.23
   4   4  -8    1.03    0.39
  -4  -4   8    0.29    0.28
  -4  -4   8    0.70    0.28
   3   4  -8    0.23    0.31
   3   4  -8    0.11    0.17
   3   4  -8    0.31    0.31
  -3  -4   8    0.15    0.29
  -3  -4   8    0.35    0.23
   2   4  -8    0.95    0.23
   2   4  -8    1.31    0.45
   2   4  -8    1.25    0.32
  -2  -4   8    1.16    0.30
  -2  -4   8    1.15    0.38
   1   4  -8    0.81    0.26
   1   4  -8    1.03    0.23
   1   4  -8    1.32    0.43
  -1  -4   8    0.26    0.26
  -1  -4   8    1.04    0.29
   0   4  -8    3.22    0.54
   0   4  -8    2.93    0.37
   0   4  -8    3.25    0.56
   0   4  -8    2.93    0.38
   0  -4   8    3.06    0.45
   0  -4   8    3.09    0.53
   0  -4   8    3.43    0.54
  -1   4  -8    9.79    0.73
  -1   4  -8   10.25    0.71
  -1   4  -8   10.72    0.95
  -1   4  -8   10.78    0.95
   1  -4   8   11.02    0.98
   1  -4   8   10.25    0.90
   1  -4   8    8.47    0.80
  -2   4  -8    3.75    0.47
  -2   4  -8    4.93    0.64
  -2   4  -8    4.42    0.68
   2  -4   8    4.87    0.63
   2  -4   8    6.60    0.78
  -3   4  -8   -0.15    0.18
  -3   4  -8    0.18    0.24
  -3   4  -8   -0.24    0.14
   3  -4   8    0.23    0.30
   3  -4   8   -0.33    0.29
   3  -4   8   -0.27    0.23
  -4   4  -8   -0.21    0.17
  -4   4  -8   -0.10    0.20
  -4   4  -8   -0.16    0.18
   4  -4   8   -0.04    0.30
   4  -4   8    0.14    0.36
  -5   4  -8   13.32    1.08
  -5   4  -8   12.17    1.27
   5  -4   8   14.60    1.34
   5  -4   8   19.52    1.52
  -6   4  -8    0.04    0.25
  -6   4  -8    0.02    0.33
   6  -4   8    0.15    0.35
   6  -4   8    0.00    0.27
  -7   4  -8    2.95    0.54
  -7   4  -8    2.80    0.64
   7  -4   8    3.61    0.70
   7  -4   8    2.71    0.73
  -8   4  -8    0.00    0.34
  -8   4  -8   -0.03    0.44
   8  -4   8    0.16    0.47
   8  -4   8    0.15    0.38
  -9   4  -8    6.58    1.09
  -9   4  -8    4.77    0.80
   9  -4   8    6.26    0.97
   9  -4   8    5.60    1.09
   7   3  -8    1.28    0.55
   7   3  -8    1.08    0.47
   7   3  -8    1.25    0.40
  -7  -3   8    0.75    0.45
  -7  -3   8    0.49    0.35
   6   3  -8    2.10    0.65
   6   3  -8    0.98    0.36
   6   3  -8    0.66    0.47
  -6  -3   8    1.16    0.49
  -6  -3   8    1.20    0.40
   5   3  -8    0.47    0.36
   5   3  -8    0.24    0.33
   5   3  -8    0.15    0.24
  -5  -3   8   -0.12    0.21
  -5  -3   8    0.32    0.29
   4   3  -8    1.52    0.46
   4   3  -8    1.48    0.33
   4   3  -8    1.64    0.45
  -4  -3   8    0.77    0.31
  -4  -3   8    1.34    0.41
   3   3  -8    7.77    0.64
   3   3  -8    6.20    0.72
   3   3  -8    6.53    0.90
  -3  -3   8    6.74    0.72
  -3  -3   8    6.83    0.81
   2   3  -8    4.53    0.56
   2   3  -8    4.73    0.74
   2   3  -8    5.55    0.49
  -2  -3   8    5.87    0.64
  -2  -3   8    5.52    0.67
   1   3  -8    5.53    0.51
   1   3  -8    6.61    0.83
   1   3  -8    5.37    0.58
  -1  -3   8    7.30    0.63
  -1  -3   8    5.72    0.69
   0   3  -8    0.35    0.28
   0   3  -8    0.60    0.19
   0   3  -8    0.56    0.27
   0   3  -8    0.53    0.19
   0  -3   8    0.71    0.26
   0  -3   8    0.22    0.27
   0  -3   8    0.54    0.26
  -1   3  -8   71.09    4.12
  -1   3  -8   73.30    4.11
  -1   3  -8   71.20    4.88
  -1   3  -8   71.69    4.60
   1  -3   8   80.55    4.78
   1  -3   8   69.22    4.18
   1  -3   8   70.02    4.24
  -2   3  -8   14.39    1.18
  -2   3  -8   13.14    1.15
  -2   3  -8   13.90    0.83
  -2   3  -8   13.03    0.96
   2  -3   8   16.39    1.22
   2  -3   8   12.54    1.02
   2  -3   8   15.00    1.10
  -3   3  -8    4.41    0.58
  -3   3  -8    3.85    0.48
  -3   3  -8    4.33    0.65
   3  -3   8    4.44    0.66
   3  -3   8    4.20    0.43
   3  -3   8    4.00    0.56
  -4   3  -8    1.24    0.42
  -4   3  -8    1.03    0.29
  -4   3  -8    1.00    0.29
   4  -3   8    1.95    0.47
   4  -3   8    1.45    0.41
   4  -3   8    1.16    0.25
  -5   3  -8    0.12    0.32
  -5   3  -8    0.14    0.22
  -5   3  -8    0.22    0.20
   5  -3   8    0.30    0.25
   5  -3   8    0.44    0.29
   5  -3   8    0.47    0.23
  -6   3  -8    4.95    0.67
  -6   3  -8    4.63    0.77
   6  -3   8    6.32    0.87
   6  -3   8    6.81    0.92
  -7   3  -8    1.69    0.44
  -7   3  -8    1.87    0.59
   7  -3   8    2.58    0.63
   7  -3   8    2.76    0.60
  -8   3  -8    3.52    0.75
  -8   3  -8    4.90    0.74
   8  -3   8    5.19    0.89
   8  -3   8    5.12    0.81
  -9   3  -8    0.25    0.51
  -9   3  -8    0.68    0.40
   9  -3   8    1.47    0.53
   9  -3   8    1.04    0.56
 -10   3  -8   -0.55    0.33
 -10   3  -8    0.01    0.48
  10  -3   8   -0.59    0.42
   7   2  -8    5.70    0.81
   7   2  -8    5.24    0.85
   7   2  -8    7.16    1.08
  -7  -2   8    5.29    0.84
  -7  -2   8    5.41    0.79
   6   2  -8    7.56    0.87
   6   2  -8    7.01    0.94
   6   2  -8    7.20    1.06
  -6  -2   8    6.53    0.84
  -6  -2   8    8.01    0.91
   5   2  -8    5.31    0.85
   5   2  -8    5.00    0.62
   5   2  -8    2.91    0.60
  -5  -2   8    5.23    0.68
  -5  -2   8    3.57    0.63
   4   2  -8    1.64    0.50
   4   2  -8    0.98    0.37
   4   2  -8    1.05    0.31
  -4  -2   8    1.47    0.40
  -4  -2   8    0.99    0.34
   3   2  -8    2.01    0.35
   3   2  -8    1.28    0.46
   3   2  -8    2.16    0.40
  -3  -2   8    1.87    0.38
  -3  -2   8    1.71    0.40
  -3  -2   8    1.65    0.33
   2   2  -8    0.10    0.20
   2   2  -8    0.23    0.17
   2   2  -8    0.09    0.21
  -2  -2   8    0.24    0.17
  -2  -2   8   -0.04    0.19
  -2  -2   8    0.31    0.25
   1   2  -8    0.85    0.25
   1   2  -8    0.10    0.21
   1   2  -8    0.88    0.22
  -1  -2   8    0.31    0.21
  -1  -2   8    0.67    0.19
  -1  -2   8    0.42    0.26
   0   2  -8    0.82    0.22
   0   2  -8    1.12    0.38
   0   2  -8    0.98    0.29
   0   2  -8    1.06    0.23
   0  -2   8    1.01    0.22
   0  -2   8    1.00    0.30
   0  -2   8    1.03    0.31
  -1   2  -8   13.73    0.89
  -1   2  -8   12.35    0.81
  -1   2  -8   12.77    1.11
  -1   2  -8   12.08    0.87
  -1   2  -8   12.92    1.07
   1  -2   8   11.98    0.84
   1  -2   8   11.97    0.95
   1  -2   8   13.04    0.96
   1  -2   8   13.91    1.09
  -2   2  -8    0.40    0.08
  -2   2  -8    0.69    0.21
  -2   2  -8    0.26    0.18
  -2   2  -8    0.54    0.24
  -2   2  -8    0.37    0.20
   2  -2   8    0.54    0.28
   2  -2   8    0.12    0.22
   2  -2   8    0.52    0.20
  -3   2  -8    1.51    0.37
  -3   2  -8    1.45    0.28
  -3   2  -8    2.21    0.33
  -3   2  -8    1.00    0.31
   3  -2   8    1.40    0.33
   3  -2   8    1.26    0.34
   3  -2   8    1.81    0.29
   3  -2   8    1.54    0.40
  -4   2  -8   29.31    2.20
  -4   2  -8   30.98    1.98
  -4   2  -8   31.01    2.25
   4  -2   8   30.94    1.92
   4  -2   8   36.33    2.34
  -5   2  -8   14.19    1.19
  -5   2  -8   15.01    1.11
  -5   2  -8   14.01    1.25
   5  -2   8   15.90    1.34
   5  -2   8   16.39    1.08
  -6   2  -8   25.06    1.93
  -6   2  -8   22.94    1.82
  -6   2  -8   25.59    1.72
   6  -2   8   29.34    2.05
   6  -2   8   26.17    1.67
  -7   2  -8    1.57    0.53
  -7   2  -8    1.91    0.45
   7  -2   8    3.12    0.66
   7  -2   8    1.97    0.43
  -8   2  -8   -0.49    0.22
  -8   2  -8   -0.21    0.26
   8  -2   8    0.13    0.24
   8  -2   8    0.13    0.29
  -9   2  -8    5.67    0.78
  -9   2  -8    4.60    0.87
   9  -2   8    4.45    0.86
 -10   2  -8    4.15    0.93
 -10   2  -8    5.00    0.83
  10  -2   8    4.59    0.97
 -11   2  -8    2.87    0.66
 -11   2  -8    2.49    0.72
  11  -2   8    1.46    0.61
   7   1  -8   -0.27    0.39
   7   1  -8   -0.20    0.31
   7   1  -8    0.05    0.36
  -7  -1   8   -0.09    0.36
  -7  -1   8    0.13    0.43
   6   1  -8    6.80    1.01
   6   1  -8    6.93    0.83
   6   1  -8    4.49    0.75
  -6  -1   8    6.37    0.84
  -6  -1   8    5.96    0.82
   5   1  -8   10.69    1.24
   5   1  -8    9.91    0.88
   5   1  -8    8.36    0.99
  -5  -1   8    8.96    0.98
  -5  -1   8    8.88    0.97
   4   1  -8    3.57    0.62
   4   1  -8    3.30    0.55
   4   1  -8    2.47    0.45
  -4  -1   8    3.52    0.56
  -4  -1   8    2.87    0.52
  -4  -1   8    3.73    0.50
   3   1  -8    3.39    0.48
   3   1  -8    2.41    0.54
   3   1  -8    3.79    0.51
  -3  -1   8    3.69    0.51
  -3  -1   8    3.87    0.49
  -3  -1   8    3.68    0.52
   2   1  -8    1.38    0.42
   2   1  -8    1.89    0.36
   2   1  -8    1.50    0.29
  -2  -1   8    2.09    0.34
  -2  -1   8    1.06    0.32
  -2  -1   8    1.41    0.33
   1   1  -8   24.49    1.61
   1   1  -8   26.44    1.98
   1   1  -8   25.24    1.61
  -1  -1   8   26.28    1.68
  -1  -1   8   25.73    1.60
  -1  -1   8   25.75    1.66
   0   1  -8    4.64    0.65
   0   1  -8    5.01    0.53
   0   1  -8    5.82    0.48
   0   1  -8    5.57    0.51
   0   1  -8    5.54    0.67
   0  -1   8    5.90    0.62
   0  -1   8    5.63    0.48
   0  -1   8    5.15    0.59
  -1   1  -8   19.96    1.58
  -1   1  -8   19.67    1.25
  -1   1  -8   19.84    1.31
  -1   1  -8   21.05    1.50
  -1   1  -8   21.85    1.33
   1  -1   8   21.99    1.31
   1  -1   8   21.64    1.56
   1  -1   8   20.86    1.38
   1  -1   8   19.51    1.37
  -2   1  -8   14.83    1.13
  -2   1  -8   14.29    1.17
  -2   1  -8   13.11    0.96
  -2   1  -8   14.88    0.97
   2  -1   8   13.54    1.03
   2  -1   8   13.47    1.02
   2  -1   8   14.26    0.95
   2  -1   8   15.05    1.15
  -3   1  -8    0.41    0.20
  -3   1  -8    0.32    0.19
  -3   1  -8    0.30    0.19
  -3   1  -8    0.45    0.25
   3  -1   8    0.46    0.23
   3  -1   8    0.27    0.18
   3  -1   8    0.82    0.28
  -4   1  -8    2.56    0.47
  -4   1  -8    3.45    0.45
  -4   1  -8    2.71    0.45
   4  -1   8    2.66    0.50
   4  -1   8    3.30    0.41
  -5   1  -8    2.77    0.44
  -5   1  -8    1.79    0.39
  -5   1  -8    2.21    0.46
   5  -1   8    2.27    0.37
   5  -1   8    2.24    0.46
  -6   1  -8    0.08    0.23
  -6   1  -8   -0.31    0.12
  -6   1  -8    0.03    0.22
   6  -1   8   -0.02    0.16
   6  -1   8    0.32    0.30
  -7   1  -8    2.54    0.61
  -7   1  -8    2.56    0.50
   7  -1   8    3.06    0.48
   7  -1   8    2.80    0.61
  -8   1  -8    0.86    0.38
  -8   1  -8    0.54    0.37
   8  -1   8    0.82    0.29
   8  -1   8    0.69    0.36
  -9   1  -8    2.02    0.54
  -9   1  -8    1.70    0.60
   9  -1   8    1.73    0.46
   9  -1   8    2.25    0.60
 -10   1  -8    6.22    0.93
 -10   1  -8    6.75    1.10
  10  -1   8    7.50    0.91
  10  -1   8    7.22    1.13
 -11   1  -8    2.34    0.71
 -11   1  -8    4.68    0.81
  11  -1   8    3.77    0.83
   7   0  -8    0.38    0.45
   7   0  -8   -0.10    0.36
   7   0  -8   -0.10    0.35
  -7   0   8    0.15    0.31
  -7   0   8   -0.15    0.34
   6   0  -8    3.69    0.66
   6   0  -8    4.89    0.76
   6   0  -8    5.10    0.85
  -6   0   8    3.66    0.70
  -6   0   8    3.55    0.62
   5   0  -8    1.28    0.39
   5   0  -8    1.59    0.48
   5   0  -8    1.46    0.47
  -5   0   8    1.46    0.41
  -5   0   8    1.88    0.43
  -5   0   8    1.06    0.38
   4   0  -8    0.93    0.34
   4   0  -8    1.17    0.40
   4   0  -8    0.90    0.37
  -4   0   8    1.13    0.36
  -4   0   8    0.90    0.32
  -4   0   8    0.79    0.34
   3   0  -8    0.68    0.26
   3   0  -8    0.86    0.28
   3   0  -8    0.63    0.32
  -3   0   8    0.53    0.27
  -3   0   8    0.43    0.23
  -3   0   8    0.71    0.26
   2   0  -8   10.26    0.80
   2   0  -8    8.66    0.80
   2   0  -8    9.32    0.99
  -2   0   8   10.90    0.83
  -2   0   8   11.30    0.81
  -2   0   8   10.44    0.83
   1   0  -8    0.02    0.17
   1   0  -8    0.08    0.16
   1   0  -8   -0.23    0.24
  -1   0   8    0.24    0.19
  -1   0   8    0.10    0.19
  -1   0   8    0.22    0.17
   0   0  -8   11.96    0.85
   0   0  -8   10.86    0.82
   0   0  -8   12.57    1.06
   0   0  -8   12.56    0.99
   0   0   8   12.49    0.86
   0   0   8   12.00    0.91
   0   0   8   12.14    0.88
  -1   0  -8   -0.13    0.10
  -1   0  -8    0.00    0.13
  -1   0  -8    0.10    0.18
  -1   0  -8   -0.11    0.10
   1   0   8    0.03    0.15
   1   0   8   -0.19    0.14
   1   0   8   -0.19    0.11
   1   0   8   -0.11    0.08
  -2   0  -8    7.39    0.62
  -2   0  -8    8.83    0.73
  -2   0  -8    8.33    0.79
   2   0   8    7.49    0.50
   2   0   8    6.96    0.64
   2   0   8    7.64    0.67
   2   0   8    8.31    0.63
   2   0   8    8.40    0.73
  -3   0  -8    5.65    0.59
  -3   0  -8    5.71    0.62
  -3   0  -8    7.15    0.75
   3   0   8    6.24    0.56
   3   0   8    5.37    0.51
   3   0   8    6.89    0.59
   3   0   8    5.54    0.68
  -4   0  -8   10.06    0.91
  -4   0  -8    9.66    0.79
  -4   0  -8    9.54    0.90
   4   0   8    9.72    0.81
   4   0   8   10.82    0.90
  -5   0  -8    0.19    0.22
  -5   0  -8    0.17    0.22
  -5   0  -8    0.03    0.26
   5   0   8    0.26    0.17
   5   0   8   -0.14    0.22
  -6   0  -8   24.03    1.86
  -6   0  -8   26.29    1.68
  -6   0  -8   20.93    1.80
   6   0   8   25.43    1.63
   6   0   8   28.21    1.92
  -7   0  -8    0.30    0.28
  -7   0  -8    0.08    0.18
   7   0   8    0.64    0.35
   7   0   8    0.17    0.22
  -8   0  -8    4.95    0.73
  -8   0  -8    5.64    0.87
   8   0   8    6.03    0.74
   8   0   8    6.16    0.90
  -9   0  -8    0.56    0.41
  -9   0  -8   -0.15    0.40
   9   0   8    0.76    0.44
   9   0   8    1.04    0.39
 -10   0  -8   11.62    1.49
 -10   0  -8   13.28    1.38
  10   0   8   13.90    1.20
  10   0   8   13.93    1.40
 -11   0  -8    6.86    1.16
 -11   0  -8    9.75    1.15
  11   0   8    7.18    1.11
  11   0   8    8.07    1.01
 -12   0  -8    6.52    1.01
 -12   0  -8    5.53    1.07
  12   0   8    5.20    1.06
  12   0   8    8.60    1.07
   7  -1  -8    0.32    0.43
   7  -1  -8    0.13    0.42
   7  -1  -8   -0.16    0.36
  -7   1   8    0.13    0.34
  -7   1   8    0.25    0.31
   6  -1  -8    4.95    0.85
   6  -1  -8    5.61    0.90
   6  -1  -8    6.07    0.81
  -6   1   8    6.05    0.85
  -6   1   8    6.57    0.92
  -6   1   8    5.22    0.73
   5  -1  -8   13.20    1.33
   5  -1  -8   15.35    1.19
   5  -1  -8   12.40    1.17
  -5   1   8   13.83    1.10
  -5   1   8   13.94    1.20
  -5   1   8   13.72    1.18
   4  -1  -8   13.10    1.28
   4  -1  -8   13.76    1.13
   4  -1  -8   12.81    1.08
  -4   1   8   13.63    1.12
  -4   1   8   15.56    1.07
  -4   1   8   13.97    1.14
  -4   1   8   12.51    1.03
   3  -1  -8    0.14    0.21
   3  -1  -8   -0.17    0.21
   3  -1  -8   -0.24    0.29
  -3   1   8   -0.07    0.21
  -3   1   8   -0.01    0.18
  -3   1   8    0.17    0.19
  -3   1   8    0.45    0.22
   2  -1  -8    0.46    0.22
   2  -1  -8    0.47    0.27
   2  -1  -8    0.15    0.25
  -2   1   8    0.33    0.20
  -2   1   8    0.23    0.19
  -2   1   8    0.37    0.22
  -2   1   8    0.58    0.24
   1  -1  -8    3.91    0.59
   1  -1  -8    2.49    0.41
   1  -1  -8    3.93    0.48
  -1   1   8    3.19    0.44
  -1   1   8    3.78    0.49
  -1   1   8    4.22    0.52
  -1   1   8    3.59    0.46
   0  -1  -8    3.00    0.39
   0  -1  -8    2.13    0.47
   0  -1  -8    2.77    0.36
   0  -1  -8    2.21    0.39
   0   1   8    2.51    0.38
   0   1   8    3.32    0.42
   0   1   8    2.54    0.39
   0   1   8    3.11    0.41
  -1  -1  -8   14.75    1.04
  -1  -1  -8   16.85    1.30
  -1  -1  -8   15.56    1.15
  -1  -1  -8   13.89    0.98
   1   1   8   14.96    1.04
   1   1   8   16.61    1.07
   1   1   8   15.58    1.08
  -2  -1  -8    0.84    0.27
  -2  -1  -8    0.75    0.25
  -2  -1  -8    0.82    0.21
   2   1   8    0.82    0.27
   2   1   8    0.73    0.23
   2   1   8    0.47    0.20
   2   1   8    0.96    0.23
   2   1   8    0.95    0.16
  -3  -1  -8    0.04    0.16
  -3  -1  -8    0.44    0.20
  -3  -1  -8    0.10    0.23
   3   1   8    0.56    0.20
   3   1   8    0.27    0.07
   3   1   8    0.30    0.17
   3   1   8    0.07    0.19
  -4  -1  -8    5.14    0.57
  -4  -1  -8    5.43    0.69
  -4  -1  -8    6.01    0.71
   4   1   8    5.29    0.56
   4   1   8    5.62    0.61
   4   1   8    5.83    0.59
  -5  -1  -8   13.36    1.20
  -5  -1  -8   15.31    1.23
  -5  -1  -8   15.44    1.08
   5   1   8   15.08    1.18
   5   1   8   14.36    1.08
  -6  -1  -8    0.31    0.25
  -6  -1  -8    1.46    0.41
  -6  -1  -8    0.71    0.28
   6   1   8    0.76    0.28
   6   1   8    0.37    0.24
  -7  -1  -8   25.14    1.85
  -7  -1  -8   25.60    2.04
   7   1   8   29.42    1.57
   7   1   8   27.29    2.06
   7   1   8   27.36    1.84
  -8  -1  -8    0.08    0.26
  -8  -1  -8   -0.15    0.25
   8   1   8   -0.01    0.27
   8   1   8   -0.05    0.10
   8   1   8   -0.15    0.17
  -9  -1  -8    0.69    0.50
  -9  -1  -8    1.11    0.44
   9   1   8    1.34    0.38
   9   1   8    0.77    0.37
 -10  -1  -8    1.66    0.48
 -10  -1  -8    0.79    0.46
  10   1   8    0.59    0.36
  10   1   8    0.91    0.41
 -11  -1  -8    3.19    0.71
 -11  -1  -8    4.06    0.91
  11   1   8    4.38    0.77
  11   1   8    4.56    0.86
 -12  -1  -8    0.13    0.46
 -12  -1  -8    0.33    0.60
  12   1   8   -0.03    0.37
  12   1   8    0.65    0.43
   7  -2  -8    0.14    0.44
   7  -2  -8    0.71    0.49
   7  -2  -8    0.60    0.45
  -7   2   8   -0.52    0.36
  -7   2   8    0.39    0.46
   6  -2  -8    0.64    0.38
   6  -2  -8    1.57    0.53
   6  -2  -8    1.72    0.52
  -6   2   8    0.74    0.47
  -6   2   8    0.15    0.42
   5  -2  -8    0.40    0.38
   5  -2  -8   -0.01    0.19
   5  -2  -8   -0.26    0.31
  -5   2   8   -0.11    0.20
  -5   2   8   -0.16    0.27
  -5   2   8   -0.27    0.20
   4  -2  -8   -0.30    0.27
   4  -2  -8    0.13    0.28
   4  -2  -8    0.53    0.36
  -4   2   8    0.40    0.26
  -4   2   8    0.07    0.29
  -4   2   8    0.12    0.27
  -4   2   8    0.03    0.23
   3  -2  -8    4.67    0.78
   3  -2  -8    6.08    0.70
   3  -2  -8    6.09    0.74
  -3   2   8    6.41    0.66
  -3   2   8    6.40    0.73
  -3   2   8    6.43    0.73
  -3   2   8    7.28    0.68
   2  -2  -8    3.61    0.53
   2  -2  -8    3.09    0.61
   2  -2  -8    3.79    0.52
  -2   2   8    3.17    0.49
  -2   2   8    5.79    0.57
  -2   2   8    5.06    0.61
  -2   2   8    4.56    0.57
   1  -2  -8   19.09    1.26
   1  -2  -8   19.04    1.53
   1  -2  -8   16.48    1.25
  -1   2   8   19.57    1.29
  -1   2   8   18.49    1.28
  -1   2   8   18.56    1.21
  -1   2   8   18.35    1.34
   0  -2  -8    4.05    0.50
   0  -2  -8    3.94    0.50
   0  -2  -8    3.33    0.56
   0  -2  -8    3.88    0.46
   0   2   8    4.04    0.50
   0   2   8    3.62    0.50
   0   2   8    4.57    0.48
   0   2   8    4.89    0.51
  -1  -2  -8    1.33    0.14
  -1  -2  -8    0.51    0.26
  -1  -2  -8    1.32    0.26
  -1  -2  -8    0.77    0.23
   1   2   8    1.47    0.30
   1   2   8    1.31    0.29
   1   2   8    1.24    0.26
   1   2   8    1.36    0.30
  -2  -2  -8    4.06    0.52
  -2  -2  -8    4.25    0.63
  -2  -2  -8    5.27    0.55
   2   2   8    5.21    0.55
   2   2   8    4.97    0.56
   2   2   8    5.37    0.43
   2   2   8    4.67    0.52
   2   2   8    4.79    0.52
  -3  -2  -8   19.98    1.44
  -3  -2  -8   21.80    1.57
  -3  -2  -8   20.61    1.71
   3   2   8   22.23    1.46
   3   2   8   20.91    1.54
   3   2   8   25.86    1.36
   3   2   8   22.56    1.61
   3   2   8   23.78    1.46
  -4  -2  -8    4.59    0.65
  -4  -2  -8    3.52    0.52
  -4  -2  -8    4.02    0.50
   4   2   8    3.48    0.47
   4   2   8    4.63    0.57
   4   2   8    4.77    0.34
   4   2   8    3.95    0.50
  -5  -2  -8    6.89    0.71
  -5  -2  -8    4.93    0.74
  -5  -2  -8    7.71    0.74
   5   2   8    7.18    0.70
   5   2   8    7.01    0.45
   5   2   8    6.84    0.61
   5   2   8    7.34    0.75
   5   2   8    7.92    0.47
  -6  -2  -8    7.65    0.88
  -6  -2  -8    8.45    0.82
  -6  -2  -8    5.79    0.77
   6   2   8    6.39    0.72
   6   2   8    7.10    0.72
   6   2   8    6.92    0.45
  -7  -2  -8   18.46    1.59
  -7  -2  -8   19.55    1.45
   7   2   8   21.14    1.22
   7   2   8   20.66    1.57
   7   2   8   20.72    1.45
  -8  -2  -8    0.06    0.28
  -8  -2  -8   -0.34    0.28
   8   2   8   -0.14    0.11
   8   2   8   -0.30    0.23
   8   2   8    0.07    0.24
  -9  -2  -8   11.78    1.08
  -9  -2  -8   11.40    1.34
   9   2   8   13.59    1.12
   9   2   8   13.34    1.18
   9   2   8   12.04    0.85
 -10  -2  -8    1.46    0.53
 -10  -2  -8    0.91    0.45
  10   2   8    2.45    0.55
  10   2   8    3.16    0.64
 -11  -2  -8    8.53    1.27
 -11  -2  -8    8.56    1.11
  11   2   8    8.68    1.14
  11   2   8    8.97    1.09
 -12  -2  -8    0.61    0.48
 -12  -2  -8    0.12    0.32
  12   2   8   -0.18    0.36
  12   2   8    0.11    0.30
  13   2   8    0.30    0.49
   7  -3  -8    9.02    1.09
   7  -3  -8    5.77    0.96
  -7   3   8    6.20    1.03
   6  -3  -8    3.79    0.78
   6  -3  -8    3.60    0.75
   6  -3  -8    3.80    0.67
  -6   3   8    3.39    0.68
  -6   3   8    4.14    0.77
   5  -3  -8    0.83    0.37
   5  -3  -8    0.67    0.38
   5  -3  -8    0.70    0.41
  -5   3   8    1.09    0.42
  -5   3   8    1.10    0.41
  -5   3   8    0.68    0.44
   4  -3  -8    5.75    0.73
   4  -3  -8    4.60    0.78
   4  -3  -8    4.98    0.72
  -4   3   8    4.84    0.68
  -4   3   8    4.56    0.71
  -4   3   8    4.74    0.70
   3  -3  -8   -0.25    0.28
   3  -3  -8    0.28    0.26
   3  -3  -8    0.53    0.35
  -3   3   8    0.35    0.31
  -3   3   8    0.18    0.29
  -3   3   8    0.60    0.23
  -3   3   8    0.37    0.25
   2  -3  -8    1.22    0.30
   2  -3  -8    0.39    0.28
   2  -3  -8    1.16    0.41
  -2   3   8    0.97    0.33
  -2   3   8    1.22    0.35
  -2   3   8    1.27    0.27
  -2   3   8    1.54    0.37
   1  -3  -8    0.47    0.32
   1  -3  -8    0.51    0.21
   1  -3  -8    0.09    0.25
  -1   3   8    0.61    0.28
  -1   3   8    0.79    0.29
  -1   3   8    0.66    0.20
  -1   3   8    0.43    0.29
   0  -3  -8    5.69    0.77
   0  -3  -8    6.46    0.65
   0  -3  -8    6.71    0.58
   0   3   8    7.36    0.68
   0   3   8    6.27    0.52
   0   3   8    5.60    0.62
   0   3   8    4.89    0.61
  -1  -3  -8    3.89    0.48
  -1  -3  -8    3.91    0.28
  -1  -3  -8    3.45    0.56
  -1  -3  -8    3.70    0.46
   1   3   8    4.33    0.49
   1   3   8    3.09    0.45
   1   3   8    4.13    0.55
   1   3   8    4.54    0.47
  -2  -3  -8    0.73    0.23
  -2  -3  -8    0.89    0.16
  -2  -3  -8    0.75    0.22
  -2  -3  -8    0.64    0.31
   2   3   8    0.31    0.26
   2   3   8    0.98    0.26
   2   3   8    0.88    0.22
  -3  -3  -8    1.06    0.27
  -3  -3  -8    0.80    0.26
  -3  -3  -8    1.24    0.33
   3   3   8    1.15    0.25
   3   3   8    1.09    0.25
   3   3   8    1.12    0.29
   3   3   8    0.90    0.25
   3   3   8    1.01    0.22
  -4  -3  -8   27.02    1.82
  -4  -3  -8   25.65    2.13
  -4  -3  -8   28.74    1.97
   4   3   8   26.15    1.80
   4   3   8   33.65    1.75
   4   3   8   29.93    2.00
   4   3   8   27.94    1.80
   4   3   8   29.78    1.95
  -5  -3  -8   15.04    1.10
  -5  -3  -8   15.50    1.27
  -5  -3  -8   14.29    1.17
   5   3   8   14.32    1.06
   5   3   8   15.00    1.15
   5   3   8   14.61    1.07
  -6  -3  -8   19.73    1.86
  -6  -3  -8   24.69    1.67
  -6  -3  -8   25.07    1.84
   6   3   8   26.60    1.80
   6   3   8   26.98    1.49
  -7  -3  -8   15.78    1.38
  -7  -3  -8   15.15    1.21
   7   3   8   16.33    1.21
   7   3   8   16.14    1.03
   7   3   8   18.19    1.31
  -8  -3  -8    0.43    0.26
  -8  -3  -8    0.64    0.39
   8   3   8    0.24    0.22
   8   3   8    0.17    0.14
   8   3   8   -0.05    0.23
  -9  -3  -8   -0.07    0.37
  -9  -3  -8    0.13    0.32
   9   3   8   -0.03    0.15
   9   3   8    0.02    0.24
   9   3   8   -0.23    0.25
 -10  -3  -8    2.70    0.66
 -10  -3  -8    3.30    0.61
  10   3   8    2.38    0.38
  10   3   8    2.35    0.56
  10   3   8    1.93    0.51
 -11  -3  -8    3.28    0.66
 -11  -3  -8    3.05    0.78
  11   3   8    3.74    0.73
  11   3   8    4.35    0.74
 -12  -3  -8    2.76    0.68
 -12  -3  -8    1.46    0.71
  12   3   8    0.88    0.50
  12   3   8    1.56    0.49
 -13  -3  -8    4.44    1.02
 -13  -3  -8    4.97    0.92
  13   3   8    5.18    0.94
  13   3   8    5.52    0.96
   6  -4  -8    1.92    0.59
   6  -4  -8    0.75    0.39
  -6   4   8    1.09    0.57
  -6   4   8    0.63    0.49
   5  -4  -8    0.33    0.38
   5  -4  -8   -0.35    0.35
   5  -4  -8    0.26    0.39
  -5   4   8   -0.14    0.35
  -5   4   8    0.60    0.42
  -5   4   8   -0.23    0.21
   4  -4  -8    6.92    0.84
   4  -4  -8    6.18    0.87
   4  -4  -8    6.02    0.90
  -4   4   8    8.28    0.96
  -4   4   8    5.88    0.84
  -4   4   8    6.65    0.84
   3  -4  -8    0.29    0.27
   3  -4  -8    0.73    0.28
   3  -4  -8   -0.27    0.28
  -3   4   8    0.10    0.32
  -3   4   8    0.21    0.36
  -3   4   8    0.28    0.22
   2  -4  -8    0.37    0.26
   2  -4  -8    0.61    0.34
   2  -4  -8    1.20    0.34
  -2   4   8    0.95    0.31
  -2   4   8    0.65    0.36
  -2   4   8    1.44    0.39
   1  -4  -8    8.60    0.76
   1  -4  -8    8.04    0.97
   1  -4  -8    8.81    0.70
  -1   4   8    8.99    0.82
  -1   4   8    7.32    0.80
  -1   4   8    8.60    0.85
   0  -4  -8    1.97    0.32
   0  -4  -8    1.99    0.35
   0  -4  -8    1.92    0.48
   0   4   8    2.05    0.40
   0   4   8    2.45    0.32
   0   4   8    2.84    0.42
   0   4   8    1.89    0.40
  -1  -4  -8    3.57    0.43
  -1  -4  -8    3.64    0.49
  -1  -4  -8    3.85    0.31
  -1  -4  -8    3.89    0.61
   1   4   8    4.73    0.53
   1   4   8    4.08    0.54
   1   4   8    3.44    0.46
  -2  -4  -8   25.23    1.67
  -2  -4  -8   25.06    1.62
  -2  -4  -8   25.37    1.48
  -2  -4  -8   22.15    1.89
   2   4   8   25.18    1.59
   2   4   8   24.94    1.73
   2   4   8   26.12    1.62
  -3  -4  -8    1.14    0.28
  -3  -4  -8    0.83    0.31
  -3  -4  -8    1.52    0.25
  -3  -4  -8    1.13    0.30
   3   4   8    0.98    0.28
   3   4   8    0.87    0.24
   3   4   8    1.40    0.30
  -4  -4  -8   16.80    1.34
  -4  -4  -8   18.79    1.29
  -4  -4  -8   16.07    1.47
   4   4   8   19.91    1.37
   4   4   8   19.42    1.27
   4   4   8   18.08    1.24
   4   4   8   20.27    1.37
  -5  -4  -8   11.54    1.14
  -5  -4  -8   12.23    1.07
  -5  -4  -8   12.86    0.99
   5   4   8   13.92    1.06
   5   4   8   13.49    1.03
   5   4   8   14.67    0.99
   5   4   8   13.47    0.98
  -6  -4  -8   16.38    1.24
  -6  -4  -8   14.89    1.33
   6   4   8   18.17    1.23
   6   4   8   18.10    1.29
   6   4   8   16.90    1.19
  -7  -4  -8    4.09    0.66
  -7  -4  -8    4.48    0.63
   7   4   8    5.51    0.45
   7   4   8    5.15    0.65
   7   4   8    5.81    0.65
  -8  -4  -8    1.48    0.48
  -8  -4  -8    2.29    0.47
   8   4   8    2.35    0.48
   8   4   8    2.44    0.45
   8   4   8    2.76    0.36
  -9  -4  -8    2.37    0.54
  -9  -4  -8    0.96    0.43
   9   4   8    2.32    0.48
   9   4   8    2.47    0.36
   9   4   8    2.35    0.52
 -10  -4  -8    1.82    0.61
 -10  -4  -8    1.43    0.44
  10   4   8    1.16    0.38
  10   4   8    0.83    0.28
  10   4   8    0.74    0.40
 -11  -4  -8    1.08    0.58
 -11  -4  -8    0.49    0.37
  11   4   8    0.72    0.30
  11   4   8    1.60    0.53
  11   4   8    1.26    0.44
 -12  -4  -8    0.69    0.48
 -12  -4  -8    0.20    0.51
  12   4   8   -0.33    0.37
  12   4   8    0.03    0.31
 -13  -4  -8   -0.50    0.36
 -13  -4  -8    0.04    0.52
  13   4   8    0.16    0.36
  13   4   8    0.53    0.38
   6  -5  -8    1.98    0.52
  -6   5   8    1.11    0.57
  -6   5   8    0.98    0.46
   5  -5  -8    0.43    0.38
   5  -5  -8    0.25    0.39
  -5   5   8   -0.06    0.40
  -5   5   8   -0.38    0.38
  -5   5   8    0.59    0.46
   4  -5  -8    0.21    0.34
   4  -5  -8    0.74    0.33
  -4   5   8    1.57    0.49
  -4   5   8    0.65    0.45
  -4   5   8    0.47    0.31
   3  -5  -8    1.49    0.37
   3  -5  -8    1.08    0.44
  -3   5   8    2.12    0.49
  -3   5   8    0.66    0.41
  -3   5   8    1.14    0.43
   2  -5  -8    0.98    0.40
   2  -5  -8    1.37    0.36
  -2   5   8    0.77    0.43
  -2   5   8    0.73    0.29
  -2   5   8    0.24    0.23
   1  -5  -8    0.24    0.13
   1  -5  -8    0.16    0.32
   1  -5  -8    0.06    0.18
  -1   5   8    0.26    0.27
  -1   5   8    0.18    0.21
  -1   5   8    0.25    0.33
   0  -5  -8   11.37    0.84
   0  -5  -8   11.41    0.74
   0  -5  -8   12.09    0.93
   0  -5  -8   10.01    1.10
   0   5   8   13.69    1.06
   0   5   8   11.63    0.91
   0   5   8   11.46    0.92
  -1  -5  -8   11.35    1.14
  -1  -5  -8   12.24    0.94
  -1  -5  -8   11.35    0.88
  -1  -5  -8   11.85    0.78
   1   5   8   13.05    0.93
   1   5   8   13.63    0.96
   1   5   8   12.32    1.02
  -2  -5  -8    9.58    0.67
  -2  -5  -8    9.14    0.94
  -2  -5  -8    9.57    0.76
  -2  -5  -8    9.42    0.77
   2   5   8   10.62    0.80
   2   5   8   10.93    0.92
   2   5   8    8.57    0.78
  -3  -5  -8   -0.18    0.25
  -3  -5  -8    0.14    0.19
  -3  -5  -8   -0.13    0.14
  -3  -5  -8   -0.13    0.11
   3   5   8    0.35    0.22
   3   5   8    0.25    0.27
   3   5   8   -0.03    0.18
  -4  -5  -8    0.70    0.25
  -4  -5  -8    0.48    0.23
  -4  -5  -8    0.55    0.20
  -4  -5  -8    0.51    0.27
   4   5   8    0.20    0.20
   4   5   8    0.80    0.28
   4   5   8    0.66    0.23
  -5  -5  -8    1.11    0.33
  -5  -5  -8    0.46    0.30
  -5  -5  -8    1.04    0.31
   5   5   8    0.72    0.27
   5   5   8    0.92    0.33
   5   5   8    1.12    0.27
   5   5   8    0.95    0.28
  -6  -5  -8    2.13    0.47
  -6  -5  -8    2.88    0.48
   6   5   8    3.95    0.53
   6   5   8    3.25    0.47
   6   5   8    3.04    0.43
   6   5   8    2.05    0.36
  -7  -5  -8    7.42    0.87
  -7  -5  -8    6.72    0.78
   7   5   8    6.07    0.61
   7   5   8    6.45    0.56
  -8  -5  -8   -0.15    0.28
  -8  -5  -8    0.23    0.24
   8   5   8    0.18    0.23
   8   5   8    0.26    0.22
   8   5   8    0.30    0.19
  -9  -5  -8    9.79    1.06
  -9  -5  -8    7.27    1.04
   9   5   8    9.10    1.00
   9   5   8    9.33    0.75
   9   5   8    9.94    0.86
 -10  -5  -8   -0.17    0.22
 -10  -5  -8   -0.12    0.28
  10   5   8    0.11    0.19
  10   5   8    0.00    0.23
  10   5   8    0.27    0.26
 -11  -5  -8    0.40    0.34
 -11  -5  -8    0.98    0.39
  11   5   8    0.40    0.26
  11   5   8    0.81    0.37
  11   5   8    1.07    0.36
 -12  -5  -8    7.25    1.17
 -12  -5  -8    8.83    1.13
  12   5   8    7.14    0.84
  12   5   8    8.14    1.03
  12   5   8    8.99    1.11
 -13  -5  -8   -0.21    0.39
  13   5   8   -0.21    0.43
  13   5   8    0.31    0.35
   5  -6  -8    0.78    0.45
  -5   6   8    0.57    0.55
  -5   6   8    0.85    0.52
  -5   6   8    1.20    0.56
   4  -6  -8    0.09    0.24
   4  -6  -8   -0.03    0.33
  -4   6   8    0.06    0.29
  -4   6   8    0.21    0.52
  -4   6   8    0.20    0.41
   3  -6  -8   -0.01    0.29
   3  -6  -8   -0.06    0.20
  -3   6   8    0.76    0.47
  -3   6   8    0.07    0.34
  -3   6   8    0.08    0.23
   2  -6  -8    6.31    0.93
   2  -6  -8    7.37    0.86
  -2   6   8    8.40    0.92
  -2   6   8    8.41    1.03
  -2   6   8    8.94    0.96
   1  -6  -8    4.90    0.74
   1  -6  -8    4.76    0.61
  -1   6   8    6.22    0.72
  -1   6   8    4.49    0.63
  -1   6   8    4.46    0.74
   0  -6  -8   23.47    2.02
   0  -6  -8   25.38    1.66
   0  -6  -8   26.84    1.74
   0   6   8   25.42    1.74
   0   6   8   29.80    1.96
   0   6   8   27.01    1.76
  -1  -6  -8    1.48    0.49
  -1  -6  -8    2.62    0.42
  -1  -6  -8    2.37    0.31
  -1  -6  -8    2.31    0.30
   1   6   8    2.76    0.41
   1   6   8    2.01    0.45
   1   6   8    2.21    0.42
  -2  -6  -8   37.53    2.46
  -2  -6  -8   39.20    2.31
  -2  -6  -8   40.59    2.44
  -2  -6  -8   37.21    2.88
   2   6   8   42.06    2.41
   2   6   8   42.14    2.66
   2   6   8   37.40    2.41
  -3  -6  -8   17.46    1.16
  -3  -6  -8   17.59    1.25
  -3  -6  -8   16.37    1.22
  -3  -6  -8   15.26    1.49
   3   6   8   18.95    1.22
   3   6   8   19.95    1.38
   3   6   8   18.24    1.26
  -4  -6  -8   26.81    2.25
  -4  -6  -8   29.93    1.82
  -4  -6  -8   31.97    1.93
  -4  -6  -8   25.79    1.94
   4   6   8   30.81    1.86
   4   6   8   33.05    2.06
   4   6   8   29.10    1.89
  -5  -6  -8    0.30    0.20
  -5  -6  -8   -0.06    0.15
  -5  -6  -8   -0.09    0.20
   5   6   8   -0.15    0.13
   5   6   8   -0.34    0.13
   5   6   8    0.00    0.25
  -6  -6  -8    3.66    0.53
  -6  -6  -8    3.78    0.50
  -6  -6  -8    3.41    0.54
   6   6   8    2.93    0.50
   6   6   8    2.67    0.42
   6   6   8    3.73    0.52
  -7  -6  -8    3.18    0.59
  -7  -6  -8    3.86    0.61
   7   6   8    3.14    0.52
   7   6   8    4.10    0.56
   7   6   8    4.90    0.53
  -8  -6  -8   -0.21    0.27
  -8  -6  -8    0.30    0.29
   8   6   8    0.57    0.22
   8   6   8    0.23    0.20
   8   6   8    0.10    0.28
  -9  -6  -8    0.97    0.37
  -9  -6  -8    1.00    0.46
   9   6   8    1.77    0.37
   9   6   8    1.19    0.30
   9   6   8    1.24    0.36
 -10  -6  -8    2.23    0.59
 -10  -6  -8    2.31    0.59
  10   6   8    3.84    0.55
  10   6   8    3.20    0.49
  10   6   8    3.15    0.62
 -11  -6  -8   -0.41    0.35
 -11  -6  -8    0.37    0.37
  11   6   8    0.31    0.27
  11   6   8   -0.40    0.27
  11   6   8   -0.03    0.23
 -12  -6  -8    0.85    0.48
  12   6   8    1.15    0.52
  12   6   8    0.75    0.35
 -13  -6  -8    0.13    0.41
  13   6   8   -0.54    0.38
   4  -7  -8    1.42    0.49
  -4   7   8    1.33    0.53
  -4   7   8    0.90    0.62
  -4   7   8    0.76    0.40
   3  -7  -8    3.22    0.64
   3  -7  -8    1.91    0.49
  -3   7   8    3.32    0.76
  -3   7   8    2.54    0.63
  -3   7   8    3.63    0.65
   2  -7  -8    0.52    0.33
   2  -7  -8    0.45    0.34
  -2   7   8    0.08    0.33
  -2   7   8    0.63    0.35
  -2   7   8    0.19    0.35
   1  -7  -8    5.34    0.82
   1  -7  -8    5.26    0.68
  -1   7   8    8.83    1.01
  -1   7   8    6.33    0.79
  -1   7   8    5.31    0.71
   0  -7  -8    0.03    0.31
   0  -7  -8    0.84    0.23
   0  -7  -8    1.06    0.35
   0   7   8    0.89    0.31
   0   7   8    0.47    0.29
   0   7   8    0.89    0.44
  -1  -7  -8    0.75    0.41
  -1  -7  -8    0.21    0.19
  -1  -7  -8    0.86    0.24
   1   7   8    1.49    0.36
   1   7   8    0.99    0.37
   1   7   8    0.58    0.31
  -2  -7  -8    0.13    0.09
  -2  -7  -8    0.33    0.21
  -2  -7  -8    0.07    0.31
  -2  -7  -8    0.19    0.17
   2   7   8    0.05    0.32
   2   7   8    0.23    0.17
   2   7   8   -0.31    0.21
  -3  -7  -8    0.33    0.15
  -3  -7  -8    0.73    0.24
  -3  -7  -8    0.51    0.29
  -3  -7  -8    1.03    0.31
   3   7   8    0.12    0.31
   3   7   8    0.93    0.26
   3   7   8    0.65    0.24
  -4  -7  -8    0.30    0.19
  -4  -7  -8   -0.09    0.22
  -4  -7  -8    0.29    0.20
   4   7   8    0.41    0.21
   4   7   8    0.10    0.30
   4   7   8    0.47    0.22
  -5  -7  -8    0.11    0.25
  -5  -7  -8    0.67    0.25
  -5  -7  -8    0.15    0.17
   5   7   8    0.20    0.22
   5   7   8    0.33    0.20
   5   7   8    0.37    0.22
  -6  -7  -8    0.07    0.16
  -6  -7  -8   -0.08    0.17
  -6  -7  -8    0.01    0.20
   6   7   8    0.23    0.19
   6   7   8    0.27    0.18
   6   7   8   -0.12    0.23
  -7  -7  -8    0.31    0.25
  -7  -7  -8    1.02    0.32
  -7  -7  -8    0.85    0.32
   7   7   8    0.34    0.27
   7   7   8    0.63    0.30
  -8  -7  -8    3.47    0.58
  -8  -7  -8    3.41    0.65
  -8  -7  -8    3.90    0.58
   8   7   8    4.33    0.50
   8   7   8    4.13    0.57
  -9  -7  -8    0.04    0.31
  -9  -7  -8    0.17    0.34
   9   7   8    0.67    0.27
   9   7   8   -0.21    0.19
 -10  -7  -8    0.96    0.39
 -10  -7  -8    1.45    0.52
  10   7   8    2.80    0.58
  10   7   8    1.49    0.37
 -11  -7  -8    0.93    0.44
  11   7   8    0.16    0.27
  11   7   8    0.04    0.37
 -12  -7  -8    2.23    0.60
  12   7   8    1.30    0.54
  12   7   8    1.38    0.45
  13   7   8    0.29    0.48
  13   7   8   -0.16    0.32
   4  -8  -8   -0.04    0.36
  -4   8   8   -0.08    0.54
  -4   8   8    0.42    0.42
  -4   8   8   -0.03    0.44
   3  -8  -8    2.75    0.59
  -3   8   8    4.50    0.91
  -3   8   8    3.79    0.75
  -3   8   8    1.44    0.54
   2  -8  -8   10.53    1.22
   2  -8  -8   13.06    1.15
  -2   8   8   13.89    1.26
  -2   8   8   16.50    1.42
  -2   8   8   15.81    1.25
   1  -8  -8    7.84    1.13
   1  -8  -8   12.44    1.03
  -1   8   8   12.58    1.10
  -1   8   8   13.51    1.24
  -1   8   8   11.37    1.12
   0  -8  -8    7.84    0.66
   0  -8  -8    7.97    0.86
   0  -8  -8    5.86    0.92
   0   8   8    8.45    0.88
   0   8   8    7.87    1.03
   0   8   8    7.58    0.89
  -1  -8  -8    5.10    0.56
  -1  -8  -8    4.36    0.60
  -1  -8  -8    3.48    0.70
   1   8   8    5.34    0.67
   1   8   8    5.81    0.66
   1   8   8    4.37    0.73
  -2  -8  -8    0.08    0.19
  -2  -8  -8    0.01    0.16
   2   8   8    0.32    0.26
   2   8   8    0.36    0.29
   2   8   8    0.39    0.24
  -3  -8  -8    3.30    0.52
  -3  -8  -8    3.23    0.47
   3   8   8    3.16    0.57
   3   8   8    3.11    0.45
   3   8   8    2.30    0.42
  -4  -8  -8   -0.17    0.17
  -4  -8  -8    0.04    0.16
   4   8   8   -0.10    0.20
   4   8   8   -0.11    0.29
   4   8   8    0.06    0.17
  -5  -8  -8    0.29    0.24
  -5  -8  -8    0.00    0.17
   5   8   8    0.77    0.29
   5   8   8    0.05    0.29
   5   8   8    0.35    0.21
  -6  -8  -8    5.90    0.70
  -6  -8  -8    5.20    0.66
  -6  -8  -8    6.34    0.74
   6   8   8    5.83    0.70
   6   8   8    6.34    0.78
   6   8   8    6.43    0.65
  -7  -8  -8    1.82    0.43
  -7  -8  -8    2.21    0.42
  -7  -8  -8    2.98    0.51
   7   8   8    2.30    0.46
   7   8   8    2.39    0.47
  -8  -8  -8    0.19    0.26
  -8  -8  -8    0.36    0.27
  -8  -8  -8    0.23    0.29
   8   8   8   -0.48    0.20
  -9  -8  -8    0.69    0.36
  -9  -8  -8    1.49    0.46
   9   8   8    0.96    0.34
   9   8   8    0.81    0.34
   9   8   8    1.17    0.36
 -10  -8  -8    3.45    0.62
 -10  -8  -8    4.12    0.72
  10   8   8    4.62    0.74
  10   8   8    4.05    0.60
 -11  -8  -8    2.15    0.48
 -11  -8  -8    2.08    0.55
  11   8   8    1.62    0.45
  11   8   8    2.29    0.59
 -12  -8  -8   -0.19    0.33
  12   8   8   -0.19    0.27
  12   8   8   -0.18    0.39
 -13  -8  -8   -0.44    0.34
 -13  -8  -8    0.19    0.42
  13   8   8   -0.49    0.33
  13   8   8   -0.05    0.47
  -3   9   8    3.12    0.70
  -3   9   8    1.87    0.63
  -3   9   8    1.94    0.76
  -2   9   8   -0.10    0.51
  -2   9   8   -0.05    0.39
  -2   9   8    0.07    0.36
   1  -9  -8    3.82    0.61
  -1   9   8    3.07    0.55
  -1   9   8    2.76    0.74
  -1   9   8    2.40    0.59
   0  -9  -8    0.04    0.27
   0  -9  -8    0.39    0.24
   0   9   8    0.47    0.34
   0   9   8    0.19    0.31
   0   9   8   -0.28    0.42
  -1  -9  -8    0.81    0.32
  -1  -9  -8   -0.07    0.20
   1   9   8    0.12    0.29
   1   9   8    0.26    0.33
   1   9   8    0.19    0.26
  -2  -9  -8    0.55    0.25
  -2  -9  -8    0.62    0.27
   2   9   8    0.23    0.39
   2   9   8    0.26    0.25
   2   9   8    0.46    0.26
  -3  -9  -8    0.78    0.30
  -3  -9  -8    1.25    0.36
   3   9   8    0.97    0.30
   3   9   8    0.38    0.24
   3   9   8    0.53    0.34
  -4  -9  -8    0.64    0.30
  -4  -9  -8    1.22    0.36
   4   9   8    0.98    0.27
   4   9   8    0.40    0.31
   4   9   8    0.93    0.44
  -5  -9  -8    8.54    0.77
  -5  -9  -8    9.80    0.96
   5   9   8    8.99    0.91
   5   9   8    8.06    0.71
   5   9   8    8.69    0.99
  -6  -9  -8    3.78    0.56
  -6  -9  -8    5.06    0.67
  -6  -9  -8    2.94    0.42
   6   9   8    3.28    0.45
   6   9   8    4.60    0.67
   6   9   8    3.66    0.55
  -7  -9  -8    3.77    0.61
  -7  -9  -8    2.67    0.54
  -7  -9  -8    4.20    0.71
   7   9   8    4.95    0.68
   7   9   8    4.36    0.59
  -8  -9  -8    0.40    0.32
  -8  -9  -8    0.63    0.33
  -8  -9  -8   -0.10    0.26
   8   9   8   -0.40    0.24
  -9  -9  -8    3.14    0.60
  -9  -9  -8    1.64    0.43
   9   9   8    2.14    0.52
   9   9   8    1.72    0.45
   9   9   8    1.46    0.43
 -10  -9  -8   -0.08    0.31
 -10  -9  -8    0.22    0.32
  10   9   8    0.12    0.34
  10   9   8    1.13    0.37
 -11  -9  -8   -0.11    0.34
 -11  -9  -8    0.00    0.25
  11   9   8    0.48    0.34
  11   9   8    0.75    0.44
 -12  -9  -8    1.31    0.50
 -12  -9  -8    1.05    0.52
  12   9   8    1.84    0.61
  12   9   8    0.85    0.41
  -2  10   8    0.37    0.41
  -2  10   8    0.18    0.43
  -2  10   8    0.26    0.62
  -1  10   8    6.81    0.88
  -1  10   8    7.09    1.12
  -1  10   8    6.94    0.96
   0 -10  -8    0.03    0.24
   0  10   8    0.62    0.40
   0  10   8    0.89    0.37
   0  10   8    0.36    0.42
  -1 -10  -8    0.06    0.24
   1  10   8   -0.20    0.28
   1  10   8    0.40    0.29
   1  10   8    0.18    0.52
  -2 -10  -8    0.13    0.26
   2  10   8    0.62    0.42
   2  10   8    0.72    0.36
   2  10   8    0.92    0.30
  -3 -10  -8   -0.31    0.20
   3  10   8   -0.02    0.27
   3  10   8   -0.07    0.27
   3  10   8    0.09    0.20
  -4 -10  -8    0.97    0.37
   4  10   8    0.32    0.23
   4  10   8    0.49    0.42
   4  10   8   -0.01    0.25
  -5 -10  -8    0.57    0.27
   5  10   8   -0.23    0.23
   5  10   8    0.25    0.29
  -6 -10  -8    0.85    0.44
  -6 -10  -8    0.17    0.22
   6  10   8    0.37    0.29
   6  10   8   -0.04    0.23
  -7 -10  -8    0.34    0.36
  -7 -10  -8    1.88    0.47
   7  10   8    0.87    0.41
   7  10   8    0.61    0.34
  -8 -10  -8    1.55    0.37
  -8 -10  -8    1.15    0.43
  -8 -10  -8    1.28    0.46
   8  10   8    1.66    0.46
  -9 -10  -8    1.40    0.42
  -9 -10  -8    0.71    0.34
   9  10   8    1.07    0.40
   9  10   8    0.69    0.33
 -10 -10  -8    8.33    1.05
 -10 -10  -8    8.99    1.01
  10  10   8   10.26    1.15
  10  10   8    9.19    1.04
 -11 -10  -8    1.33    0.49
 -11 -10  -8    0.79    0.44
  11  10   8    1.63    0.47
  11  10   8    1.86    0.59
 -12 -10  -8    0.61    0.36
 -12 -10  -8    0.53    0.35
  12  10   8    1.09    0.52
  12  10   8    0.61    0.42
   0 -11  -8    4.75    0.71
   0 -11  -8    5.13    1.07
   0  11   8    4.90    0.79
   0  11   8    4.60    0.92
  -1 -11  -8    2.49    0.50
  -1 -11  -8    0.78    0.62
   1  11   8    1.60    0.51
   1  11   8    1.22    0.65
  -2 -11  -8    2.27    0.76
  -2 -11  -8    2.54    0.51
   2  11   8    3.96    0.84
   2  11   8    2.47    0.56
  -3 -11  -8   -0.15    0.23
  -3 -11  -8    0.37    0.48
   3  11   8   -0.54    0.42
   3  11   8   -0.25    0.26
  -4 -11  -8    0.70    0.35
  -4 -11  -8    0.48    0.54
   4  11   8    1.38    0.57
   4  11   8    0.91    0.37
  -5 -11  -8   -0.43    0.40
  -5 -11  -8    1.06    0.40
   5  11   8    0.97    0.39
   5  11   8    0.88    0.48
  -6 -11  -8    2.49    0.67
  -6 -11  -8    1.81    0.45
   6  11   8    0.86    0.40
   6  11   8    1.83    0.50
  -7 -11  -8    1.45    0.46
  -7 -11  -8    2.22    0.62
   7  11   8    2.32    0.58
   7  11   8    2.53    0.53
  -8 -11  -8    0.08    0.34
  -8 -11  -8   -0.01    0.38
   8  11   8    0.57    0.39
  -9 -11  -8    0.12    0.36
  -9 -11  -8    1.14    0.38
   9  11   8    0.14    0.36
   9  11   8    0.69    0.39
 -10 -11  -8    2.00    0.50
 -10 -11  -8    1.59    0.52
  10  11   8    2.77    0.60
  10  11   8    1.91    0.57
 -11 -11  -8    0.92    0.45
 -11 -11  -8    0.71    0.43
  11  11   8    0.88    0.51
  11  11   8    0.58    0.36
  -1 -12  -8    1.04    0.58
  -1 -12  -8    0.39    0.33
   1  12   8    1.14    0.65
  -2 -12  -8    1.09    0.58
  -2 -12  -8    0.26    0.31
   2  12   8   -0.95    0.44
   2  12   8   -0.10    0.29
  -3 -12  -8    2.17    0.51
  -3 -12  -8    0.59    0.60
   3  12   8    1.44    0.43
   3  12   8    2.46    0.75
  -4 -12  -8    3.07    0.60
  -4 -12  -8    2.18    0.81
   4  12   8    5.03    0.92
   4  12   8    3.60    0.62
  -5 -12  -8    0.39    0.50
  -5 -12  -8   -0.30    0.27
   5  12   8   -0.47    0.42
   5  12   8    0.13    0.30
  -6 -12  -8    0.99    0.56
  -6 -12  -8    0.83    0.42
   6  12   8    0.50    0.35
   6  12   8    0.61    0.51
  -7 -12  -8    2.01    0.66
  -7 -12  -8    1.05    0.47
   7  12   8    0.61    0.52
   7  12   8    1.31    0.40
  -8 -12  -8    0.46    0.42
   8  12   8    0.47    0.43
  -9 -12  -8    0.19    0.39
   9  12   8    0.37    0.41
   9  12   8    0.65    0.39
 -10 -12  -8    0.03    0.37
 -10 -12  -8    0.59    0.38
  10  12   8    0.01    0.37
  10  12   8   -0.18    0.21
  -4 -13  -8    0.41    0.37
  -4 -13  -8   -0.27    0.47
   4  13   8    1.39    0.48
   4  13   8    0.43    0.57
  -5 -13  -8    0.77    0.44
  -5 -13  -8    0.89    0.59
   5  13   8    0.26    0.57
   5  13   8    0.34    0.33
  -6 -13  -8    0.07    0.48
  -6 -13  -8    0.63    0.42
   6  13   8    0.12    0.37
   6  13   8    0.08    0.28
  -7 -13  -8    1.21    0.49
  -7 -13  -8    2.13    0.68
   7  13   8    1.66    0.63
   7  13   8    2.14    0.51
   3   8  -9    3.19    0.78
  -3  -8   9    2.39    0.67
   2   8  -9    0.46    0.36
   2   8  -9   -0.39    0.40
  -2  -8   9   -0.37    0.25
   1   8  -9    2.19    0.57
   1   8  -9    3.42    0.73
  -1  -8   9    2.12    0.59
   0   8  -9    0.99    0.51
   0   8  -9    0.88    0.44
   0  -8   9    0.24    0.42
  -1   8  -9    0.43    0.43
   1  -8   9    0.30    0.33
   1  -8   9    0.32    0.40
  -2   8  -9   -0.47    0.32
   2  -8   9   -0.10    0.35
   2  -8   9   -0.04    0.38
   2  -8   9    0.06    0.35
  -3   8  -9    0.19    0.42
   3  -8   9   -0.35    0.33
   3  -8   9    0.03    0.39
   4   7  -9   -0.16    0.46
  -4  -7   9   -0.47    0.36
   3   7  -9   -0.01    0.31
   3   7  -9    0.37    0.46
  -3  -7   9    0.48    0.36
   2   7  -9    1.62    0.58
   2   7  -9    2.91    0.65
  -2  -7   9    1.37    0.49
   1   7  -9   -0.18    0.28
   1   7  -9    0.21    0.40
  -1  -7   9    0.00    0.26
   0   7  -9    0.28    0.29
   0   7  -9    0.21    0.36
   0  -7   9    0.75    0.42
   0  -7   9    0.53    0.38
  -1   7  -9    0.18    0.28
  -1   7  -9    0.96    0.40
   1  -7   9    0.16    0.36
   1  -7   9    0.44    0.38
  -2   7  -9    0.11    0.24
   2  -7   9    0.38    0.39
   2  -7   9   -0.36    0.23
  -3   7  -9    0.66    0.40
   3  -7   9    2.00    0.57
   3  -7   9    1.23    0.67
  -4   7  -9    0.62    0.49
   4  -7   9    0.19    0.42
   4  -7   9    0.57    0.59
  -5   7  -9    0.08    0.45
   5  -7   9    1.08    0.57
   5  -7   9    1.28    0.57
   5   6  -9    0.28    0.55
   5   6  -9    0.04    0.19
   5   6  -9    0.11    0.41
  -5  -6   9   -0.02    0.43
   4   6  -9    1.67    0.33
   4   6  -9    1.86    0.69
   4   6  -9    1.45    0.51
  -4  -6   9    1.95    0.57
   3   6  -9    0.23    0.37
  -3  -6   9    1.11    0.42
   2   6  -9    2.89    0.70
   2   6  -9    3.25    0.63
  -2  -6   9    2.11    0.55
   1   6  -9    1.22    0.41
   1   6  -9    0.78    0.44
  -1  -6   9    0.28    0.38
  -1  -6   9    0.75    0.28
   0   6  -9    0.06    0.27
   0   6  -9   -0.18    0.21
   0  -6   9    0.13    0.25
   0  -6   9   -0.01    0.31
  -1   6  -9    0.09    0.28
  -1   6  -9    0.29    0.32
   1  -6   9   -0.19    0.28
   1  -6   9    0.12    0.32
  -2   6  -9    1.70    0.29
  -2   6  -9    1.00    0.39
  -2   6  -9    1.80    0.51
   2  -6   9    0.45    0.41
   2  -6   9    1.04    0.45
  -3   6  -9   -0.03    0.19
  -3   6  -9    0.07    0.30
   3  -6   9   -0.24    0.29
   3  -6   9   -0.21    0.30
   3  -6   9   -0.30    0.26
  -4   6  -9   -0.10    0.20
  -4   6  -9    0.31    0.35
   4  -6   9   -0.02    0.34
   4  -6   9   -0.09    0.37
  -5   6  -9    0.54    0.45
  -5   6  -9   -0.07    0.25
   5  -6   9    0.47    0.45
   5  -6   9   -0.02    0.44
  -6   6  -9    0.25    0.34
  -6   6  -9   -0.10    0.29
   6  -6   9    0.42    0.50
   6  -6   9   -0.09    0.42
  -7   6  -9    0.08    0.46
  -7   6  -9    0.15    0.30
   7  -6   9    0.02    0.43
   7  -6   9   -0.58    0.24
   6   5  -9   -0.25    0.52
   6   5  -9   -0.57    0.37
   6   5  -9    0.12    0.28
  -6  -5   9   -0.40    0.36
   5   5  -9    0.21    0.39
   5   5  -9   -0.39    0.45
   5   5  -9    0.56    0.28
  -5  -5   9    0.44    0.45
   4   5  -9    1.77    0.49
   4   5  -9    2.25    0.38
   4   5  -9    1.81    0.67
  -4  -5   9    2.36    0.60
   3   5  -9    4.99    0.55
   3   5  -9    7.03    1.01
   3   5  -9    5.25    0.71
  -3  -5   9    4.50    0.62
  -3  -5   9    4.88    0.72
   2   5  -9    0.30    0.18
   2   5  -9    0.21    0.29
   2   5  -9    0.03    0.27
  -2  -5   9   -0.24    0.18
  -2  -5   9   -0.30    0.28
   1   5  -9    2.58    0.37
   1   5  -9    2.91    0.60
   1   5  -9    2.54    0.54
  -1  -5   9    3.35    0.55
  -1  -5   9    2.71    0.47
   0   5  -9    0.13    0.30
   0   5  -9   -0.31    0.25
   0   5  -9    0.16    0.16
   0  -5   9    0.18    0.25
   0  -5   9    0.26    0.22
   0  -5   9    0.00    0.29
  -1   5  -9    1.27    0.27
  -1   5  -9    1.49    0.46
  -1   5  -9    1.22    0.41
   1  -5   9    1.31    0.39
   1  -5   9    1.31    0.43
  -2   5  -9    0.83    0.39
  -2   5  -9    0.76    0.36
  -2   5  -9    0.59    0.23
   2  -5   9    0.30    0.33
   2  -5   9    0.63    0.35
  -3   5  -9    4.63    0.77
  -3   5  -9    6.12    0.72
  -3   5  -9    5.32    0.58
   3  -5   9    3.70    0.63
   3  -5   9    4.77    0.80
  -4   5  -9    0.81    0.36
  -4   5  -9    0.83    0.29
   4  -5   9    1.22    0.53
   4  -5   9    0.86    0.40
  -5   5  -9   -0.14    0.24
  -5   5  -9    0.14    0.40
   5  -5   9    0.59    0.45
   5  -5   9    0.03    0.30
  -6   5  -9   -0.14    0.28
  -6   5  -9    0.27    0.34
   6  -5   9    0.29    0.44
   6  -5   9    0.29    0.32
  -7   5  -9    4.15    0.89
  -7   5  -9    4.14    0.66
   7  -5   9    5.09    0.94
   7  -5   9    5.31    0.94
  -8   5  -9    1.81    0.69
  -8   5  -9    2.55    0.61
   8  -5   9    2.31    0.70
   8  -5   9    1.36    0.71
   6   4  -9    0.40    0.45
   6   4  -9    0.57    0.32
   6   4  -9    0.17    0.52
  -6  -4   9    0.65    0.40
   5   4  -9    0.01    0.24
   5   4  -9    0.02    0.37
   5   4  -9    0.04    0.39
  -5  -4   9   -0.02    0.27
  -5  -4   9    0.08    0.38
   4   4  -9    1.94    0.40
   4   4  -9    2.58    0.55
   4   4  -9    2.05    0.60
  -4  -4   9    2.55    0.54
  -4  -4   9    1.64    0.42
   3   4  -9    2.09    0.36
   3   4  -9    2.06    0.56
   3   4  -9    1.59    0.42
  -3  -4   9    2.13    0.41
  -3  -4   9    2.18    0.52
   2   4  -9    0.44    0.20
   2   4  -9   -0.04    0.35
   2   4  -9    0.15    0.27
  -2  -4   9    0.41    0.26
  -2  -4   9    0.51    0.28
   1   4  -9    0.37    0.25
   1   4  -9    0.55    0.38
   1   4  -9    0.14    0.21
   1   4  -9    0.60    0.22
  -1  -4   9    0.35    0.25
  -1  -4   9    0.62    0.25
   0   4  -9    0.36    0.33
   0   4  -9    0.01    0.15
   0   4  -9    0.03    0.28
   0   4  -9    0.21    0.23
   0  -4   9    0.33    0.33
   0  -4   9    0.16    0.21
  -1   4  -9    6.91    0.88
  -1   4  -9    7.60    0.93
  -1   4  -9    7.43    0.62
   1  -4   9    8.24    0.87
   1  -4   9    6.28    0.74
   1  -4   9    7.99    0.94
  -2   4  -9    1.55    0.44
  -2   4  -9    1.43    0.29
  -2   4  -9    1.16    0.41
   2  -4   9    1.30    0.41
   2  -4   9    1.14    0.35
  -3   4  -9    0.95    0.27
  -3   4  -9    0.81    0.34
  -3   4  -9    0.76    0.32
   3  -4   9    0.82    0.35
   3  -4   9    0.04    0.28
  -4   4  -9    0.00    0.21
  -4   4  -9    0.13    0.32
  -4   4  -9   -0.06    0.24
   4  -4   9    0.29    0.29
  -5   4  -9    3.32    0.52
  -5   4  -9    3.79    0.67
   5  -4   9    3.89    0.75
  -6   4  -9    0.86    0.49
  -6   4  -9   -0.04    0.27
   6  -4   9    0.72    0.43
   6  -4   9    0.41    0.43
  -7   4  -9   -0.02    0.32
  -7   4  -9    0.57    0.48
   7  -4   9    1.49    0.58
   7  -4   9    0.64    0.43
  -8   4  -9   -0.32    0.29
  -8   4  -9   -0.36    0.27
   8  -4   9    0.55    0.44
   8  -4   9    0.20    0.39
  -9   4  -9   -0.92    0.30
  -9   4  -9   -0.35    0.42
   9  -4   9   -0.13    0.36
   6   3  -9    0.85    0.62
   6   3  -9    1.16    0.55
   6   3  -9    1.42    0.42
  -6  -3   9    2.01    0.49
  -6  -3   9    2.89    0.66
   5   3  -9    4.24    0.83
   5   3  -9    4.02    0.72
   5   3  -9    4.14    0.61
  -5  -3   9    4.26    0.73
  -5  -3   9    4.36    0.67
   4   3  -9    0.06    0.31
   4   3  -9    0.16    0.33
   4   3  -9   -0.23    0.20
  -4  -3   9    0.37    0.39
  -4  -3   9   -0.02    0.21
   3   3  -9    2.36    0.56
   3   3  -9    2.74    0.51
   3   3  -9    1.94    0.36
  -3  -3   9    1.80    0.41
  -3  -3   9    1.33    0.42
   2   3  -9    5.69    0.58
   2   3  -9    5.30    0.63
   2   3  -9    4.58    0.80
  -2  -3   9    5.85    0.74
  -2  -3   9    5.48    0.65
   1   3  -9    1.02    0.34
   1   3  -9    1.54    0.32
   1   3  -9    1.60    0.47
   1   3  -9    0.99    0.27
  -1  -3   9    1.59    0.37
  -1  -3   9    1.34    0.40
   0   3  -9    4.27    0.49
   0   3  -9    3.94    0.46
   0   3  -9    4.52    0.71
   0   3  -9    4.44    0.67
   0  -3   9    4.91    0.64
   0  -3   9    4.39    0.59
  -1   3  -9    1.20    0.38
  -1   3  -9    0.95    0.25
  -1   3  -9    0.65    0.19
  -1   3  -9    1.18    0.39
   1  -3   9    0.94    0.35
   1  -3   9    0.97    0.31
   1  -3   9    1.16    0.38
  -2   3  -9    4.20    0.61
  -2   3  -9    4.94    0.53
  -2   3  -9    4.09    0.64
   2  -3   9    4.95    0.69
   2  -3   9    4.59    0.62
   2  -3   9    3.91    0.56
  -3   3  -9    0.35    0.28
  -3   3  -9    0.19    0.18
  -3   3  -9    0.69    0.33
   3  -3   9    0.53    0.28
   3  -3   9    0.37    0.33
  -4   3  -9    2.79    0.43
  -4   3  -9    2.52    0.47
  -4   3  -9    1.96    0.47
   4  -3   9    4.00    0.68
  -5   3  -9    0.05    0.23
  -5   3  -9    0.11    0.20
  -5   3  -9    0.78    0.41
   5  -3   9    0.59    0.33
  -6   3  -9    7.67    1.02
  -6   3  -9    7.45    0.85
   6  -3   9   10.31    1.18
  -7   3  -9   -0.14    0.37
  -7   3  -9    0.20    0.28
   7  -3   9    0.13    0.32
  -8   3  -9    8.16    0.96
  -8   3  -9    6.59    1.08
   8  -3   9    6.53    1.10
  -9   3  -9    0.69    0.44
  -9   3  -9    0.82    0.55
   9  -3   9    0.28    0.53
 -10   3  -9    0.42    0.41
 -10   3  -9   -0.49    0.43
  10  -3   9   -0.18    0.35
   6   2  -9    0.48    0.34
   6   2  -9    0.43    0.51
   6   2  -9   -0.14    0.42
  -6  -2   9    0.21    0.38
  -6  -2   9    0.19    0.32
   5   2  -9    1.44    0.40
   5   2  -9    0.39    0.49
   5   2  -9    0.23    0.40
  -5  -2   9    0.83    0.34
  -5  -2   9    0.09    0.27
   4   2  -9    0.74    0.36
   4   2  -9    0.65    0.39
   4   2  -9    0.54    0.28
  -4  -2   9    0.71    0.36
  -4  -2   9    0.51    0.28
   3   2  -9    3.49    0.72
   3   2  -9    3.92    0.52
   3   2  -9    3.03    0.52
  -3  -2   9    4.00    0.58
  -3  -2   9    4.08    0.62
   2   2  -9    1.52    0.31
   2   2  -9    0.70    0.41
   2   2  -9    1.07    0.33
  -2  -2   9    1.24    0.32
  -2  -2   9    1.51    0.36
   1   2  -9    0.60    0.24
   1   2  -9    0.60    0.22
   1   2  -9    1.22    0.40
  -1  -2   9    0.49    0.26
  -1  -2   9    0.44    0.27
   0   2  -9    0.42    0.26
   0   2  -9    0.65    0.24
   0   2  -9    0.29    0.18
   0   2  -9    0.20    0.18
   0  -2   9    0.25    0.27
   0  -2   9    0.55    0.25
   0  -2   9    0.46    0.18
  -1   2  -9    0.75    0.19
  -1   2  -9    1.05    0.25
  -1   2  -9    0.92    0.31
  -1   2  -9    1.33    0.39
   1  -2   9    1.21    0.24
   1  -2   9    1.05    0.37
   1  -2   9    1.68    0.36
   1  -2   9    0.96    0.34
  -2   2  -9   16.57    1.35
  -2   2  -9   16.81    1.15
  -2   2  -9   16.04    1.36
   2  -2   9   15.48    1.21
   2  -2   9   18.66    1.38
   2  -2   9   17.11    1.25
  -3   2  -9   11.28    0.99
  -3   2  -9    9.38    0.95
  -3   2  -9    9.86    0.81
   3  -2   9   10.49    0.89
   3  -2   9   11.34    0.78
   3  -2   9   11.17    1.01
   3  -2   9    9.42    0.86
  -4   2  -9    4.33    0.55
  -4   2  -9    4.32    0.69
  -4   2  -9    4.05    0.62
   4  -2   9    5.55    0.74
   4  -2   9    5.65    0.57
  -5   2  -9    1.54    0.39
  -5   2  -9    2.16    0.49
  -5   2  -9    2.29    0.43
   5  -2   9    1.59    0.32
   5  -2   9    1.82    0.52
  -6   2  -9    2.47    0.47
  -6   2  -9    2.87    0.62
  -6   2  -9    2.32    0.46
   6  -2   9    3.57    0.50
   6  -2   9    3.17    0.62
  -7   2  -9    0.71    0.37
  -7   2  -9    0.64    0.34
   7  -2   9    0.47    0.36
  -8   2  -9   -0.53    0.21
  -8   2  -9   -0.36    0.33
   8  -2   9   -0.11    0.41
  -9   2  -9    0.38    0.36
  -9   2  -9    1.15    0.57
   9  -2   9    0.65    0.50
 -10   2  -9    0.21    0.39
 -10   2  -9   -0.58    0.46
  10  -2   9   -0.59    0.39
   7   1  -9   -0.42    0.39
   7   1  -9   -0.27    0.28
  -7  -1   9   -0.65    0.29
  -7  -1   9    0.15    0.38
   6   1  -9    2.97    0.76
   6   1  -9    2.83    0.54
   6   1  -9    1.38    0.55
  -6  -1   9    2.87    0.61
  -6  -1   9    2.62    0.58
   5   1  -9    2.34    0.51
   5   1  -9    2.56    0.61
   5   1  -9    2.35    0.58
  -5  -1   9    2.27    0.49
  -5  -1   9    1.95    0.51
   4   1  -9    0.86    0.38
   4   1  -9    0.45    0.24
   4   1  -9    0.31    0.38
  -4  -1   9    0.60    0.33
  -4  -1   9    0.38    0.30
   3   1  -9    2.57    0.58
   3   1  -9    2.79    0.50
   3   1  -9    3.36    0.50
  -3  -1   9    3.78    0.55
  -3  -1   9    3.41    0.56
  -3  -1   9    3.51    0.50
   2   1  -9    3.30    0.49
   2   1  -9    3.56    0.48
   2   1  -9    3.89    0.68
  -2  -1   9    3.28    0.46
  -2  -1   9    3.86    0.55
  -2  -1   9    3.36    0.51
   1   1  -9    4.41    0.53
   1   1  -9    4.85    0.55
   1   1  -9    5.32    0.75
  -1  -1   9    4.95    0.54
  -1  -1   9    5.09    0.62
  -1  -1   9    5.43    0.62
   0   1  -9    9.56    0.71
   0   1  -9    8.95    0.92
   0   1  -9    8.63    0.67
   0   1  -9    8.70    0.83
   0  -1   9    7.80    0.72
   0  -1   9    9.47    0.78
   0  -1   9    7.24    0.65
  -1   1  -9    0.13    0.24
  -1   1  -9   -0.13    0.12
  -1   1  -9    0.08    0.22
  -1   1  -9   -0.43    0.11
   1  -1   9   -0.36    0.18
   1  -1   9   -0.28    0.19
   1  -1   9   -0.17    0.11
  -2   1  -9   93.64    6.14
  -2   1  -9   89.56    5.73
  -2   1  -9   89.08    5.22
   2  -1   9   96.36    5.95
   2  -1   9   91.24    5.27
   2  -1   9   92.28    5.19
   2  -1   9   90.10    5.28
  -3   1  -9    7.42    0.66
  -3   1  -9    8.15    0.82
  -3   1  -9    7.77    0.86
   3  -1   9    6.62    0.77
   3  -1   9    6.53    0.76
   3  -1   9    8.80    0.84
  -4   1  -9    5.45    0.61
  -4   1  -9    4.83    0.72
  -4   1  -9    5.40    0.71
   4  -1   9    4.14    0.62
   4  -1   9    6.14    0.60
   4  -1   9    5.65    0.73
  -5   1  -9    2.62    0.45
  -5   1  -9    2.15    0.44
  -5   1  -9    1.72    0.43
   5  -1   9    2.84    0.51
   5  -1   9    2.50    0.42
  -6   1  -9    0.19    0.34
  -6   1  -9    0.64    0.28
  -6   1  -9    0.42    0.24
   6  -1   9    0.64    0.37
   6  -1   9    0.47    0.26
  -7   1  -9    0.06    0.27
  -7   1  -9    0.39    0.30
   7  -1   9    0.14    0.22
   7  -1   9   -0.31    0.30
  -8   1  -9    0.64    0.35
  -8   1  -9    0.79    0.47
   8  -1   9    1.36    0.46
   8  -1   9    0.54    0.31
  -9   1  -9    1.19    0.45
  -9   1  -9    0.29    0.46
   9  -1   9    0.85    0.49
   9  -1   9    0.76    0.39
 -10   1  -9    0.72    0.35
 -10   1  -9    0.54    0.56
  10  -1   9    0.72    0.52
 -11   1  -9    0.26    0.43
 -11   1  -9    0.07    0.52
  11  -1   9    0.33    0.52
   6   0  -9    0.30    0.42
   6   0  -9    0.52    0.48
   6   0  -9    0.26    0.35
  -6   0   9   -0.18    0.34
  -6   0   9    0.88    0.50
   5   0  -9    6.69    0.86
   5   0  -9    7.95    1.11
   5   0  -9    6.95    0.88
  -5   0   9    7.15    0.92
  -5   0   9    8.01    0.90
   4   0  -9    0.92    0.36
   4   0  -9    1.76    0.56
   4   0  -9    1.97    0.48
  -4   0   9    1.38    0.40
  -4   0   9    1.34    0.35
  -4   0   9    1.76    0.48
   3   0  -9    0.54    0.24
   3   0  -9    0.39    0.29
   3   0  -9    0.83    0.44
  -3   0   9    0.87    0.31
  -3   0   9    0.56    0.30
  -3   0   9    0.75    0.29
   2   0  -9    9.09    0.76
   2   0  -9    6.71    0.77
   2   0  -9    8.20    1.01
  -2   0   9    8.92    0.77
  -2   0   9    9.58    0.79
  -2   0   9    8.35    0.74
   1   0  -9    0.41    0.22
   1   0  -9    0.40    0.23
   1   0  -9    0.38    0.28
  -1   0   9    0.70    0.25
  -1   0   9    0.52    0.28
  -1   0   9    0.63    0.28
   0   0  -9   -0.04    0.19
   0   0  -9    0.16    0.22
   0   0  -9    0.04    0.17
   0   0  -9    0.10    0.16
   0   0   9    0.35    0.18
   0   0   9   -0.01    0.15
   0   0   9   -0.17    0.19
  -1   0  -9    4.57    0.42
  -1   0  -9    3.52    0.57
  -1   0  -9    5.05    0.56
  -1   0  -9    5.03    0.70
   1   0   9    5.23    0.60
   1   0   9    4.96    0.58
   1   0   9    5.96    0.58
  -2   0  -9    0.24    0.24
  -2   0  -9    0.54    0.21
  -2   0  -9    0.16    0.21
   2   0   9    0.09    0.22
   2   0   9    0.06    0.22
   2   0   9    0.05    0.08
   2   0   9    0.27    0.21
   2   0   9   -0.07    0.13
  -3   0  -9   28.11    1.87
  -3   0  -9   30.76    2.09
  -3   0  -9   26.43    2.16
   3   0   9   34.14    2.17
   3   0   9   30.54    1.93
   3   0   9   30.78    1.86
   3   0   9   28.31    1.89
  -4   0  -9    0.52    0.29
  -4   0  -9    0.10    0.21
  -4   0  -9    0.25    0.22
   4   0   9    0.18    0.20
   4   0   9   -0.16    0.23
  -5   0  -9    4.48    0.67
  -5   0  -9    4.89    0.74
  -5   0  -9    5.43    0.66
   5   0   9    5.47    0.62
   5   0   9    6.46    0.79
  -6   0  -9    6.32    0.78
  -6   0  -9    5.08    0.78
  -6   0  -9    8.10    0.83
   6   0   9    7.96    0.92
   6   0   9    7.11    0.75
  -7   0  -9    0.82    0.43
  -7   0  -9    0.89    0.30
  -7   0  -9    0.35    0.30
   7   0   9    1.00    0.33
   7   0   9    0.94    0.35
  -8   0  -9    1.88    0.51
  -8   0  -9    0.52    0.33
   8   0   9    1.14    0.37
   8   0   9    0.96    0.45
  -9   0  -9   10.07    1.12
  -9   0  -9    8.33    1.20
   9   0   9   12.30    1.20
   9   0   9   12.38    1.05
 -10   0  -9    4.14    0.85
 -10   0  -9    5.66    0.86
  10   0   9    6.17    0.84
  10   0   9    6.69    0.99
 -11   0  -9   -0.56    0.44
 -11   0  -9   -0.09    0.40
  11   0   9   -0.03    0.36
  11   0   9    0.29    0.47
 -12   0  -9   -0.16    0.57
 -12   0  -9    0.01    0.45
  12   0   9   -0.21    0.29
   6  -1  -9    1.40    0.55
   6  -1  -9    2.28    0.68
   6  -1  -9    2.28    0.54
  -6   1   9    2.84    0.60
  -6   1   9    2.85    0.70
   5  -1  -9    1.54    0.51
   5  -1  -9    0.84    0.42
   5  -1  -9    1.23    0.47
  -5   1   9    1.15    0.44
  -5   1   9    1.31    0.41
  -5   1   9    1.06    0.42
   4  -1  -9    3.94    0.75
   4  -1  -9    3.41    0.61
   4  -1  -9    5.11    0.70
  -4   1   9    4.97    0.65
  -4   1   9    4.32    0.66
  -4   1   9    4.97    0.69
   3  -1  -9    0.57    0.30
   3  -1  -9    0.31    0.27
   3  -1  -9    0.44    0.29
  -3   1   9    0.03    0.23
  -3   1   9    0.22    0.26
  -3   1   9    0.09    0.27
  -3   1   9    0.28    0.23
   2  -1  -9    9.38    0.84
   2  -1  -9    9.55    1.13
   2  -1  -9   10.24    0.84
  -2   1   9   10.49    0.86
  -2   1   9   10.12    0.85
  -2   1   9    8.97    0.80
  -2   1   9    9.78    0.85
   1  -1  -9    0.31    0.22
   1  -1  -9    0.24    0.24
   1  -1  -9    0.41    0.19
  -1   1   9    0.54    0.24
  -1   1   9    0.04    0.23
  -1   1   9    0.54    0.21
   0  -1  -9    1.09    0.35
   0  -1  -9    0.90    0.25
   0  -1  -9    1.19    0.32
   0  -1  -9    1.36    0.31
   0   1   9    1.54    0.32
   0   1   9    0.93    0.27
   0   1   9    1.12    0.29
  -1  -1  -9   20.69    1.50
  -1  -1  -9   20.64    1.65
  -1  -1  -9   21.19    1.38
  -1  -1  -9   20.67    1.31
   1   1   9   19.01    1.36
   1   1   9   22.98    1.40
   1   1   9   20.31    1.41
  -2  -1  -9   23.53    1.67
  -2  -1  -9   23.02    1.80
  -2  -1  -9   21.85    1.51
   2   1   9   24.03    1.55
   2   1   9   22.39    1.50
   2   1   9   24.20    1.73
   2   1   9   22.70    1.53
   2   1   9   24.46    1.41
  -3  -1  -9   81.25    5.19
  -3  -1  -9   78.43    4.76
  -3  -1  -9   79.35    5.57
   3   1   9   88.84    4.77
   3   1   9   76.12    4.76
   3   1   9   82.79    4.65
   3   1   9   85.02    4.80
   3   1   9   93.77    5.41
  -4  -1  -9    5.30    0.72
  -4  -1  -9    5.53    0.73
  -4  -1  -9    5.84    0.65
   4   1   9    5.35    0.70
   4   1   9    6.19    0.70
   4   1   9    6.33    0.64
  -5  -1  -9    0.26    0.28
  -5  -1  -9    0.43    0.29
  -5  -1  -9   -0.03    0.20
   5   1   9    0.19    0.26
   5   1   9    0.07    0.19
  -6  -1  -9    3.59    0.58
  -6  -1  -9    2.92    0.55
  -6  -1  -9    4.55    0.59
   6   1   9    2.57    0.46
   6   1   9    3.06    0.54
  -7  -1  -9    0.35    0.24
  -7  -1  -9    0.23    0.32
  -7  -1  -9    0.23    0.26
   7   1   9    0.18    0.19
   7   1   9    0.21    0.28
  -8  -1  -9    3.24    0.61
  -8  -1  -9    2.64    0.64
   8   1   9    2.57    0.52
   8   1   9    2.96    0.62
  -9  -1  -9    2.11    0.67
  -9  -1  -9    4.85    0.72
   9   1   9    3.95    0.65
   9   1   9    4.26    0.77
 -10  -1  -9    2.04    0.59
 -10  -1  -9    2.51    0.70
  10   1   9    3.28    0.72
  10   1   9    2.59    0.58
 -11  -1  -9    6.69    0.98
 -11  -1  -9    6.02    1.08
  11   1   9    6.25    1.04
  11   1   9    8.33    1.02
 -12  -1  -9    1.31    0.56
 -12  -1  -9    0.93    0.69
  12   1   9    1.41    0.61
  12   1   9    1.38    0.57
   6  -2  -9    0.82    0.53
   6  -2  -9    1.14    0.44
   6  -2  -9    0.41    0.44
  -6   2   9    0.86    0.54
  -6   2   9    0.46    0.45
   5  -2  -9   19.94    1.49
   5  -2  -9   15.45    1.64
   5  -2  -9   15.71    1.46
  -5   2   9   19.84    1.52
  -5   2   9   19.90    1.51
   4  -2  -9    0.74    0.42
   4  -2  -9    1.05    0.39
   4  -2  -9    0.63    0.45
  -4   2   9    1.01    0.36
  -4   2   9    0.52    0.30
  -4   2   9    1.24    0.38
  -4   2   9    0.73    0.32
   3  -2  -9    0.85    0.37
   3  -2  -9    0.72    0.33
   3  -2  -9    0.71    0.40
  -3   2   9    0.82    0.31
  -3   2   9    0.76    0.30
  -3   2   9    1.73    0.40
  -3   2   9    1.22    0.38
   2  -2  -9    0.32    0.28
   2  -2  -9    0.38    0.37
   2  -2  -9   -0.08    0.22
  -2   2   9    0.69    0.31
  -2   2   9    0.28    0.28
  -2   2   9    0.51    0.26
  -2   2   9    0.38    0.27
   1  -2  -9    4.12    0.55
   1  -2  -9    3.61    0.65
   1  -2  -9    4.00    0.53
  -1   2   9    4.06    0.57
  -1   2   9    3.63    0.53
  -1   2   9    3.46    0.53
  -1   2   9    3.93    0.49
   0  -2  -9    0.94    0.27
   0  -2  -9    0.82    0.39
   0  -2  -9    1.05    0.29
   0  -2  -9    0.85    0.29
   0   2   9    1.63    0.31
   0   2   9    1.43    0.34
   0   2   9    1.54    0.36
   0   2   9    0.64    0.27
  -1  -2  -9    1.21    0.27
  -1  -2  -9    1.45    0.43
  -1  -2  -9    0.87    0.28
   1   2   9    1.88    0.33
   1   2   9    1.58    0.34
   1   2   9    0.72    0.25
   1   2   9    1.31    0.32
  -2  -2  -9    9.55    0.96
  -2  -2  -9    9.50    0.75
  -2  -2  -9    9.43    0.82
   2   2   9    8.33    0.71
   2   2   9    9.77    0.74
   2   2   9    9.41    0.83
   2   2   9    8.34    0.74
  -3  -2  -9   27.67    2.00
  -3  -2  -9   27.87    1.85
  -3  -2  -9   27.58    2.17
   3   2   9   29.83    1.85
   3   2   9   31.32    2.09
   3   2   9   30.25    1.74
   3   2   9   29.04    1.86
  -4  -2  -9    0.28    0.19
  -4  -2  -9    0.36    0.25
  -4  -2  -9    0.27    0.26
   4   2   9    0.15    0.11
   4   2   9    0.46    0.27
   4   2   9    0.15    0.23
   4   2   9    0.44    0.22
  -5  -2  -9    6.29    0.81
  -5  -2  -9    6.11    0.72
  -5  -2  -9    6.01    0.81
   5   2   9    6.81    0.75
   5   2   9    7.61    0.45
   5   2   9    7.88    0.73
   5   2   9    6.78    0.72
   5   2   9    7.05    0.44
  -6  -2  -9   17.27    1.57
  -6  -2  -9   19.76    1.54
  -6  -2  -9   19.16    1.39
   6   2   9   22.46    1.57
  -7  -2  -9    0.43    0.27
  -7  -2  -9    0.30    0.34
   7   2   9    0.49    0.30
   7   2   9    0.33    0.07
   7   2   9    0.05    0.24
  -8  -2  -9   10.91    1.01
  -8  -2  -9   11.24    1.29
   8   2   9   11.69    1.00
   8   2   9   13.13    1.15
  -9  -2  -9    0.09    0.33
  -9  -2  -9    0.17    0.41
   9   2   9    0.05    0.26
   9   2   9    0.05    0.30
 -10  -2  -9    1.32    0.50
 -10  -2  -9    1.40    0.52
  10   2   9    0.76    0.42
  10   2   9    1.66    0.49
 -11  -2  -9    2.04    0.75
 -11  -2  -9    3.34    0.75
  11   2   9    5.01    0.78
  11   2   9    4.01    0.82
 -12  -2  -9    3.71    0.79
 -12  -2  -9    3.40    0.85
  12   2   9    1.41    0.56
  12   2   9    3.11    0.72
   6  -3  -9    2.54    0.59
   6  -3  -9    1.96    0.64
   6  -3  -9    1.26    0.59
  -6   3   9    1.48    0.50
  -6   3   9    2.19    0.65
   5  -3  -9    0.20    0.41
   5  -3  -9    0.51    0.36
   5  -3  -9    0.23    0.42
  -5   3   9    0.46    0.34
  -5   3   9   -0.08    0.41
   4  -3  -9    0.09    0.27
   4  -3  -9    0.73    0.31
   4  -3  -9   -0.22    0.31
  -4   3   9    1.01    0.40
  -4   3   9    0.21    0.34
  -4   3   9   -0.11    0.30
   3  -3  -9    0.07    0.29
   3  -3  -9   -0.09    0.17
   3  -3  -9   -0.09    0.24
  -3   3   9   -0.21    0.26
  -3   3   9    0.02    0.24
  -3   3   9   -0.13    0.27
   2  -3  -9    3.84    0.71
   2  -3  -9    3.80    0.59
   2  -3  -9    4.42    0.61
  -2   3   9    4.44    0.64
  -2   3   9    4.22    0.62
  -2   3   9    5.03    0.66
  -2   3   9    4.63    0.53
   1  -3  -9    3.84    0.54
   1  -3  -9    3.49    0.64
   1  -3  -9    2.75    0.48
   1  -3  -9    3.85    0.50
  -1   3   9    3.25    0.53
  -1   3   9    5.11    0.52
  -1   3   9    4.16    0.59
  -1   3   9    3.93    0.58
   0  -3  -9   -0.14    0.28
   0  -3  -9   -0.10    0.18
   0  -3  -9    0.25    0.18
   0   3   9    0.10    0.25
   0   3   9   -0.02    0.15
   0   3   9    0.14    0.25
   0   3   9    0.05    0.18
  -1  -3  -9    6.53    0.69
  -1  -3  -9    6.60    0.85
  -1  -3  -9    6.56    0.63
   1   3   9    6.29    0.69
   1   3   9    7.22    0.63
   1   3   9    5.89    0.55
   1   3   9    7.03    0.75
  -2  -3  -9    4.07    0.34
  -2  -3  -9    4.80    0.68
  -2  -3  -9    4.72    0.57
  -2  -3  -9    3.57    0.49
   2   3   9    4.02    0.58
   2   3   9    4.39    0.52
   2   3   9    3.94    0.51
  -3  -3  -9   28.91    2.06
  -3  -3  -9   29.60    1.93
  -3  -3  -9   29.84    2.30
   3   3   9   31.74    1.93
   3   3   9   31.56    2.09
   3   3   9   31.18    1.93
  -4  -3  -9   76.42    4.51
  -4  -3  -9   68.48    5.23
  -4  -3  -9   73.38    4.85
   4   3   9   77.16    4.82
   4   3   9   80.35    4.50
   4   3   9   78.73    5.02
   4   3   9   88.04    4.44
   4   3   9   75.52    4.48
  -5  -3  -9    0.96    0.39
  -5  -3  -9    0.76    0.27
  -5  -3  -9    1.16    0.33
   5   3   9    1.03    0.33
   5   3   9    1.25    0.33
   5   3   9    1.47    0.37
   5   3   9    1.41    0.23
  -6  -3  -9   29.26    2.21
  -6  -3  -9   32.72    2.06
  -6  -3  -9   27.64    2.30
   6   3   9   31.70    1.81
   6   3   9   31.34    1.99
   6   3   9   34.75    2.22
   6   3   9   29.19    1.99
  -7  -3  -9    7.88    0.88
  -7  -3  -9    7.36    0.93
   7   3   9    8.00    0.55
   7   3   9    8.60    0.88
   7   3   9    7.57    0.79
  -8  -3  -9    9.35    1.03
  -8  -3  -9    8.28    1.10
   8   3   9   11.61    1.01
   8   3   9   10.58    0.95
  -9  -3  -9    8.47    0.99
  -9  -3  -9    6.41    1.02
   9   3   9    9.50    1.00
   9   3   9    9.22    0.92
 -10  -3  -9    0.62    0.39
 -10  -3  -9    0.10    0.34
  10   3   9    0.43    0.30
  10   3   9    0.43    0.33
 -11  -3  -9    5.53    1.05
 -11  -3  -9    6.61    0.97
  11   3   9    5.37    0.85
  11   3   9    6.70    0.98
 -12  -3  -9    2.19    0.61
 -12  -3  -9    1.65    0.65
  12   3   9    3.79    0.75
  12   3   9    2.92    0.69
 -13  -3  -9   -0.21    0.42
 -13  -3  -9   -0.37    0.50
  13   3   9   -0.57    0.30
  13   3   9    0.19    0.45
   5  -4  -9    1.57    0.47
   5  -4  -9    0.35    0.48
   5  -4  -9    0.99    0.49
  -5   4   9    0.66    0.40
  -5   4   9    0.77    0.43
   4  -4  -9    3.27    0.67
   4  -4  -9    2.37    0.64
   4  -4  -9    3.89    0.66
  -4   4   9    3.10    0.65
  -4   4   9    3.03    0.65
   3  -4  -9    0.90    0.42
   3  -4  -9    2.15    0.48
   3  -4  -9    1.58    0.50
  -3   4   9    1.92    0.51
  -3   4   9    1.06    0.43
  -3   4   9    1.90    0.50
   2  -4  -9    2.19    0.60
   2  -4  -9    3.04    0.50
  -2   4   9    3.74    0.62
  -2   4   9    2.83    0.50
  -2   4   9    3.85    0.60
   1  -4  -9    4.96    0.63
   1  -4  -9    4.77    0.57
   1  -4  -9    4.52    0.75
  -1   4   9    6.02    0.71
  -1   4   9    5.12    0.69
  -1   4   9    5.43    0.69
   0  -4  -9    1.49    0.43
   0  -4  -9    1.59    0.30
   0  -4  -9    1.90    0.38
   0   4   9    1.95    0.38
   0   4   9    2.05    0.43
   0   4   9    1.63    0.29
   0   4   9    0.92    0.38
  -1  -4  -9   -0.08    0.13
  -1  -4  -9    0.09    0.16
  -1  -4  -9    0.09    0.31
   1   4   9    0.03    0.18
   1   4   9    0.41    0.25
   1   4   9    0.19    0.28
  -2  -4  -9   17.57    1.05
  -2  -4  -9   16.17    1.24
  -2  -4  -9   17.78    1.23
  -2  -4  -9   15.43    1.46
   2   4   9   17.82    1.23
   2   4   9   18.01    1.24
   2   4   9   16.48    1.29
  -3  -4  -9   50.15    3.11
  -3  -4  -9   45.72    3.63
  -3  -4  -9   53.79    2.96
  -3  -4  -9   50.00    3.30
   3   4   9   53.84    3.34
   3   4   9   54.90    3.11
   3   4   9   53.40    3.10
  -4  -4  -9   83.10    5.41
  -4  -4  -9   84.56    5.04
  -4  -4  -9   80.41    5.89
   4   4   9   95.04    5.42
   4   4   9   90.96    5.02
   4   4   9   89.78    5.04
  -5  -4  -9    0.07    0.29
  -5  -4  -9    0.00    0.18
  -5  -4  -9   -0.18    0.23
   5   4   9   -0.05    0.24
   5   4   9   -0.40    0.18
   5   4   9   -0.41    0.14
   5   4   9   -0.09    0.15
  -6  -4  -9    3.64    0.65
  -6  -4  -9    3.54    0.55
  -6  -4  -9    4.27    0.64
   6   4   9    3.98    0.56
   6   4   9    4.84    0.58
   6   4   9    3.43    0.53
  -7  -4  -9   11.82    1.06
  -7  -4  -9   12.40    1.18
   7   4   9   13.43    1.09
   7   4   9   13.06    0.86
  -8  -4  -9    4.59    0.77
  -8  -4  -9    4.14    0.64
   8   4   9    3.66    0.41
   8   4   9    4.74    0.66
   8   4   9    3.70    0.58
  -9  -4  -9    1.08    0.43
  -9  -4  -9    1.25    0.43
   9   4   9    1.86    0.43
   9   4   9    0.62    0.22
   9   4   9    0.94    0.35
 -10  -4  -9   -0.04    0.36
 -10  -4  -9    0.98    0.40
  10   4   9    0.64    0.34
  10   4   9    0.67    0.25
  10   4   9    0.46    0.37
 -11  -4  -9    2.70    0.60
 -11  -4  -9    2.37    0.73
  11   4   9    3.01    0.63
  11   4   9    2.53    0.59
 -12  -4  -9    2.49    0.75
 -12  -4  -9    2.27    0.63
  12   4   9    2.37    0.60
  12   4   9    2.54    0.62
 -13  -4  -9   -0.33    0.35
 -13  -4  -9    0.38    0.47
  13   4   9   -0.16    0.43
  13   4   9    0.07    0.37
   5  -5  -9    0.07    0.26
   5  -5  -9   -0.13    0.38
  -5   5   9    0.52    0.40
  -5   5   9   -0.51    0.37
   4  -5  -9    0.60    0.46
   4  -5  -9    1.63    0.50
  -4   5   9    2.01    0.52
  -4   5   9    0.94    0.51
  -4   5   9    0.38    0.43
   3  -5  -9    0.76    0.37
   3  -5  -9   -0.17    0.33
  -3   5   9    0.12    0.26
  -3   5   9    0.27    0.38
  -3   5   9    0.53    0.41
   2  -5  -9    0.14    0.36
   2  -5  -9    0.53    0.31
   2  -5  -9    0.34    0.18
  -2   5   9    0.26    0.26
  -2   5   9    0.29    0.35
  -2   5   9    0.17    0.30
   1  -5  -9    1.23    0.36
   1  -5  -9    0.67    0.36
   1  -5  -9    1.48    0.29
  -1   5   9    2.15    0.46
  -1   5   9    1.57    0.47
  -1   5   9    2.21    0.47
   0  -5  -9    2.45    0.36
   0  -5  -9    1.39    0.37
   0  -5  -9    1.04    0.40
   0   5   9    1.85    0.42
   0   5   9    2.48    0.49
   0   5   9    2.62    0.46
  -1  -5  -9    3.21    0.66
  -1  -5  -9    4.74    0.60
  -1  -5  -9    4.27    0.50
   1   5   9    4.44    0.58
   1   5   9    4.65    0.66
   1   5   9    4.98    0.60
  -2  -5  -9   28.10    2.44
  -2  -5  -9   36.63    2.13
  -2  -5  -9   31.23    2.14
  -2  -5  -9   33.10    1.92
   2   5   9   34.79    2.27
   2   5   9   33.51    2.08
   2   5   9   32.63    2.10
  -3  -5  -9    0.93    0.28
  -3  -5  -9    0.16    0.27
  -3  -5  -9    0.98    0.23
  -3  -5  -9    0.61    0.26
   3   5   9    0.87    0.27
   3   5   9    0.61    0.36
   3   5   9    0.87    0.27
  -4  -5  -9   54.17    3.53
  -4  -5  -9   52.41    3.31
  -4  -5  -9   60.29    3.21
  -4  -5  -9   47.03    3.87
   4   5   9   56.89    3.29
   4   5   9   57.60    3.32
   4   5   9   57.92    3.57
  -5  -5  -9   25.01    1.80
  -5  -5  -9   19.27    1.95
  -5  -5  -9   25.50    1.70
   5   5   9   28.68    1.82
   5   5   9   25.61    1.67
   5   5   9   27.01    1.68
  -6  -5  -9   25.96    1.99
  -6  -5  -9   24.36    1.84
   6   5   9   28.85    1.97
   6   5   9   28.72    1.85
   6   5   9   27.30    1.82
   6   5   9   32.19    2.00
  -7  -5  -9    0.20    0.24
  -7  -5  -9    0.63    0.33
   7   5   9    0.14    0.19
   7   5   9    0.15    0.19
  -8  -5  -9   15.69    1.40
  -8  -5  -9   15.05    1.24
   8   5   9   15.98    1.27
   8   5   9   17.42    1.27
   8   5   9   14.86    1.06
  -9  -5  -9    2.68    0.57
  -9  -5  -9    2.64    0.60
   9   5   9    1.96    0.47
   9   5   9    2.46    0.37
   9   5   9    2.43    0.47
 -10  -5  -9    0.38    0.31
 -10  -5  -9    1.89    0.55
  10   5   9    0.52    0.38
  10   5   9    0.83    0.26
  10   5   9    0.78    0.32
 -11  -5  -9    2.04    0.62
 -11  -5  -9    2.33    0.61
  11   5   9    1.86    0.56
  11   5   9    2.71    0.57
 -12  -5  -9    4.42    0.85
 -12  -5  -9    3.68    0.89
  12   5   9    4.73    0.78
  12   5   9    5.21    0.89
 -13  -5  -9    2.37    0.62
 -13  -5  -9    2.26    0.74
  13   5   9    1.67    0.50
  13   5   9    1.77    0.64
   4  -6  -9    0.36    0.37
   4  -6  -9   -0.39    0.41
  -4   6   9    0.01    0.29
  -4   6   9   -0.04    0.52
  -4   6   9   -0.03    0.31
   3  -6  -9    0.14    0.37
   3  -6  -9    0.33    0.34
  -3   6   9    0.75    0.43
  -3   6   9    0.21    0.46
  -3   6   9    0.87    0.45
   2  -6  -9   -0.22    0.29
   2  -6  -9    0.21    0.31
  -2   6   9    0.42    0.28
  -2   6   9    0.19    0.39
  -2   6   9   -0.22    0.30
   1  -6  -9    1.71    0.40
   1  -6  -9    0.79    0.44
  -1   6   9    1.28    0.37
  -1   6   9    1.97    0.56
  -1   6   9    1.77    0.46
   0  -6  -9    1.16    0.27
   0  -6  -9    0.96    0.32
   0  -6  -9    1.09    0.46
   0   6   9    0.83    0.31
   0   6   9    0.90    0.36
   0   6   9    1.12    0.47
  -1  -6  -9    4.67    0.78
  -1  -6  -9    4.83    0.51
  -1  -6  -9    5.11    0.42
  -1  -6  -9    4.66    0.64
   1   6   9    5.25    0.65
   1   6   9    5.18    0.66
   1   6   9    3.67    0.67
  -2  -6  -9    2.44    0.33
  -2  -6  -9    2.94    0.48
  -2  -6  -9    3.17    0.40
  -2  -6  -9    1.77    0.49
   2   6   9    2.18    0.44
   2   6   9    2.02    0.50
   2   6   9    2.20    0.42
  -3  -6  -9    1.03    0.39
  -3  -6  -9    1.05    0.27
  -3  -6  -9    0.78    0.27
  -3  -6  -9    1.53    0.30
   3   6   9    1.43    0.35
   3   6   9    1.29    0.31
   3   6   9    0.78    0.31
  -4  -6  -9   23.73    1.39
  -4  -6  -9   17.83    1.72
  -4  -6  -9   21.69    1.50
  -4  -6  -9   20.22    1.50
   4   6   9   21.05    1.58
   4   6   9   22.67    1.45
   4   6   9   20.92    1.47
  -5  -6  -9    7.09    0.81
  -5  -6  -9    5.94    0.92
  -5  -6  -9    7.08    0.80
  -5  -6  -9    7.82    0.65
   5   6   9    7.79    0.84
   5   6   9    6.80    0.72
   5   6   9    8.78    0.76
  -6  -6  -9    2.04    0.44
  -6  -6  -9    1.31    0.32
  -6  -6  -9    1.71    0.43
   6   6   9    1.72    0.40
   6   6   9    1.36    0.39
   6   6   9    1.58    0.36
  -7  -6  -9   -0.10    0.25
  -7  -6  -9   -0.26    0.19
   7   6   9    0.01    0.24
   7   6   9    0.03    0.20
   7   6   9    0.00    0.27
  -8  -6  -9    1.52    0.45
  -8  -6  -9    1.99    0.50
   8   6   9    1.67    0.32
   8   6   9    2.15    0.40
  -9  -6  -9    0.49    0.32
  -9  -6  -9    0.93    0.36
   9   6   9    0.28    0.31
   9   6   9    0.93    0.29
 -10  -6  -9    1.14    0.48
 -10  -6  -9    1.85    0.54
  10   6   9    1.50    0.33
  10   6   9    1.17    0.41
  10   6   9    1.50    0.39
 -11  -6  -9    0.68    0.43
 -11  -6  -9    0.93    0.46
  11   6   9    1.28    0.50
  11   6   9    0.08    0.22
  11   6   9    0.24    0.29
 -12  -6  -9    0.71    0.53
 -12  -6  -9    0.84    0.51
  12   6   9    0.43    0.45
 -13  -6  -9    0.91    0.58
  13   6   9    1.11    0.48
   4  -7  -9    0.04    0.35
  -4   7   9   -0.15    0.57
  -4   7   9   -0.12    0.40
  -4   7   9   -0.28    0.43
   3  -7  -9    2.28    0.56
   3  -7  -9    2.25    0.61
  -3   7   9    2.18    0.68
  -3   7   9    2.10    0.58
  -3   7   9    1.00    0.46
   2  -7  -9    0.53    0.32
   2  -7  -9    1.22    0.46
  -2   7   9    1.07    0.58
  -2   7   9    0.88    0.46
  -2   7   9    0.60    0.41
   1  -7  -9    9.27    0.96
   1  -7  -9    6.27    0.99
  -1   7   9    8.36    1.09
  -1   7   9    9.39    0.98
  -1   7   9    7.66    0.96
   0  -7  -9    4.94    0.67
   0  -7  -9    4.06    0.76
   0   7   9    5.42    0.70
   0   7   9    4.51    0.69
   0   7   9    5.05    0.78
  -1  -7  -9   11.21    1.32
  -1  -7  -9   15.02    1.16
  -1  -7  -9   14.69    0.98
   1   7   9   14.36    1.17
   1   7   9   15.23    1.14
   1   7   9   17.14    1.38
  -2  -7  -9   11.39    0.77
  -2  -7  -9    9.09    1.16
  -2  -7  -9    9.73    0.86
   2   7   9    9.60    0.83
   2   7   9    9.43    0.97
   2   7   9   10.20    1.12
  -3  -7  -9    4.93    0.55
  -3  -7  -9    5.37    0.68
  -3  -7  -9    4.57    0.50
  -3  -7  -9    3.54    0.73
   3   7   9    5.31    0.61
   3   7   9    5.15    0.71
   3   7   9    4.54    0.62
  -4  -7  -9    2.41    0.40
  -4  -7  -9    2.35    0.61
  -4  -7  -9    1.69    0.34
  -4  -7  -9    3.12    0.49
   4   7   9    2.88    0.56
   4   7   9    2.08    0.38
   4   7   9    1.83    0.39
  -5  -7  -9    0.21    0.21
  -5  -7  -9    0.73    0.31
  -5  -7  -9    0.09    0.23
   5   7   9    0.24    0.31
   5   7   9    0.44    0.28
   5   7   9    0.36    0.22
  -6  -7  -9   -0.01    0.23
  -6  -7  -9    0.26    0.29
  -6  -7  -9    0.49    0.23
   6   7   9    0.19    0.24
   6   7   9    0.32    0.21
   6   7   9    0.54    0.28
  -7  -7  -9    0.15    0.30
  -7  -7  -9    0.00    0.23
  -7  -7  -9    0.13    0.26
   7   7   9    0.12    0.27
   7   7   9   -0.20    0.16
   7   7   9   -0.30    0.23
  -8  -7  -9    9.92    1.02
  -8  -7  -9    7.17    0.97
  -8  -7  -9    8.55    0.90
   8   7   9    7.65    0.89
   8   7   9    9.63    0.79
  -9  -7  -9    0.61    0.37
  -9  -7  -9    0.36    0.35
   9   7   9    0.75    0.29
   9   7   9    0.28    0.34
   9   7   9    0.19    0.25
 -10  -7  -9    0.08    0.39
 -10  -7  -9    0.07    0.25
  10   7   9   -0.33    0.19
  10   7   9    0.17    0.20
 -11  -7  -9   -0.44    0.27
 -11  -7  -9    0.54    0.39
  11   7   9   -0.23    0.32
  11   7   9    0.09    0.23
 -12  -7  -9    0.96    0.51
  12   7   9    0.49    0.36
  12   7   9    1.39    0.56
 -13  -7  -9    2.68    0.67
  13   7   9    3.30    0.73
   3  -8  -9    2.16    0.56
  -3   8   9    1.31    0.47
  -3   8   9    2.38    0.60
  -3   8   9    1.53    0.67
   2  -8  -9    0.52    0.39
   2  -8  -9    0.10    0.34
  -2   8   9    0.39    0.56
  -2   8   9    0.19    0.38
  -2   8   9    0.63    0.36
   1  -8  -9    0.96    0.37
   1  -8  -9    1.32    0.50
  -1   8   9    1.17    0.42
  -1   8   9    0.22    0.34
  -1   8   9    1.06    0.57
   0  -8  -9    3.95    0.76
   0  -8  -9    4.48    0.66
   0   8   9    5.06    0.70
   0   8   9    6.07    0.92
   0   8   9    3.95    0.67
  -1  -8  -9    0.27    0.37
  -1  -8  -9    0.55    0.21
  -1  -8  -9   -0.56    0.18
   1   8   9    0.05    0.29
   1   8   9    0.09    0.20
   1   8   9    0.06    0.41
  -2  -8  -9    0.69    0.31
  -2  -8  -9    0.06    0.38
  -2  -8  -9    0.03    0.19
   2   8   9    0.93    0.36
   2   8   9    0.39    0.32
   2   8   9    0.07    0.23
  -3  -8  -9   -0.11    0.17
  -3  -8  -9    0.09    0.17
  -3  -8  -9    0.03    0.26
   3   8   9    0.14    0.34
   3   8   9   -0.04    0.23
   3   8   9    0.04    0.21
  -4  -8  -9    1.34    0.40
  -4  -8  -9    0.77    0.30
   4   8   9    1.71    0.40
   4   8   9    1.48    0.34
   4   8   9    0.98    0.45
  -5  -8  -9    7.79    0.85
  -5  -8  -9    7.79    0.78
  -5  -8  -9    6.61    0.63
   5   8   9    5.50    0.67
   5   8   9    6.38    0.75
   5   8   9    6.75    0.87
  -6  -8  -9    2.78    0.47
  -6  -8  -9    1.97    0.42
  -6  -8  -9    2.97    0.54
   6   8   9    2.34    0.48
   6   8   9    2.33    0.48
   6   8   9    2.79    0.44
  -7  -8  -9    2.81    0.49
  -7  -8  -9    2.87    0.55
  -7  -8  -9    1.80    0.43
   7   8   9    2.57    0.49
   7   8   9    2.11    0.51
   7   8   9    2.05    0.41
  -8  -8  -9    0.53    0.30
  -8  -8  -9    0.34    0.33
  -8  -8  -9    0.80    0.31
   8   8   9    0.28    0.26
   8   8   9    0.45    0.33
  -9  -8  -9    2.27    0.54
  -9  -8  -9    2.38    0.58
  -9  -8  -9    3.27    0.63
   9   8   9    3.31    0.55
   9   8   9    3.19    0.51
   9   8   9    2.85    0.60
 -10  -8  -9    0.32    0.38
 -10  -8  -9   -0.26    0.30
 -10  -8  -9    0.05    0.33
  10   8   9    0.07    0.23
  10   8   9   -0.25    0.21
 -11  -8  -9   -0.20    0.32
 -11  -8  -9   -0.11    0.25
  11   8   9    0.40    0.45
  11   8   9   -0.07    0.24
 -12  -8  -9    0.97    0.48
 -12  -8  -9    1.23    0.50
  12   8   9    1.14    0.57
  12   8   9    1.28    0.42
  -2   9   9    1.20    0.59
  -2   9   9    2.48    0.67
  -2   9   9    1.16    0.53
   1  -9  -9    6.30    0.86
  -1   9   9    4.88    0.85
  -1   9   9    7.20    1.12
  -1   9   9    6.14    0.85
   0  -9  -9    9.67    1.09
   0   9   9   10.62    1.11
   0   9   9   10.67    1.18
   0   9   9   12.93    1.40
  -1  -9  -9    4.19    0.64
  -1  -9  -9    3.68    0.49
   1   9   9    3.81    0.66
   1   9   9    3.39    0.58
   1   9   9    2.56    0.70
  -2  -9  -9    0.94    0.36
  -2  -9  -9    0.46    0.26
   2   9   9    0.83    0.37
   2   9   9    0.23    0.35
   2   9   9    0.04    0.26
  -3  -9  -9    0.99    0.32
  -3  -9  -9    0.30    0.28
   3   9   9    0.58    0.37
   3   9   9    0.47    0.33
   3   9   9    0.62    0.29
  -4  -9  -9    0.23    0.22
  -4  -9  -9   -0.25    0.19
   4   9   9    0.40    0.24
   4   9   9   -0.05    0.26
   4   9   9    0.22    0.38
  -5  -9  -9    6.97    0.84
  -5  -9  -9    6.45    0.75
   5   9   9    6.09    0.77
   5   9   9    6.01    0.67
   5   9   9    7.24    0.90
  -6  -9  -9    0.73    0.32
  -6  -9  -9    0.39    0.26
   6   9   9    0.21    0.21
   6   9   9    0.25    0.29
   6   9   9    0.30    0.30
  -7  -9  -9    0.67    0.36
  -7  -9  -9    0.51    0.30
   7   9   9   -0.46    0.26
   7   9   9   -0.09    0.23
   7   9   9    0.22    0.19
  -8  -9  -9    3.80    0.65
  -8  -9  -9    2.53    0.51
   8   9   9    2.62    0.56
   8   9   9    2.42    0.52
  -9  -9  -9    1.44    0.47
  -9  -9  -9    0.47    0.33
   9   9   9    0.82    0.37
   9   9   9    1.29    0.37
   9   9   9    0.73    0.37
 -10  -9  -9    2.19    0.55
 -10  -9  -9    2.55    0.57
  10   9   9    3.02    0.53
  10   9   9    2.33    0.60
 -11  -9  -9    4.11    0.72
  11   9   9    3.56    0.61
  11   9   9    4.34    0.80
 -12  -9  -9    0.85    0.40
 -12  -9  -9    0.44    0.35
  12   9   9   -0.04    0.43
  12   9   9    1.52    0.48
  -1  10   9    0.40    0.66
  -1  10   9    0.68    0.49
  -1  10   9    0.69    0.39
   0  10   9    0.20    0.30
   0  10   9    0.38    0.36
   0  10   9    0.48    0.55
  -1 -10  -9    0.24    0.25
   1  10   9    0.43    0.38
   1  10   9    0.33    0.30
   1  10   9   -0.26    0.49
  -2 -10  -9    0.22    0.28
   2  10   9    0.65    0.33
   2  10   9    0.85    0.33
   2  10   9    0.59    0.50
  -3 -10  -9    2.13    0.52
  -3 -10  -9    2.22    0.46
   3  10   9    2.33    0.43
   3  10   9    2.65    0.55
   3  10   9    1.66    0.53
  -4 -10  -9    0.00    0.24
  -4 -10  -9    0.21    0.33
   4  10   9    0.36    0.33
   4  10   9    0.14    0.46
   4  10   9    0.48    0.25
  -5 -10  -9    0.68    0.33
  -5 -10  -9    0.68    0.35
   5  10   9    1.08    0.31
   5  10   9    0.59    0.33
   5  10   9    0.47    0.46
  -6 -10  -9    0.63    0.35
  -6 -10  -9    1.13    0.42
   6  10   9    0.80    0.46
   6  10   9    0.34    0.30
  -7 -10  -9    0.69    0.35
  -7 -10  -9    0.77    0.42
   7  10   9    0.70    0.41
   7  10   9    0.87    0.38
  -8 -10  -9    0.10    0.22
  -8 -10  -9   -0.08    0.29
  -8 -10  -9    0.56    0.44
   8  10   9   -0.06    0.34
   8  10   9   -0.08    0.25
  -9 -10  -9    5.12    0.69
  -9 -10  -9    4.86    0.76
   9  10   9    4.65    0.72
 -10 -10  -9    0.06    0.36
 -10 -10  -9    0.38    0.34
  10  10   9    0.39    0.31
  10  10   9    0.69    0.38
  10  10   9    0.37    0.40
 -11 -10  -9    2.94    0.65
 -11 -10  -9    1.50    0.49
  11  10   9    1.22    0.53
  11  10   9    2.69    0.55
 -12 -10  -9   -0.56    0.29
  -1 -11  -9    0.05    0.30
   1  11   9    0.78    0.65
   1  11   9    0.85    0.45
  -2 -11  -9    0.18    0.27
   2  11   9   -0.10    0.31
   2  11   9   -0.26    0.50
  -3 -11  -9   -0.02    0.28
   3  11   9   -0.02    0.32
   3  11   9   -0.32    0.45
  -4 -11  -9    0.04    0.28
   4  11   9    0.26    0.28
   4  11   9    0.39    0.52
  -5 -11  -9    0.75    0.35
  -5 -11  -9    0.81    0.56
   5  11   9    1.49    0.44
   5  11   9    0.56    0.40
  -6 -11  -9    1.24    0.43
  -6 -11  -9    1.85    0.63
   6  11   9    1.63    0.58
   6  11   9    1.76    0.46
  -7 -11  -9    4.59    0.73
  -7 -11  -9    4.36    0.86
   7  11   9    3.31    0.71
   7  11   9    3.07    0.60
  -8 -11  -9    3.28    0.64
  -8 -11  -9    2.59    0.64
   8  11   9    2.25    0.54
   8  11   9    1.74    0.54
  -9 -11  -9    1.63    0.41
  -9 -11  -9    1.62    0.54
   9  11   9    0.63    0.42
 -10 -11  -9   -0.10    0.28
 -10 -11  -9   -0.23    0.33
  10  11   9    1.00    0.38
  10  11   9   -0.48    0.30
 -11 -11  -9    0.27    0.39
 -11 -11  -9    0.03    0.32
  11  11   9    0.20    0.28
  11  11   9    0.36    0.42
  -2 -12  -9    0.42    0.52
  -2 -12  -9    1.55    0.45
   2  12   9    0.80    0.44
   2  12   9    1.02    0.72
  -3 -12  -9    0.01    0.48
  -3 -12  -9    0.82    0.40
   3  12   9   -0.49    0.26
   3  12   9   -0.91    0.43
  -4 -12  -9    0.07    0.32
  -4 -12  -9    0.50    0.57
   4  12   9    0.06    0.38
   4  12   9    0.12    0.35
  -5 -12  -9    1.19    0.45
  -5 -12  -9    1.22    0.68
   5  12   9    1.35    0.62
   5  12   9    1.70    0.52
  -6 -12  -9    1.26    0.46
  -6 -12  -9   -0.09    0.50
   6  12   9    0.15    0.45
   6  12   9    0.89    0.41
  -7 -12  -9    2.32    0.56
  -7 -12  -9    1.06    0.59
   7  12   9    1.68    0.60
   7  12   9    2.50    0.57
  -8 -12  -9    0.59    0.40
   8  12   9    0.57    0.46
   8  12   9    0.21    0.36
  -9 -12  -9    2.76    0.65
   9  12   9    2.36    0.63
   2   7 -10    2.03    0.60
   2   7 -10    0.17    0.52
  -2  -7  10   -0.12    0.32
   1   7 -10   -0.20    0.30
   1   7 -10   -0.44    0.40
  -1  -7  10    0.64    0.35
   0   7 -10   -0.35    0.29
   0   7 -10    0.34    0.44
   0  -7  10   -0.08    0.27
  -1   7 -10   -0.06    0.37
   1  -7  10    0.63    0.45
   1  -7  10    0.12    0.39
  -2   7 -10    0.95    0.40
   2  -7  10    0.05    0.30
   2  -7  10    0.77    0.46
  -3   7 -10    0.77    0.43
   3  -7  10    1.87    0.59
  -4   7 -10    0.76    0.45
   4  -7  10    0.37    0.49
   4   6 -10    2.54    0.82
  -4  -6  10    1.52    0.54
   3   6 -10    0.22    0.40
   3   6 -10    0.12    0.39
  -3  -6  10    0.53    0.46
   2   6 -10   -0.21    0.40
   2   6 -10    0.22    0.27
  -2  -6  10   -0.04    0.28
   1   6 -10   -0.16    0.41
   1   6 -10    0.55    0.39
  -1  -6  10   -0.07    0.27
   0   6 -10    0.50    0.40
   0   6 -10    0.72    0.41
   0  -6  10    0.24    0.31
  -1   6 -10    0.03    0.31
  -1   6 -10    0.04    0.25
   1  -6  10    0.10    0.40
   1  -6  10    0.30    0.39
  -2   6 -10    1.55    0.52
  -2   6 -10    0.72    0.40
   2  -6  10    0.20    0.38
   2  -6  10    0.69    0.36
  -3   6 -10    0.73    0.44
   3  -6  10    0.72    0.46
   3  -6  10    1.15    0.47
  -4   6 -10    0.54    0.40
  -4   6 -10   -0.18    0.20
   4  -6  10    0.14    0.44
  -5   6 -10    0.50    0.30
  -5   6 -10    0.05    0.33
   5  -6  10    0.43    0.49
  -6   6 -10   -0.07    0.30
  -6   6 -10   -0.02    0.46
   6  -6  10    0.71    0.47
   4   5 -10    5.72    0.66
   4   5 -10    6.20    1.11
  -4  -5  10    5.32    0.87
   3   5 -10    0.43    0.25
   3   5 -10    0.02    0.52
  -3  -5  10    0.30    0.42
   2   5 -10    1.61    0.34
   2   5 -10    1.76    0.55
   2   5 -10    2.32    0.55
  -2  -5  10    1.50    0.41
  -2  -5  10    2.81    0.63
   1   5 -10    0.54    0.44
   1   5 -10    0.86    0.27
   1   5 -10    0.87    0.36
  -1  -5  10    0.96    0.32
  -1  -5  10    0.40    0.33
   0   5 -10    0.39    0.39
   0   5 -10   -0.07    0.28
   0   5 -10    0.17    0.18
   0  -5  10   -0.07    0.19
   0  -5  10   -0.04    0.30
  -1   5 -10    0.22    0.27
  -1   5 -10    0.57    0.37
  -1   5 -10    0.95    0.26
   1  -5  10    0.98    0.43
   1  -5  10    0.41    0.39
  -2   5 -10   -0.21    0.27
  -2   5 -10    0.26    0.21
  -2   5 -10   -0.24    0.28
   2  -5  10   -0.13    0.34
   2  -5  10    0.02    0.32
  -3   5 -10    0.88    0.44
  -3   5 -10    1.63    0.45
  -3   5 -10    1.00    0.31
   3  -5  10    1.07    0.40
   3  -5  10    1.52    0.51
  -4   5 -10    0.71    0.31
  -4   5 -10    1.33    0.53
   4  -5  10    0.32    0.42
  -5   5 -10    0.03    0.27
  -5   5 -10   -0.07    0.25
   5  -5  10   -0.44    0.34
  -6   5 -10    0.38    0.33
  -6   5 -10    0.74    0.47
   6  -5  10    0.20    0.43
  -7   5 -10    0.13    0.50
  -7   5 -10    0.43    0.34
   7  -5  10    0.35    0.43
   5   4 -10    0.19    0.24
   5   4 -10   -0.30    0.43
   5   4 -10   -0.09    0.40
  -5  -4  10    0.20    0.43
   4   4 -10    0.18    0.24
   4   4 -10   -0.79    0.26
   4   4 -10    0.45    0.42
  -4  -4  10    0.42    0.33
  -4  -4  10    0.22    0.39
   3   4 -10    3.84    0.79
   3   4 -10    3.05    0.49
   3   4 -10    3.03    0.57
  -3  -4  10    4.15    0.69
  -3  -4  10    3.80    0.60
   2   4 -10    0.83    0.52
   2   4 -10    1.30    0.43
   2   4 -10    1.32    0.33
  -2  -4  10    1.08    0.37
  -2  -4  10    1.72    0.50
   1   4 -10    1.28    0.52
   1   4 -10    2.24    0.51
   1   4 -10    0.99    0.28
  -1  -4  10    0.67    0.31
  -1  -4  10    2.85    0.58
   0   4 -10    0.17    0.30
   0   4 -10    0.50    0.37
   0   4 -10    0.14    0.20
   0  -4  10   -0.06    0.29
   0  -4  10    0.16    0.25
  -1   4 -10    0.69    0.31
  -1   4 -10    0.65    0.38
  -1   4 -10    0.45    0.23
   1  -4  10    0.13    0.24
   1  -4  10    0.25    0.26
   1  -4  10    0.47    0.31
  -2   4 -10    2.41    0.53
  -2   4 -10    2.13    0.52
  -2   4 -10    1.72    0.35
   2  -4  10    2.37    0.55
   2  -4  10    1.12    0.44
  -3   4 -10    0.21    0.24
  -3   4 -10   -0.16    0.18
  -3   4 -10    0.07    0.32
   3  -4  10    0.37    0.36
   3  -4  10   -0.02    0.30
  -4   4 -10    1.66    0.37
  -4   4 -10    1.29    0.43
  -4   4 -10    1.61    0.43
   4  -4  10    2.73    0.61
  -5   4 -10    0.56    0.41
  -5   4 -10    0.37    0.27
   5  -4  10   -0.18    0.34
  -6   4 -10    4.12    0.63
  -6   4 -10    4.71    0.87
   6  -4  10    3.26    0.77
  -7   4 -10    0.20    0.45
  -7   4 -10    0.56    0.36
   7  -4  10    0.63    0.50
  -8   4 -10    5.27    1.01
  -8   4 -10    7.97    0.98
   8  -4  10   11.89    1.48
   5   3 -10    1.26    0.57
   5   3 -10    1.39    0.55
   5   3 -10    1.61    0.44
  -5  -3  10    1.28    0.52
  -5  -3  10    1.34    0.44
   4   3 -10    0.95    0.33
   4   3 -10    0.38    0.52
   4   3 -10    0.94    0.45
  -4  -3  10    0.36    0.30
  -4  -3  10    0.37    0.39
   3   3 -10    0.88    0.31
   3   3 -10    0.90    0.44
   3   3 -10    0.68    0.37
  -3  -3  10    1.28    0.38
  -3  -3  10    1.38    0.49
   2   3 -10    0.49    0.44
   2   3 -10    0.51    0.31
   2   3 -10    0.80    0.30
  -2  -3  10    0.58    0.31
  -2  -3  10    0.92    0.34
   1   3 -10    0.39    0.34
   1   3 -10    0.46    0.22
   1   3 -10    0.17    0.28
   1   3 -10    0.00    0.23
  -1  -3  10    0.10    0.23
  -1  -3  10   -0.03    0.17
   0   3 -10    0.67    0.37
   0   3 -10    0.68    0.40
   0   3 -10    0.42    0.22
   0  -3  10    0.79    0.28
   0  -3  10    0.53    0.29
  -1   3 -10    1.95    0.35
  -1   3 -10    0.91    0.37
  -1   3 -10    3.13    0.57
   1  -3  10    1.23    0.37
   1  -3  10    1.70    0.48
   1  -3  10    1.57    0.45
  -2   3 -10    2.25    0.51
  -2   3 -10    1.37    0.44
  -2   3 -10    2.00    0.36
   2  -3  10    3.24    0.58
   2  -3  10    2.62    0.52
   2  -3  10    3.13    0.52
  -3   3 -10    6.08    0.86
  -3   3 -10    5.42    0.77
  -3   3 -10    6.03    0.67
   3  -3  10    5.50    0.77
   3  -3  10    6.53    0.84
  -4   3 -10   -0.33    0.28
  -4   3 -10   -0.19    0.19
  -4   3 -10   -0.28    0.23
   4  -3  10    0.26    0.26
  -5   3 -10    1.66    0.52
  -5   3 -10    1.10    0.33
  -5   3 -10    0.88    0.35
   5  -3  10    1.73    0.53
  -6   3 -10    1.40    0.48
  -6   3 -10    2.17    0.47
   6  -3  10    1.96    0.61
  -7   3 -10    0.35    0.33
  -7   3 -10    0.39    0.43
   7  -3  10    0.22    0.44
  -8   3 -10    0.76    0.41
  -8   3 -10    1.11    0.58
   8  -3  10    1.69    0.56
  -9   3 -10   -0.34    0.49
  -9   3 -10    0.89    0.43
   9  -3  10   -0.23    0.32
   6   2 -10   -1.08    0.35
   5   2 -10    0.16    0.43
   5   2 -10   -0.06    0.26
   5   2 -10    0.39    0.42
  -5  -2  10   -0.24    0.31
  -5  -2  10    0.42    0.37
   4   2 -10    0.34    0.29
   4   2 -10    0.28    0.40
   4   2 -10   -0.03    0.38
  -4  -2  10    0.61    0.32
  -4  -2  10    0.76    0.35
   3   2 -10    0.21    0.22
   3   2 -10   -0.31    0.28
   3   2 -10    0.38    0.35
  -3  -2  10    0.19    0.30
  -3  -2  10    0.48    0.36
   2   2 -10   -0.11    0.21
   2   2 -10   -0.02    0.19
   2   2 -10   -0.46    0.30
  -2  -2  10    0.49    0.31
  -2  -2  10    0.66    0.32
   1   2 -10    0.52    0.32
   1   2 -10    0.40    0.26
   1   2 -10    0.38    0.32
   1   2 -10    0.48    0.23
  -1  -2  10    0.39    0.31
  -1  -2  10    0.49    0.25
   0   2 -10    0.12    0.32
   0   2 -10    0.08    0.19
   0   2 -10    0.03    0.18
   0   2 -10    0.23    0.20
   0  -2  10   -0.09    0.18
   0  -2  10    0.01    0.24
  -1   2 -10    1.21    0.32
  -1   2 -10    1.84    0.44
  -1   2 -10    2.40    0.49
   1  -2  10    2.10    0.41
   1  -2  10    1.43    0.39
  -2   2 -10    0.75    0.31
  -2   2 -10    0.67    0.33
  -2   2 -10    0.71    0.27
   2  -2  10    0.79    0.30
   2  -2  10    1.30    0.39
   2  -2  10    0.36    0.28
  -3   2 -10    1.49    0.45
  -3   2 -10    1.96    0.38
  -3   2 -10    1.87    0.45
   3  -2  10    1.70    0.40
   3  -2  10    2.26    0.53
   3  -2  10    3.03    0.51
  -4   2 -10   11.35    1.12
  -4   2 -10   13.16    1.00
  -4   2 -10   12.15    1.15
   4  -2  10   14.29    1.23
  -5   2 -10    0.61    0.27
  -5   2 -10    0.44    0.38
  -5   2 -10    0.78    0.33
   5  -2  10    0.99    0.39
  -6   2 -10    7.54    0.84
  -6   2 -10    6.29    0.94
  -6   2 -10    6.27    0.79
   6  -2  10    7.96    1.01
  -7   2 -10    0.42    0.30
  -7   2 -10    0.34    0.33
   7  -2  10    1.05    0.46
  -8   2 -10    0.17    0.32
  -8   2 -10    0.67    0.49
   8  -2  10    0.85    0.52
  -9   2 -10   -0.47    0.28
  -9   2 -10   -0.48    0.38
   9  -2  10   -0.03    0.36
 -10   2 -10   -0.07    0.34
 -10   2 -10   -0.48    0.47
  10  -2  10    0.45    0.54
   6   1 -10    0.44    0.51
   6   1 -10   -0.04    0.34
   6   1 -10   -0.04    0.35
  -6  -1  10    0.31    0.41
  -6  -1  10    0.29    0.38
   5   1 -10   -0.29    0.30
   5   1 -10   -0.23    0.36
   5   1 -10    0.09    0.44
  -5  -1  10    0.72    0.45
  -5  -1  10    0.46    0.36
   4   1 -10   -0.07    0.30
   4   1 -10    0.17    0.44
   4   1 -10   -0.30    0.24
  -4  -1  10   -0.33    0.18
  -4  -1  10    0.28    0.35
   3   1 -10    0.94    0.32
   3   1 -10    1.12    0.51
   3   1 -10    0.55    0.33
  -3  -1  10    0.58    0.30
  -3  -1  10    0.12    0.30
   2   1 -10    0.36    0.33
   2   1 -10    0.41    0.30
   2   1 -10   -0.14    0.19
  -2  -1  10    0.55    0.26
  -2  -1  10    0.27    0.30
   1   1 -10    1.34    0.38
   1   1 -10    1.01    0.29
   1   1 -10    1.36    0.48
   1   1 -10    1.37    0.32
  -1  -1  10    0.78    0.34
  -1  -1  10    1.37    0.39
   0   1 -10    0.60    0.38
   0   1 -10    1.08    0.36
   0   1 -10    0.67    0.26
   0   1 -10    0.59    0.23
   0  -1  10    0.64    0.27
   0  -1  10    0.98    0.32
   0  -1  10    0.57    0.22
  -1   1 -10    0.89    0.27
  -1   1 -10    0.90    0.21
  -1   1 -10    1.23    0.43
  -1   1 -10    0.91    0.32
   1  -1  10    0.58    0.30
   1  -1  10    0.90    0.32
   1  -1  10    0.85    0.26
  -2   1 -10    1.44    0.39
  -2   1 -10    0.97    0.28
  -2   1 -10    1.18    0.41
   2  -1  10    1.90    0.41
   2  -1  10    1.31    0.29
   2  -1  10    1.66    0.44
   2  -1  10    1.11    0.35
  -3   1 -10    1.01    0.36
  -3   1 -10    1.48    0.42
  -3   1 -10    1.44    0.32
   3  -1  10    1.17    0.37
   3  -1  10    0.99    0.36
   3  -1  10    1.48    0.36
  -4   1 -10    1.04    0.38
  -4   1 -10    1.00    0.32
  -4   1 -10    1.62    0.42
   4  -1  10    1.48    0.44
   4  -1  10    2.39    0.39
   4  -1  10    1.70    0.41
  -5   1 -10    4.52    0.63
  -5   1 -10    5.53    0.81
  -5   1 -10    4.62    0.71
   5  -1  10    6.47    0.84
   5  -1  10    6.29    0.67
  -6   1 -10   -0.11    0.23
  -6   1 -10   -0.26    0.20
  -6   1 -10   -0.27    0.19
   6  -1  10    0.24    0.34
   6  -1  10   -0.34    0.18
  -7   1 -10    1.92    0.55
  -7   1 -10    1.72    0.45
  -7   1 -10    2.24    0.45
   7  -1  10    2.38    0.57
   7  -1  10    2.57    0.47
  -8   1 -10    1.20    0.46
  -8   1 -10    0.28    0.44
   8  -1  10    1.11    0.54
  -9   1 -10    0.16    0.33
  -9   1 -10    0.51    0.53
   9  -1  10    0.98    0.47
 -10   1 -10   -0.34    0.44
 -10   1 -10    0.25    0.41
  10  -1  10   -0.15    0.43
 -11   1 -10   -0.39    0.33
 -11   1 -10    0.12    0.41
  11  -1  10   -0.35    0.41
   6   0 -10    0.12    0.44
   6   0 -10   -0.06    0.50
   6   0 -10    0.61    0.43
  -6   0  10    1.13    0.48
  -6   0  10    0.52    0.44
   5   0 -10    0.23    0.50
   5   0 -10    0.32    0.37
   5   0 -10    0.23    0.42
  -5   0  10    1.15    0.47
  -5   0  10   -0.34    0.35
   4   0 -10    3.05    0.71
   4   0 -10    2.91    0.55
   4   0 -10    3.59    0.65
  -4   0  10    3.08    0.63
  -4   0  10    2.86    0.58
   3   0 -10    1.76    0.54
   3   0 -10    1.92    0.43
   3   0 -10    1.48    0.43
  -3   0  10    2.63    0.52
  -3   0  10    2.03    0.46
   2   0 -10    0.18    0.25
   2   0 -10    0.35    0.24
   2   0 -10    0.05    0.37
  -2   0  10    0.58    0.29
  -2   0  10    0.23    0.29
  -2   0  10    0.45    0.25
   1   0 -10    4.74    0.59
   1   0 -10    4.42    0.65
   1   0 -10    4.22    0.70
   1   0 -10    3.49    0.49
  -1   0  10    4.77    0.61
  -1   0  10    4.09    0.54
  -1   0  10    3.78    0.56
   0   0 -10    0.77    0.26
   0   0 -10    0.81    0.27
   0   0 -10    0.76    0.40
   0   0 -10    0.56    0.29
   0   0  10    0.17    0.26
   0   0  10    0.54    0.23
   0   0  10    0.89    0.33
  -1   0 -10    2.30    0.47
  -1   0 -10    1.50    0.46
  -1   0 -10    2.64    0.41
  -1   0 -10    1.67    0.28
   1   0  10    2.42    0.38
   1   0  10    1.78    0.37
   1   0  10    2.44    0.44
  -2   0 -10    5.63    0.73
  -2   0 -10    6.01    0.66
  -2   0 -10    6.18    0.80
   2   0  10    5.79    0.67
   2   0  10    6.24    0.63
   2   0  10    5.08    0.65
   2   0  10    5.21    0.72
  -3   0 -10   -0.05    0.17
  -3   0 -10   -0.02    0.16
  -3   0 -10   -0.16    0.23
   3   0  10   -0.24    0.20
   3   0  10    0.36    0.22
   3   0  10    0.27    0.17
   3   0  10   -0.15    0.20
  -4   0 -10   -0.27    0.23
  -4   0 -10    0.12    0.27
  -4   0 -10    0.14    0.22
   4   0  10    0.50    0.20
   4   0  10    0.49    0.26
   4   0  10    0.41    0.28
  -5   0 -10    4.11    0.67
  -5   0 -10    3.47    0.59
  -5   0 -10    4.55    0.60
   5   0  10    4.43    0.55
   5   0  10    3.50    0.60
   5   0  10    4.03    0.59
  -6   0 -10    0.07    0.29
  -6   0 -10    0.38    0.24
  -6   0 -10    0.85    0.36
   6   0  10    0.56    0.30
   6   0  10    0.84    0.32
  -7   0 -10    0.12    0.29
  -7   0 -10    0.20    0.29
  -7   0 -10   -0.40    0.28
   7   0  10   -0.01    0.23
   7   0  10   -0.12    0.24
  -8   0 -10    0.20    0.34
  -8   0 -10    0.54    0.47
   8   0  10    0.20    0.31
   8   0  10    0.15    0.26
  -9   0 -10   -0.28    0.39
  -9   0 -10    0.02    0.30
   9   0  10    0.01    0.29
   9   0  10    0.41    0.43
 -10   0 -10   -0.06    0.35
 -10   0 -10   -0.88    0.37
  10   0  10    0.21    0.48
 -11   0 -10    0.81    0.54
 -11   0 -10    2.30    0.72
  11   0  10    1.98    0.68
   5  -1 -10    0.30    0.44
   5  -1 -10    0.29    0.38
   5  -1 -10    0.83    0.55
  -5   1  10    0.39    0.44
  -5   1  10   -0.09    0.34
   4  -1 -10    3.66    0.66
   4  -1 -10    4.21    0.66
   4  -1 -10    4.31    0.79
  -4   1  10    3.89    0.68
  -4   1  10    2.84    0.57
   3  -1 -10    4.13    0.60
   3  -1 -10    1.89    0.54
   3  -1 -10    2.58    0.52
  -3   1  10    2.78    0.57
  -3   1  10    2.60    0.51
  -3   1  10    2.87    0.52
   2  -1 -10    1.27    0.36
   2  -1 -10    1.11    0.37
   2  -1 -10    1.33    0.51
  -2   1  10    1.91    0.40
  -2   1  10    0.42    0.29
  -2   1  10    1.40    0.36
   1  -1 -10    0.13    0.24
   1  -1 -10   -0.03    0.26
   1  -1 -10    0.11    0.19
   1  -1 -10   -0.02    0.21
  -1   1  10    0.12    0.19
  -1   1  10    0.04    0.24
  -1   1  10    0.01    0.20
   0  -1 -10    3.29    0.53
   0  -1 -10    3.42    0.50
   0  -1 -10    3.43    0.46
   0  -1 -10    4.42    0.68
   0   1  10    3.98    0.57
   0   1  10    3.06    0.49
   0   1  10    3.60    0.51
  -1  -1 -10    7.40    0.96
  -1  -1 -10    6.87    0.75
  -1  -1 -10    8.57    0.79
   1   1  10    7.59    0.80
   1   1  10    9.33    0.75
   1   1  10    7.42    0.69
  -2  -1 -10    0.37    0.22
  -2  -1 -10    0.22    0.32
  -2  -1 -10    0.51    0.24
   2   1  10    0.36    0.25
   2   1  10    0.34    0.21
   2   1  10    0.56    0.28
  -3  -1 -10    8.22    0.79
  -3  -1 -10    6.62    0.85
  -3  -1 -10    6.82    0.81
   3   1  10    6.07    0.67
   3   1  10    7.25    0.74
   3   1  10    7.10    0.76
   3   1  10    6.59    0.76
  -4  -1 -10    2.35    0.44
  -4  -1 -10    2.73    0.50
  -4  -1 -10    2.08    0.50
   4   1  10    2.32    0.43
   4   1  10    2.29    0.49
   4   1  10    2.51    0.40
  -5  -1 -10    6.02    0.72
  -5  -1 -10    6.49    0.82
  -5  -1 -10    5.14    0.77
   5   1  10    5.45    0.76
   5   1  10    6.65    0.75
  -6  -1 -10    1.91    0.50
  -6  -1 -10    1.93    0.44
  -6  -1 -10    2.00    0.47
   6   1  10    1.36    0.43
   6   1  10    1.89    0.42
  -7  -1 -10   11.05    1.10
  -7  -1 -10   11.20    1.03
  -7  -1 -10   10.69    1.25
   7   1  10   11.36    1.00
   7   1  10   15.26    1.19
  -8  -1 -10    0.97    0.41
  -8  -1 -10    1.72    0.52
   8   1  10    1.05    0.38
   8   1  10    1.26    0.42
  -9  -1 -10    0.68    0.42
  -9  -1 -10    1.68    0.53
   9   1  10    1.31    0.51
   9   1  10    1.18    0.44
 -10  -1 -10   -0.29    0.27
 -10  -1 -10   -0.23    0.33
  10   1  10   -0.15    0.33
  10   1  10    0.09    0.31
 -11  -1 -10    1.53    0.61
 -11  -1 -10    1.51    0.70
  11   1  10    1.34    0.53
  11   1  10    1.44    0.59
 -12  -1 -10    0.68    0.51
 -12  -1 -10    0.55    0.50
  12   1  10    0.24    0.49
   5  -2 -10    2.00    0.59
   5  -2 -10    2.67    0.63
   5  -2 -10    1.93    0.68
  -5   2  10    2.13    0.61
   4  -2 -10   12.57    1.44
   4  -2 -10   10.41    1.17
   4  -2 -10   10.79    1.16
  -4   2  10   11.11    0.99
  -4   2  10   12.27    1.25
  -4   2  10   10.62    1.16
   3  -2 -10    2.48    0.54
   3  -2 -10    3.00    0.71
   3  -2 -10    2.57    0.53
  -3   2  10    3.33    0.58
  -3   2  10    2.50    0.50
  -3   2  10    3.26    0.52
  -3   2  10    2.04    0.52
   2  -2 -10    3.36    0.55
   2  -2 -10    1.94    0.45
   2  -2 -10    2.82    0.66
  -2   2  10    2.70    0.52
  -2   2  10    2.92    0.53
  -2   2  10    3.20    0.58
  -2   2  10    2.79    0.47
   1  -2 -10    6.79    0.79
   1  -2 -10    8.43    1.04
   1  -2 -10    7.40    0.78
   1  -2 -10    8.02    0.88
  -1   2  10    6.94    0.81
  -1   2  10    7.19    0.84
  -1   2  10    7.54    0.78
  -1   2  10    9.59    0.83
   0  -2 -10    8.68    0.77
   0  -2 -10    6.89    0.97
   0  -2 -10    8.92    0.81
   0  -2 -10    7.23    0.70
   0   2  10    8.83    0.74
   0   2  10    8.76    0.83
   0   2  10    9.85    0.77
   0   2  10    8.06    0.86
  -1  -2 -10    0.68    0.26
  -1  -2 -10    0.72    0.25
  -1  -2 -10    0.50    0.37
   1   2  10    0.85    0.33
   1   2  10    0.41    0.24
   1   2  10    0.75    0.24
   1   2  10    0.12    0.24
  -2  -2 -10    3.64    0.54
  -2  -2 -10    2.76    0.59
  -2  -2 -10    3.10    0.48
   2   2  10    3.80    0.51
   2   2  10    2.86    0.47
   2   2  10    2.92    0.46
  -3  -2 -10   14.40    1.32
  -3  -2 -10   13.33    1.08
  -3  -2 -10   15.45    1.21
   3   2  10   15.12    1.11
   3   2  10   15.03    1.09
  -4  -2 -10   -0.07    0.20
  -4  -2 -10   -0.25    0.26
  -4  -2 -10    0.04    0.19
   4   2  10    0.12    0.26
   4   2  10    0.02    0.20
   4   2  10   -0.20    0.13
  -5  -2 -10    0.54    0.36
  -5  -2 -10    0.67    0.34
  -5  -2 -10    0.50    0.28
   5   2  10    0.92    0.35
   5   2  10    0.65    0.28
   5   2  10    0.86    0.29
  -6  -2 -10    7.51    0.97
  -6  -2 -10    7.82    0.98
  -6  -2 -10    7.68    0.86
   6   2  10    9.49    0.89
   6   2  10   10.13    0.98
  -7  -2 -10    0.39    0.30
  -7  -2 -10    0.30    0.30
  -7  -2 -10   -0.04    0.20
   7   2  10    0.09    0.27
   7   2  10    0.47    0.30
  -8  -2 -10    7.49    1.06
  -8  -2 -10    8.72    1.04
   8   2  10   11.18    0.97
   8   2  10   12.21    1.08
  -9  -2 -10    0.88    0.42
  -9  -2 -10    1.21    0.39
   9   2  10    1.72    0.43
   9   2  10    2.06    0.53
 -10  -2 -10    7.82    1.21
 -10  -2 -10    9.09    1.14
  10   2  10    9.77    1.18
  10   2  10   11.15    1.15
 -11  -2 -10   -0.12    0.26
 -11  -2 -10   -0.15    0.33
  11   2  10    0.10    0.29
  11   2  10   -0.05    0.27
 -12  -2 -10    0.39    0.37
 -12  -2 -10    0.19    0.55
  12   2  10    1.15    0.60
  12   2  10    1.16    0.51
   5  -3 -10    0.69    0.39
   5  -3 -10    0.95    0.57
   5  -3 -10    0.93    0.43
  -5   3  10    0.70    0.40
  -5   3  10    0.81    0.55
   4  -3 -10    5.45    0.81
   4  -3 -10    6.94    0.89
   4  -3 -10    5.17    0.94
  -4   3  10    4.63    0.77
  -4   3  10    5.97    0.87
   3  -3 -10    1.83    0.47
   3  -3 -10    1.12    0.52
   3  -3 -10    1.08    0.44
  -3   3  10    2.06    0.50
  -3   3  10    1.54    0.46
  -3   3  10    1.61    0.44
   2  -3 -10    0.10    0.28
   2  -3 -10    0.17    0.26
   2  -3 -10    0.58    0.32
  -2   3  10    0.24    0.35
  -2   3  10    0.31    0.31
  -2   3  10    0.07    0.22
  -2   3  10    0.82    0.36
   1  -3 -10    0.78    0.44
   1  -3 -10    0.81    0.27
   1  -3 -10    1.09    0.31
   1  -3 -10    1.02    0.30
  -1   3  10    0.87    0.28
  -1   3  10    1.18    0.39
  -1   3  10    0.68    0.34
  -1   3  10    1.08    0.33
   0  -3 -10    4.02    0.74
   0  -3 -10    4.98    0.62
   0  -3 -10    4.60    0.60
   0   3  10    4.56    0.67
   0   3  10    4.42    0.61
   0   3  10    5.22    0.59
   0   3  10    4.98    0.65
  -1  -3 -10    1.28    0.35
  -1  -3 -10    0.68    0.34
  -1  -3 -10    1.28    0.31
   1   3  10    1.54    0.36
   1   3  10    1.33    0.30
   1   3  10    1.18    0.31
   1   3  10    1.10    0.33
  -2  -3 -10    3.50    0.67
  -2  -3 -10    4.42    0.59
  -2  -3 -10    4.60    0.60
   2   3  10    4.92    0.65
   2   3  10    5.19    0.62
   2   3  10    4.54    0.58
  -3  -3 -10    9.67    0.84
  -3  -3 -10   11.25    1.09
  -3  -3 -10   10.78    0.92
   3   3  10    9.30    0.84
   3   3  10   10.00    0.90
   3   3  10   11.00    0.90
  -4  -3 -10    1.43    0.34
  -4  -3 -10    1.66    0.49
  -4  -3 -10    1.86    0.42
   4   3  10    1.24    0.32
   4   3  10    1.52    0.36
   4   3  10    1.54    0.39
  -5  -3 -10   12.98    1.15
  -5  -3 -10   10.93    1.21
  -5  -3 -10   13.33    1.07
   5   3  10   12.85    1.04
   5   3  10   15.30    1.17
   5   3  10   14.93    1.07
  -6  -3 -10   14.98    1.30
  -6  -3 -10   14.04    1.19
  -6  -3 -10   13.99    1.37
   6   3  10   15.48    1.19
   6   3  10   17.95    1.32
   6   3  10   16.10    0.95
   6   3  10   15.42    1.16
  -7  -3 -10   13.79    1.30
  -7  -3 -10   11.11    1.25
  -7  -3 -10   14.22    1.16
   7   3  10   16.30    1.17
   7   3  10   16.86    1.28
  -8  -3 -10    8.19    0.95
  -8  -3 -10    7.45    1.00
   8   3  10    8.26    0.84
   8   3  10    7.75    0.91
  -9  -3 -10   -0.07    0.26
  -9  -3 -10    0.31    0.32
   9   3  10    0.31    0.32
   9   3  10    0.29    0.29
 -10  -3 -10    0.03    0.41
 -10  -3 -10    0.58    0.41
  10   3  10    0.48    0.31
  10   3  10    0.54    0.37
 -11  -3 -10    3.47    0.79
 -11  -3 -10    1.87    0.61
  11   3  10    2.55    0.59
  11   3  10    2.97    0.63
 -12  -3 -10    0.35    0.57
 -12  -3 -10    0.35    0.46
  12   3  10   -0.52    0.26
  12   3  10   -0.05    0.42
   5  -4 -10    0.16    0.43
   5  -4 -10   -0.50    0.41
  -5   4  10   -0.15    0.32
  -5   4  10   -0.30    0.29
   4  -4 -10   18.70    1.89
   4  -4 -10   21.37    1.67
  -4   4  10   23.30    1.76
  -4   4  10   21.50    1.73
  -4   4  10   20.55    1.69
   3  -4 -10    4.42    0.70
   3  -4 -10    4.18    0.83
  -3   4  10    3.47    0.67
  -3   4  10    3.93    0.70
  -3   4  10    3.95    0.69
   2  -4 -10    0.81    0.50
   2  -4 -10    1.51    0.35
   2  -4 -10    1.48    0.43
  -2   4  10    1.06    0.45
  -2   4  10    1.04    0.43
  -2   4  10    1.83    0.50
   1  -4 -10    0.42    0.28
   1  -4 -10    0.42    0.21
   1  -4 -10   -0.42    0.30
  -1   4  10    0.20    0.23
  -1   4  10   -0.29    0.30
  -1   4  10    0.20    0.31
   0  -4 -10    1.08    0.29
   0  -4 -10    0.85    0.39
   0  -4 -10    1.36    0.36
   0   4  10    1.23    0.34
   0   4  10    1.52    0.32
   0   4  10    1.56    0.42
   0   4  10    2.12    0.44
  -1  -4 -10    2.77    0.64
  -1  -4 -10    3.54    0.52
  -1  -4 -10    3.62    0.50
   1   4  10    4.75    0.62
   1   4  10    3.68    0.54
   1   4  10    3.41    0.56
  -2  -4 -10    1.88    0.47
  -2  -4 -10    1.38    0.33
  -2  -4 -10    1.16    0.32
   2   4  10    2.05    0.42
   2   4  10    2.19    0.41
   2   4  10    1.27    0.36
  -3  -4 -10    0.29    0.28
  -3  -4 -10    0.27    0.23
  -3  -4 -10    0.45    0.25
  -3  -4 -10    0.40    0.17
   3   4  10    0.08    0.18
   3   4  10    0.10    0.22
   3   4  10    0.47    0.32
  -4  -4 -10    4.28    0.57
  -4  -4 -10    3.44    0.54
  -4  -4 -10    3.02    0.64
   4   4  10    3.50    0.53
   4   4  10    3.38    0.51
   4   4  10    4.48    0.63
  -5  -4 -10   -0.08    0.23
  -5  -4 -10    0.43    0.29
  -5  -4 -10    0.20    0.20
   5   4  10    0.00    0.28
   5   4  10   -0.16    0.22
   5   4  10    0.14    0.20
   5   4  10   -0.01    0.22
  -6  -4 -10   10.53    0.92
  -6  -4 -10    9.61    0.97
  -6  -4 -10    9.46    1.04
   6   4  10   11.24    0.95
   6   4  10   12.15    0.97
   6   4  10   10.85    0.90
  -7  -4 -10   10.87    0.92
  -7  -4 -10    8.49    1.05
   7   4  10    9.17    0.66
   7   4  10   10.29    0.91
  -8  -4 -10    2.99    0.61
  -8  -4 -10    2.58    0.65
   8   4  10    4.57    0.66
   8   4  10    3.53    0.37
   8   4  10    4.23    0.61
  -9  -4 -10    1.64    0.50
  -9  -4 -10    0.97    0.53
   9   4  10    1.21    0.40
   9   4  10    1.34    0.40
 -10  -4 -10    2.58    0.64
 -10  -4 -10    2.54    0.70
  10   4  10    2.63    0.55
  10   4  10    3.20    0.60
 -11  -4 -10    0.96    0.53
 -11  -4 -10    1.76    0.59
  11   4  10    1.05    0.44
  11   4  10    0.76    0.43
 -12  -4 -10    1.47    0.62
 -12  -4 -10   -0.49    0.42
  12   4  10   -0.21    0.26
  12   4  10    0.69    0.39
  13   4  10   -0.12    0.37
   4  -5 -10    1.17    0.42
   4  -5 -10    0.65    0.51
  -4   5  10    1.23    0.53
  -4   5  10    1.25    0.61
  -4   5  10    1.13    0.44
   3  -5 -10    0.59    0.48
   3  -5 -10    1.02    0.41
  -3   5  10    0.06    0.41
  -3   5  10    0.43    0.33
  -3   5  10    0.05    0.34
   2  -5 -10    0.43    0.29
   2  -5 -10    0.20    0.41
  -2   5  10    0.70    0.35
  -2   5  10    0.19    0.37
  -2   5  10    0.51    0.37
   1  -5 -10    1.43    0.41
   1  -5 -10    1.26    0.29
   1  -5 -10    0.90    0.42
  -1   5  10    1.06    0.40
  -1   5  10    0.06    0.33
  -1   5  10    1.55    0.41
   0  -5 -10    6.48    0.97
   0  -5 -10    6.42    0.79
   0  -5 -10    6.56    0.64
   0   5  10    8.06    0.94
   0   5  10    7.85    0.86
   0   5  10    6.59    0.78
  -1  -5 -10    0.19    0.19
  -1  -5 -10    0.00    0.26
  -1  -5 -10    0.39    0.22
   1   5  10   -0.16    0.23
   1   5  10    0.03    0.31
   1   5  10   -0.30    0.21
  -2  -5 -10    0.09    0.19
  -2  -5 -10   -0.08    0.35
  -2  -5 -10    0.06    0.19
   2   5  10   -0.72    0.22
   2   5  10    0.26    0.26
   2   5  10    0.09    0.19
  -3  -5 -10    5.38    0.84
  -3  -5 -10    4.68    0.63
  -3  -5 -10    5.36    0.47
  -3  -5 -10    5.74    0.68
   3   5  10    5.80    0.69
   3   5  10    5.68    0.68
   3   5  10    6.41    0.79
  -4  -5 -10   16.45    1.67
  -4  -5 -10   19.94    1.49
  -4  -5 -10   19.71    1.29
  -4  -5 -10   20.97    1.46
   4   5  10   19.27    1.40
   4   5  10   22.81    1.58
   4   5  10   22.15    1.45
  -5  -5 -10    6.56    0.63
  -5  -5 -10    4.64    0.78
  -5  -5 -10    5.73    0.72
  -5  -5 -10    5.13    0.70
   5   5  10    4.66    0.63
   5   5  10    5.75    0.74
   5   5  10    4.56    0.63
  -6  -5 -10    2.75    0.53
  -6  -5 -10    2.18    0.56
  -6  -5 -10    2.59    0.53
   6   5  10    2.85    0.47
   6   5  10    2.85    0.50
   6   5  10    2.26    0.45
   6   5  10    1.61    0.41
  -7  -5 -10    1.73    0.47
  -7  -5 -10    1.46    0.38
   7   5  10    1.69    0.42
   7   5  10    1.79    0.39
   7   5  10    1.57    0.37
  -8  -5 -10    2.70    0.59
  -8  -5 -10    2.15    0.56
   8   5  10    2.39    0.46
   8   5  10    3.78    0.41
  -9  -5 -10    0.02    0.27
  -9  -5 -10    0.07    0.32
   9   5  10   -0.14    0.20
   9   5  10   -0.08    0.20
   9   5  10    0.19    0.17
 -10  -5 -10    0.19    0.36
 -10  -5 -10    0.33    0.41
  10   5  10    0.32    0.29
  10   5  10    0.04    0.34
 -11  -5 -10    0.29    0.42
 -11  -5 -10    0.55    0.51
  11   5  10    0.36    0.39
  11   5  10    0.34    0.34
 -12  -5 -10    0.56    0.49
 -12  -5 -10    0.04    0.49
  12   5  10   -0.27    0.39
  12   5  10    0.06    0.31
 -13  -5 -10    0.69    0.51
 -13  -5 -10    0.81    0.66
  13   5  10    0.49    0.48
  13   5  10    0.96    0.44
   4  -6 -10   -0.33    0.41
   4  -6 -10    0.35    0.36
  -4   6  10   -0.30    0.51
  -4   6  10   -0.33    0.42
  -4   6  10   -0.14    0.28
   3  -6 -10   11.24    1.50
   3  -6 -10   13.10    1.39
  -3   6  10   15.94    1.40
  -3   6  10   15.89    1.39
  -3   6  10   17.89    1.51
   2  -6 -10    3.63    0.79
   2  -6 -10    3.89    0.68
  -2   6  10    3.78    0.70
  -2   6  10    3.47    0.68
  -2   6  10    2.63    0.64
   1  -6 -10   -0.02    0.26
   1  -6 -10   -0.07    0.20
  -1   6  10   -0.04    0.21
  -1   6  10   -0.22    0.21
  -1   6  10   -0.49    0.23
   0  -6 -10   -0.11    0.14
   0  -6 -10   -0.17    0.35
   0   6  10   -0.09    0.28
   0   6  10   -0.15    0.39
   0   6  10   -0.02    0.29
  -1  -6 -10    5.84    0.98
  -1  -6 -10    6.62    0.62
  -1  -6 -10    6.69    0.80
   1   6  10    7.56    0.84
   1   6  10    8.13    0.93
   1   6  10    7.34    0.80
  -2  -6 -10    3.36    0.67
  -2  -6 -10    3.39    0.47
  -2  -6 -10    2.55    0.48
   2   6  10    2.72    0.51
   2   6  10    3.70    0.55
   2   6  10    3.99    0.63
  -3  -6 -10   10.27    0.94
  -3  -6 -10   12.22    0.84
  -3  -6 -10   11.46    1.35
  -3  -6 -10   10.77    0.94
   3   6  10   12.64    1.02
   3   6  10   13.32    1.00
   3   6  10   12.36    1.08
  -4  -6 -10   26.33    1.85
  -4  -6 -10   26.78    1.89
  -4  -6 -10   29.02    1.71
  -4  -6 -10   22.94    2.16
   4   6  10   27.42    1.81
   4   6  10   28.34    1.97
   4   6  10   28.64    1.85
  -5  -6 -10    7.07    0.61
  -5  -6 -10    5.27    0.72
  -5  -6 -10    6.30    0.76
  -5  -6 -10    4.62    0.82
   5   6  10    6.50    0.82
   5   6  10    6.63    0.74
   5   6  10    7.49    0.79
  -6  -6 -10    0.24    0.22
  -6  -6 -10    0.00    0.27
  -6  -6 -10    0.24    0.26
   6   6  10   -0.53    0.15
   6   6  10    0.27    0.21
   6   6  10   -0.05    0.20
  -7  -6 -10    0.23    0.28
  -7  -6 -10    0.25    0.29
   7   6  10    0.20    0.29
   7   6  10    0.29    0.22
   7   6  10   -0.18    0.22
   7   6  10   -0.14    0.20
  -8  -6 -10   11.47    1.18
  -8  -6 -10    7.63    1.08
   8   6  10   12.19    0.98
   8   6  10   11.13    0.83
  -9  -6 -10    2.90    0.64
  -9  -6 -10    2.25    0.61
   9   6  10    3.04    0.61
   9   6  10    3.01    0.42
   9   6  10    3.16    0.52
 -10  -6 -10    0.05    0.35
 -10  -6 -10    0.13    0.25
  10   6  10    0.10    0.22
  10   6  10   -0.10    0.22
  10   6  10    0.14    0.20
 -11  -6 -10    0.27    0.32
 -11  -6 -10   -0.28    0.27
  11   6  10   -0.15    0.26
  11   6  10    0.20    0.31
 -12  -6 -10    3.70    0.86
 -12  -6 -10    3.51    0.74
  12   6  10    3.48    0.66
  12   6  10    3.72    0.75
 -13  -6 -10    0.36    0.45
 -13  -6 -10   -0.04    0.31
  13   6  10    0.50    0.42
   3  -7 -10    4.47    0.92
   3  -7 -10    5.19    0.83
  -3   7  10    5.68    0.98
  -3   7  10    5.76    0.91
  -3   7  10    5.79    0.93
   2  -7 -10   -0.22    0.35
   2  -7 -10   -0.06    0.32
  -2   7  10    0.35    0.41
  -2   7  10   -0.14    0.39
  -2   7  10   -0.06    0.49
   1  -7 -10    5.23    0.96
   1  -7 -10    7.20    0.88
  -1   7  10    6.56    0.89
  -1   7  10    7.27    0.92
  -1   7  10    8.86    1.12
   0  -7 -10    4.05    0.65
   0  -7 -10    3.32    0.76
   0   7  10    3.24    0.73
   0   7  10    4.37    0.69
   0   7  10    3.69    0.63
  -1  -7 -10    7.29    1.11
  -1  -7 -10   10.25    1.02
   1   7  10    9.96    1.00
   1   7  10    9.29    1.09
   1   7  10    9.53    1.00
  -2  -7 -10    1.85    0.45
  -2  -7 -10    0.81    0.46
   2   7  10    1.34    0.44
   2   7  10    2.10    0.41
   2   7  10    1.90    0.41
  -3  -7 -10   -0.02    0.23
  -3  -7 -10    0.13    0.32
  -3  -7 -10    0.18    0.20
  -3  -7 -10    0.10    0.19
   3   7  10    0.21    0.23
   3   7  10    0.00    0.26
   3   7  10    0.23    0.23
  -4  -7 -10    6.31    0.78
  -4  -7 -10    6.45    0.65
  -4  -7 -10    4.10    0.79
  -4  -7 -10    5.40    0.64
   4   7  10    5.83    0.71
   4   7  10    6.69    0.85
   4   7  10    5.64    0.67
  -5  -7 -10   14.74    1.52
  -5  -7 -10   15.83    1.29
  -5  -7 -10   17.26    1.20
  -5  -7 -10   17.29    1.31
   5   7  10   17.84    1.43
   5   7  10   18.84    1.28
   5   7  10   17.61    1.31
  -6  -7 -10    5.96    0.78
  -6  -7 -10    5.39    0.64
  -6  -7 -10    5.07    0.69
   6   7  10    4.99    0.68
   6   7  10    6.26    0.72
   6   7  10    6.14    0.80
  -7  -7 -10   -0.30    0.14
  -7  -7 -10   -0.01    0.25
  -7  -7 -10    0.05    0.16
   7   7  10    0.10    0.27
   7   7  10    0.00    0.22
   7   7  10    0.10    0.23
  -8  -7 -10    0.19    0.31
  -8  -7 -10    0.00    0.29
  -8  -7 -10    0.07    0.20
   8   7  10   -0.28    0.15
   8   7  10    0.00    0.29
  -9  -7 -10    1.54    0.46
  -9  -7 -10    1.72    0.51
   9   7  10    1.86    0.51
   9   7  10    2.44    0.45
   9   7  10    2.05    0.37
 -10  -7 -10    0.99    0.45
 -10  -7 -10    0.57    0.45
  10   7  10    0.85    0.31
  10   7  10    1.70    0.53
 -11  -7 -10    2.00    0.62
 -11  -7 -10    1.67    0.65
  11   7  10    1.19    0.40
  11   7  10    1.80    0.50
 -12  -7 -10    0.24    0.52
 -12  -7 -10    1.04    0.54
  12   7  10    0.39    0.38
   2  -8 -10    3.21    0.64
   2  -8 -10    2.54    0.71
  -2   8  10    3.98    0.92
  -2   8  10    3.42    0.73
  -2   8  10    3.39    0.69
   1  -8 -10    0.59    0.48
   1  -8 -10    1.41    0.43
  -1   8  10    2.38    0.57
  -1   8  10    0.56    0.56
  -1   8  10    1.43    0.54
   0  -8 -10    1.17    0.53
   0  -8 -10    2.72    0.59
   0   8  10    4.22    0.68
   0   8  10    3.03    0.59
   0   8  10    3.36    0.78
  -1  -8 -10    1.47    0.56
  -1  -8 -10    2.03    0.50
   1   8  10    2.49    0.66
   1   8  10    1.93    0.47
   1   8  10    2.10    0.53
  -2  -8 -10    6.51    1.09
  -2  -8 -10    8.72    0.96
   2   8  10    9.84    1.01
   2   8  10   10.99    1.19
   2   8  10    9.51    0.95
  -3  -8 -10    4.09    0.53
  -3  -8 -10    3.29    0.75
  -3  -8 -10    4.70    0.67
   3   8  10    4.37    0.76
   3   8  10    3.99    0.64
   3   8  10    4.13    0.60
  -4  -8 -10    0.38    0.27
  -4  -8 -10    0.18    0.30
   4   8  10    0.15    0.30
   4   8  10    0.44    0.40
   4   8  10    0.24    0.26
  -5  -8 -10   12.74    0.97
  -5  -8 -10   11.03    1.01
  -5  -8 -10   11.05    0.95
   5   8  10   11.63    1.04
   5   8  10   13.40    1.01
   5   8  10   12.94    1.19
  -6  -8 -10    0.72    0.33
  -6  -8 -10    0.57    0.30
  -6  -8 -10    0.51    0.28
   6   8  10   -0.08    0.25
   6   8  10    0.61    0.29
   6   8  10    0.55    0.38
  -7  -8 -10    4.21    0.66
  -7  -8 -10    3.30    0.60
  -7  -8 -10    3.71    0.56
   7   8  10    3.15    0.52
   7   8  10    3.52    0.64
   7   8  10    4.30    0.64
  -8  -8 -10    5.39    0.78
  -8  -8 -10    3.72    0.60
  -8  -8 -10    3.89    0.65
   8   8  10    4.03    0.66
   8   8  10    3.56    0.61
  -9  -8 -10    8.76    0.97
  -9  -8 -10    7.37    1.04
  -9  -8 -10    7.96    1.03
   9   8  10    9.15    1.01
   9   8  10    9.59    0.83
 -10  -8 -10    2.46    0.60
 -10  -8 -10    2.34    0.59
 -10  -8 -10    1.53    0.48
  10   8  10    2.42    0.45
  10   8  10    2.78    0.63
 -11  -8 -10    0.83    0.44
 -11  -8 -10    1.42    0.56
 -11  -8 -10    1.93    0.61
  11   8  10    0.30    0.35
  11   8  10    0.64    0.31
 -12  -8 -10    2.87    0.72
 -12  -8 -10    2.83    0.64
  12   8  10    2.05    0.58
   1  -9 -10    0.36    0.38
   1  -9 -10   -0.02    0.40
  -1   9  10   -0.13    0.38
  -1   9  10    0.81    0.39
  -1   9  10   -1.07    0.46
   0  -9 -10    0.63    0.42
   0  -9 -10    0.38    0.40
   0   9  10   -0.10    0.54
   0   9  10    0.48    0.37
   0   9  10    0.56    0.42
  -1  -9 -10    1.94    0.58
  -1  -9 -10    1.25    0.45
   1   9  10    1.20    0.43
   1   9  10    1.40    0.62
   1   9  10    2.60    0.54
  -2  -9 -10    0.53    0.31
   2   9  10    0.27    0.47
   2   9  10    0.68    0.35
   2   9  10    0.77    0.40
  -3  -9 -10   -0.21    0.27
  -3  -9 -10    0.70    0.29
   3   9  10    0.42    0.38
   3   9  10    0.03    0.26
   3   9  10    0.72    0.38
  -4  -9 -10    0.84    0.36
  -4  -9 -10    0.65    0.37
   4   9  10    0.79    0.32
   4   9  10    1.41    0.54
   4   9  10    1.79    0.48
  -5  -9 -10    1.37    0.40
  -5  -9 -10    2.11    0.51
   5   9  10    1.40    0.35
   5   9  10    0.69    0.43
   5   9  10    0.96    0.41
  -6  -9 -10    1.85    0.43
  -6  -9 -10    2.66    0.57
   6   9  10    2.02    0.42
   6   9  10    2.18    0.52
   6   9  10    1.98    0.55
  -7  -9 -10    3.37    0.62
  -7  -9 -10    2.23    0.47
  -7  -9 -10    2.46    0.51
   7   9  10    1.54    0.43
   7   9  10    1.59    0.40
   7   9  10    1.80    0.54
  -8  -9 -10    0.14    0.30
  -8  -9 -10   -0.13    0.23
  -8  -9 -10   -0.08    0.30
   8   9  10   -0.17    0.32
   8   9  10    0.40    0.33
  -9  -9 -10    0.36    0.29
  -9  -9 -10    0.51    0.35
   9   9  10   -0.34    0.30
 -10  -9 -10    1.23    0.50
 -10  -9 -10    0.53    0.41
  10   9  10    1.90    0.44
  10   9  10    0.84    0.39
 -11  -9 -10    1.66    0.55
  11   9  10    1.71    0.60
  11   9  10    1.11    0.36
 -12  -9 -10   -0.19    0.35
  12   9  10    0.37    0.47
   0  10  10    1.42    0.48
   0  10  10    0.46    0.37
   0  10  10   -0.09    0.55
   1  10  10    4.14    0.84
   1  10  10    3.33    0.71
   1  10  10    3.91    0.66
   2  10  10   -0.02    0.48
   2  10  10    0.08    0.34
   2  10  10    0.46    0.30
  -3 -10 -10    1.79    0.43
  -3 -10 -10    0.90    0.43
   3  10  10    0.60    0.32
   3  10  10    1.21    0.37
   3  10  10    1.74    0.57
  -4 -10 -10    0.61    0.36
  -4 -10 -10   -0.07    0.26
   4  10  10    0.01    0.35
   4  10  10   -0.32    0.29
   4  10  10    0.22    0.27
  -5 -10 -10    3.58    0.60
  -5 -10 -10    3.08    0.61
   5  10  10    3.80    0.78
   5  10  10    4.18    0.58
   5  10  10    4.24    0.68
  -6 -10 -10    9.02    0.94
  -6 -10 -10   10.84    1.11
   6  10  10    7.22    0.85
   6  10  10    7.29    1.02
   6  10  10    8.50    0.99
  -7 -10 -10    4.14    0.64
  -7 -10 -10    3.74    0.67
   7  10  10    2.40    0.62
   7  10  10    2.72    0.59
  -8 -10 -10    1.35    0.43
   8  10  10    1.13    0.44
   8  10  10    0.34    0.42
  -9 -10 -10   10.19    1.10
   9  10  10    8.62    1.06
 -10 -10 -10    0.56    0.43
  10  10  10    0.46    0.37
  10  10  10    0.46    0.38
  10  10  10    0.63    0.35
 -11 -10 -10    1.36    0.51
 -11 -10 -10    2.07    0.59
  11  10  10    3.01    0.56
  11  10  10    3.07    0.70
   1  11  10    2.10    0.81
   2  11  10    1.38    0.72
   2  11  10    1.17    0.49
  -3 -11 -10    1.18    0.40
   3  11  10   -0.01    0.53
   3  11  10    0.38    0.43
  -4 -11 -10    3.14    0.59
   4  11  10    3.84    0.85
   4  11  10    2.25    0.54
  -5 -11 -10    0.67    0.37
   5  11  10    0.05    0.34
   5  11  10    0.41    0.53
  -6 -11 -10    0.10    0.30
   6  11  10   -0.06    0.31
   6  11  10    0.20    0.44
  -7 -11 -10    5.05    1.02
  -7 -11 -10    7.64    0.92
   7  11  10    7.08    0.92
   7  11  10    6.72    0.95
  -8 -11 -10    1.93    0.62
  -8 -11 -10    2.29    0.56
   8  11  10    3.04    0.66
   8  11  10    1.68    0.51
  -9 -11 -10    3.36    0.69
   9  11  10    3.91    0.74
 -10 -11 -10    1.23    0.50
 -10 -11 -10    1.99    0.50
  10  11  10    1.17    0.57
  10  11  10    1.51    0.50
  10  11  10    1.43    0.45
  -4 -12 -10    0.77    0.63
  -4 -12 -10    0.45    0.33
   4  12  10    0.51    0.43
   4  12  10    0.44    0.51
  -5 -12 -10    0.13    0.31
  -5 -12 -10    0.17    0.51
   5  12  10    0.20    0.36
   5  12  10   -0.61    0.30
  -6 -12 -10    0.35    0.52
  -6 -12 -10   -0.26    0.28
   6  12  10   -0.63    0.43
   6  12  10    0.38    0.39
  -7 -12 -10    1.65    0.50
  -7 -12 -10    2.03    0.69
   7  12  10    2.03    0.66
   7  12  10    1.75    0.53
  -8 -12 -10    1.58    0.60
  -8 -12 -10    1.16    0.50
   8  12  10    2.60    0.60
   8  12  10    1.25    0.56
  -9 -12 -10   -0.31    0.31
   9  12  10   -0.77    0.34
   2   6 -11   -0.07    0.55
   2   6 -11    1.52    0.55
  -2  -6  11    0.70    0.51
   1   6 -11    0.59    0.53
   1   6 -11    0.56    0.43
  -1  -6  11    0.48    0.37
   0   6 -11   12.52    1.47
   0   6 -11   14.01    1.40
   0  -6  11   10.43    1.25
  -1   6 -11   -0.06    0.35
  -1   6 -11    0.15    0.39
   1  -6  11    0.25    0.40
  -2   6 -11    0.70    0.46
   2  -6  11   -0.10    0.39
   2  -6  11    0.52    0.48
  -3   6 -11    0.75    0.42
   3  -6  11    0.95    0.52
  -4   6 -11    0.47    0.45
   4  -6  11    0.68    0.50
   5  -6  11    3.15    0.81
   3   5 -11    0.32    0.38
   3   5 -11   -0.17    0.20
   3   5 -11   -0.48    0.49
  -3  -5  11   -0.26    0.42
   2   5 -11   -0.33    0.18
   2   5 -11   -0.23    0.34
   2   5 -11    0.08    0.49
  -2  -5  11    0.05    0.38
   1   5 -11    2.68    0.42
   1   5 -11    2.76    0.67
   1   5 -11    2.96    0.73
  -1  -5  11    1.92    0.47
  -1  -5  11    2.15    0.61
   0   5 -11    0.49    0.23
   0   5 -11   -0.46    0.31
   0   5 -11   -0.09    0.29
   0  -5  11   -0.12    0.22
   0  -5  11   -0.01    0.36
  -1   5 -11    2.56    0.65
  -1   5 -11    1.55    0.34
  -1   5 -11    1.88    0.57
   1  -5  11    1.50    0.55
  -2   5 -11   -0.24    0.29
  -2   5 -11    0.06    0.20
  -2   5 -11   -0.24    0.23
   2  -5  11   -0.44    0.31
   2  -5  11   -0.72    0.31
  -3   5 -11    3.81    0.76
  -3   5 -11    4.25    0.75
  -3   5 -11    4.49    0.56
   3  -5  11    4.17    0.79
   3  -5  11    3.05    0.68
  -4   5 -11    3.26    0.52
  -4   5 -11    2.03    0.64
   4  -5  11    3.54    0.71
  -5   5 -11    0.10    0.42
  -5   5 -11    0.28    0.28
   5  -5  11    0.48    0.49
  -6   5 -11    0.17    0.29
  -6   5 -11   -0.57    0.40
   6  -5  11    0.56    0.44
   4   4 -11    2.08    0.80
   4   4 -11    2.26    0.46
  -4  -4  11    1.17    0.53
   3   4 -11    2.47    0.70
   3   4 -11    2.27    0.44
   3   4 -11    3.58    0.72
  -3  -4  11    1.63    0.58
  -3  -4  11    2.45    0.56
   2   4 -11   -0.05    0.47
   2   4 -11    0.47    0.27
   2   4 -11    0.12    0.33
  -2  -4  11    0.01    0.29
  -2  -4  11    0.25    0.33
   1   4 -11    1.23    0.33
   1   4 -11    2.30    0.60
   1   4 -11    1.18    0.47
  -1  -4  11    1.41    0.52
  -1  -4  11    1.33    0.42
   0   4 -11    0.12    0.44
   0   4 -11    0.93    0.30
   0   4 -11    0.19    0.36
   0  -4  11    1.45    0.39
   0  -4  11    0.48    0.39
  -1   4 -11    3.42    0.50
  -1   4 -11    4.02    0.74
  -1   4 -11    3.27    0.70
   1  -4  11    3.83    0.65
   1  -4  11    4.79    0.69
  -2   4 -11    2.88    0.46
  -2   4 -11    2.23    0.57
  -2   4 -11    3.45    0.69
   2  -4  11    2.17    0.61
   2  -4  11    2.28    0.56
  -3   4 -11    0.03    0.24
  -3   4 -11    0.31    0.25
  -3   4 -11   -0.24    0.29
   3  -4  11    0.52    0.43
   3  -4  11    0.26    0.32
  -4   4 -11    1.34    0.38
  -4   4 -11    1.29    0.47
  -4   4 -11    2.67    0.65
   4  -4  11    1.47    0.48
  -5   4 -11    2.76    0.53
  -5   4 -11    3.14    0.70
   5  -4  11    3.35    0.74
  -6   4 -11   -0.06    0.30
  -6   4 -11    0.06    0.26
   6  -4  11    0.60    0.49
  -7   4 -11    0.22    0.32
  -7   4 -11   -0.58    0.22
   7  -4  11   -0.11    0.33
  -8   4 -11    3.99    0.88
  -8   4 -11    4.77    0.77
   8  -4  11    6.11    1.11
   4   3 -11   -0.29    0.26
   4   3 -11    0.08    0.49
  -4  -3  11   -0.15    0.34
  -4  -3  11    0.58    0.37
   3   3 -11    3.27    0.54
   3   3 -11    3.70    0.84
  -3  -3  11    4.11    0.66
  -3  -3  11    2.54    0.64
   2   3 -11    0.39    0.33
   2   3 -11    0.14    0.36
   2   3 -11    0.40    0.26
  -2  -3  11   -0.15    0.29
  -2  -3  11   -0.22    0.35
   1   3 -11    2.20    0.63
   1   3 -11    1.39    0.47
   1   3 -11    0.98    0.32
  -1  -3  11    1.56    0.42
  -1  -3  11    1.69    0.52
   0   3 -11    2.40    0.43
   0   3 -11    1.90    0.54
   0   3 -11    2.33    0.57
   0  -3  11    1.89    0.52
   0  -3  11    1.70    0.46
  -1   3 -11    1.53    0.44
  -1   3 -11    1.39    0.47
  -1   3 -11    1.76    0.37
   1  -3  11    1.05    0.44
   1  -3  11    1.58    0.45
  -2   3 -11    1.13    0.45
  -2   3 -11    1.20    0.32
  -2   3 -11    0.79    0.40
   2  -3  11    0.84    0.42
   2  -3  11    0.09    0.26
   2  -3  11    0.86    0.36
  -3   3 -11    0.17    0.34
  -3   3 -11    0.31    0.24
  -3   3 -11   -0.34    0.25
   3  -3  11   -0.10    0.29
   3  -3  11   -0.35    0.31
  -4   3 -11    8.03    0.99
  -4   3 -11    8.85    1.12
  -4   3 -11    6.30    0.79
   4  -3  11    9.32    1.12
  -5   3 -11    1.85    0.60
  -5   3 -11    1.63    0.48
  -5   3 -11    1.72    0.41
   5  -3  11    1.66    0.50
  -6   3 -11    3.73    0.81
  -6   3 -11    2.20    0.51
   6  -3  11    3.06    0.67
  -7   3 -11   -0.36    0.21
  -7   3 -11   -0.11    0.44
   7  -3  11    0.18    0.37
  -8   3 -11    0.25    0.45
  -8   3 -11    0.38    0.34
   8  -3  11    0.22    0.52
  -9   3 -11    0.30    0.41
  -9   3 -11   -0.11    0.53
   9  -3  11    1.03    0.69
   4   2 -11   -0.13    0.39
   4   2 -11    0.79    0.59
   4   2 -11    0.65    0.32
  -4  -2  11    0.90    0.41
  -4  -2  11    0.83    0.43
   3   2 -11    9.20    0.94
   3   2 -11   11.08    1.37
   3   2 -11    8.92    0.95
  -3  -2  11    6.63    0.92
  -3  -2  11    6.59    0.88
   2   2 -11    0.67    0.38
   2   2 -11    0.29    0.33
   2   2 -11    0.31    0.33
   2   2 -11   -0.11    0.21
  -2  -2  11   -0.39    0.24
  -2  -2  11    0.24    0.35
   1   2 -11    3.25    0.61
   1   2 -11    2.99    0.71
   1   2 -11    2.41    0.45
  -1  -2  11    3.09    0.57
  -1  -2  11    2.79    0.53
   0   2 -11    2.96    0.58
   0   2 -11    3.29    0.50
   0   2 -11    3.48    0.73
   0  -2  11    5.02    0.68
   0  -2  11    2.78    0.54
  -1   2 -11    0.10    0.19
  -1   2 -11   -0.01    0.33
  -1   2 -11    0.46    0.32
   1  -2  11    0.49    0.31
   1  -2  11    0.14    0.30
  -2   2 -11    0.56    0.32
  -2   2 -11    0.74    0.30
  -2   2 -11    0.93    0.37
   2  -2  11    0.57    0.36
   2  -2  11    0.78    0.35
   2  -2  11    1.05    0.38
  -3   2 -11   -0.21    0.27
  -3   2 -11    0.21    0.22
  -3   2 -11   -0.10    0.20
   3  -2  11    0.21    0.29
   3  -2  11   -0.14    0.18
   3  -2  11    0.17    0.31
  -4   2 -11   -0.03    0.21
  -4   2 -11   -0.11    0.21
  -4   2 -11    0.15    0.29
   4  -2  11    0.17    0.24
  -5   2 -11    0.76    0.38
  -5   2 -11    0.73    0.29
  -5   2 -11    0.14    0.29
   5  -2  11    0.80    0.46
  -6   2 -11    0.17    0.28
  -6   2 -11    0.75    0.40
  -6   2 -11    0.39    0.32
   6  -2  11    0.68    0.43
  -7   2 -11    3.48    0.65
  -7   2 -11    4.91    0.90
   7  -2  11    4.19    0.83
  -8   2 -11    2.32    0.70
  -8   2 -11    2.27    0.55
   8  -2  11    1.24    0.58
  -9   2 -11    5.32    0.87
  -9   2 -11    4.98    1.02
   9  -2  11    5.74    1.07
  10  -2  11   -0.37    0.50
   5   1 -11    0.62    0.58
   5   1 -11    0.58    0.46
  -5  -1  11    1.45    0.53
  -5  -1  11    0.23    0.40
   4   1 -11    0.96    0.43
   4   1 -11    1.42    0.60
   4   1 -11    1.27    0.44
  -4  -1  11    1.20    0.49
  -4  -1  11    0.44    0.34
   3   1 -11    0.68    0.38
   3   1 -11   -0.01    0.26
   3   1 -11    0.37    0.41
  -3  -1  11    1.18    0.43
  -3  -1  11    0.79    0.39
   2   1 -11    1.08    0.38
   2   1 -11    0.27    0.45
   2   1 -11    0.30    0.27
   2   1 -11    0.40    0.28
  -2  -1  11    0.51    0.34
  -2  -1  11   -0.20    0.28
   1   1 -11    3.26    0.51
   1   1 -11    2.26    0.44
   1   1 -11    2.46    0.60
   1   1 -11    2.34    0.53
  -1  -1  11    3.20    0.56
  -1  -1  11    3.25    0.58
   0   1 -11    0.48    0.33
   0   1 -11    0.43    0.25
   0   1 -11    0.51    0.28
   0  -1  11    0.49    0.32
   0  -1  11    0.39    0.24
  -1   1 -11   12.87    1.22
  -1   1 -11   10.87    1.07
  -1   1 -11   11.39    0.92
   1  -1  11   10.72    0.99
   1  -1  11   11.13    0.97
  -2   1 -11    0.16    0.21
  -2   1 -11    0.10    0.25
  -2   1 -11    0.14    0.19
   2  -1  11    0.26    0.24
   2  -1  11   -0.14    0.18
  -3   1 -11    1.50    0.37
  -3   1 -11    1.73    0.49
  -3   1 -11    1.43    0.41
   3  -1  11    2.08    0.45
   3  -1  11    1.65    0.43
   3  -1  11    1.92    0.47
  -4   1 -11    2.16    0.51
  -4   1 -11    3.02    0.59
  -4   1 -11    2.93    0.50
   4  -1  11    3.14    0.56
   4  -1  11    3.15    0.60
  -5   1 -11    3.45    0.63
  -5   1 -11    3.21    0.64
  -5   1 -11    3.33    0.55
   5  -1  11    4.48    0.72
  -6   1 -11    0.50    0.33
  -6   1 -11    0.08    0.28
  -6   1 -11   -0.06    0.26
   6  -1  11    0.57    0.34
  -7   1 -11    1.41    0.47
  -7   1 -11    1.60    0.42
  -7   1 -11    2.22    0.63
   7  -1  11    2.64    0.65
  -8   1 -11    1.04    0.43
  -8   1 -11    1.29    0.55
   8  -1  11    1.65    0.53
  -9   1 -11   -0.02    0.34
  -9   1 -11   -0.37    0.29
   9  -1  11   -0.26    0.38
 -10   1 -11    0.40    0.44
 -10   1 -11    0.70    0.48
  10  -1  11    0.33    0.57
   5   0 -11    1.88    0.59
   5   0 -11    2.40    0.58
   5   0 -11    3.07    0.82
  -5   0  11    3.96    0.79
  -5   0  11    3.01    0.64
   4   0 -11    0.44    0.41
   4   0 -11    1.35    0.47
  -4   0  11    1.92    0.58
  -4   0  11    2.29    0.56
   3   0 -11    6.18    0.80
   3   0 -11    5.70    0.79
   3   0 -11    6.71    1.06
  -3   0  11    6.50    0.89
  -3   0  11    6.43    0.82
   2   0 -11    0.89    0.34
   2   0 -11    0.31    0.24
   2   0 -11    0.68    0.40
  -2   0  11    0.27    0.34
  -2   0  11   -0.11    0.27
   1   0 -11    9.94    1.25
   1   0 -11   10.71    0.86
   1   0 -11    9.98    0.89
   1   0 -11    9.77    1.11
  -1   0  11   10.15    1.05
  -1   0  11    9.49    1.03
   0   0 -11   -0.02    0.17
   0   0 -11   -0.06    0.14
   0   0 -11    0.09    0.37
   0   0 -11    0.63    0.25
   0   0  11    0.50    0.32
   0   0  11    0.22    0.22
   0   0  11    0.05    0.25
  -1   0 -11    4.53    0.70
  -1   0 -11    4.36    0.58
  -1   0 -11    3.18    0.67
   1   0  11    3.97    0.61
   1   0  11    4.78    0.66
   1   0  11    5.12    0.58
  -2   0 -11    0.30    0.35
  -2   0 -11    0.02    0.14
  -2   0 -11   -0.02    0.17
   2   0  11   -0.04    0.25
   2   0  11    0.43    0.31
   2   0  11    0.10    0.21
  -3   0 -11    1.84    0.44
  -3   0 -11    2.87    0.58
  -3   0 -11    2.10    0.39
   3   0  11    2.09    0.47
   3   0  11    1.82    0.36
   3   0  11    1.31    0.44
   3   0  11    1.72    0.40
  -4   0 -11   -0.08    0.26
  -4   0 -11   -0.11    0.19
  -4   0 -11    0.14    0.21
   4   0  11    0.12    0.21
   4   0  11    0.00    0.22
   4   0  11   -0.06    0.16
  -5   0 -11    1.43    0.47
  -5   0 -11    1.25    0.42
  -5   0 -11    1.79    0.41
   5   0  11    1.12    0.41
   5   0  11    0.86    0.37
   5   0  11    1.42    0.35
  -6   0 -11    0.87    0.43
  -6   0 -11    0.64    0.37
  -6   0 -11    1.19    0.34
   6   0  11    0.39    0.37
   6   0  11    0.57    0.29
  -7   0 -11    0.58    0.44
  -7   0 -11    0.32    0.30
  -7   0 -11    0.48    0.33
   7   0  11    0.58    0.44
   7   0  11    0.47    0.29
  -8   0 -11    0.92    0.40
  -8   0 -11    0.29    0.45
   8   0  11    0.68    0.44
   8   0  11    0.65    0.34
  -9   0 -11    0.12    0.48
  -9   0 -11    0.24    0.37
   9   0  11    0.18    0.33
 -10   0 -11   -0.18    0.30
 -10   0 -11    0.36    0.44
  10   0  11   -0.21    0.29
 -11   0 -11   -0.10    0.41
 -11   0 -11    0.60    0.50
  11   0  11    1.01    0.51
   5  -1 -11    1.22    0.50
   4  -1 -11    0.13    0.36
   4  -1 -11    0.56    0.54
   4  -1 -11    0.74    0.39
  -4   1  11    0.79    0.41
  -4   1  11    0.50    0.37
   3  -1 -11    2.74    0.77
   3  -1 -11    4.33    0.69
   3  -1 -11    3.34    0.59
  -3   1  11    5.17    0.72
  -3   1  11    5.35    0.80
   2  -1 -11    2.57    0.51
   2  -1 -11    3.06    0.55
   2  -1 -11    2.92    0.71
   2  -1 -11    2.12    0.48
  -2   1  11    2.03    0.53
  -2   1  11    1.97    0.47
  -2   1  11    2.65    0.53
   1  -1 -11    2.63    0.47
   1  -1 -11    3.38    0.70
   1  -1 -11    2.39    0.49
   1  -1 -11    2.75    0.50
  -1   1  11    2.50    0.50
  -1   1  11    2.85    0.55
  -1   1  11    2.83    0.50
   0  -1 -11    2.77    0.45
   0  -1 -11    4.33    0.59
   0  -1 -11    4.66    0.77
   0  -1 -11    4.78    0.66
   0   1  11    3.82    0.59
   0   1  11    3.38    0.53
   0   1  11    4.96    0.67
  -1  -1 -11    1.18    0.47
  -1  -1 -11    1.26    0.35
  -1  -1 -11    1.92    0.42
   1   1  11    1.71    0.43
   1   1  11    1.49    0.38
   1   1  11    1.13    0.33
  -2  -1 -11    1.48    0.44
  -2  -1 -11    2.11    0.41
  -2  -1 -11    1.67    0.43
   2   1  11    1.79    0.44
   2   1  11    2.79    0.48
   2   1  11    2.07    0.40
  -3  -1 -11    4.62    0.75
  -3  -1 -11    5.73    0.67
  -3  -1 -11    4.63    0.71
   3   1  11    5.79    0.68
   3   1  11    4.97    0.61
   3   1  11    5.37    0.71
   3   1  11    6.61    0.82
  -4  -1 -11   -0.13    0.28
  -4  -1 -11    0.00    0.23
  -4  -1 -11   -0.08    0.14
   4   1  11    0.23    0.31
   4   1  11    0.45    0.25
   4   1  11    0.11    0.21
  -5  -1 -11    0.85    0.40
  -5  -1 -11    1.20    0.43
  -5  -1 -11    1.42    0.36
   5   1  11    1.88    0.45
   5   1  11    2.45    0.51
  -6  -1 -11    3.03    0.61
  -6  -1 -11    3.71    0.61
  -6  -1 -11    2.84    0.59
   6   1  11    4.10    0.65
   6   1  11    4.25    0.60
  -7  -1 -11    0.87    0.40
  -7  -1 -11    1.67    0.47
   7   1  11    0.86    0.34
   7   1  11    1.51    0.49
  -8  -1 -11    8.48    1.04
  -8  -1 -11    7.23    1.07
   8   1  11    9.05    0.98
   8   1  11    9.67    1.15
  -9  -1 -11    1.04    0.47
  -9  -1 -11    0.85    0.46
   9   1  11    1.11    0.48
   9   1  11    0.77    0.40
 -10  -1 -11    1.01    0.62
 -10  -1 -11    2.39    0.66
  10   1  11    3.36    0.75
  10   1  11    1.99    0.54
 -11  -1 -11   -0.77    0.40
  11   1  11   -0.08    0.42
   4  -2 -11    0.27    0.38
   4  -2 -11    1.19    0.58
   4  -2 -11    0.55    0.42
  -4   2  11    1.13    0.46
   3  -2 -11    6.28    0.84
   3  -2 -11    5.44    1.00
   3  -2 -11    9.17    1.01
  -3   2  11    7.83    0.96
  -3   2  11    7.22    0.94
  -3   2  11    8.13    0.89
   2  -2 -11    0.36    0.32
   2  -2 -11    0.62    0.31
   2  -2 -11    0.49    0.27
   2  -2 -11    0.98    0.54
  -2   2  11    0.69    0.34
  -2   2  11    0.23    0.29
  -2   2  11   -0.22    0.30
   1  -2 -11    1.76    0.42
   1  -2 -11    1.66    0.40
   1  -2 -11    2.55    0.51
   1  -2 -11    2.17    0.58
  -1   2  11    2.26    0.47
  -1   2  11    1.85    0.44
  -1   2  11    1.90    0.46
   0  -2 -11    0.44    0.27
   0  -2 -11    0.64    0.26
   0  -2 -11    0.44    0.34
   0   2  11    1.34    0.39
   0   2  11    0.62    0.29
  -1  -2 -11   -0.18    0.19
  -1  -2 -11    0.17    0.27
  -1  -2 -11    0.43    0.26
   1   2  11    0.30    0.25
   1   2  11   -0.08    0.20
   1   2  11    0.21    0.29
  -2  -2 -11   -0.06    0.20
  -2  -2 -11    0.46    0.23
  -2  -2 -11    0.32    0.35
   2   2  11    0.10    0.23
   2   2  11    0.15    0.27
   2   2  11    0.18    0.24
  -3  -2 -11    0.46    0.27
  -3  -2 -11    0.30    0.26
  -3  -2 -11    0.00    0.32
   3   2  11    0.25    0.19
   3   2  11    0.38    0.30
  -4  -2 -11    2.81    0.52
  -4  -2 -11    2.47    0.55
  -4  -2 -11    3.10    0.58
   4   2  11    3.68    0.53
   4   2  11    2.73    0.48
   4   2  11    4.03    0.63
  -5  -2 -11    0.91    0.37
  -5  -2 -11    1.50    0.45
  -5  -2 -11    2.57    0.49
   5   2  11    1.92    0.39
   5   2  11    1.44    0.41
   5   2  11    1.37    0.42
  -6  -2 -11   -0.11    0.16
  -6  -2 -11   -0.16    0.27
  -6  -2 -11   -0.10    0.27
   6   2  11    0.20    0.31
   6   2  11   -0.02    0.18
  -7  -2 -11    5.32    0.84
  -7  -2 -11    4.28    0.80
  -7  -2 -11    7.16    0.86
   7   2  11    6.88    0.87
   7   2  11    7.71    0.85
  -8  -2 -11    2.26    0.63
  -8  -2 -11    1.81    0.54
   8   2  11    2.94    0.62
   8   2  11    3.08    0.54
  -9  -2 -11    3.23    0.78
  -9  -2 -11    4.06    0.75
   9   2  11    4.39    0.74
   9   2  11    4.40    0.72
 -10  -2 -11    0.64    0.37
 -10  -2 -11   -0.19    0.30
  10   2  11    0.10    0.35
  10   2  11    0.61    0.39
 -11  -2 -11    0.91    0.45
 -11  -2 -11   -0.27    0.52
  11   2  11    0.70    0.45
  11   2  11    0.95    0.42
 -12  -2 -11   -0.17    0.43
 -12  -2 -11   -0.31    0.54
  12   2  11   -0.21    0.40
  12   2  11   -0.45    0.35
   4  -3 -11    1.82    0.55
   4  -3 -11    1.27    0.46
   4  -3 -11    1.47    0.57
  -4   3  11    0.22    0.44
  -4   3  11    1.65    0.56
   3  -3 -11    0.00    0.36
   3  -3 -11    0.23    0.45
   3  -3 -11    0.13    0.33
  -3   3  11    0.10    0.34
  -3   3  11    0.06    0.28
  -3   3  11   -0.54    0.32
   2  -3 -11    5.02    0.74
   2  -3 -11    5.98    0.78
   2  -3 -11    5.38    0.72
   2  -3 -11    4.61    0.89
  -2   3  11    6.01    0.82
  -2   3  11    4.29    0.71
  -2   3  11    6.27    0.81
   1  -3 -11    1.77    0.41
   1  -3 -11    2.07    0.63
   1  -3 -11    1.28    0.42
  -1   3  11    1.61    0.41
  -1   3  11    1.57    0.48
  -1   3  11    1.71    0.46
  -1   3  11    1.36    0.37
   0  -3 -11    0.34    0.34
   0  -3 -11    0.31    0.22
   0  -3 -11    0.41    0.28
   0   3  11    0.67    0.28
   0   3  11    0.50    0.26
   0   3  11    0.06    0.28
   0   3  11    0.87    0.42
  -1  -3 -11    0.81    0.31
  -1  -3 -11    0.34    0.24
  -1  -3 -11    0.58    0.37
   1   3  11    0.29    0.25
   1   3  11    0.72    0.32
   1   3  11    0.36    0.32
   1   3  11    0.71    0.30
  -2  -3 -11    0.67    0.27
  -2  -3 -11    0.25    0.24
  -2  -3 -11   -0.09    0.36
   2   3  11    0.69    0.28
   2   3  11    0.53    0.33
   2   3  11    0.52    0.29
  -3  -3 -11    0.40    0.26
  -3  -3 -11    0.17    0.23
  -3  -3 -11   -0.27    0.31
   3   3  11    0.06    0.20
   3   3  11   -0.16    0.13
  -4  -3 -11    5.02    0.80
  -4  -3 -11    5.01    0.73
  -4  -3 -11    5.53    0.69
   4   3  11    6.26    0.71
   4   3  11    6.13    0.72
  -5  -3 -11    0.58    0.40
  -5  -3 -11    0.95    0.37
  -5  -3 -11    0.67    0.30
   5   3  11    0.60    0.31
   5   3  11    0.96    0.29
   5   3  11    0.89    0.35
  -6  -3 -11   10.73    1.22
  -6  -3 -11    9.62    1.11
  -6  -3 -11    9.39    1.04
   6   3  11   10.50    1.06
   6   3  11   10.93    1.01
   6   3  11   10.64    0.92
  -7  -3 -11    0.91    0.38
  -7  -3 -11    0.66    0.34
  -7  -3 -11    0.70    0.39
   7   3  11    1.05    0.36
  -8  -3 -11    4.09    0.80
  -8  -3 -11    4.79    0.74
   8   3  11    4.48    0.72
   8   3  11    5.74    0.77
  -9  -3 -11    1.76    0.62
  -9  -3 -11    2.72    0.61
   9   3  11    2.42    0.56
   9   3  11    2.49    0.52
 -10  -3 -11    0.36    0.39
 -10  -3 -11   -0.31    0.32
  10   3  11   -0.22    0.30
  10   3  11    0.23    0.29
 -11  -3 -11    0.93    0.57
 -11  -3 -11   -0.03    0.42
  11   3  11    0.10    0.38
  11   3  11    0.45    0.33
 -12  -3 -11   -0.21    0.36
 -12  -3 -11   -0.30    0.42
  12   3  11   -0.02    0.43
  12   3  11    0.44    0.45
   4  -4 -11   -0.20    0.25
   4  -4 -11    0.02    0.47
  -4   4  11   -0.64    0.34
  -4   4  11    0.16    0.46
   3  -4 -11    1.34    0.50
   3  -4 -11    1.31    0.53
  -3   4  11    1.17    0.54
  -3   4  11    1.43    0.52
  -3   4  11    2.23    0.64
   2  -4 -11   -0.42    0.37
   2  -4 -11    0.18    0.25
   2  -4 -11    0.34    0.26
  -2   4  11   -0.21    0.33
  -2   4  11    0.36    0.35
  -2   4  11    0.10    0.37
   1  -4 -11    0.40    0.46
   1  -4 -11    0.56    0.32
   1  -4 -11    1.43    0.34
  -1   4  11   -0.06    0.29
  -1   4  11    0.70    0.38
  -1   4  11    0.68    0.31
   0  -4 -11    0.40    0.42
   0  -4 -11    0.36    0.29
   0  -4 -11    0.16    0.21
   0   4  11   -0.19    0.32
   0   4  11    0.51    0.36
   0   4  11    0.30    0.25
  -1  -4 -11    0.04    0.39
  -1  -4 -11    0.76    0.29
  -1  -4 -11   -0.02    0.18
   1   4  11    0.72    0.33
   1   4  11    0.59    0.36
   1   4  11    0.38    0.24
  -2  -4 -11    1.16    0.46
  -2  -4 -11    2.04    0.47
  -2  -4 -11    1.85    0.40
   2   4  11    1.57    0.43
   2   4  11    2.42    0.47
   2   4  11    1.88    0.45
  -3  -4 -11    3.78    0.59
  -3  -4 -11    3.58    0.75
  -3  -4 -11    4.59    0.64
   3   4  11    4.56    0.63
   3   4  11    5.77    0.68
   3   4  11    5.50    0.73
  -4  -4 -11   19.59    1.46
  -4  -4 -11   17.68    1.74
  -4  -4 -11   19.37    1.56
  -4  -4 -11   21.65    1.31
   4   4  11   21.49    1.48
   4   4  11   20.85    1.57
   4   4  11   22.67    1.52
  -5  -4 -11    2.20    0.48
  -5  -4 -11    1.87    0.46
  -5  -4 -11    1.90    0.53
   5   4  11    2.08    0.42
   5   4  11    1.93    0.45
  -6  -4 -11    3.87    0.72
  -6  -4 -11    4.35    0.70
  -6  -4 -11    4.36    0.67
   6   4  11    4.61    0.63
   6   4  11    3.08    0.54
   6   4  11    4.34    0.62
  -7  -4 -11    0.47    0.38
  -7  -4 -11    0.96    0.35
  -7  -4 -11    0.63    0.40
   7   4  11    0.65    0.32
   7   4  11    0.61    0.34
  -8  -4 -11    0.54    0.45
  -8  -4 -11    0.78    0.41
   8   4  11    0.58    0.38
   8   4  11    0.81    0.33
  -9  -4 -11    0.64    0.36
  -9  -4 -11    1.39    0.56
   9   4  11    0.89    0.37
   9   4  11    0.93    0.39
 -10  -4 -11   -0.43    0.40
 -10  -4 -11    1.17    0.47
  10   4  11    0.22    0.33
  10   4  11   -0.15    0.24
 -11  -4 -11    1.93    0.60
 -11  -4 -11    0.76    0.57
  11   4  11    1.87    0.51
  11   4  11    1.96    0.53
 -12  -4 -11   -0.12    0.40
 -12  -4 -11   -0.04    0.34
  12   4  11    0.04    0.33
  12   4  11    0.00    0.30
   3  -5 -11   -0.09    0.42
   3  -5 -11    0.27    0.37
  -3   5  11   -0.10    0.38
  -3   5  11   -0.59    0.42
  -3   5  11    0.50    0.45
   2  -5 -11    0.53    0.51
   2  -5 -11    1.46    0.50
  -2   5  11    1.89    0.59
  -2   5  11    2.33    0.59
  -2   5  11    1.79    0.55
   1  -5 -11    1.80    0.44
   1  -5 -11    1.34    0.57
  -1   5  11    1.47    0.53
  -1   5  11    3.05    0.58
  -1   5  11    2.68    0.58
   0  -5 -11    4.67    0.91
   0  -5 -11    5.42    0.67
   0  -5 -11    5.56    0.76
   0   5  11    7.36    0.87
   0   5  11    6.90    0.84
   0   5  11    6.14    0.83
  -1  -5 -11    0.52    0.45
  -1  -5 -11    1.38    0.35
  -1  -5 -11    1.35    0.37
   1   5  11    0.76    0.37
   1   5  11    1.18    0.49
   1   5  11    1.33    0.35
  -2  -5 -11    1.99    0.39
  -2  -5 -11    0.99    0.43
  -2  -5 -11    1.49    0.42
   2   5  11    1.31    0.37
   2   5  11    1.36    0.46
   2   5  11    2.40    0.49
  -3  -5 -11    0.98    0.35
  -3  -5 -11    0.05    0.39
  -3  -5 -11    1.25    0.36
   3   5  11    0.89    0.43
   3   5  11    1.11    0.36
   3   5  11    1.09    0.32
  -4  -5 -11    0.10    0.29
  -4  -5 -11    0.43    0.20
  -4  -5 -11    0.25    0.27
  -4  -5 -11    0.03    0.38
   4   5  11    0.17    0.25
   4   5  11    0.33    0.28
   4   5  11   -0.15    0.15
  -5  -5 -11    5.39    0.80
  -5  -5 -11    6.49    0.97
  -5  -5 -11    6.78    0.82
  -5  -5 -11    7.75    0.64
   5   5  11    7.09    0.80
   5   5  11    7.88    0.83
   5   5  11    7.94    0.89
  -6  -5 -11    7.51    0.95
  -6  -5 -11    6.52    1.02
  -6  -5 -11    8.33    0.94
   6   5  11    8.29    0.89
   6   5  11    9.72    0.85
   6   5  11    8.19    0.92
   6   5  11    6.38    0.82
  -7  -5 -11    0.92    0.41
  -7  -5 -11    0.99    0.35
  -7  -5 -11    1.68    0.51
   7   5  11    1.36    0.39
   7   5  11    2.28    0.47
   7   5  11    1.81    0.43
  -8  -5 -11    1.66    0.50
  -8  -5 -11    1.79    0.51
   8   5  11    2.14    0.47
  -9  -5 -11    0.73    0.48
  -9  -5 -11    0.65    0.34
   9   5  11    0.76    0.34
   9   5  11    0.83    0.41
 -10  -5 -11    0.34    0.40
 -10  -5 -11    0.20    0.42
  10   5  11   -0.03    0.25
  10   5  11   -0.43    0.32
 -11  -5 -11    3.43    0.77
 -11  -5 -11    4.03    0.84
  11   5  11    4.44    0.81
  11   5  11    6.07    0.85
 -12  -5 -11    1.21    0.60
 -12  -5 -11    1.20    0.60
  12   5  11    2.37    0.67
  12   5  11    1.19    0.48
   3  -6 -11   -0.03    0.28
   3  -6 -11   -0.29    0.45
  -3   6  11    0.74    0.53
  -3   6  11   -0.05    0.41
  -3   6  11    0.34    0.47
   2  -6 -11    0.65    0.36
   2  -6 -11    0.03    0.43
  -2   6  11    0.04    0.40
  -2   6  11    0.48    0.52
  -2   6  11    0.18    0.33
   1  -6 -11    3.18    0.79
   1  -6 -11    3.22    0.63
  -1   6  11    2.52    0.62
  -1   6  11    3.51    0.76
  -1   6  11    4.35    0.73
   0  -6 -11    0.82    0.33
   0  -6 -11    0.63    0.50
   0   6  11    0.93    0.35
   0   6  11    1.36    0.44
   0   6  11    0.29    0.47
  -1  -6 -11    0.98    0.52
  -1  -6 -11    0.35    0.26
   1   6  11    1.23    0.37
   1   6  11    0.01    0.38
   1   6  11    1.46    0.42
  -2  -6 -11    2.97    0.47
  -2  -6 -11    2.73    0.71
  -2  -6 -11    3.23    0.60
   2   6  11    2.75    0.57
   2   6  11    2.57    0.54
   2   6  11    4.25    0.61
  -3  -6 -11    2.79    0.47
  -3  -6 -11    3.16    0.57
  -3  -6 -11    2.63    0.65
   3   6  11    3.11    0.54
   3   6  11    1.87    0.44
   3   6  11    3.29    0.61
  -4  -6 -11   18.05    1.13
  -4  -6 -11   15.40    1.27
  -4  -6 -11   16.93    1.31
  -4  -6 -11   14.61    1.53
   4   6  11   16.81    1.27
   4   6  11   16.23    1.39
   4   6  11   15.54    1.24
  -5  -6 -11   14.17    1.02
  -5  -6 -11   13.21    1.18
  -5  -6 -11   15.55    1.21
  -5  -6 -11   10.19    1.40
   5   6  11   14.73    1.12
   5   6  11   14.25    1.15
   5   6  11   15.51    1.27
  -6  -6 -11    2.86    0.66
  -6  -6 -11    3.74    0.60
  -6  -6 -11    3.06    0.48
  -6  -6 -11    2.52    0.55
   6   6  11    2.84    0.51
   6   6  11    3.50    0.62
   6   6  11    3.29    0.55
  -7  -6 -11    0.51    0.32
  -7  -6 -11    0.48    0.36
   7   6  11    0.71    0.31
   7   6  11    0.38    0.29
   7   6  11    0.62    0.38
  -8  -6 -11    1.99    0.56
  -8  -6 -11    2.23    0.51
   8   6  11    2.94    0.40
   8   6  11    1.74    0.43
  -9  -6 -11    0.20    0.35
  -9  -6 -11   -0.21    0.36
   9   6  11    0.34    0.27
   9   6  11   -0.06    0.33
 -10  -6 -11    0.79    0.42
 -10  -6 -11    0.13    0.42
  10   6  11    0.47    0.29
  10   6  11    0.25    0.32
 -11  -6 -11    0.01    0.43
 -11  -6 -11   -0.48    0.31
  11   6  11    0.10    0.27
  11   6  11   -0.14    0.26
 -12  -6 -11    0.68    0.60
 -12  -6 -11    2.67    0.69
  12   6  11    1.68    0.57
  12   6  11    1.29    0.48
   2  -7 -11    0.88    0.45
   2  -7 -11    0.49    0.55
  -2   7  11    0.00    0.38
  -2   7  11   -0.03    0.50
  -2   7  11    0.39    0.46
   1  -7 -11    0.00    0.45
   1  -7 -11    0.25    0.29
  -1   7  11   -0.06    0.37
  -1   7  11   -0.09    0.35
  -1   7  11   -0.17    0.46
   0  -7 -11    0.30    0.33
   0  -7 -11   -0.13    0.42
   0   7  11   -0.01    0.26
   0   7  11   -0.16    0.33
   0   7  11   -0.21    0.20
  -1  -7 -11    1.42    0.45
  -1  -7 -11    0.69    0.43
   1   7  11    1.10    0.42
   1   7  11    1.03    0.56
   1   7  11    1.68    0.44
  -2  -7 -11    0.44    0.33
  -2  -7 -11   -0.01    0.29
   2   7  11   -0.21    0.26
   2   7  11   -0.03    0.20
   2   7  11   -0.10    0.20
  -3  -7 -11    0.00    0.35
  -3  -7 -11    0.48    0.33
   3   7  11    0.06    0.28
   3   7  11    0.10    0.29
   3   7  11    0.06    0.30
  -4  -7 -11   12.23    1.16
  -4  -7 -11   17.49    1.12
  -4  -7 -11   11.50    1.53
  -4  -7 -11   15.17    1.26
   4   7  11   17.54    1.29
   4   7  11   17.94    1.43
   4   7  11   16.79    1.21
  -5  -7 -11    6.49    0.67
  -5  -7 -11    5.02    0.69
  -5  -7 -11    6.13    0.80
  -5  -7 -11    4.52    0.91
   5   7  11    5.85    0.74
   5   7  11    6.49    0.84
   5   7  11    6.02    0.78
  -6  -7 -11    0.10    0.28
  -6  -7 -11    0.04    0.30
  -6  -7 -11    0.10    0.21
   6   7  11    0.31    0.27
   6   7  11    0.02    0.29
   6   7  11   -0.03    0.25
  -7  -7 -11    0.06    0.24
  -7  -7 -11   -0.18    0.26
  -7  -7 -11    0.32    0.27
   7   7  11   -0.09    0.24
   7   7  11   -0.26    0.21
   7   7  11    0.10    0.21
  -8  -7 -11    3.77    0.59
  -8  -7 -11    2.58    0.61
  -8  -7 -11    3.03    0.63
   8   7  11    3.36    0.62
   8   7  11    2.72    0.58
  -9  -7 -11   -0.03    0.29
  -9  -7 -11    0.53    0.41
   9   7  11    0.05    0.25
   9   7  11    0.22    0.21
 -10  -7 -11    0.09    0.26
 -10  -7 -11   -0.13    0.36
  10   7  11   -0.01    0.26
  10   7  11    0.54    0.40
 -11  -7 -11    0.18    0.32
 -11  -7 -11    0.01    0.43
  11   7  11   -0.02    0.28
 -12  -7 -11   -0.05    0.30
 -12  -7 -11   -0.33    0.44
  12   7  11    1.09    0.46
   1  -8 -11   -0.08    0.40
   1  -8 -11    0.98    0.42
  -1   8  11    1.04    0.65
  -1   8  11    1.28    0.49
  -1   8  11    1.38    0.54
   0  -8 -11    1.29    0.47
   0  -8 -11    0.99    0.55
   0   8  11    0.77    0.38
   0   8  11    0.70    0.59
   0   8  11    1.42    0.49
  -1  -8 -11   -0.14    0.41
  -1  -8 -11   -0.27    0.27
   1   8  11   -0.06    0.25
   1   8  11   -0.36    0.31
   1   8  11    0.17    0.33
  -2  -8 -11    2.71    0.72
  -2  -8 -11    2.65    0.56
   2   8  11    2.16    0.49
   2   8  11    2.06    0.51
   2   8  11    1.35    0.58
  -3  -8 -11    2.05    0.64
  -3  -8 -11    3.48    0.62
   3   8  11    1.86    0.50
   3   8  11    3.75    0.73
   3   8  11    2.68    0.53
  -4  -8 -11    0.13    0.29
  -4  -8 -11    0.02    0.23
  -4  -8 -11    0.47    0.36
   4   8  11    0.13    0.21
   4   8  11    0.50    0.44
   4   8  11   -0.49    0.22
  -5  -8 -11   14.18    1.19
  -5  -8 -11   12.68    1.01
   5   8  11   15.11    1.27
   5   8  11   11.72    1.08
   5   8  11   13.22    1.10
  -6  -8 -11    6.28    0.74
  -6  -8 -11    7.60    0.92
  -6  -8 -11    4.92    0.70
   6   8  11    6.14    0.80
   6   8  11    6.05    0.75
   6   8  11    6.76    0.87
  -7  -8 -11    9.61    0.85
  -7  -8 -11    6.93    0.94
  -7  -8 -11   10.35    1.12
   7   8  11   10.47    1.09
   7   8  11    9.22    0.97
   7   8  11    9.25    1.05
  -8  -8 -11    0.09    0.31
  -8  -8 -11    0.28    0.32
  -8  -8 -11   -0.06    0.31
   8   8  11    0.46    0.38
   8   8  11   -0.50    0.27
  -9  -8 -11    5.68    0.89
  -9  -8 -11    7.46    0.87
  -9  -8 -11    6.17    0.93
   9   8  11    6.54    0.85
   9   8  11    6.24    0.72
 -10  -8 -11    0.15    0.40
 -10  -8 -11    0.41    0.40
 -10  -8 -11    0.28    0.36
  10   8  11   -0.03    0.26
  10   8  11    0.64    0.29
 -11  -8 -11    0.49    0.48
 -11  -8 -11    0.14    0.38
 -11  -8 -11    0.93    0.53
  11   8  11   -0.19    0.27
 -12  -8 -11    4.41    0.93
 -12  -8 -11    4.70    0.80
 -12  -8 -11    4.12    0.84
  12   8  11    2.63    0.68
   0  -9 -11    0.98    0.50
   0  -9 -11    0.54    0.49
   0   9  11    1.66    0.72
   0   9  11    1.83    0.49
   0   9  11    0.96    0.52
  -1  -9 -11    3.97    0.84
  -1  -9 -11    2.88    0.64
   1   9  11    6.66    1.04
   1   9  11    4.52    0.74
   1   9  11    6.35    0.86
  -2  -9 -11    1.63    0.62
  -2  -9 -11    0.74    0.39
   2   9  11    2.12    0.50
   2   9  11    0.96    0.39
   2   9  11    2.16    0.68
  -3  -9 -11    2.54    0.56
   3   9  11    1.82    0.52
   3   9  11    1.40    0.54
   3   9  11    1.32    0.42
  -4  -9 -11    0.23    0.28
  -4  -9 -11    0.29    0.28
   4   9  11   -0.10    0.28
   4   9  11   -0.37    0.35
   4   9  11    0.36    0.30
  -5  -9 -11   28.35    1.83
  -5  -9 -11   24.70    1.90
   5   9  11   25.33    1.85
   5   9  11   27.45    1.95
   5   9  11   30.05    2.18
  -6  -9 -11   12.86    1.04
  -6  -9 -11   11.74    1.24
   6   9  11   11.70    1.04
   6   9  11   11.79    1.24
   6   9  11   13.88    1.28
  -7  -9 -11   -0.48    0.21
  -7  -9 -11   -0.12    0.30
   7   9  11   -0.31    0.28
   7   9  11    0.30    0.40
   7   9  11   -0.09    0.25
  -8  -9 -11   -0.20    0.35
  -8  -9 -11    0.33    0.26
  -8  -9 -11   -0.23    0.23
   8   9  11    0.35    0.41
   8   9  11   -0.05    0.32
  -9  -9 -11    0.60    0.42
  -9  -9 -11    0.58    0.35
  -9  -9 -11    0.42    0.37
   9   9  11    0.47    0.31
 -10  -9 -11    3.26    0.71
 -10  -9 -11    3.10    0.63
 -10  -9 -11    2.94    0.67
  10   9  11    2.90    0.53
  10   9  11    3.50    0.69
 -11  -9 -11    2.60    0.73
 -11  -9 -11    2.98    0.64
  11   9  11    4.74    0.86
   1  10  11    2.33    0.53
   1  10  11    0.72    0.50
   1  10  11    0.46    0.47
   2  10  11   -0.31    0.34
   2  10  11    0.16    0.30
   2  10  11   -0.55    0.49
  -3 -10 -11    4.97    0.81
   3  10  11    6.06    0.97
   3  10  11    5.11    0.71
   3  10  11    4.50    0.79
  -4 -10 -11    2.50    0.51
  -4 -10 -11    1.70    0.54
   4  10  11    1.87    0.48
   4  10  11    4.17    0.79
   4  10  11    2.55    0.50
  -5 -10 -11    1.57    0.49
  -5 -10 -11    1.83    0.45
   5  10  11    1.09    0.35
   5  10  11    1.37    0.51
   5  10  11    1.78    0.63
  -6 -10 -11    1.51    0.48
  -6 -10 -11    1.45    0.44
   6  10  11    2.16    0.45
   6  10  11    2.82    0.67
   6  10  11    1.68    0.54
  -7 -10 -11    0.47    0.38
  -7 -10 -11   -0.47    0.24
   7  10  11    0.04    0.42
   7  10  11    0.36    0.41
  -8 -10 -11    0.88    0.37
   8  10  11    0.37    0.43
   8  10  11    1.60    0.52
  -9 -10 -11   12.72    1.11
   9  10  11    9.88    1.21
 -10 -10 -11    0.20    0.40
  10  10  11    0.57    0.48
  10  10  11    0.53    0.39
  10  10  11    0.26    0.29
 -11 -10 -11    6.97    1.02
  11  10  11    9.73    1.23
  11  10  11    9.07    0.98
   3  11  11    0.68    0.63
   3  11  11   -0.07    0.28
  -4 -11 -11    2.20    0.51
   4  11  11    2.30    0.74
   4  11  11    2.04    0.59
  -5 -11 -11    2.56    0.53
   5  11  11    2.71    0.77
   5  11  11    1.90    0.55
  -6 -11 -11   17.93    1.44
   6  11  11   21.23    1.79
   6  11  11   18.89    1.56
  -7 -11 -11    2.55    0.57
   7  11  11    1.76    0.63
   7  11  11    2.33    0.61
  -8 -11 -11    1.78    0.50
  -8 -11 -11    1.16    0.54
   8  11  11    0.68    0.52
   8  11  11    0.68    0.44
  -9 -11 -11    0.03    0.27
   9  11  11    0.10    0.39
 -10 -11 -11    0.59    0.36
 -10 -11 -11    1.49    0.51
  10  11  11    1.03    0.51
  10  11  11    1.07    0.38
  10  11  11    0.14    0.48
  -6 -12 -11    6.64    0.92
  -6 -12 -11    6.84    1.25
   6  12  11    8.87    1.08
   6  12  11    9.39    1.21
  -7 -12 -11    5.23    0.77
  -7 -12 -11    3.91    0.95
   7  12  11    4.49    0.79
   7  12  11    4.74    0.94
   1   5 -12    0.14    0.54
   1   5 -12    0.33    0.39
  -1  -5  12    0.21    0.44
   0   5 -12    1.60    0.58
   0   5 -12    0.68    0.57
   0  -5  12    2.16    0.64
  -1   5 -12    1.22    0.53
  -1   5 -12   -0.11    0.30
   1  -5  12    0.48    0.46
  -2   5 -12   -0.02    0.43
  -2   5 -12    0.52    0.45
   2  -5  12    0.70    0.49
   2  -5  12    0.01    0.45
  -3   5 -12   -0.26    0.35
  -3   5 -12    0.27    0.27
   3  -5  12   -0.30    0.33
   3  -5  12   -0.21    0.25
  -4   5 -12    0.85    0.32
  -4   5 -12    0.86    0.46
   4  -5  12    0.64    0.53
  -5   5 -12    0.76    0.35
  -5   5 -12    0.42    0.49
   5  -5  12    0.26    0.45
   2   4 -12    0.80    0.51
   2   4 -12    0.61    0.37
   2   4 -12    0.92    0.32
  -2  -4  12    0.43    0.41
  -2  -4  12    0.06    0.45
   1   4 -12    1.19    0.65
   1   4 -12    1.31    0.39
   1   4 -12    2.19    0.63
  -1  -4  12    1.80    0.51
  -1  -4  12    2.36    0.58
   0   4 -12    1.26    0.53
   0   4 -12    1.19    0.35
   0   4 -12    0.57    0.50
   0  -4  12    0.80    0.48
   0  -4  12    1.32    0.44
  -1   4 -12    4.84    0.90
  -1   4 -12    5.42    0.68
  -1   4 -12    8.36    1.09
   1  -4  12    7.14    0.96
   1  -4  12    7.06    0.88
  -2   4 -12    0.15    0.30
  -2   4 -12   -0.23    0.34
  -2   4 -12    0.37    0.29
   2  -4  12    0.62    0.36
   2  -4  12    0.06    0.37
  -3   4 -12    0.29    0.44
  -3   4 -12   -0.12    0.24
  -3   4 -12   -0.33    0.33
   3  -4  12   -0.14    0.28
   3  -4  12    0.38    0.41
  -4   4 -12   -0.20    0.26
  -4   4 -12    0.62    0.30
   4  -4  12    0.35    0.42
  -5   4 -12    1.33    0.54
  -5   4 -12    0.97    0.36
   5  -4  12    0.84    0.50
  -6   4 -12    3.69    0.65
  -6   4 -12    3.82    0.89
   6  -4  12    4.40    0.90
   7  -4  12   -0.45    0.43
   3   3 -12   13.83    1.75
   3   3 -12   12.59    1.15
   3   3 -12   16.46    1.47
  -3  -3  12   11.80    1.36
  -3  -3  12   14.75    1.25
   2   3 -12    2.11    0.45
   2   3 -12    1.26    0.65
   2   3 -12    2.30    0.61
  -2  -3  12    1.52    0.47
  -2  -3  12    0.94    0.49
   1   3 -12    1.47    0.46
   1   3 -12    1.78    0.66
   1   3 -12    2.57    0.47
  -1  -3  12    2.10    0.57
  -1  -3  12    3.08    0.60
   0   3 -12    1.83    0.57
   0   3 -12    1.64    0.64
   0   3 -12    2.82    0.50
   0  -3  12    1.47    0.47
   0  -3  12    1.06    0.51
  -1   3 -12   12.33    0.99
  -1   3 -12   10.73    1.28
  -1   3 -12   12.03    1.40
   1  -3  12    9.77    1.11
   1  -3  12   10.65    1.20
  -2   3 -12    0.59    0.46
  -2   3 -12    0.78    0.43
  -2   3 -12    0.21    0.28
   2  -3  12    0.69    0.44
   2  -3  12    0.08    0.30
  -3   3 -12    1.18    0.38
  -3   3 -12    1.18    0.48
  -3   3 -12    1.44    0.49
   3  -3  12    0.94    0.39
   3  -3  12    1.48    0.54
  -4   3 -12    0.56    0.40
  -4   3 -12    0.93    0.48
  -4   3 -12    1.42    0.40
   4  -3  12    0.65    0.48
  -5   3 -12    0.24    0.28
  -5   3 -12    0.52    0.44
   5  -3  12    0.35    0.43
  -6   3 -12   -0.24    0.28
  -6   3 -12   -0.09    0.33
   6  -3  12   -0.24    0.38
  -7   3 -12    0.08    0.28
  -7   3 -12   -0.25    0.32
   7  -3  12   -0.14    0.46
  -8   3 -12   10.29    1.46
  -8   3 -12   11.60    1.29
   8  -3  12   16.06    1.53
   3   2 -12    4.56    0.68
   3   2 -12    4.31    0.83
   3   2 -12    4.06    0.98
  -3  -2  12    2.40    0.64
  -3  -2  12    4.68    0.76
   2   2 -12    0.37    0.33
   2   2 -12    0.16    0.50
   2   2 -12    0.16    0.25
  -2  -2  12    0.32    0.34
  -2  -2  12    0.48    0.32
   1   2 -12   -0.16    0.28
   1   2 -12    0.54    0.33
   1   2 -12    1.27    0.58
  -1  -2  12   -0.01    0.37
  -1  -2  12   -0.13    0.30
   0   2 -12    0.32    0.35
   0   2 -12    0.35    0.27
   0   2 -12    0.36    0.48
   0  -2  12    0.28    0.35
   0  -2  12   -0.26    0.33
  -1   2 -12    1.48    0.38
  -1   2 -12    2.22    0.66
  -1   2 -12    1.72    0.53
   1  -2  12    1.79    0.53
   1  -2  12    2.35    0.52
  -2   2 -12    1.89    0.50
  -2   2 -12    0.59    0.43
  -2   2 -12    1.70    0.39
   2  -2  12    0.87    0.40
   2  -2  12    1.13    0.45
  -3   2 -12    0.82    0.44
  -3   2 -12    1.63    0.52
  -3   2 -12    1.31    0.36
   3  -2  12    1.82    0.48
   3  -2  12    1.95    0.50
   3  -2  12    0.78    0.38
  -4   2 -12   -0.24    0.20
  -4   2 -12   -0.18    0.29
  -4   2 -12    0.09    0.23
   4  -2  12    1.90    0.62
  -5   2 -12   -0.31    0.28
  -5   2 -12   -0.29    0.20
  -5   2 -12   -0.28    0.20
   5  -2  12    0.04    0.39
  -6   2 -12    4.98    0.88
  -6   2 -12    3.95    0.66
   6  -2  12    4.90    0.87
  -7   2 -12    1.32    0.44
  -7   2 -12    0.13    0.47
   7  -2  12    0.37    0.49
  -8   2 -12   -0.11    0.45
  -8   2 -12   -0.17    0.28
   8  -2  12   -0.14    0.32
  -9   2 -12    1.62    0.55
  -9   2 -12    1.51    0.71
   9  -2  12    1.82    0.71
   3   1 -12    0.61    0.39
   3   1 -12   -0.41    0.49
   3   1 -12    0.16    0.28
  -3  -1  12   -0.20    0.32
  -3  -1  12    0.58    0.37
   2   1 -12    4.47    0.96
   2   1 -12    6.12    0.93
   2   1 -12    6.94    0.83
  -2  -1  12    6.95    0.91
  -2  -1  12    7.69    0.92
   1   1 -12   10.54    1.03
   1   1 -12   10.26    1.37
   1   1 -12   10.38    1.21
  -1  -1  12    9.45    1.07
  -1  -1  12    9.00    1.07
   0   1 -12   -0.10    0.43
   0   1 -12   -0.01    0.23
   0   1 -12    0.22    0.27
   0  -1  12   -0.17    0.32
   0  -1  12   -0.31    0.25
  -1   1 -12    4.86    0.77
  -1   1 -12    3.85    0.59
  -1   1 -12    4.39    0.84
   1  -1  12    3.46    0.67
   1  -1  12    5.10    0.75
  -2   1 -12    0.20    0.29
  -2   1 -12    0.67    0.38
  -2   1 -12    0.22    0.23
   2  -1  12    0.27    0.32
   2  -1  12    0.66    0.38
  -3   1 -12   -0.11    0.28
  -3   1 -12    0.15    0.33
  -3   1 -12    0.17    0.25
   3  -1  12    0.10    0.25
   3  -1  12    0.46    0.33
   3  -1  12    0.22    0.29
  -4   1 -12    0.17    0.23
  -4   1 -12   -0.14    0.30
  -4   1 -12    0.10    0.23
   4  -1  12    0.12    0.27
   4  -1  12    0.00    0.23
  -5   1 -12    5.39    0.74
  -5   1 -12    4.94    0.77
  -5   1 -12    4.37    0.78
   5  -1  12    4.21    0.76
  -6   1 -12    0.32    0.38
  -6   1 -12    0.23    0.32
  -6   1 -12   -0.05    0.27
   6  -1  12    0.67    0.37
  -7   1 -12    1.06    0.42
  -7   1 -12   -0.04    0.43
   7  -1  12    0.61    0.40
  -8   1 -12    1.17    0.59
  -8   1 -12    1.16    0.44
   8  -1  12    0.63    0.53
  -9   1 -12   11.97    1.34
  -9   1 -12   11.74    1.58
   9  -1  12   15.50    1.48
 -10   1 -12    0.69    0.54
  10  -1  12    2.03    0.64
   3   0 -12   15.12    1.33
   3   0 -12   10.27    1.15
   3   0 -12   11.69    1.23
   3   0 -12   12.39    1.56
  -3   0  12   12.18    1.26
  -3   0  12   11.38    1.27
   2   0 -12   20.06    1.53
   2   0 -12   21.12    1.57
   2   0 -12   22.41    1.78
   2   0 -12   21.79    1.95
  -2   0  12   20.82    1.61
  -2   0  12   19.91    1.59
   1   0 -12    4.14    0.63
   1   0 -12    4.68    0.89
   1   0 -12    4.81    0.74
  -1   0  12    3.88    0.64
  -1   0  12    2.52    0.53
   0   0 -12    2.50    0.51
   0   0 -12    2.72    0.73
   0   0 -12    3.85    0.66
   0   0  12    3.37    0.61
   0   0  12    4.26    0.65
  -1   0 -12    1.17    0.41
  -1   0 -12    1.00    0.36
  -1   0 -12    0.94    0.52
   1   0  12    0.72    0.36
   1   0  12    0.65    0.35
  -2   0 -12    0.53    0.30
  -2   0 -12    0.53    0.44
  -2   0 -12    0.57    0.33
   2   0  12    0.37    0.27
   2   0  12    0.99    0.34
  -3   0 -12    1.88    0.52
  -3   0 -12    2.31    0.47
  -3   0 -12    1.80    0.55
   3   0  12    2.88    0.55
   3   0  12    3.10    0.60
   3   0  12    2.85    0.56
  -4   0 -12    0.39    0.22
  -4   0 -12    0.31    0.36
  -4   0 -12    0.01    0.22
   4   0  12    0.67    0.40
   4   0  12    0.36    0.27
  -5   0 -12    2.96    0.56
  -5   0 -12    2.91    0.64
  -5   0 -12    3.61    0.68
   5   0  12    3.21    0.57
   5   0  12    3.00    0.64
  -6   0 -12    0.00    0.30
  -6   0 -12    0.07    0.26
  -6   0 -12    0.14    0.33
   6   0  12    0.25    0.31
  -7   0 -12    1.62    0.48
  -7   0 -12    1.21    0.39
  -7   0 -12    2.07    0.58
   7   0  12    1.99    0.53
  -8   0 -12    2.24    0.68
  -8   0 -12    1.27    0.49
   8   0  12    1.71    0.52
  -9   0 -12    6.12    0.93
  -9   0 -12    5.15    1.02
   9   0  12    6.44    1.05
 -10   0 -12    0.37    0.58
 -10   0 -12    2.25    0.66
  10   0  12    2.91    0.77
   3  -1 -12    1.91    0.52
   3  -1 -12    0.23    0.57
   3  -1 -12    1.42    0.50
   3  -1 -12    2.18    0.54
  -3   1  12    1.89    0.53
  -3   1  12    2.19    0.56
   2  -1 -12   -0.39    0.43
   2  -1 -12    0.31    0.26
   2  -1 -12    0.42    0.32
   2  -1 -12    0.22    0.29
  -2   1  12   -0.29    0.28
  -2   1  12    0.09    0.38
   1  -1 -12    6.84    1.11
   1  -1 -12    7.96    0.97
   1  -1 -12    6.98    0.83
   1  -1 -12    5.52    0.72
  -1   1  12    7.71    0.92
  -1   1  12    7.56    0.90
   0  -1 -12    0.36    0.31
   0  -1 -12    0.22    0.32
   0  -1 -12    0.09    0.31
   0   1  12    0.22    0.26
   0   1  12   -0.21    0.26
  -1  -1 -12    1.56    0.36
  -1  -1 -12    1.50    0.48
  -1  -1 -12    1.15    0.41
   1   1  12    1.14    0.38
   1   1  12    1.79    0.45
   1   1  12    1.38    0.38
  -2  -1 -12    2.59    0.63
  -2  -1 -12    2.30    0.45
  -2  -1 -12    2.46    0.51
   2   1  12    2.85    0.48
   2   1  12    2.10    0.47
   2   1  12    3.30    0.55
  -3  -1 -12    0.20    0.25
  -3  -1 -12    0.29    0.31
  -3  -1 -12    0.18    0.36
   3   1  12    0.22    0.22
   3   1  12    0.42    0.24
  -4  -1 -12    0.76    0.27
  -4  -1 -12    0.26    0.32
  -4  -1 -12    0.51    0.42
   4   1  12    0.56    0.29
   4   1  12    0.13    0.22
   4   1  12    0.31    0.35
  -5  -1 -12    1.59    0.47
  -5  -1 -12    2.25    0.57
  -5  -1 -12    1.73    0.44
   5   1  12    1.34    0.42
   5   1  12    2.86    0.57
  -6  -1 -12    3.60    0.63
  -6  -1 -12    3.80    0.71
  -6  -1 -12    3.38    0.70
   6   1  12    3.37    0.57
   6   1  12    3.97    0.71
  -7  -1 -12    1.71    0.51
  -7  -1 -12    0.85    0.49
  -7  -1 -12    2.16    0.54
   7   1  12    1.40    0.38
   7   1  12    1.96    0.49
  -8  -1 -12   -0.30    0.26
  -8  -1 -12    0.34    0.35
  -8  -1 -12    0.05    0.28
   8   1  12   -0.09    0.24
   8   1  12   -0.29    0.26
  -9  -1 -12    7.82    1.04
  -9  -1 -12    6.05    1.05
   9   1  12    8.55    1.15
 -10  -1 -12    3.90    0.93
 -10  -1 -12    3.69    0.75
  10   1  12    3.99    0.86
 -11  -1 -12    0.27    0.51
 -11  -1 -12    0.53    0.47
  11   1  12    0.08    0.49
   3  -2 -12    2.48    0.59
   3  -2 -12    0.87    0.45
   3  -2 -12    1.42    0.69
   3  -2 -12    2.54    0.58
  -3   2  12    1.54    0.48
  -3   2  12    2.22    0.58
   2  -2 -12   17.34    1.47
   2  -2 -12   21.30    1.64
   2  -2 -12   17.90    1.85
   2  -2 -12   18.28    1.53
  -2   2  12   20.59    1.49
  -2   2  12   22.81    1.62
   1  -2 -12    1.41    0.39
   1  -2 -12    0.39    0.32
   1  -2 -12    0.90    0.46
  -1   2  12    0.61    0.37
  -1   2  12    0.99    0.39
  -1   2  12    1.09    0.46
   0  -2 -12    5.81    0.99
   0  -2 -12    6.74    0.84
   0  -2 -12    7.50    0.88
   0   2  12    7.18    0.82
   0   2  12    5.67    0.75
   0   2  12    6.02    0.83
  -1  -2 -12    0.06    0.21
  -1  -2 -12    0.22    0.27
  -1  -2 -12    0.10    0.40
   1   2  12    0.07    0.24
   1   2  12    0.23    0.30
   1   2  12    0.03    0.29
  -2  -2 -12    0.67    0.37
  -2  -2 -12    0.52    0.31
  -2  -2 -12    0.26    0.28
   2   2  12    0.34    0.28
   2   2  12    0.66    0.36
   2   2  12    0.27    0.22
  -3  -2 -12    0.20    0.26
  -3  -2 -12    0.03    0.18
  -3  -2 -12   -0.05    0.28
   3   2  12    0.00    0.23
   3   2  12    0.35    0.26
  -4  -2 -12    0.86    0.38
  -4  -2 -12    0.59    0.32
  -4  -2 -12    0.50    0.33
   4   2  12    0.45    0.30
   4   2  12    0.49    0.24
  -5  -2 -12    0.87    0.39
  -5  -2 -12    0.33    0.40
  -5  -2 -12    0.88    0.31
   5   2  12    0.47    0.36
   5   2  12    1.35    0.44
   5   2  12    0.40    0.28
  -6  -2 -12    4.32    0.67
  -6  -2 -12    3.76    0.70
  -6  -2 -12    4.93    0.83
   6   2  12    4.89    0.77
   6   2  12    5.15    0.75
  -7  -2 -12   -0.13    0.24
  -7  -2 -12   -0.05    0.22
  -7  -2 -12    0.13    0.33
   7   2  12    0.23    0.33
   7   2  12    0.03    0.27
  -8  -2 -12    1.64    0.52
  -8  -2 -12    1.50    0.57
  -8  -2 -12    1.65    0.51
   8   2  12    2.15    0.52
   8   2  12    1.84    0.50
  -9  -2 -12    2.84    0.79
  -9  -2 -12    3.51    0.73
   9   2  12    2.86    0.68
   9   2  12    3.03    0.63
 -10  -2 -12    0.99    0.51
 -10  -2 -12    1.51    0.58
  10   2  12    1.30    0.53
  10   2  12    1.27    0.50
 -11  -2 -12    0.43    0.51
 -11  -2 -12    0.70    0.60
  11   2  12    0.08    0.43
   3  -3 -12    0.54    0.56
   3  -3 -12   -0.46    0.30
  -3   3  12   -0.38    0.27
   2  -3 -12    0.38    0.30
   2  -3 -12   -0.17    0.46
   2  -3 -12    0.94    0.44
  -2   3  12    0.16    0.35
  -2   3  12    0.45    0.33
  -2   3  12    0.98    0.42
   1  -3 -12   -0.16    0.32
   1  -3 -12    0.60    0.33
   1  -3 -12    0.19    0.25
  -1   3  12    0.07    0.35
  -1   3  12    0.26    0.30
  -1   3  12    0.73    0.41
  -1   3  12    0.62    0.40
   0  -3 -12   -0.05    0.41
   0  -3 -12    0.63    0.32
   0  -3 -12   -0.13    0.17
   0   3  12    0.91    0.39
   0   3  12   -0.10    0.28
   0   3  12    0.34    0.27
   0   3  12    0.09    0.27
  -1  -3 -12    0.79    0.50
  -1  -3 -12    0.67    0.30
  -1  -3 -12    0.38    0.31
   1   3  12    0.16    0.25
   1   3  12    0.14    0.30
   1   3  12    0.32    0.24
  -2  -3 -12    0.91    0.35
  -2  -3 -12    2.00    0.42
  -2  -3 -12    0.85    0.42
   2   3  12    1.32    0.39
   2   3  12    1.35    0.42
  -3  -3 -12    0.26    0.28
  -3  -3 -12    0.40    0.24
  -3  -3 -12   -0.06    0.36
   3   3  12    0.55    0.34
   3   3  12    0.62    0.31
  -4  -3 -12   -0.57    0.33
  -4  -3 -12    0.26    0.29
  -4  -3 -12    0.13    0.21
   4   3  12    0.22    0.27
   4   3  12    0.08    0.24
  -5  -3 -12    0.02    0.27
  -5  -3 -12    0.04    0.28
  -5  -3 -12    0.28    0.29
   5   3  12    0.30    0.29
   5   3  12   -0.16    0.26
   5   3  12    0.34    0.27
  -6  -3 -12    0.09    0.31
  -6  -3 -12    0.15    0.39
  -6  -3 -12    0.67    0.31
   6   3  12    0.61    0.31
   6   3  12    0.36    0.26
   6   3  12   -0.27    0.26
  -7  -3 -12    6.32    0.88
  -7  -3 -12    6.27    0.94
  -7  -3 -12    7.36    1.02
   7   3  12    7.08    0.90
  -8  -3 -12    2.08    0.65
  -8  -3 -12    2.09    0.54
  -8  -3 -12    2.74    0.58
   8   3  12    2.15    0.52
   8   3  12    4.13    0.69
  -9  -3 -12    4.02    0.88
  -9  -3 -12    3.78    0.76
   9   3  12    4.46    0.79
   9   3  12    5.40    0.81
 -10  -3 -12    0.83    0.48
 -10  -3 -12    0.95    0.50
  10   3  12    1.69    0.53
  10   3  12    1.12    0.44
 -11  -3 -12    0.76    0.61
 -11  -3 -12    0.06    0.44
  11   3  12    0.36    0.43
  11   3  12    0.36    0.43
   3  -4 -12    0.19    0.40
   3  -4 -12   -0.28    0.43
  -3   4  12   -0.70    0.34
  -3   4  12    0.02    0.34
   2  -4 -12    2.47    0.61
   2  -4 -12    2.11    0.71
  -2   4  12    1.77    0.55
  -2   4  12    0.95    0.52
  -2   4  12    1.98    0.58
   1  -4 -12    3.43    0.60
   1  -4 -12    2.79    0.53
   1  -4 -12    3.53    0.77
  -1   4  12    3.30    0.68
  -1   4  12    3.09    0.63
  -1   4  12    4.05    0.72
   0  -4 -12    0.97    0.55
   0  -4 -12    0.26    0.33
   0  -4 -12    0.76    0.31
   0   4  12    0.72    0.33
   0   4  12    1.11    0.45
   0   4  12    0.63    0.38
  -1  -4 -12    3.42    0.82
  -1  -4 -12    3.95    0.64
  -1  -4 -12    4.10    0.64
   1   4  12    4.55    0.67
   1   4  12    5.69    0.75
   1   4  12    3.94    0.70
  -2  -4 -12    1.15    0.34
  -2  -4 -12    0.68    0.42
  -2  -4 -12    1.04    0.38
   2   4  12    0.73    0.34
   2   4  12    1.24    0.42
   2   4  12    0.92    0.37
  -3  -4 -12    2.39    0.49
  -3  -4 -12    2.78    0.68
  -3  -4 -12    1.72    0.42
   3   4  12    2.41    0.48
   3   4  12    2.65    0.48
   3   4  12    1.39    0.42
  -4  -4 -12    2.15    0.48
  -4  -4 -12    2.18    0.49
  -4  -4 -12    2.39    0.63
   4   4  12    1.84    0.40
   4   4  12    1.43    0.41
  -5  -4 -12    1.08    0.54
  -5  -4 -12    2.15    0.48
  -5  -4 -12    2.35    0.51
   5   4  12    1.20    0.37
   5   4  12    1.99    0.47
  -6  -4 -12   -0.10    0.24
  -6  -4 -12   -0.16    0.24
  -6  -4 -12   -0.13    0.18
   6   4  12    0.30    0.32
   6   4  12   -0.21    0.23
   6   4  12   -0.08    0.23
  -7  -4 -12    3.31    0.66
  -7  -4 -12    4.11    0.67
  -7  -4 -12    2.92    0.69
   7   4  12    2.96    0.53
   7   4  12    3.31    0.59
   7   4  12    3.43    0.58
  -8  -4 -12    0.37    0.36
  -8  -4 -12    0.24    0.33
   8   4  12    0.19    0.31
   8   4  12    0.21    0.28
  -9  -4 -12   -0.37    0.35
  -9  -4 -12   -0.13    0.21
   9   4  12    0.60    0.37
   9   4  12   -0.24    0.28
 -10  -4 -12    0.56    0.36
 -10  -4 -12    0.29    0.40
  10   4  12    1.00    0.48
  10   4  12    0.63    0.39
 -11  -4 -12    1.52    0.71
 -11  -4 -12    2.22    0.67
  11   4  12    3.28    0.68
  11   4  12    1.61    0.61
 -12  -4 -12   -0.05    0.55
 -12  -4 -12    0.30    0.36
  12   4  12   -0.40    0.36
  12   4  12   -0.21    0.37
   2  -5 -12    0.63    0.54
   2  -5 -12   -0.07    0.36
  -2   5  12    0.25    0.44
  -2   5  12    0.37    0.48
  -2   5  12    0.02    0.32
   1  -5 -12    2.30    0.54
   1  -5 -12    1.77    0.66
  -1   5  12    4.13    0.76
  -1   5  12    2.59    0.61
  -1   5  12    2.73    0.66
   0  -5 -12    0.32    0.31
   0  -5 -12    0.21    0.34
   0   5  12   -0.15    0.37
   0   5  12   -0.22    0.21
   0   5  12    0.01    0.31
  -1  -5 -12    2.46    0.68
  -1  -5 -12    2.90    0.52
  -1  -5 -12    2.66    0.57
   1   5  12    3.64    0.71
   1   5  12    4.89    0.70
   1   5  12    2.17    0.50
  -2  -5 -12   -0.19    0.31
  -2  -5 -12    0.16    0.25
  -2  -5 -12    0.09    0.21
   2   5  12    0.64    0.42
   2   5  12    0.58    0.36
   2   5  12    0.13    0.31
  -3  -5 -12    0.72    0.35
  -3  -5 -12    0.54    0.29
  -3  -5 -12   -0.09    0.41
   3   5  12    0.63    0.29
   3   5  12    0.14    0.35
   3   5  12    0.42    0.31
  -4  -5 -12   -0.09    0.24
  -4  -5 -12   -0.04    0.30
  -4  -5 -12   -0.15    0.23
   4   5  12    0.16    0.22
   4   5  12    0.69    0.38
   4   5  12    0.21    0.27
  -5  -5 -12    0.06    0.30
  -5  -5 -12    0.35    0.22
  -5  -5 -12    0.21    0.28
  -5  -5 -12    0.41    0.26
   5   5  12    0.72    0.34
   5   5  12    0.19    0.24
   5   5  12    0.40    0.37
  -6  -5 -12    0.14    0.30
  -6  -5 -12    0.69    0.33
  -6  -5 -12    0.13    0.37
   6   5  12    0.46    0.32
   6   5  12    0.59    0.28
  -7  -5 -12    0.34    0.34
  -7  -5 -12   -0.30    0.20
  -7  -5 -12    0.24    0.35
   7   5  12   -0.06    0.26
   7   5  12    0.02    0.25
   7   5  12    0.26    0.23
  -8  -5 -12    5.95    0.85
  -8  -5 -12    5.26    0.88
   8   5  12    4.59    0.71
  -9  -5 -12    0.40    0.33
  -9  -5 -12   -0.14    0.34
   9   5  12    0.06    0.34
   9   5  12   -0.14    0.24
 -10  -5 -12    2.30    0.77
 -10  -5 -12    2.55    0.62
  10   5  12    2.49    0.65
  10   5  12    3.19    0.64
 -11  -5 -12   -0.57    0.40
 -11  -5 -12    0.83    0.51
  11   5  12    0.62    0.37
  11   5  12    0.10    0.39
 -12  -5 -12    0.20    0.53
 -12  -5 -12   -0.20    0.29
  12   5  12   -0.20    0.40
  12   5  12   -0.20    0.32
   2  -6 -12   -0.17    0.50
   2  -6 -12    0.47    0.43
  -2   6  12    0.88    0.44
  -2   6  12    0.00    0.43
  -2   6  12    0.14    0.51
   1  -6 -12    0.53    0.43
   1  -6 -12    0.28    0.36
  -1   6  12    0.07    0.42
  -1   6  12    0.67    0.39
  -1   6  12    0.43    0.43
   0  -6 -12    3.61    0.66
   0  -6 -12    4.00    0.92
   0   6  12    5.01    0.87
   0   6  12    4.95    0.79
   0   6  12    4.45    0.76
  -1  -6 -12    0.92    0.55
  -1  -6 -12    1.08    0.39
   1   6  12    1.13    0.43
   1   6  12    1.62    0.59
   1   6  12    0.74    0.39
  -2  -6 -12    2.60    0.75
  -2  -6 -12    4.42    0.68
   2   6  12    4.70    0.71
   2   6  12    4.71    0.79
   2   6  12    4.46    0.71
  -3  -6 -12    4.62    0.70
  -3  -6 -12    2.74    0.52
  -3  -6 -12    3.58    0.85
   3   6  12    2.30    0.49
   3   6  12    3.11    0.62
   3   6  12    3.58    0.59
  -4  -6 -12    0.34    0.33
  -4  -6 -12    0.31    0.27
  -4  -6 -12    0.16    0.32
   4   6  12    0.75    0.35
   4   6  12    0.19    0.23
   4   6  12    0.51    0.43
  -5  -6 -12    0.49    0.34
  -5  -6 -12    0.42    0.38
  -5  -6 -12    0.26    0.22
  -5  -6 -12    1.03    0.44
   5   6  12    0.24    0.30
   5   6  12    1.23    0.39
   5   6  12    1.64    0.46
  -6  -6 -12    0.82    0.31
  -6  -6 -12    0.75    0.40
  -6  -6 -12    1.43    0.45
  -6  -6 -12    1.18    0.46
   6   6  12    0.68    0.43
   6   6  12    1.52    0.42
   6   6  12    0.33    0.33
  -7  -6 -12    0.81    0.42
  -7  -6 -12   -0.06    0.32
  -7  -6 -12    0.47    0.29
   7   6  12    0.07    0.21
   7   6  12    0.60    0.28
  -8  -6 -12    1.62    0.46
  -8  -6 -12    0.60    0.40
   8   6  12    0.41    0.27
   8   6  12    0.81    0.34
  -9  -6 -12    1.10    0.53
  -9  -6 -12    1.15    0.46
   9   6  12    1.16    0.43
   9   6  12    2.05    0.49
 -10  -6 -12   -0.64    0.36
 -10  -6 -12   -0.23    0.36
  10   6  12    0.47    0.42
  10   6  12    0.03    0.30
 -11  -6 -12    0.83    0.51
 -11  -6 -12    0.41    0.55
  11   6  12    0.22    0.46
  11   6  12    1.50    0.47
 -12  -6 -12   -0.33    0.44
 -12  -6 -12   -0.32    0.37
  12   6  12   -0.32    0.28
  12   6  12    0.06    0.43
   1  -7 -12    0.61    0.58
   1  -7 -12    0.77    0.39
  -1   7  12    1.42    0.49
  -1   7  12    1.60    0.48
  -1   7  12    0.68    0.58
   0  -7 -12   -0.54    0.30
   0  -7 -12    0.21    0.38
   0   7  12    0.51    0.43
   0   7  12    0.36    0.54
   0   7  12    0.05    0.36
  -1  -7 -12    7.39    0.95
  -1  -7 -12    4.19    0.95
   1   7  12    5.62    0.82
   1   7  12    6.48    0.84
   1   7  12    5.81    0.96
  -2  -7 -12   -0.02    0.27
  -2  -7 -12   -0.01    0.43
   2   7  12    0.05    0.30
   2   7  12   -0.03    0.22
   2   7  12   -0.01    0.43
  -3  -7 -12    4.29    0.72
  -3  -7 -12    3.16    0.81
   3   7  12    5.56    0.75
   3   7  12    5.75    0.85
   3   7  12    3.83    0.68
  -4  -7 -12   -0.03    0.31
  -4  -7 -12    0.07    0.31
   4   7  12    0.48    0.30
   4   7  12    0.66    0.48
   4   7  12    0.13    0.30
  -5  -7 -12    1.15    0.50
  -5  -7 -12    0.47    0.25
  -5  -7 -12    1.14    0.42
  -5  -7 -12    0.07    0.26
   5   7  12    1.09    0.41
   5   7  12    0.29    0.34
   5   7  12    0.66    0.44
  -6  -7 -12   -0.04    0.42
  -6  -7 -12   -0.03    0.27
  -6  -7 -12    0.45    0.36
  -6  -7 -12    0.01    0.21
   6   7  12   -0.29    0.34
   6   7  12    0.06    0.22
   6   7  12   -0.25    0.24
  -7  -7 -12    0.64    0.40
  -7  -7 -12    0.38    0.36
  -7  -7 -12    1.38    0.38
   7   7  12    1.39    0.44
   7   7  12    0.81    0.44
   7   7  12    0.94    0.38
  -8  -7 -12    0.54    0.42
  -8  -7 -12   -0.03    0.37
  -8  -7 -12    0.43    0.29
   8   7  12    0.86    0.37
   8   7  12    0.47    0.28
  -9  -7 -12    3.09    0.73
  -9  -7 -12    4.54    0.70
  -9  -7 -12    6.15    0.91
   9   7  12    5.46    0.73
 -10  -7 -12    0.33    0.40
 -10  -7 -12   -0.01    0.38
  10   7  12    0.12    0.30
  10   7  12   -0.09    0.25
 -11  -7 -12    3.26    0.82
 -11  -7 -12    3.90    0.77
  11   7  12    3.71    0.76
 -12  -7 -12    0.60    0.56
 -12  -7 -12    0.47    0.47
  12   7  12    0.31    0.39
   0  -8 -12    1.04    0.46
   0  -8 -12    1.48    0.62
   0   8  12    1.44    0.48
   0   8  12    0.54    0.45
   0   8  12    0.72    0.49
  -1  -8 -12    0.04    0.28
  -1  -8 -12   -0.11    0.41
   1   8  12   -0.53    0.44
   1   8  12    0.00    0.25
   1   8  12   -0.40    0.23
  -2  -8 -12    1.61    0.59
  -2  -8 -12    2.13    0.54
   2   8  12    1.42    0.44
   2   8  12    0.43    0.57
   2   8  12    2.02    0.50
  -3  -8 -12    1.42    0.43
  -3  -8 -12    1.17    0.53
   3   8  12    2.09    0.49
   3   8  12    1.40    0.60
   3   8  12    1.27    0.39
  -4  -8 -12    0.06    0.42
  -4  -8 -12    0.32    0.35
   4   8  12    0.18    0.51
   4   8  12    0.66    0.41
   4   8  12    0.06    0.24
  -5  -8 -12    2.69    0.60
  -5  -8 -12    5.00    0.61
  -5  -8 -12    2.44    0.68
   5   8  12    3.56    0.62
   5   8  12    4.03    0.73
   5   8  12    3.18    0.59
  -6  -8 -12   -0.11    0.25
  -6  -8 -12    0.16    0.35
   6   8  12   -0.30    0.38
   6   8  12    0.18    0.33
   6   8  12    0.18    0.27
  -7  -8 -12    1.45    0.48
  -7  -8 -12    0.28    0.27
  -7  -8 -12   -0.18    0.29
   7   8  12    0.34    0.31
   7   8  12   -0.07    0.39
   7   8  12    0.26    0.29
  -8  -8 -12    0.46    0.33
  -8  -8 -12    0.84    0.44
  -8  -8 -12    0.58    0.40
   8   8  12    0.44    0.30
   8   8  12    1.09    0.40
   8   8  12    1.00    0.48
  -9  -8 -12    1.07    0.49
  -9  -8 -12    1.20    0.44
  -9  -8 -12    0.90    0.47
 -10  -8 -12   -0.16    0.35
 -10  -8 -12   -0.03    0.26
 -10  -8 -12   -0.10    0.37
  10   8  12   -0.15    0.26
 -11  -8 -12    0.25    0.45
 -11  -8 -12    0.73    0.54
 -11  -8 -12    0.31    0.32
  11   8  12    0.63    0.41
  -1  -9 -12    1.09    0.49
  -1  -9 -12    0.56    0.42
   1   9  12    0.69    0.37
   1   9  12    1.30    0.53
   1   9  12    0.72    0.50
  -2  -9 -12    1.36    0.49
  -2  -9 -12    0.10    0.46
   2   9  12    1.75    0.50
   2   9  12    1.04    0.39
   2   9  12    0.18    0.58
  -3  -9 -12    0.91    0.57
  -3  -9 -12    1.93    0.53
   3   9  12    2.56    0.68
   3   9  12    1.82    0.50
   3   9  12    2.41    0.56
  -4  -9 -12    2.38    0.55
   4   9  12    1.53    0.50
   4   9  12    2.45    0.50
   4   9  12    2.31    0.60
  -5  -9 -12    5.15    0.80
  -5  -9 -12    4.85    0.65
   5   9  12    4.43    0.68
   5   9  12    4.50    0.86
   5   9  12    3.35    0.64
  -6  -9 -12    3.40    0.55
  -6  -9 -12    4.10    0.73
   6   9  12    2.29    0.67
   6   9  12    2.64    0.56
   6   9  12    2.01    0.55
  -7  -9 -12    0.00    0.36
  -7  -9 -12    0.20    0.28
   7   9  12    0.02    0.30
   7   9  12    0.02    0.30
   7   9  12    0.55    0.46
  -8  -9 -12    0.93    0.42
  -8  -9 -12    1.75    0.55
   8   9  12    0.97    0.37
   8   9  12    0.71    0.40
   8   9  12    0.92    0.51
  -9  -9 -12    1.41    0.56
  -9  -9 -12    1.07    0.42
   9   9  12    0.85    0.41
 -10  -9 -12    0.43    0.29
 -10  -9 -12    0.07    0.38
 -10  -9 -12    0.17    0.43
  10   9  12   -0.41    0.36
 -11  -9 -12    1.86    0.59
 -11  -9 -12    2.56    0.72
 -11  -9 -12    0.82    0.52
  11   9  12    2.75    0.71
   2  10  12    0.36    0.36
   2  10  12    0.90    0.47
   2  10  12    0.16    0.61
  -3 -10 -12    0.87    0.49
   3  10  12    1.96    0.50
   3  10  12    0.23    0.32
   3  10  12    0.81    0.51
  -4 -10 -12    0.25    0.42
   4  10  12    0.06    0.27
   4  10  12   -0.04    0.34
   4  10  12   -0.14    0.37
  -5 -10 -12    2.68    0.53
  -5 -10 -12    1.98    0.59
   5  10  12    2.42    0.63
   5  10  12    1.60    0.52
   5  10  12    1.62    0.47
  -6 -10 -12    3.49    0.67
  -6 -10 -12    3.91    0.63
   6  10  12    3.63    0.73
   6  10  12    3.59    0.83
   6  10  12    3.57    0.61
  -7 -10 -12    0.09    0.31
  -7 -10 -12    0.37    0.41
   7  10  12    0.04    0.36
   7  10  12    0.17    0.29
   7  10  12   -0.26    0.24
  -8 -10 -12   -0.28    0.30
  -8 -10 -12    0.06    0.42
   8  10  12   -0.15    0.27
   8  10  12    0.22    0.36
  -9 -10 -12   -0.33    0.30
   9  10  12   -0.51    0.33
   9  10  12    0.08    0.26
 -10 -10 -12   -0.08    0.33
  10  10  12    0.05    0.36
   4  11  12    5.18    0.97
   5  11  12    0.74    0.50
   5  11  12    0.50    0.34
  -6 -11 -12    9.27    1.03
   6  11  12    9.58    1.29
   6  11  12    8.18    1.08
  -7 -11 -12    1.86    0.51
   7  11  12    2.09    0.53
   7  11  12    1.60    0.57
  -8 -11 -12    1.64    0.50
   8  11  12   -0.19    0.44
   8  11  12    1.04    0.47
  -1   4 -13    0.33    0.44
  -1   4 -13    0.30    0.30
  -1   4 -13   -0.21    0.42
   1  -4  13   -0.58    0.33
   1  -4  13    0.12    0.31
  -2   4 -13   -0.76    0.35
  -2   4 -13    0.77    0.52
  -2   4 -13    0.42    0.30
   2  -4  13   -0.08    0.40
  -3   4 -13    0.15    0.36
  -3   4 -13   -0.01    0.42
  -3   4 -13    0.88    0.33
   3  -4  13    0.59    0.40
   3  -4  13    0.20    0.37
  -4   4 -13    1.27    0.60
  -4   4 -13    1.80    0.44
   4  -4  13    1.62    0.63
   5  -4  13   -0.73    0.35
   1   3 -13    0.13    0.30
   1   3 -13    0.58    0.48
   1   3 -13    0.39    0.41
  -1  -3  13    1.25    0.48
  -1  -3  13    1.14    0.46
   0   3 -13    0.86    0.40
   0   3 -13    0.15    0.31
   0   3 -13    0.33    0.42
   0  -3  13   -0.04    0.33
   0  -3  13    0.36    0.46
  -1   3 -13    6.71    1.09
  -1   3 -13    5.90    0.98
  -1   3 -13    7.18    0.83
   1  -3  13    8.02    1.05
   1  -3  13    7.74    0.95
  -2   3 -13   -0.63    0.36
  -2   3 -13    0.18    0.25
  -2   3 -13   -0.25    0.22
   2  -3  13   -0.40    0.32
   2  -3  13   -0.23    0.27
  -3   3 -13    1.36    0.56
  -3   3 -13    1.26    0.54
  -3   3 -13    1.76    0.47
   3  -3  13    1.18    0.55
   3  -3  13    1.47    0.55
  -4   3 -13   -0.28    0.31
  -4   3 -13   -0.18    0.34
  -4   3 -13    0.14    0.30
   4  -3  13    0.18    0.36
  -5   3 -13    2.95    0.59
  -5   3 -13    2.64    0.73
   5  -3  13    3.16    0.78
  -6   3 -13    1.03    0.54
  -6   3 -13    1.44    0.44
   6  -3  13    1.08    0.55
   1   2 -13   -0.29    0.51
   1   2 -13    1.05    0.47
   1   2 -13   -0.03    0.31
  -1  -2  13    0.94    0.45
  -1  -2  13    0.30    0.34
   0   2 -13    0.21    0.55
   0   2 -13   -0.33    0.32
   0   2 -13    0.03    0.26
   0  -2  13   -0.37    0.27
   0  -2  13   -0.07    0.41
  -1   2 -13    2.70    0.53
  -1   2 -13    3.48    0.81
  -1   2 -13    1.92    0.60
   1  -2  13    3.00    0.65
   1  -2  13    3.30    0.69
  -2   2 -13    0.50    0.35
  -2   2 -13    0.60    0.51
  -2   2 -13    0.27    0.43
   2  -2  13    0.72    0.46
   2  -2  13    0.92    0.44
  -3   2 -13    1.91    0.62
  -3   2 -13    2.76    0.53
  -3   2 -13    2.06    0.55
   3  -2  13    2.58    0.64
   3  -2  13    1.34    0.50
   3  -2  13    2.59    0.62
  -4   2 -13    6.65    0.84
  -4   2 -13    6.19    1.03
  -4   2 -13    5.24    0.91
   4  -2  13    6.11    0.97
  -5   2 -13    2.15    0.59
  -5   2 -13    1.75    0.49
  -5   2 -13    1.88    0.59
   5  -2  13    3.53    0.73
  -6   2 -13    0.80    0.39
  -6   2 -13    0.78    0.51
   6  -2  13    1.57    0.54
  -7   2 -13    0.82    0.61
  -7   2 -13    2.45    0.57
   7  -2  13    2.47    0.64
  -8   2 -13    1.69    0.56
  -8   2 -13    1.16    0.56
   8  -2  13    0.83    0.63
   2   1 -13    6.17    0.99
   2   1 -13    7.06    1.22
   2   1 -13    7.10    0.90
  -2  -1  13    7.82    1.01
  -2  -1  13    6.40    0.95
   1   1 -13    4.03    0.78
   1   1 -13    3.09    0.85
   1   1 -13    3.21    0.63
  -1  -1  13    3.37    0.68
  -1  -1  13    2.50    0.63
   0   1 -13    6.72    0.83
   0   1 -13    6.12    1.09
   0   1 -13    7.09    1.00
   0  -1  13    5.46    0.87
   0  -1  13    6.38    0.90
  -1   1 -13   14.66    1.37
  -1   1 -13   13.57    1.59
  -1   1 -13   13.13    1.13
   1  -1  13   14.61    1.27
   1  -1  13   11.30    1.28
  -2   1 -13   17.95    1.65
  -2   1 -13   18.57    1.44
  -2   1 -13   19.11    1.75
   2  -1  13   19.55    1.55
   2  -1  13   20.66    1.54
  -3   1 -13    0.37    0.37
  -3   1 -13    0.97    0.39
  -3   1 -13    1.53    0.52
   3  -1  13    0.32    0.39
   3  -1  13    0.57    0.39
  -4   1 -13    1.06    0.50
  -4   1 -13    0.20    0.41
  -4   1 -13    1.24    0.40
   4  -1  13    1.93    0.51
   4  -1  13    1.95    0.54
  -5   1 -13    0.11    0.31
  -5   1 -13    0.09    0.37
  -5   1 -13    0.12    0.30
   5  -1  13   -0.08    0.40
  -6   1 -13    0.67    0.43
  -6   1 -13    1.26    0.42
  -6   1 -13    0.47    0.50
   6  -1  13    0.47    0.44
  -7   1 -13    1.33    0.58
  -7   1 -13    0.76    0.43
   7  -1  13   -0.09    0.41
  -8   1 -13    0.24    0.40
  -8   1 -13    0.21    0.38
   8  -1  13   -0.31    0.46
  -9   1 -13    9.06    1.13
  -9   1 -13    6.46    1.21
   9  -1  13    8.28    1.26
   2   0 -13    0.38    0.35
   2   0 -13    0.10    0.35
   2   0 -13    0.07    0.55
  -2   0  13    1.00    0.47
  -2   0  13    0.51    0.42
   1   0 -13   -0.07    0.31
   1   0 -13    0.03    0.38
   1   0 -13   -0.06    0.34
  -1   0  13   -0.42    0.36
  -1   0  13    0.22    0.38
   0   0 -13    0.06    0.53
   0   0 -13    1.04    0.39
   0   0 -13    0.55    0.38
   0   0  13    0.22    0.27
   0   0  13    0.09    0.36
  -1   0 -13    5.95    0.77
  -1   0 -13    4.97    0.94
  -1   0 -13    4.70    0.84
   1   0  13    7.66    0.94
   1   0  13    5.37    0.80
  -2   0 -13   -0.04    0.32
  -2   0 -13    0.34    0.31
  -2   0 -13    0.37    0.36
   2   0  13    1.33    0.43
   2   0  13    0.76    0.35
  -3   0 -13    3.45    0.60
  -3   0 -13    3.18    0.73
  -3   0 -13    4.60    0.79
   3   0  13    4.75    0.70
   3   0  13    4.26    0.72
  -4   0 -13    0.14    0.28
  -4   0 -13   -0.14    0.26
  -4   0 -13    0.08    0.36
   4   0  13    0.34    0.31
   4   0  13    0.15    0.35
  -5   0 -13    6.23    0.95
  -5   0 -13    6.00    0.96
  -5   0 -13    7.36    0.89
   5   0  13    5.33    0.81
   5   0  13    6.85    0.99
  -6   0 -13    0.40    0.34
  -6   0 -13    1.13    0.49
  -6   0 -13    0.49    0.45
   6   0  13    1.24    0.51
  -7   0 -13    1.25    0.45
  -7   0 -13    0.11    0.46
  -7   0 -13    0.92    0.49
   7   0  13    1.29    0.49
  -8   0 -13    1.59    0.54
  -8   0 -13    0.65    0.45
   8   0  13    0.75    0.52
  -9   0 -13    3.27    0.71
  -9   0 -13    1.09    0.64
   9   0  13    2.39    0.74
   2  -1 -13    4.90    0.98
   2  -1 -13    7.04    1.00
   2  -1 -13    5.56    0.84
  -2   1  13    7.19    0.97
  -2   1  13    7.09    0.95
   1  -1 -13    9.01    1.34
   1  -1 -13    8.64    1.06
   1  -1 -13   10.35    1.21
  -1   1  13    9.40    1.14
  -1   1  13   10.22    1.12
   0  -1 -13    6.67    0.96
   0  -1 -13    6.13    1.02
   0  -1 -13    7.45    0.90
   0   1  13    6.93    0.90
   0   1  13    7.74    1.00
  -1  -1 -13   -0.24    0.30
  -1  -1 -13    0.41    0.35
  -1  -1 -13    0.19    0.24
   1   1  13    0.11    0.34
   1   1  13    0.02    0.32
  -2  -1 -13   12.25    1.16
  -2  -1 -13   12.73    1.05
  -2  -1 -13    8.45    1.27
   2   1  13   12.17    1.21
   2   1  13    9.43    1.08
  -3  -1 -13    1.23    0.40
  -3  -1 -13    1.37    0.49
  -3  -1 -13    1.67    0.53
   3   1  13    1.67    0.49
  -4  -1 -13   -0.05    0.24
  -4  -1 -13   -0.25    0.21
  -4  -1 -13    0.40    0.34
   4   1  13    0.49    0.31
  -5  -1 -13    2.75    0.66
  -5  -1 -13    2.47    0.54
  -5  -1 -13    1.06    0.53
   5   1  13    2.55    0.57
   5   1  13    1.16    0.40
  -6  -1 -13    0.30    0.40
  -6  -1 -13    0.30    0.28
  -6  -1 -13    0.40    0.34
   6   1  13    0.27    0.28
   6   1  13    0.21    0.38
  -7  -1 -13    0.31    0.43
  -7  -1 -13    0.81    0.43
  -7  -1 -13    0.52    0.38
   7   1  13    0.97    0.43
  -8  -1 -13    6.95    1.09
  -8  -1 -13    6.17    0.92
  -8  -1 -13    5.44    0.88
   8   1  13    7.44    1.07
  -9  -1 -13    2.23    0.61
  -9  -1 -13    1.44    0.61
   9   1  13    2.16    0.67
 -10  -1 -13   16.55    2.04
 -10  -1 -13   20.42    1.75
  10   1  13   23.92    1.96
   2  -2 -13    8.49    1.06
   2  -2 -13    5.98    1.12
   2  -2 -13    7.93    1.01
  -2   2  13    6.04    0.88
  -2   2  13    6.44    0.99
   1  -2 -13    6.85    0.95
   1  -2 -13    8.65    1.00
   1  -2 -13    5.15    1.00
  -1   2  13    8.10    0.94
  -1   2  13    7.38    1.01
   0  -2 -13    0.54    0.57
   0  -2 -13    0.39    0.33
   0  -2 -13    0.11    0.33
   0   2  13    0.35    0.35
   0   2  13    0.05    0.27
  -1  -2 -13    0.84    0.33
  -1  -2 -13    0.80    0.39
  -1  -2 -13    1.12    0.59
   1   2  13    0.69    0.38
   1   2  13    1.80    0.47
  -2  -2 -13    7.46    0.99
  -2  -2 -13    9.01    1.22
  -2  -2 -13   10.04    1.04
   2   2  13    8.98    0.93
   2   2  13    7.00    0.92
   2   2  13    8.22    0.95
  -3  -2 -13    6.08    0.81
  -3  -2 -13    5.21    0.82
  -3  -2 -13    6.36    1.03
   3   2  13    7.58    0.93
   3   2  13    6.17    0.77
  -4  -2 -13   -0.17    0.29
  -4  -2 -13   -0.23    0.37
  -4  -2 -13    0.33    0.32
   4   2  13    0.39    0.29
   4   2  13   -0.14    0.33
  -5  -2 -13   -0.06    0.22
  -5  -2 -13    0.02    0.20
  -5  -2 -13    0.39    0.41
   5   2  13    0.82    0.41
   5   2  13    0.62    0.41
   5   2  13    1.05    0.34
  -6  -2 -13    0.38    0.31
  -6  -2 -13    0.39    0.38
  -6  -2 -13    0.02    0.28
   6   2  13    0.63    0.38
   6   2  13    0.30    0.38
  -7  -2 -13    0.15    0.33
  -7  -2 -13    0.33    0.38
  -7  -2 -13   -0.63    0.29
   7   2  13    0.65    0.44
   7   2  13    0.57    0.34
  -8  -2 -13   -0.23    0.33
  -8  -2 -13    0.47    0.37
  -8  -2 -13    0.01    0.32
   8   2  13    0.61    0.43
   8   2  13    0.73    0.39
  -9  -2 -13    2.03    0.53
  -9  -2 -13    2.63    0.74
   9   2  13    3.27    0.73
 -10  -2 -13    0.77    0.39
 -10  -2 -13   -0.60    0.40
  10   2  13    1.09    0.48
   2  -3 -13    0.33    0.32
   2  -3 -13    0.05    0.56
  -2   3  13   -0.18    0.40
   1  -3 -13    7.60    0.96
   1  -3 -13    6.82    0.95
   1  -3 -13    6.64    1.17
  -1   3  13    5.95    0.91
   0  -3 -13    2.81    0.79
   0  -3 -13    2.54    0.58
   0  -3 -13    2.23    0.57
   0   3  13    3.02    0.65
   0   3  13    3.72    0.65
   0   3  13    2.87    0.57
  -1  -3 -13    0.31    0.36
  -1  -3 -13    1.05    0.40
  -1  -3 -13    0.48    0.45
   1   3  13    0.97    0.40
   1   3  13    1.08    0.48
   1   3  13    0.59    0.35
  -2  -3 -13    0.14    0.30
  -2  -3 -13    0.56    0.36
  -2  -3 -13    0.74    0.54
   2   3  13    1.25    0.41
   2   3  13    0.80    0.40
  -3  -3 -13    1.17    0.43
  -3  -3 -13    1.65    0.45
  -3  -3 -13    2.09    0.59
   3   3  13    2.47    0.50
   3   3  13    3.05    0.55
  -4  -3 -13    2.93    0.61
  -4  -3 -13    2.38    0.68
  -4  -3 -13    2.51    0.58
   4   3  13    3.23    0.59
   4   3  13    3.03    0.56
  -5  -3 -13    1.34    0.60
  -5  -3 -13    2.70    0.57
  -5  -3 -13    3.20    0.61
   5   3  13    2.60    0.50
   5   3  13    1.58    0.45
  -6  -3 -13    9.97    1.11
  -6  -3 -13    7.56    1.13
  -6  -3 -13    8.03    1.11
   6   3  13   11.30    1.09
   6   3  13   10.25    1.04
   6   3  13    9.82    1.08
  -7  -3 -13    0.88    0.44
  -7  -3 -13    1.97    0.62
  -7  -3 -13    2.10    0.51
   7   3  13    1.25    0.42
   7   3  13    1.64    0.46
  -8  -3 -13   -0.30    0.31
  -8  -3 -13   -0.36    0.21
  -8  -3 -13   -0.21    0.23
   8   3  13   -0.24    0.31
   8   3  13   -0.20    0.31
  -9  -3 -13    2.95    0.81
  -9  -3 -13    2.82    0.69
   9   3  13    3.33    0.63
   9   3  13    3.56    0.72
 -10  -3 -13    8.49    1.32
 -10  -3 -13   10.52    1.30
  10   3  13   11.32    1.33
  10   3  13   10.66    1.24
 -11  -3 -13    6.46    1.05
 -11  -3 -13    7.09    1.25
  11   3  13    8.27    1.15
  11   3  13    6.71    1.02
   1  -4 -13   10.30    1.18
   1  -4 -13    9.47    1.39
  -1   4  13   11.25    1.25
  -1   4  13    8.34    1.11
  -1   4  13   10.75    1.23
   0  -4 -13    2.24    0.51
   0  -4 -13    2.16    0.74
   0  -4 -13    2.09    0.52
   0   4  13    2.93    0.66
   0   4  13    2.40    0.61
   0   4  13    1.76    0.52
  -1  -4 -13    1.22    0.40
  -1  -4 -13    0.96    0.51
  -1  -4 -13    1.13    0.40
   1   4  13    1.57    0.44
   1   4  13    1.94    0.53
   1   4  13    2.67    0.62
  -2  -4 -13   -0.02    0.32
  -2  -4 -13    0.15    0.27
  -2  -4 -13    0.09    0.22
   2   4  13   -0.37    0.25
   2   4  13    0.08    0.28
   2   4  13    0.00    0.34
  -3  -4 -13   12.31    1.56
  -3  -4 -13   13.94    1.19
  -3  -4 -13   12.00    1.18
   3   4  13   13.57    1.17
   3   4  13   15.29    1.17
  -4  -4 -13    0.57    0.41
  -4  -4 -13    0.74    0.36
  -4  -4 -13    0.89    0.41
   4   4  13    0.88    0.38
   4   4  13    0.70    0.40
  -5  -4 -13    0.01    0.31
  -5  -4 -13    0.05    0.33
  -5  -4 -13   -0.50    0.21
   5   4  13    0.11    0.27
   5   4  13   -0.27    0.25
  -6  -4 -13    0.23    0.34
  -6  -4 -13    0.06    0.31
  -6  -4 -13   -0.08    0.38
   6   4  13    0.60    0.32
   6   4  13    0.32    0.35
  -7  -4 -13    0.26    0.27
  -7  -4 -13   -0.10    0.35
  -7  -4 -13    0.56    0.37
   7   4  13   -0.21    0.23
   7   4  13    0.16    0.24
   7   4  13   -0.06    0.31
  -8  -4 -13    0.04    0.26
  -8  -4 -13    0.40    0.44
  -8  -4 -13    0.04    0.37
   8   4  13   -0.20    0.22
   8   4  13   -0.37    0.27
  -9  -4 -13   -0.47    0.40
  -9  -4 -13   -0.47    0.27
   9   4  13    0.13    0.28
   9   4  13   -0.03    0.34
 -10  -4 -13    8.58    1.12
 -10  -4 -13    5.72    1.03
  10   4  13    7.36    1.02
  10   4  13    6.27    0.95
 -11  -4 -13    1.19    0.56
 -11  -4 -13    0.07    0.52
  11   4  13    1.13    0.56
  11   4  13    1.32    0.52
   1  -5 -13   -0.27    0.32
   1  -5 -13    0.68    0.45
  -1   5  13    0.39    0.36
  -1   5  13    1.34    0.57
  -1   5  13    0.76    0.52
   0  -5 -13    0.65    0.61
   0  -5 -13    1.47    0.46
   0   5  13    1.55    0.55
   0   5  13    1.17    0.56
   0   5  13    2.66    0.64
  -1  -5 -13    0.64    0.48
  -1  -5 -13    0.44    0.39
   1   5  13    0.63    0.47
   1   5  13    1.13    0.45
   1   5  13    0.02    0.41
  -2  -5 -13    8.04    0.97
  -2  -5 -13    6.84    1.14
  -2  -5 -13    8.45    1.00
   2   5  13    7.84    0.96
   2   5  13    8.74    1.08
   2   5  13    9.97    1.08
  -3  -5 -13    0.81    0.35
  -3  -5 -13    0.40    0.49
  -3  -5 -13    0.65    0.39
   3   5  13    0.74    0.46
   3   5  13    0.59    0.37
   3   5  13    0.12    0.26
  -4  -5 -13    3.46    0.65
  -4  -5 -13    2.48    0.68
  -4  -5 -13    5.64    0.78
   4   5  13    4.60    0.72
   4   5  13    4.21    0.66
   4   5  13    4.11    0.74
  -5  -5 -13    0.22    0.33
  -5  -5 -13    0.25    0.26
  -5  -5 -13   -0.19    0.40
   5   5  13    0.29    0.33
   5   5  13    0.31    0.25
  -6  -5 -13    5.02    0.97
  -6  -5 -13    6.31    0.87
  -6  -5 -13    7.82    0.67
  -6  -5 -13    5.49    0.88
   6   5  13    6.07    0.86
   6   5  13    6.40    0.81
  -7  -5 -13    0.74    0.38
  -7  -5 -13    0.18    0.35
  -7  -5 -13    0.57    0.39
   7   5  13    0.11    0.31
   7   5  13    1.11    0.41
  -8  -5 -13   -0.15    0.38
  -8  -5 -13    0.11    0.29
   8   5  13    0.72    0.38
  -9  -5 -13   -0.13    0.41
  -9  -5 -13   -0.29    0.32
   9   5  13   -0.02    0.32
   9   5  13   -0.03    0.32
 -10  -5 -13    0.28    0.41
 -10  -5 -13   -0.18    0.43
  10   5  13    0.22    0.36
  10   5  13    0.14    0.39
 -11  -5 -13    1.01    0.63
 -11  -5 -13    2.00    0.63
  11   5  13    1.82    0.54
  11   5  13    1.27    0.51
   0  -6 -13    4.01    0.74
   0  -6 -13    2.94    0.85
   0   6  13    3.53    0.73
   0   6  13    4.76    0.89
   0   6  13    6.05    0.86
  -1  -6 -13   -0.07    0.50
  -1  -6 -13    0.11    0.40
   1   6  13    1.20    0.43
   1   6  13    0.84    0.44
   1   6  13    1.37    0.56
  -2  -6 -13    0.62    0.34
  -2  -6 -13   -0.32    0.30
   2   6  13    0.34    0.39
   2   6  13   -0.16    0.29
   2   6  13    0.06    0.44
  -3  -6 -13    1.45    0.44
  -3  -6 -13    0.59    0.56
   3   6  13    1.09    0.39
   3   6  13    0.89    0.42
   3   6  13    0.96    0.42
  -4  -6 -13    0.31    0.49
  -4  -6 -13    0.19    0.29
  -4  -6 -13    0.49    0.38
   4   6  13    0.21    0.33
   4   6  13    0.56    0.40
   4   6  13    0.60    0.34
  -5  -6 -13    0.05    0.46
  -5  -6 -13    0.79    0.40
  -5  -6 -13    0.78    0.42
   5   6  13    1.50    0.53
   5   6  13    0.51    0.36
   5   6  13    1.31    0.39
  -6  -6 -13    1.60    0.65
  -6  -6 -13    4.23    0.74
  -6  -6 -13    3.96    0.53
  -6  -6 -13    2.47    0.59
   6   6  13    4.36    0.71
   6   6  13    4.56    0.74
   6   6  13    3.86    0.62
  -7  -6 -13    0.13    0.46
  -7  -6 -13    0.59    0.44
  -7  -6 -13    0.32    0.31
  -7  -6 -13    0.28    0.36
   7   6  13    0.86    0.40
   7   6  13    1.04    0.41
  -8  -6 -13   -0.19    0.36
  -8  -6 -13   -0.42    0.30
   8   6  13   -0.02    0.29
   8   6  13   -0.02    0.23
  -9  -6 -13    1.63    0.54
  -9  -6 -13    0.98    0.51
   9   6  13    1.73    0.49
 -10  -6 -13    0.08    0.38
 -10  -6 -13    0.62    0.46
  10   6  13    0.41    0.36
  10   6  13    0.14    0.42
 -11  -6 -13    9.61    1.29
 -11  -6 -13    8.72    1.27
  11   6  13   10.42    1.19
  11   6  13    9.02    1.19
   0  -7 -13    6.77    1.00
   0  -7 -13    5.17    1.06
   0   7  13    5.68    0.93
   0   7  13    7.73    1.02
   0   7  13    9.06    1.21
  -1  -7 -13    1.06    0.43
  -1  -7 -13    0.87    0.60
   1   7  13    1.75    0.57
   1   7  13    1.03    0.50
   1   7  13    0.88    0.43
  -2  -7 -13    0.48    0.57
  -2  -7 -13    1.77    0.49
   2   7  13    1.51    0.51
   2   7  13    1.55    0.47
   2   7  13    1.01    0.60
  -3  -7 -13    0.25    0.52
  -3  -7 -13    0.89    0.43
   3   7  13    1.16    0.44
   3   7  13    1.18    0.45
   3   7  13    2.01    0.56
  -4  -7 -13   -0.11    0.33
  -4  -7 -13   -0.69    0.39
   4   7  13   -0.26    0.28
   4   7  13    0.52    0.39
   4   7  13    0.42    0.29
  -5  -7 -13   -0.18    0.29
  -5  -7 -13    0.01    0.33
   5   7  13    0.50    0.35
   5   7  13   -0.44    0.35
   5   7  13   -0.10    0.22
  -6  -7 -13    0.90    0.51
  -6  -7 -13    1.56    0.38
  -6  -7 -13    1.92    0.51
  -6  -7 -13    1.22    0.45
   6   7  13    1.37    0.47
   6   7  13    1.57    0.45
   6   7  13    0.97    0.42
  -7  -7 -13    1.50    0.46
  -7  -7 -13    1.19    0.47
  -7  -7 -13    0.97    0.35
   7   7  13    1.44    0.41
   7   7  13    1.10    0.43
   7   7  13    0.83    0.48
  -8  -7 -13   -0.15    0.36
  -8  -7 -13    0.95    0.38
  -8  -7 -13    0.51    0.36
   8   7  13    0.18    0.36
   8   7  13   -0.14    0.31
  -9  -7 -13    0.24    0.30
  -9  -7 -13   -0.27    0.34
  -9  -7 -13    0.11    0.31
 -10  -7 -13    0.45    0.34
 -10  -7 -13    0.48    0.47
  10   7  13    0.37    0.38
  10   7  13    0.22    0.42
 -11  -7 -13   -0.50    0.39
 -11  -7 -13   -0.19    0.25
  11   7  13    0.56    0.41
  11   7  13    0.26    0.45
  -1  -8 -13    1.65    0.56
  -1  -8 -13    1.09    0.55
   1   8  13    1.03    0.46
   1   8  13    1.53    0.67
   1   8  13    1.24    0.50
  -2  -8 -13    1.09    0.47
  -2  -8 -13    0.51    0.56
   2   8  13    1.86    0.68
   2   8  13    1.08    0.44
   2   8  13    1.10    0.39
  -3  -8 -13    0.93    0.44
  -3  -8 -13   -0.40    0.43
   3   8  13    0.74    0.40
   3   8  13   -0.73    0.44
   3   8  13    0.22    0.33
  -4  -8 -13    0.67    0.43
  -4  -8 -13    0.54    0.54
   4   8  13    0.67    0.34
   4   8  13    1.02    0.46
   4   8  13    0.72    0.55
  -5  -8 -13    3.43    0.70
  -5  -8 -13    2.54    0.73
   5   8  13    2.68    0.71
   5   8  13    2.20    0.55
   5   8  13    3.30    0.67
  -6  -8 -13    0.11    0.26
  -6  -8 -13   -0.19    0.21
   6   8  13    0.12    0.36
   6   8  13    0.46    0.30
   6   8  13    0.23    0.36
  -7  -8 -13    2.38    0.62
  -7  -8 -13    2.66    0.54
   7   8  13    3.65    0.73
   7   8  13    1.11    0.46
   7   8  13    2.71    0.57
  -8  -8 -13    1.39    0.53
  -8  -8 -13    1.32    0.55
  -8  -8 -13    2.66    0.52
   8   8  13    0.72    0.50
   8   8  13    2.07    0.57
   8   8  13    1.41    0.43
  -9  -8 -13    0.67    0.47
  -9  -8 -13    0.07    0.37
  -9  -8 -13   -0.16    0.28
 -10  -8 -13    1.81    0.62
 -10  -8 -13    1.53    0.48
 -10  -8 -13    2.68    0.73
  10   8  13    2.68    0.71
 -11  -8 -13    0.11    0.39
 -11  -8 -13    0.22    0.46
 -11  -8 -13   -0.34    0.39
  11   8  13    0.33    0.51
  -2  -9 -13    0.38    0.49
  -2  -9 -13    0.52    0.34
   2   9  13    0.02    0.27
   2   9  13   -0.41    0.52
  -3  -9 -13   -0.03    0.33
  -3  -9 -13    0.05    0.28
   3   9  13   -0.52    0.32
   3   9  13    1.03    0.55
   3   9  13    0.01    0.33
  -4  -9 -13   -0.26    0.27
  -4  -9 -13    0.18    0.37
   4   9  13    0.55    0.38
   4   9  13    0.76    0.40
   4   9  13    0.13    0.41
  -5  -9 -13   -0.36    0.33
   5   9  13   -0.18    0.29
   5   9  13   -0.25    0.32
   5   9  13    0.17    0.35
  -6  -9 -13    0.50    0.43
   6   9  13    0.24    0.35
   6   9  13    0.90    0.54
   6   9  13    0.65    0.42
  -7  -9 -13    0.90    0.42
  -7  -9 -13    1.66    0.45
   7   9  13    0.81    0.39
   7   9  13    1.21    0.51
   7   9  13    1.06    0.50
  -8  -9 -13    0.65    0.45
  -8  -9 -13    0.08    0.32
   8   9  13    0.26    0.38
   8   9  13    0.22    0.44
   8   9  13    0.51    0.31
  -9  -9 -13   -0.15    0.29
  -9  -9 -13   -0.19    0.40
   9   9  13   -0.16    0.35
   9   9  13    0.16    0.27
 -10  -9 -13   -0.80    0.32
 -10  -9 -13    0.26    0.35
  -4 -10 -13   -0.11    0.38
   4  10  13   -0.45    0.52
   4  10  13   -0.09    0.37
   4  10  13    0.47    0.37
  -5 -10 -13    0.29    0.41
   5  10  13   -0.59    0.46
   5  10  13    0.09    0.35
   5  10  13    0.06    0.25
  -6 -10 -13    0.81    0.47
   6  10  13    1.74    0.50
   6  10  13    1.07    0.53
   6  10  13    2.25    0.58
  -7 -10 -13    1.61    0.45
  -7 -10 -13    1.70    0.56
   7  10  13    1.21    0.41
   7  10  13    1.24    0.63
   7  10  13    2.23    0.52
  -8 -10 -13    2.28    0.61
  -8 -10 -13    1.40    0.46
   8  10  13    1.12    0.58
   8  10  13    1.56    0.56
  -9 -10 -13    0.52    0.41
   9  10  13    0.67    0.45
   9  10  13    0.79    0.49
  -1   2 -14    0.14    0.43
  -1   2 -14   -0.43    0.35
  -1   2 -14    0.73    0.38
   1  -2  14   -0.11    0.42
   1  -2  14    0.23    0.36
  -2   2 -14    1.87    0.67
  -2   2 -14    3.06    0.57
  -2   2 -14    2.99    0.76
   2  -2  14    2.41    0.59
   2  -2  14    1.21    0.55
  -3   2 -14    0.55    0.46
  -3   2 -14   -0.29    0.45
  -3   2 -14   -0.30    0.24
   3  -2  14    0.00    0.35
  -4   2 -14    4.57    0.90
  -4   2 -14    5.80    0.81
  -4   2 -14    4.82    0.93
   4  -2  14    6.12    1.00
  -5   2 -14    0.26    0.50
  -5   2 -14   -0.10    0.44
  -5   2 -14    0.81    0.42
   5  -2  14    0.31    0.38
  -6   2 -14   -0.21    0.32
  -6   2 -14   -0.48    0.44
   6  -2  14    0.10    0.40
   0   1 -14    1.54    0.50
   0   1 -14    2.09    0.63
   0   1 -14    1.61    0.75
   0  -1  14    1.69    0.58
   0  -1  14    1.12    0.47
  -1   1 -14    1.73    0.57
  -1   1 -14    1.42    0.64
  -1   1 -14    1.04    0.44
   1  -1  14    1.49    0.56
   1  -1  14    0.16    0.44
  -2   1 -14    5.77    0.99
  -2   1 -14    5.69    0.79
  -2   1 -14    5.74    0.97
   2  -1  14    7.23    0.97
   2  -1  14    5.30    0.87
  -3   1 -14    2.99    0.71
  -3   1 -14    1.44    0.64
  -3   1 -14    1.97    0.51
   3  -1  14    1.57    0.49
  -4   1 -14    1.91    0.63
  -4   1 -14    2.02    0.52
  -4   1 -14    0.95    0.57
   4  -1  14    1.48    0.55
   4  -1  14    1.48    0.54
  -5   1 -14    0.81    0.51
  -5   1 -14    0.54    0.40
  -5   1 -14    0.35    0.37
   5  -1  14    1.00    0.55
  -6   1 -14    1.79    0.57
  -6   1 -14    2.75    0.63
  -6   1 -14    1.05    0.57
   6  -1  14    3.52    0.79
  -7   1 -14    3.37    0.65
  -7   1 -14    2.50    0.68
   7  -1  14    1.68    0.69
   0   0 -14   -0.12    0.38
   0   0 -14    0.85    0.42
   0   0 -14   -0.06    0.32
   0   0  14   -0.58    0.33
   0   0  14    0.33    0.40
  -1   0 -14    0.20    0.37
  -1   0 -14   -0.42    0.44
  -1   0 -14   -0.02    0.29
   1   0  14   -0.15    0.24
   1   0  14   -0.31    0.36
  -2   0 -14    0.60    0.38
  -2   0 -14    0.17    0.37
  -2   0 -14   -0.32    0.31
   2   0  14    0.09    0.39
   2   0  14   -0.26    0.36
  -3   0 -14    1.36    0.45
  -3   0 -14    0.90    0.55
  -3   0 -14    1.51    0.54
   3   0  14    1.14    0.44
  -4   0 -14    0.07    0.41
  -4   0 -14    0.30    0.35
  -4   0 -14    0.07    0.44
   4   0  14   -0.01    0.39
  -5   0 -14   -0.19    0.38
  -5   0 -14    0.20    0.35
  -5   0 -14    0.41    0.35
   5   0  14    0.03    0.28
   5   0  14    0.13    0.40
  -6   0 -14    2.21    0.66
  -6   0 -14    2.55    0.60
  -6   0 -14    2.66    0.72
   6   0  14    1.59    0.61
  -7   0 -14    0.02    0.36
  -7   0 -14   -0.07    0.35
  -7   0 -14   -0.12    0.25
   7   0  14   -0.46    0.39
  -8   0 -14    1.71    0.56
  -8   0 -14    0.95    0.66
   8   0  14    1.05    0.62
   0  -1 -14    2.06    0.59
   0  -1 -14    1.94    0.66
   0  -1 -14    1.59    0.48
   0   1  14    1.22    0.53
   0   1  14    1.40    0.51
  -1  -1 -14   10.09    1.14
  -1  -1 -14   10.87    1.30
  -1  -1 -14   10.98    1.44
   1   1  14   10.07    1.18
   1   1  14   12.56    1.32
  -2  -1 -14    6.26    0.95
  -2  -1 -14    5.83    0.99
  -2  -1 -14    6.23    0.86
   2   1  14    5.41    0.87
   2   1  14    4.99    0.82
  -3  -1 -14   10.87    1.17
  -3  -1 -14    9.56    1.34
  -3  -1 -14   10.65    1.30
   3   1  14   11.70    1.25
  -4  -1 -14   -0.28    0.42
  -4  -1 -14   -0.49    0.18
  -4  -1 -14    0.40    0.34
   4   1  14    1.01    0.46
  -5  -1 -14   -0.24    0.39
  -5  -1 -14    0.45    0.38
  -5  -1 -14    0.13    0.37
   5   1  14    0.63    0.43
   5   1  14   -0.14    0.37
  -6  -1 -14    0.25    0.35
  -6  -1 -14    0.63    0.42
  -6  -1 -14   -0.33    0.35
   6   1  14    0.49    0.32
   6   1  14   -0.23    0.39
  -7  -1 -14   -0.05    0.40
  -7  -1 -14    0.24    0.27
  -7  -1 -14    0.04    0.32
   7   1  14    0.33    0.48
  -8  -1 -14   -0.04    0.33
  -8  -1 -14    0.38    0.39
  -8  -1 -14    0.37    0.40
   8   1  14   -0.38    0.33
  -9  -1 -14    0.69    0.48
  -9  -1 -14    0.16    0.54
   9   1  14    0.61    0.51
   0  -2 -14    1.26    0.50
   0  -2 -14    0.70    0.63
   0  -2 -14    0.66    0.43
   0   2  14    0.70    0.45
   0   2  14    0.95    0.50
  -1  -2 -14    0.90    0.42
  -1  -2 -14    0.53    0.56
  -1  -2 -14    0.48    0.38
   1   2  14    0.51    0.41
   1   2  14    0.06    0.29
  -2  -2 -14    1.60    0.50
  -2  -2 -14    0.09    0.58
  -2  -2 -14    1.00    0.44
   2   2  14    0.97    0.44
  -3  -2 -14   -0.34    0.43
  -3  -2 -14   -0.19    0.28
  -3  -2 -14    0.07    0.34
   3   2  14    0.40    0.39
  -4  -2 -14    0.65    0.44
  -4  -2 -14    0.00    0.49
  -4  -2 -14    0.21    0.25
   4   2  14    0.46    0.35
  -5  -2 -14    0.12    0.30
  -5  -2 -14    0.40    0.49
  -5  -2 -14    0.67    0.39
   5   2  14    0.53    0.42
  -6  -2 -14    0.39    0.39
  -6  -2 -14    0.04    0.39
  -6  -2 -14    1.00    0.46
   6   2  14    0.45    0.44
   6   2  14    0.42    0.42
  -7  -2 -14    0.64    0.48
  -7  -2 -14    0.53    0.36
  -7  -2 -14    1.59    0.51
   7   2  14    1.16    0.53
  -8  -2 -14    3.02    0.71
  -8  -2 -14    2.94    0.77
  -8  -2 -14    3.13    0.70
   8   2  14    3.87    0.82
  -9  -2 -14    4.39    0.84
  -9  -2 -14    3.64    0.87
   9   2  14    4.32    0.87
  10   2  14   13.26    1.61
   0  -3 -14    0.42    0.38
   0  -3 -14    0.93    0.55
   0  -3 -14   -0.09    0.41
   0   3  14    0.64    0.38
   0   3  14    0.18    0.36
  -1  -3 -14    1.15    0.58
  -1  -3 -14    3.23    0.66
  -1  -3 -14    2.13    0.56
   1   3  14    1.50    0.54
  -2  -3 -14    1.31    0.47
  -2  -3 -14    1.14    0.44
  -2  -3 -14    1.13    0.56
   2   3  14    0.45    0.45
  -3  -3 -14    3.15    0.66
  -3  -3 -14    3.96    0.72
  -3  -3 -14    2.67    0.71
   3   3  14    3.67    0.64
   3   3  14    3.05    0.64
  -4  -3 -14    0.45    0.36
  -4  -3 -14    0.28    0.48
  -4  -3 -14    1.02    0.40
   4   3  14    0.44    0.35
   4   3  14   -0.23    0.32
  -5  -3 -14    0.71    0.43
  -5  -3 -14    0.64    0.54
  -5  -3 -14    1.36    0.45
   5   3  14    1.75    0.48
   5   3  14    0.74    0.32
  -6  -3 -14   -0.12    0.35
  -6  -3 -14   -0.18    0.28
  -6  -3 -14    0.44    0.41
   6   3  14    0.18    0.24
   6   3  14    0.31    0.30
  -7  -3 -14    0.67    0.45
  -7  -3 -14    0.62    0.44
  -7  -3 -14    1.97    0.66
   7   3  14    1.38    0.48
   7   3  14    1.35    0.52
  -8  -3 -14   -0.17    0.37
  -8  -3 -14    0.82    0.41
  -8  -3 -14    0.97    0.58
   8   3  14    0.95    0.48
   8   3  14    1.34    0.51
  -9  -3 -14    1.89    0.63
  -9  -3 -14    2.02    0.57
   9   3  14    1.33    0.51
 -10  -3 -14    0.76    0.62
 -10  -3 -14    1.22    0.50
  10   3  14    2.12    0.66
   0  -4 -14    2.46    0.73
   0  -4 -14    1.97    0.61
   0   4  14    2.85    0.66
  -1  -4 -14    0.75    0.38
  -1  -4 -14    0.23    0.29
  -1  -4 -14   -0.81    0.46
   1   4  14    0.83    0.45
   1   4  14    0.93    0.44
  -2  -4 -14    1.61    0.49
  -2  -4 -14    3.01    0.88
  -2  -4 -14    2.13    0.51
   2   4  14    1.31    0.48
   2   4  14    3.53    0.70
  -3  -4 -14    2.17    0.76
  -3  -4 -14    2.19    0.56
  -3  -4 -14    1.92    0.53
   3   4  14    3.41    0.58
   3   4  14    2.29    0.59
  -4  -4 -14   10.00    1.10
  -4  -4 -14    8.35    1.06
  -4  -4 -14    7.74    1.22
   4   4  14    6.60    0.93
   4   4  14    8.58    0.99
  -5  -4 -14    0.10    0.37
  -5  -4 -14    0.24    0.36
  -5  -4 -14    0.35    0.40
   5   4  14    0.43    0.34
   5   4  14    0.58    0.37
  -6  -4 -14    0.09    0.35
  -6  -4 -14    0.84    0.44
  -6  -4 -14    1.14    0.46
   6   4  14    0.67    0.41
   6   4  14    1.45    0.42
  -7  -4 -14    2.85    0.72
  -7  -4 -14    2.48    0.72
  -7  -4 -14    3.88    0.71
   7   4  14    2.77    0.56
   7   4  14    3.88    0.76
   7   4  14    4.01    0.76
  -8  -4 -14    4.64    0.83
  -8  -4 -14    6.22    1.01
  -8  -4 -14    4.74    0.89
   8   4  14    5.76    0.91
  -9  -4 -14    0.32    0.40
  -9  -4 -14    0.69    0.48
   9   4  14    0.22    0.42
   9   4  14    0.14    0.34
 -10  -4 -14    5.09    0.92
 -10  -4 -14    4.18    0.95
  10   4  14    5.21    0.88
  10   4  14    5.72    0.92
   0  -5 -14    6.76    1.29
   0  -5 -14    8.85    1.12
   0   5  14   11.91    1.34
   0   5  14    7.71    1.10
  -1  -5 -14    0.47    0.41
  -1  -5 -14   -0.08    0.52
   1   5  14    0.70    0.44
   1   5  14    0.34    0.41
   1   5  14    1.64    0.49
  -2  -5 -14    0.78    0.44
  -2  -5 -14    0.13    0.57
   2   5  14    0.59    0.44
   2   5  14    0.03    0.39
   2   5  14    0.07    0.43
  -3  -5 -14    0.08    0.61
  -3  -5 -14    0.12    0.32
  -3  -5 -14    0.42    0.35
   3   5  14    0.22    0.34
   3   5  14    0.18    0.36
   3   5  14    0.31    0.43
  -4  -5 -14    4.39    0.77
  -4  -5 -14    4.75    0.99
  -4  -5 -14    6.26    0.88
   4   5  14    4.88    0.73
   4   5  14    5.82    0.84
  -5  -5 -14   -0.14    0.47
  -5  -5 -14    0.48    0.34
  -5  -5 -14    0.44    0.41
   5   5  14   -0.18    0.36
   5   5  14    1.29    0.46
  -6  -5 -14    4.91    0.98
  -6  -5 -14    4.89    0.80
  -6  -5 -14    6.25    0.95
   6   5  14    5.40    0.81
   6   5  14    5.22    0.84
  -7  -5 -14    3.07    0.72
  -7  -5 -14    2.07    0.73
  -7  -5 -14    3.44    0.72
   7   5  14    3.56    0.67
   7   5  14    4.38    0.76
  -8  -5 -14    4.45    0.81
  -8  -5 -14    4.00    0.79
  -8  -5 -14    4.56    0.89
   8   5  14    4.32    0.77
  -9  -5 -14    0.42    0.47
  -9  -5 -14    0.65    0.46
   9   5  14   -0.05    0.28
   9   5  14   -0.42    0.29
 -10  -5 -14    1.36    0.63
 -10  -5 -14    0.70    0.49
  10   5  14    0.53    0.42
  10   5  14    0.49    0.38
  -1  -6 -14    2.51    0.65
  -1  -6 -14    3.99    0.98
   1   6  14    1.72    0.52
   1   6  14    2.87    0.75
   1   6  14    2.45    0.67
  -2  -6 -14    4.48    1.06
  -2  -6 -14    7.10    0.99
   2   6  14    5.98    0.87
   2   6  14    5.35    0.95
   2   6  14    5.47    0.87
  -3  -6 -14   -0.44    0.49
  -3  -6 -14    0.17    0.36
   3   6  14    0.19    0.36
   3   6  14    0.49    0.41
   3   6  14   -0.41    0.21
  -4  -6 -14   13.61    1.78
  -4  -6 -14   13.69    1.31
   4   6  14   16.14    1.39
   4   6  14   17.39    1.36
   4   6  14   16.56    1.51
  -5  -6 -14   -0.01    0.31
  -5  -6 -14    0.51    0.43
  -5  -6 -14    0.75    0.45
   5   6  14    0.69    0.40
   5   6  14    0.19    0.35
   5   6  14    0.94    0.39
  -6  -6 -14    2.56    0.63
  -6  -6 -14    1.31    0.62
  -6  -6 -14    1.52    0.51
   6   6  14    1.68    0.49
   6   6  14    1.56    0.50
  -7  -6 -14   -0.22    0.42
  -7  -6 -14    0.67    0.36
  -7  -6 -14    0.37    0.44
   7   6  14    0.45    0.30
   7   6  14    0.18    0.38
  -8  -6 -14    2.73    0.72
  -8  -6 -14    4.50    0.67
  -8  -6 -14    4.67    0.80
   8   6  14    4.39    0.78
   8   6  14    3.92    0.71
  -9  -6 -14    1.61    0.57
  -9  -6 -14    2.84    0.65
   9   6  14    2.70    0.63
 -10  -6 -14    0.77    0.52
 -10  -6 -14    0.30    0.50
  10   6  14    0.71    0.50
  10   6  14    0.19    0.39
  -2  -7 -14    0.71    0.44
  -2  -7 -14    0.44    0.60
   2   7  14    0.28    0.41
   2   7  14    0.72    0.58
   2   7  14    1.12    0.48
  -3  -7 -14    1.77    0.55
  -3  -7 -14    0.08    0.49
   3   7  14    0.73    0.42
   3   7  14    1.23    0.49
   3   7  14    1.13    0.51
  -4  -7 -14    2.14    0.80
  -4  -7 -14    3.05    0.64
   4   7  14    2.53    0.64
   4   7  14    2.23    0.61
   4   7  14    3.48    0.68
  -5  -7 -14    2.01    0.79
  -5  -7 -14    2.88    0.67
   5   7  14    3.33    0.71
   5   7  14    3.20    0.65
   5   7  14    2.51    0.64
  -6  -7 -14    0.44    0.58
  -6  -7 -14    0.52    0.36
   6   7  14   -0.23    0.35
   6   7  14   -0.29    0.33
   6   7  14    0.18    0.28
  -7  -7 -14    9.24    1.14
  -7  -7 -14    5.41    0.93
   7   7  14    7.34    0.96
   7   7  14    7.39    0.95
  -8  -7 -14    2.51    0.68
  -8  -7 -14    2.23    0.49
  -8  -7 -14    0.70    0.48
   8   7  14    1.83    0.47
   8   7  14    1.78    0.53
  -9  -7 -14    0.60    0.39
  -9  -7 -14   -0.14    0.43
  -9  -7 -14   -0.19    0.39
 -10  -7 -14    0.02    0.34
 -10  -7 -14    0.01    0.37
 -10  -7 -14    0.25    0.45
  10   7  14   -0.21    0.39
  -3  -8 -14    0.72    0.36
  -3  -8 -14    0.59    0.57
   3   8  14    0.16    0.54
   3   8  14    0.34    0.43
   3   8  14    1.17    0.47
  -4  -8 -14    0.72    0.58
  -4  -8 -14    1.55    0.50
   4   8  14    1.96    0.59
   4   8  14    2.38    0.72
   4   8  14    1.08    0.47
  -5  -8 -14    1.82    0.58
  -5  -8 -14    0.95    0.64
   5   8  14    1.32    0.45
   5   8  14    1.02    0.59
   5   8  14    1.54    0.49
  -6  -8 -14    0.55    0.34
  -6  -8 -14    0.04    0.38
   6   8  14   -0.27    0.46
   6   8  14    0.19    0.40
   6   8  14    0.69    0.43
  -7  -8 -14    0.13    0.38
   7   8  14    0.26    0.30
   7   8  14   -0.42    0.30
   7   8  14    0.32    0.36
  -8  -8 -14    0.85    0.47
  -8  -8 -14    0.45    0.34
   8   8  14    0.15    0.36
   8   8  14   -0.08    0.30
  -9  -8 -14    3.96    0.76
  -9  -8 -14    3.02    0.61
  -5  -9 -14    0.34    0.44
   5   9  14    0.56    0.56
   5   9  14    0.53    0.39
   5   9  14   -0.50    0.32
  -6  -9 -14    0.16    0.30
   6   9  14    0.16    0.39
   6   9  14   -0.34    0.30
   6   9  14    0.93    0.42
  -7  -9 -14    0.57    0.45
   7   9  14   -0.75    0.41
   7   9  14    0.34    0.36
   7   9  14    0.62    0.45
  -8  -9 -14    6.09    0.97
  -8  -9 -14    4.24    0.69
   8   9  14    4.58    0.78
   8   9  14    3.79    0.72
   8   9  14    4.41    0.82
   2   0  15   -0.23    0.40
  -3   0 -15    9.30    1.29
  -3   0 -15   10.81    1.17
  -3   0 -15    8.66    1.34
   3   0  15    9.52    1.25
  -4   0 -15    0.06    0.48
  -4   0 -15   -0.20    0.36
  -4   0 -15    0.72    0.42
   4   0  15   -0.09    0.26
  -5   0 -15    6.35    1.09
  -5   0 -15    5.94    1.07
  -5   0 -15    6.22    0.92
   5   0  15    7.44    1.07
  -6   0 -15    0.15    0.47
  -6   0 -15    1.30    0.53
  -6   0 -15    0.42    0.50
   6   0  15    1.74    0.67
  -2  -1 -15    0.16    0.45
  -2  -1 -15    0.27    0.40
  -2  -1 -15    0.28    0.38
   2   1  15    0.33    0.43
  -3  -1 -15    2.07    0.72
  -3  -1 -15    2.22    0.66
  -3  -1 -15    3.17    0.65
   3   1  15    1.53    0.60
  -4  -1 -15    0.40    0.44
  -4  -1 -15    2.10    0.63
  -4  -1 -15    2.59    0.59
   4   1  15    1.84    0.56
  -5  -1 -15    0.00    0.30
  -5  -1 -15    0.38    0.44
  -5  -1 -15    0.01    0.32
   5   1  15    0.84    0.48
  -6  -1 -15    1.83    0.53
  -6  -1 -15    2.01    0.67
  -6  -1 -15    1.38    0.55
   6   1  15    2.03    0.61
   6   1  15    1.58    0.63
  -7  -1 -15    0.45    0.49
  -7  -1 -15   -0.31    0.21
  -7  -1 -15   -0.47    0.39
   7   1  15    0.56    0.49
  -2  -2 -15    5.18    0.84
  -2  -2 -15    6.07    0.96
  -2  -2 -15    4.63    0.96
   2   2  15   10.14    1.16
  -3  -2 -15    0.36    0.41
  -3  -2 -15    0.39    0.33
  -3  -2 -15    0.16    0.52
   3   2  15    0.14    0.42
  -4  -2 -15    5.63    1.04
  -4  -2 -15    9.66    1.10
  -4  -2 -15    6.19    1.03
   4   2  15    8.66    1.10
  -5  -2 -15   -0.21    0.34
  -5  -2 -15   -0.39    0.40
  -5  -2 -15    1.22    0.61
   5   2  15    0.57    0.38
  -6  -2 -15    1.04    0.51
  -6  -2 -15    1.87    0.58
  -6  -2 -15    1.25    0.60
   6   2  15    1.08    0.55
  -7  -2 -15    3.15    0.81
  -7  -2 -15    5.24    0.86
  -7  -2 -15    2.60    0.70
   7   2  15    5.08    0.92
  -8  -2 -15    0.62    0.47
  -8  -2 -15    0.37    0.55
  -8  -2 -15    2.11    0.59
   8   2  15    0.46    0.51
  -2  -3 -15   -0.38    0.29
  -2  -3 -15    0.17    0.35
  -2  -3 -15   -0.62    0.50
   2   3  15    0.61    0.43
  -3  -3 -15    4.74    0.78
  -3  -3 -15    3.82    0.95
  -3  -3 -15    3.80    0.74
   3   3  15    3.41    0.70
  -4  -3 -15    0.28    0.42
  -4  -3 -15    0.21    0.41
  -4  -3 -15    0.66    0.47
   4   3  15    0.82    0.41
  -5  -3 -15   -0.27    0.32
  -5  -3 -15   -0.23    0.38
  -5  -3 -15   -0.81    0.21
   5   3  15   -0.02    0.38
  -6  -3 -15    7.77    1.05
  -6  -3 -15    8.27    1.19
  -6  -3 -15    6.42    1.11
   6   3  15    8.91    1.11
  -7  -3 -15   -0.57    0.36
  -7  -3 -15   -0.05    0.41
  -7  -3 -15    0.03    0.38
   7   3  15    0.05    0.40
   7   3  15   -0.05    0.41
  -8  -3 -15    2.07    0.68
  -8  -3 -15    1.31    0.60
  -8  -3 -15    1.18    0.52
   8   3  15    3.55    0.78
   9   3  15    0.26    0.36
  -2  -4 -15    0.25    0.49
  -2  -4 -15    0.53    0.34
  -2  -4 -15    0.23    0.39
   2   4  15    0.64    0.48
  -3  -4 -15   12.35    1.34
  -3  -4 -15   10.24    1.48
  -3  -4 -15   10.19    1.26
   3   4  15   11.43    1.32
  -4  -4 -15    0.33    0.45
  -4  -4 -15    1.01    0.45
  -4  -4 -15    0.30    0.59
   4   4  15   -0.18    0.25
  -5  -4 -15    1.52    0.59
  -5  -4 -15    2.91    0.68
  -5  -4 -15    1.36    0.61
   5   4  15    1.55    0.50
   5   4  15    3.56    0.73
  -6  -4 -15    0.44    0.35
  -6  -4 -15   -0.34    0.34
  -6  -4 -15    0.08    0.36
   6   4  15    0.18    0.36
   6   4  15    0.18    0.29
  -7  -4 -15    0.22    0.44
  -7  -4 -15   -0.08    0.43
  -7  -4 -15    0.66    0.51
   7   4  15    0.59    0.48
  -8  -4 -15    0.28    0.46
  -8  -4 -15    0.12    0.41
  -8  -4 -15    0.09    0.49
   8   4  15    0.09    0.32
   8   4  15    0.31    0.43
  -9  -4 -15    4.10    0.94
  -9  -4 -15    3.46    0.81
   9   4  15    4.15    0.83
  -2  -5 -15   -0.03    0.39
  -2  -5 -15   -0.08    0.62
   2   5  15   -0.36    0.33
   2   5  15    0.03    0.39
  -3  -5 -15    2.99    0.90
  -3  -5 -15    4.57    0.84
   3   5  15    4.38    0.79
   3   5  15    4.37    0.77
  -4  -5 -15   -0.26    0.29
  -4  -5 -15    0.04    0.29
  -4  -5 -15   -0.45    0.35
   4   5  15    0.45    0.32
   4   5  15    0.45    0.35
  -5  -5 -15    2.57    0.67
  -5  -5 -15    1.17    0.66
  -5  -5 -15    1.29    0.53
   5   5  15    2.80    0.69
   5   5  15    1.52    0.51
  -6  -5 -15    2.77    0.72
  -6  -5 -15    3.41    0.90
  -6  -5 -15    3.64    0.72
   6   5  15    2.81    0.68
   6   5  15    4.30    0.72
  -7  -5 -15    1.62    0.62
  -7  -5 -15    2.69    0.71
  -7  -5 -15    1.73    0.70
   7   5  15    2.28    0.62
   7   5  15    2.79    0.61
  -8  -5 -15   -0.07    0.48
  -8  -5 -15   -0.05    0.39
  -8  -5 -15    0.14    0.44
  -9  -5 -15   -0.28    0.41
  -9  -5 -15    0.30    0.43
   9   5  15    0.21    0.39
   9   5  15   -0.01    0.30
  -3  -6 -15    1.83    0.61
  -3  -6 -15   -0.05    0.64
   3   6  15    1.27    0.48
   3   6  15    1.44    0.61
   3   6  15    1.77    0.56
  -4  -6 -15   -0.18    0.38
  -4  -6 -15    0.22    0.59
   4   6  15   -0.25    0.25
   4   6  15   -0.17    0.27
  -5  -6 -15    0.63    0.39
  -5  -6 -15    0.42    0.42
   5   6  15    0.47    0.40
   5   6  15    0.58    0.48
  -6  -6 -15   -0.23    0.37
  -6  -6 -15   -0.26    0.33
  -6  -6 -15    0.03    0.52
   6   6  15    0.52    0.32
   6   6  15    0.19    0.39
  -7  -6 -15    0.04    0.41
  -7  -6 -15    0.12    0.51
  -7  -6 -15    0.28    0.33
   7   6  15   -0.10    0.34
   7   6  15    0.43    0.42
  -8  -6 -15   -0.06    0.47
  -8  -6 -15   -0.10    0.37
   8   6  15    0.09    0.25
   8   6  15   -0.13    0.35
  -9  -6 -15    1.66    0.45
  -9  -6 -15    0.02    0.45
  -9  -6 -15    1.32    0.62
  -4  -7 -15    8.50    1.46
  -4  -7 -15   10.25    1.25
   4   7  15    9.53    1.21
   4   7  15    9.61    1.31
   4   7  15    8.97    1.17
  -5  -7 -15   -0.44    0.51
  -5  -7 -15   -0.10    0.40
   5   7  15    0.57    0.45
   5   7  15    0.13    0.40
   5   7  15    0.35    0.51
  -6  -7 -15   -0.11    0.41
  -6  -7 -15    0.22    0.39
   6   7  15   -0.02    0.37
   6   7  15    0.05    0.34
  -7  -7 -15   -0.10    0.50
  -7  -7 -15   -0.31    0.35
   7   7  15    0.06    0.27
   7   7  15   -0.17    0.30
  -8  -7 -15   -0.38    0.38
  -8  -7 -15    0.31    0.45
   8   7  15    0.20    0.33
   8   7  15    0.69    0.43
   0   0   0    0.00    0.00
;
_shelx_hkl_checksum              69298
#END Tags that were not found in dictionaries
loop_
_space_group_symop_operation_xyz
'x, y, z'
'-x, -y, -z'
loop_
_atom_site_type_symbol
_atom_site_label
_atom_site_fract_x
_atom_site_fract_y
_atom_site_fract_z
_atom_site_U_iso_or_equiv
_atom_site_adp_type
_atom_site_calc_flag
_atom_site_refinement_flags_adp
_atom_site_refinement_flags_occupancy
_atom_site_refinement_flags_posn
_atom_site_occupancy
_atom_site_disorder_assembly
_atom_site_disorder_group
S S1 0.7485(2) 0.6644(2) 0.17349(13) 0.0316(3) Uani d U P . 0.576(2) A 1
C C1 0.8223(15) 0.8092(14) 0.1740(10) 0.0255(11) Uani d U P . 0.576(2) A 1
H H1 0.8903 0.8647 0.1018 0.031 Uiso calc U P R 0.576(2) A 1
S S1A 0.8121(6) 0.8009(6) 0.1821(5) 0.0447(8) Uani d U P . 0.424(2) A 2
C C1A 0.7267(14) 0.6545(15) 0.2030(9) 0.0373(15) Uani d U P . 0.424(2) A 2
H H1A 0.7383 0.6034 0.1344 0.045 Uiso calc U P R 0.424(2) A 2
C C2 0.73929(19) 0.82121(18) 0.33636(15) 0.0253(3) Uani d . . . 1.0 . .
H H2 0.7559 0.8909 0.374 0.03 Uiso calc U . R 1.0 A 1
C C3 0.64217(16) 0.72229(16) 0.41635(13) 0.0178(3) Uani d . . . 1.0 . .
C C4 0.63867(19) 0.62860(18) 0.33988(15) 0.0231(3) Uani d . . . 1.0 . .
H H4 0.5811 0.5529 0.3769 0.028 Uiso calc U . R 1.0 A 1
C C5 0.55030(16) 0.71996(15) 0.56417(13) 0.0162(3) Uani d . . . 1.0 . .
C C6 0.64012(17) 0.66959(15) 0.65647(13) 0.0171(3) Uani d . . . 1.0 . .
C C7 0.81505(17) 0.62261(16) 0.61125(14) 0.0203(3) Uani d . . . 1.0 . .
H H7 0.8758 0.6254 0.517 0.024 Uiso calc U . R 1.0 . .
C C8 0.89835(19) 0.57335(18) 0.70063(15) 0.0236(3) Uani d . . . 1.0 . .
H H8 1.0155 0.5418 0.6678 0.028 Uiso calc U . R 1.0 . .
C C9 0.8111(2) 0.56929(18) 0.84092(15) 0.0248(3) Uani d . . . 1.0 . .
H H9 0.8694 0.5354 0.9024 0.03 Uiso calc U . R 1.0 . .
C C10 0.64231(19) 0.61420(17) 0.88845(14) 0.0231(3) Uani d . . . 1.0 . .
H H10 0.5843 0.6118 0.983 0.028 Uiso calc U . R 1.0 . .
C C11 0.55260(18) 0.66420(16) 0.79888(14) 0.0193(3) Uani d . . . 1.0 . .
C C12 0.37789(18) 0.70817(17) 0.84846(14) 0.0214(3) Uani d . . . 1.0 . .
H H12 0.319 0.7044 0.943 0.026 Uiso calc U . R 1.0 . .
C C13 0.29493(18) 0.75566(17) 0.76046(14) 0.0207(3) Uani d . . . 1.0 . .
C C14 0.11165(19) 0.8051(2) 0.79001(15) 0.0270(3) Uani d . . . 1.0 . .
H H14A 0.0634 0.7203 0.8456 0.032 Uiso calc U . R 1.0 . .
H H14B 0.0548 0.8973 0.8371 0.032 Uiso calc U . R 1.0 . .
C C15 0.10169(19) 0.84213(18) 0.65123(15) 0.0254(3) Uani d . . . 1.0 . .
H H15 0.0011 0.8777 0.634 0.031 Uiso calc U . R 1.0 . .
C C16 0.25174(17) 0.81922(16) 0.55359(14) 0.0200(3) Uani d . . . 1.0 . .
C C17 0.37956(17) 0.76350(15) 0.61713(13) 0.0175(3) Uani d . . . 1.0 . .
C C18 0.27384(17) 0.84747(16) 0.40791(14) 0.0195(3) Uani d . . . 1.0 . .
C C19 0.34730(18) 0.95877(16) 0.31635(15) 0.0219(3) Uani d . . . 1.0 . .
H H19 0.3901 1.0148 0.3462 0.026 Uiso calc U . R 1.0 . .
C C20 0.3581(2) 0.98784(18) 0.18202(15) 0.0261(3) Uani d . . . 1.0 . .
H H20 0.407 1.0646 0.1207 0.031 Uiso calc U . R 1.0 . .
C C21 0.2980(2) 0.9055(2) 0.13713(16) 0.0286(3) Uani d . . . 1.0 . .
H H21 0.3066 0.9251 0.0449 0.034 Uiso calc U . R 1.0 . .
C C22 0.2254(2) 0.7946(2) 0.22655(17) 0.0303(3) Uani d . . . 1.0 . .
H H22 0.1838 0.7383 0.1959 0.036 Uiso calc U . R 1.0 . .
C C23 0.21336(19) 0.76576(18) 0.36143(16) 0.0256(3) Uani d . . . 1.0 . .
H H23 0.1634 0.6896 0.4225 0.031 Uiso calc U . R 1.0 . .
loop_
_atom_site_aniso_label
_atom_site_aniso_U_11
_atom_site_aniso_U_22
_atom_site_aniso_U_33
_atom_site_aniso_U_12
_atom_site_aniso_U_13
_atom_site_aniso_U_23
S1 0.0275(6) 0.0430(6) 0.0204(5) -0.0029(4) -0.0069(4) -0.0115(5)
C1 0.0288(19) 0.0368(19) 0.0154(16) -0.0144(15) -0.0071(15) -0.0048(16)
S1A 0.0312(10) 0.0501(11) 0.0386(12) -0.0123(8) -0.0059(8) 0.0055(8)
C1A 0.035(2) 0.041(2) 0.032(3) -0.0075(18) -0.009(2) -0.007(2)
C2 0.0257(7) 0.0282(8) 0.0209(7) -0.0122(6) -0.0052(6) -0.0003(6)
C3 0.0146(6) 0.0191(6) 0.0168(6) -0.0030(5) -0.0041(5) -0.0034(5)
C4 0.0216(7) 0.0240(7) 0.0229(7) -0.0027(6) -0.0072(5) -0.0089(5)
C5 0.0172(6) 0.0146(6) 0.0156(6) -0.0051(5) -0.0036(5) -0.0031(4)
C6 0.0185(6) 0.0157(6) 0.0164(6) -0.0052(5) -0.0045(5) -0.0037(5)
C7 0.0186(6) 0.0219(7) 0.0188(6) -0.0054(5) -0.0042(5) -0.0049(5)
C8 0.0200(7) 0.0258(7) 0.0249(7) -0.0058(6) -0.0078(6) -0.0050(6)
C9 0.0271(7) 0.0269(7) 0.0234(7) -0.0064(6) -0.0126(6) -0.0041(6)
C10 0.0272(7) 0.0243(7) 0.0172(6) -0.0070(6) -0.0071(5) -0.0037(5)
C11 0.0215(7) 0.0178(6) 0.0173(6) -0.0060(5) -0.0048(5) -0.0033(5)
C12 0.0218(7) 0.0225(7) 0.0155(6) -0.0070(5) -0.0008(5) -0.0041(5)
C13 0.0183(6) 0.0204(6) 0.0190(6) -0.0048(5) -0.0020(5) -0.0046(5)
C14 0.0186(7) 0.0332(8) 0.0221(7) -0.0057(6) -0.0011(5) -0.0055(6)
C15 0.0173(7) 0.0300(8) 0.0260(7) -0.0048(6) -0.0059(6) -0.0052(6)
C16 0.0190(6) 0.0173(6) 0.0227(6) -0.0046(5) -0.0064(5) -0.0034(5)
C17 0.0169(6) 0.0162(6) 0.0181(6) -0.0047(5) -0.0038(5) -0.0044(5)
C18 0.0164(6) 0.0177(6) 0.0223(6) -0.0028(5) -0.0060(5) -0.0042(5)
C19 0.0209(7) 0.0186(6) 0.0258(7) -0.0063(5) -0.0071(6) -0.0033(5)
C20 0.0253(7) 0.0219(7) 0.0244(7) -0.0061(6) -0.0049(6) -0.0004(5)
C21 0.0277(8) 0.0335(8) 0.0216(7) -0.0056(7) -0.0077(6) -0.0057(6)
C22 0.0318(8) 0.0367(9) 0.0281(8) -0.0140(7) -0.0099(6) -0.0089(7)
C23 0.0250(7) 0.0265(7) 0.0266(7) -0.0122(6) -0.0060(6) -0.0043(6)
loop_
_atom_type_symbol
_atom_type_description
_atom_type_scat_dispersion_real
_atom_type_scat_dispersion_imag
_atom_type_scat_source
C C 0.0033 0.0016 'International Tables Vol C Tables 4.2.6.8 and 6.1.1.4'
H H 0.0000 0.0000 'International Tables Vol C Tables 4.2.6.8 and 6.1.1.4'
S S 0.1246 0.1234 'International Tables Vol C Tables 4.2.6.8 and 6.1.1.4'
loop_
_geom_angle_atom_site_label_1
_geom_angle_atom_site_label_2
_geom_angle_atom_site_label_3
_geom_angle
C4 S1 C1 100.8(3)
C2 C1 S1 98.9(7)
C2 S1A C1A 96.2(4)
C4 C1A S1A 105.9(8)
C3 C2 S1A 111.8(2)
C3 C2 C1 116.0(4)
C4 C3 C2 111.74(13)
C4 C3 C5 123.75(13)
C2 C3 C5 124.49(13)
C1A C4 C3 114.4(6)
C3 C4 S1 112.49(14)
C17 C5 C6 118.40(12)
C17 C5 C3 121.97(12)
C6 C5 C3 119.64(12)
C7 C6 C11 117.84(13)
C7 C6 C5 122.25(12)
C11 C6 C5 119.91(12)
C8 C7 C6 121.42(13)
C7 C8 C9 120.40(14)
C10 C9 C8 119.91(14)
C9 C10 C11 121.07(13)
C12 C11 C10 120.98(13)
C12 C11 C6 119.67(13)
C10 C11 C6 119.35(13)
C13 C12 C11 119.80(13)
C12 C13 C17 121.67(13)
C12 C13 C14 128.91(13)
C17 C13 C14 109.41(13)
C15 C14 C13 102.28(12)
C16 C15 C14 112.33(14)
C15 C16 C17 109.06(13)
C15 C16 C18 122.36(14)
C17 C16 C18 128.58(12)
C5 C17 C13 120.54(13)
C5 C17 C16 132.54(12)
C13 C17 C16 106.91(12)
C23 C18 C19 118.75(14)
C23 C18 C16 119.26(13)
C19 C18 C16 121.93(13)
C20 C19 C18 120.35(14)
C21 C20 C19 120.30(14)
C20 C21 C22 120.00(15)
C21 C22 C23 119.89(15)
C22 C23 C18 120.70(14)
loop_
_geom_bond_atom_site_label_1
_geom_bond_atom_site_label_2
_geom_bond_distance
S1 C4 1.6929(19)
S1 C1 1.741(11)
C1 C2 1.641(9)
S1A C2 1.579(5)
S1A C1A 1.753(15)
C1A C4 1.384(8)
C2 C3 1.404(2)
C3 C4 1.391(2)
C3 C5 1.4872(18)
C5 C17 1.3851(19)
C5 C6 1.4427(19)
C6 C7 1.4191(19)
C6 C11 1.4296(18)
C7 C8 1.371(2)
C8 C9 1.410(2)
C9 C10 1.368(2)
C10 C11 1.417(2)
C11 C12 1.417(2)
C12 C13 1.357(2)
C13 C17 1.4336(19)
C13 C14 1.506(2)
C14 C15 1.497(2)
C15 C16 1.348(2)
C16 C17 1.480(2)
C16 C18 1.483(2)
C18 C23 1.394(2)
C18 C19 1.3978(19)
C19 C20 1.389(2)
C20 C21 1.384(2)
C21 C22 1.384(2)
C22 C23 1.391(2)
