#------------------------------------------------------------------------------
#$Date: 2016-03-21 05:33:32 +0200 (Mon, 21 Mar 2016) $
#$Revision: 178484 $
#$URL: svn://www.crystallography.net/cod/cif/4/03/05/4030593.cif $
#------------------------------------------------------------------------------
#
# This file is available in the Crystallography Open Database (COD),
# http://www.crystallography.net/
#
# All data on this site have been placed in the public domain by the
# contributors.
#
data_4030593
loop_
_publ_author_name
'Uetake, Yuta'
'Uwamori, Masahiro'
'Nakada, Masahisa'
_publ_section_title
;
 Enantioselective Approach to Polycyclic Polyprenylated
 Acylphloroglucinols via Catalytic Asymmetric Intramolecular
 Cyclopropanation.
;
_journal_issue                   3
_journal_name_full               'The Journal of organic chemistry'
_journal_page_first              1735
_journal_page_last               1745
_journal_paper_doi               10.1021/jo5026699
_journal_volume                  80
_journal_year                    2015
_chemical_absolute_configuration 'CHOOSE rm ad rmad syn or unk'
_chemical_formula_moiety         'C26 H37 Cl O6 S Si'
_chemical_formula_sum            'C26 H37 Cl O6 S Si'
_chemical_formula_weight         541.17
_space_group_crystal_system      triclinic
_space_group_IT_number           1
_space_group_name_Hall           'P 1'
_space_group_name_H-M_alt        'P 1'
_symmetry_space_group_name_Hall  'P 1'
_symmetry_space_group_name_H-M   'P 1'
_atom_sites_solution_hydrogens   geom
_atom_sites_solution_primary     direct
_atom_sites_solution_secondary   difmap
_cell_angle_alpha                94.6382(17)
_cell_angle_beta                 108.8426(17)
_cell_angle_gamma                91.7329(18)
_cell_formula_units_Z            1
_cell_length_a                   8.1853(3)
_cell_length_b                   8.4902(2)
_cell_length_c                   10.5848(3)
_cell_measurement_reflns_used    7194
_cell_measurement_temperature    173
_cell_measurement_theta_max      68.22
_cell_measurement_theta_min      4.43
_cell_volume                     692.65(4)
_computing_cell_refinement       'RAPID AUTO'
_computing_data_collection       'RAPID AUTO (Rigaku, ????)'
_computing_data_reduction        'RAPID AUTO'
_computing_molecular_graphics    'CrystalStructure 4.1'
_computing_publication_material  'CrystalStructure 4.1 (Rigaku, 2014)'
_computing_structure_refinement  'SHELXL2013 (Sheldrick, 2008)'
_computing_structure_solution    'SIR92 (Altomare, et al., 1994)'
_diffrn_ambient_temperature      173
_diffrn_detector_area_resol_mean 10.000
_diffrn_measured_fraction_theta_full 0.980
_diffrn_measured_fraction_theta_max 0.978
_diffrn_measurement_device_type  'Rigaku R-AXIS RAPID'
_diffrn_measurement_method       \w
_diffrn_radiation_type           'Cu K\a'
_diffrn_radiation_wavelength     1.54187
_diffrn_reflns_av_R_equivalents  0.0753
_diffrn_reflns_Laue_measured_fraction_full 0.980
_diffrn_reflns_Laue_measured_fraction_max 0.978
_diffrn_reflns_limit_h_max       9
_diffrn_reflns_limit_h_min       -9
_diffrn_reflns_limit_k_max       9
_diffrn_reflns_limit_k_min       -10
_diffrn_reflns_limit_l_max       12
_diffrn_reflns_limit_l_min       -12
_diffrn_reflns_number            7873
_diffrn_reflns_point_group_measured_fraction_full 0.829
_diffrn_reflns_point_group_measured_fraction_max 0.825
_diffrn_reflns_theta_full        67.687
_diffrn_reflns_theta_max         68.227
_diffrn_reflns_theta_min         4.434
_diffrn_standards_number         0
_exptl_absorpt_coefficient_mu    2.653
_exptl_absorpt_correction_T_max  0.767
_exptl_absorpt_correction_T_min  0.554
_exptl_absorpt_correction_type   multi-scan
_exptl_absorpt_process_details   'ABSCOR (Rigaku, 1995)'
_exptl_crystal_colour            colorless
_exptl_crystal_density_diffrn    1.297
_exptl_crystal_density_method    'not measured'
_exptl_crystal_description       platelet
_exptl_crystal_F_000             288.00
_exptl_crystal_size_max          0.320
_exptl_crystal_size_mid          0.230
_exptl_crystal_size_min          0.100
_refine_diff_density_max         0.33
_refine_diff_density_min         -0.45
_refine_ls_abs_structure_details
;
 Flack x determined using 1358 quotients [(I+)-(I-)]/[(I+)+(I-)]
 (Parsons and Flack (2004), Acta Cryst. A60, s61).
;
_refine_ls_abs_structure_Flack   0.02(2)
_refine_ls_extinction_method     none
_refine_ls_goodness_of_fit_ref   1.151
_refine_ls_hydrogen_treatment    constr
_refine_ls_number_parameters     316
_refine_ls_number_reflns         4185
_refine_ls_number_restraints     3
_refine_ls_R_factor_all          0.0616
_refine_ls_R_factor_gt           0.0551
_refine_ls_shift/su_max          0.000
_refine_ls_structure_factor_coef Fsqd
_refine_ls_weighting_details
'w = 1/[\s^2^(Fo^2^)+(0.0703P)^2^+0.0188P] where P=(Fo^2^+2Fc^2^)/3'
_refine_ls_weighting_scheme      calc
_refine_ls_wR_factor_gt          0.1406
_refine_ls_wR_factor_ref         0.1633
_reflns_number_gt                3801
_reflns_number_total             4185
_reflns_threshold_expression     F^2^>2.0\s(F^2^)
_cod_data_source_file            jo5026699_si_002.cif
_cod_data_source_block           uetake20141119
_cod_depositor_comments
'Adding full bibliography for 4030592--4030593.cif.'
_cod_original_cell_volume        692.65(3)
_cod_database_code               4030593
#BEGIN Tags that were not found in dictionaries:
_shelxl_res_file
;
TITL uetake20141119
CELL  1.54187 8.18528 8.49025 10.58478 94.63820 108.84260 91.73290
ZERR  1 0.00025 0.00022 0.00028 0.00170 0.00170 0.00180
LATT -1
SFAC C H O CL S SI
UNIT 26 37 6 1 1 1
L.S. 20
FMAP 2
PLAN -37
WPDB -2
HTAB
BOND $H
CONF
LIST 4
TEMP -100.0
ACTA
SIZE 0.230 0.320 0.100
WGHT    0.070300    0.018800
FVAR       1.95954
CL36  4    0.796981    0.613957    0.858750    11.00000    0.03346    0.04996 =
         0.03405    0.00226    0.00653    0.00361
S2    5    0.533270    0.775139    0.659059    11.00000    0.03818    0.03191 =
         0.04045    0.00431    0.01230    0.00492
SI3   6    0.243590    0.193344    1.156361    11.00000    0.03564    0.03531 =
         0.02324    0.00294    0.00895    0.00718
O4    3    0.116398    0.268816    0.718856    11.00000    0.03315    0.03451 =
         0.03615    0.00267    0.00228   -0.00044
O5    3    0.560346    0.917771    0.746449    11.00000    0.04903    0.02984 =
         0.05878   -0.00469    0.02207    0.00056
O6    3    0.282736    0.273049    1.032604    11.00000    0.05332    0.05564 =
         0.04472    0.01565    0.02853    0.02123
O7    3    0.365829    0.738486    0.558480    11.00000    0.04263    0.04854 =
         0.04482    0.01095    0.00638    0.00528
O8    3    0.519658    0.427735    0.580120    11.00000    0.06558    0.04133 =
         0.02684   -0.00212    0.02022    0.00269
O9    3    0.575313    0.503407    1.073015    11.00000    0.05977    0.06466 =
         0.02789   -0.00021    0.00848   -0.00323
C1    1    0.216724    0.403114    0.779736    11.00000    0.03461    0.03088 =
         0.02612   -0.00044    0.01132    0.00180
C10   1    0.521382    0.447682    0.695328    11.00000    0.02636    0.03831 =
         0.03094    0.00139    0.00850    0.00557
C12   1    0.395248    0.359280    0.867593    11.00000    0.03680    0.03425 =
         0.02650    0.00130    0.01058    0.00499
C13   1    0.172720    0.550957    0.760730    11.00000    0.03672    0.02879 =
         0.04003    0.00182    0.01964    0.00303
AFIX  43
H13   2    0.061624    0.568097    0.700574    11.00000   -1.20000
AFIX   0
C14   1    0.482201    0.651923    0.881874    11.00000    0.04094    0.03522 =
         0.02918   -0.00933    0.01055   -0.00182
AFIX  13
H14   2    0.550267    0.741649    0.946227    11.00000   -1.20000
AFIX   0
C15   1    0.568317    0.615013    0.772384    11.00000    0.02031    0.03667 =
         0.02611    0.00130    0.00535    0.00423
C16   1    0.667339    0.680574    0.461694    11.00000    0.04205    0.04569 =
         0.03285    0.00729    0.00866    0.00344
AFIX  43
H16   2    0.562732    0.617486    0.420913    11.00000   -1.20000
AFIX   0
C17   1    0.843802    0.867669    0.640230    11.00000    0.04096    0.03616 =
         0.03933    0.00774    0.00764    0.00454
AFIX  43
H17   2    0.860263    0.931013    0.722059    11.00000   -1.20000
AFIX   0
C18   1    0.426705    0.077432    1.251843    11.00000    0.05661    0.05283 =
         0.02765    0.00393    0.01084    0.01614
AFIX  13
H18   2    0.394646    0.042512    1.329172    11.00000   -1.20000
AFIX   0
C19   1    0.492397    0.504730    0.955800    11.00000    0.04306    0.04709 =
         0.02592    0.00126    0.01431    0.00709
C20   1    0.500628    0.312991    0.773789    11.00000    0.03981    0.03738 =
         0.02924    0.00352    0.01786    0.00897
AFIX  23
H20A  2    0.616172    0.282250    0.827943    11.00000   -1.20000
H20B  2    0.441076    0.220456    0.710955    11.00000   -1.20000
AFIX   0
C21   1    0.795015    0.683163    0.401587    11.00000    0.05810    0.05311 =
         0.03124    0.01156    0.01008    0.01342
AFIX  43
H21   2    0.778308    0.620403    0.319441    11.00000   -1.20000
AFIX   0
C22   1    0.291758    0.691388    0.830616    11.00000    0.04299    0.03216 =
         0.04467   -0.00711    0.01823    0.00866
AFIX  23
H22A  2    0.257664    0.735142    0.907385    11.00000   -1.20000
H22B  2    0.278602    0.774155    0.767888    11.00000   -1.20000
AFIX   0
C23   1    0.695336    0.771876    0.582500    11.00000    0.03263    0.03776 =
         0.03657    0.00753    0.01225    0.00526
C24   1    0.215560    0.369240    1.264341    11.00000    0.03566    0.04400 =
         0.03927   -0.00682    0.00701   -0.00035
AFIX  13
H24   2    0.335382    0.412651    1.316944    11.00000   -1.20000
AFIX   0
C25   1    0.382213    0.224565    0.950630    11.00000    0.04858    0.04674 =
         0.03227    0.00956    0.01763    0.01445
AFIX  23
H25A  2    0.326097    0.128553    0.891070    11.00000   -1.20000
H25B  2    0.499065    0.199543    1.006995    11.00000   -1.20000
AFIX   0
C26   1   -0.054025    0.293303    0.634639    11.00000    0.05458    0.04165 =
         0.04167    0.00254    0.00789    0.00660
AFIX  33
H26A  2   -0.115265    0.190762    0.595914    11.00000   -1.20000
H26B  2   -0.116254    0.349885    0.687616    11.00000   -1.20000
H26C  2   -0.047835    0.356114    0.562432    11.00000   -1.20000
AFIX   0
C27   1    0.946330    0.776471    0.460478    11.00000    0.03859    0.05475 =
         0.04668    0.02120    0.01818    0.01659
AFIX  43
H27   2    1.034580    0.775660    0.420189    11.00000   -1.20000
AFIX   0
C28   1    0.597851    0.176242    1.313603    11.00000    0.05180    0.10085 =
         0.04378   -0.00719   -0.00338    0.02569
AFIX  33
H28A  2    0.579220    0.272323    1.363765    11.00000   -1.20000
H28B  2    0.682424    0.114163    1.374410    11.00000   -1.20000
H28C  2    0.641500    0.205511    1.242181    11.00000   -1.20000
AFIX   0
C29   1    0.968789    0.871212    0.578528    11.00000    0.04230    0.04784 =
         0.05515    0.01724    0.01546    0.00496
AFIX  43
H29   2    1.070491    0.938785    0.617094    11.00000   -1.20000
AFIX   0
C30   1   -0.111467    0.145692    0.997545    11.00000    0.03382    0.07824 =
         0.05195   -0.00352   -0.01101    0.00163
AFIX  33
H30A  2   -0.076291    0.210074    0.936897    11.00000   -1.20000
H30B  2   -0.205888    0.069300    0.945112    11.00000   -1.20000
H30C  2   -0.150792    0.214516    1.059470    11.00000   -1.20000
AFIX   0
C31   1    0.448382   -0.074627    1.172039    11.00000    0.06801    0.05603 =
         0.04570    0.00590    0.00899    0.02583
AFIX  33
H31A  2    0.336611   -0.134776    1.134038    11.00000   -1.20000
H31B  2    0.490740   -0.047524    1.099395    11.00000   -1.20000
H31C  2    0.531663   -0.138872    1.231624    11.00000   -1.20000
AFIX   0
C32   1    0.126369    0.505653    1.186338    11.00000    0.10057    0.05004 =
         0.07133    0.00309    0.03596    0.02780
AFIX  33
H32A  2    0.181436    0.528928    1.119801    11.00000   -1.20000
H32B  2    0.003711    0.474748    1.140729    11.00000   -1.20000
H32C  2    0.137213    0.600076    1.248855    11.00000   -1.20000
AFIX   0
C33   1    0.043618    0.056303    1.078030    11.00000    0.03476    0.04536 =
         0.04103   -0.00559    0.00139   -0.00225
AFIX  13
H33   2    0.070805   -0.019168    1.011037    11.00000   -1.20000
AFIX   0
C34   1    0.131663    0.331178    1.368489    11.00000    0.06685    0.07006 =
         0.03694   -0.01331    0.02007   -0.00150
AFIX  33
H34A  2    0.189520    0.244309    1.417358    11.00000   -1.20000
H34B  2    0.142521    0.425043    1.431589    11.00000   -1.20000
H34C  2    0.009019    0.299716    1.323464    11.00000   -1.20000
AFIX   0
C35   1   -0.005763   -0.045380    1.173702    11.00000    0.07431    0.05435 =
         0.07520    0.00579    0.03145   -0.00572
AFIX  33
H35A  2    0.094851   -0.100777    1.223498    11.00000   -1.20000
H35B  2   -0.044412    0.022206    1.236767    11.00000   -1.20000
H35C  2   -0.099508   -0.123010    1.122410    11.00000   -1.20000
AFIX   0
HKLF 4
 
REM  uetake20141119
REM R1 =  0.0551 for    3801 Fo > 4sig(Fo)  and  0.0616 for all    4185 data
REM    316 parameters refined using      3 restraints
 
END  
     
WGHT      0.0704      0.0188 

REM Instructions for potential hydrogen bonds
HTAB C16 O8

REM Highest difference peak  0.330,  deepest hole -0.452,  1-sigma level  0.068
Q1    1   0.8038  0.7592  0.8742  11.00000  0.05    0.30
Q2    1   0.3559  0.1556  1.2347  11.00000  0.05    0.30
Q3    1   0.1526  0.0956  1.0989  11.00000  0.05    0.29
Q4    1   0.3200  0.2933  1.2216  11.00000  0.05    0.28
Q5    1   0.1837  0.2745  1.2013  11.00000  0.05    0.27
Q6    1   0.8014  0.4856  0.8522  11.00000  0.05    0.27
Q7    1   0.6174  0.8850  0.7264  11.00000  0.05    0.26
Q8    1   0.8552  0.5135  0.8182  11.00000  0.05    0.26
Q9    1   0.4231  0.8161  0.5836  11.00000  0.05    0.24
Q10   1   0.4256  0.9833  0.6433  11.00000  0.05    0.23
Q11   1   0.3776  0.0340  1.3837  11.00000  0.05    0.23
Q12   1  -0.0953  0.4178  0.6758  11.00000  0.05    0.21
Q13   1   0.5023  0.0648  1.3840  11.00000  0.05    0.21
Q14   1   0.6210  1.0601  0.7868  11.00000  0.05    0.21
Q15   1   0.4840 -0.0170  0.9674  11.00000  0.05    0.20
Q16   1   0.6603  1.0182  0.7987  11.00000  0.05    0.20
Q17   1   0.3429  0.0611  0.6827  11.00000  0.05    0.20
Q18   1   0.0108 -0.1971  1.1604  11.00000  0.05    0.19
Q19   1   0.5626  0.2574  1.2585  11.00000  0.05    0.19
Q20   1   0.1248  0.6030  0.4942  11.00000  0.05    0.19
Q21   1   0.4516 -0.2200  1.1677  11.00000  0.05    0.19
Q22   1   0.6757  0.0355  1.1806  11.00000  0.05    0.19
Q23   1   0.2906  0.8385  0.5777  11.00000  0.05    0.19
Q24   1   0.1720  0.6236  1.2421  11.00000  0.05    0.19
Q25   1   0.4172  0.0475  1.1874  11.00000  0.05    0.19
Q26   1   0.4603  0.1176  0.6341  11.00000  0.05    0.19
Q27   1   0.4311  0.5972  0.3028  11.00000  0.05    0.18
Q28   1  -0.0546  0.2005  1.3711  11.00000  0.05    0.18
Q29   1   0.6482  0.3324  1.3364  11.00000  0.05    0.18
Q30   1   0.3441  0.8926  0.6268  11.00000  0.05    0.18
Q31   1   1.0013  0.8616  0.8742  11.00000  0.05    0.18
Q32   1   0.3818 -0.2713  1.1595  11.00000  0.05    0.18
Q33   1   0.1446  0.1561  0.6836  11.00000  0.05    0.18
Q34   1   0.8855  0.7169  0.9172  11.00000  0.05    0.18
Q35   1   0.6316  0.0588  1.5671  11.00000  0.05    0.18
Q36   1   0.4413  0.6721  0.5964  11.00000  0.05    0.18
Q37   1   0.1422 -0.0861  1.0518  11.00000  0.05    0.18
;
_shelxl_hkl_file
;
   0   0   1 6029.59  744.28
   0   0   1 5946.53  733.06
   0   0   1 5516.44  681.41
   0   0   1 5378.34  664.27
   0   0   1 5959.52  743.43
   0   0  -1 6453.80  796.84
   0   0  -1 5585.92  693.98
   0   0  -1 5093.80  631.57
   0   0  -1 6030.75  743.77
   0   0  -1 5668.45  707.28
   0   0   2 4790.71  590.36
   0   0   2 4735.78  586.24
   0   0   2 4848.28  600.07
   0   0   2 4950.08  610.00
   0   0  -2 4942.46  613.85
   0   0  -2 5194.20  637.58
   0   0  -2 4672.23  578.47
   0   0  -2 5698.58  723.50
   0   0   3   73.92    8.34
   0   0   3   70.89    9.47
   0   0   3   70.12    8.63
   0   0   3   72.60    8.72
   0   0   3   62.77    8.34
   0   0   3   69.11    8.33
   0   0  -3   98.84   11.46
   0   0  -3   98.15    9.07
   0   0  -3  113.72    9.18
   0   0  -3   89.73    9.44
   0   0   4  851.26   75.03
   0   0   4  842.39   72.83
   0   0   4  824.76   70.80
   0   0   4  799.39   67.74
   0   0   4  798.86   67.42
   0   0  -4  946.69   83.38
   0   0  -4  842.52   81.04
   0   0  -4  918.98   74.82
   0   0  -4  834.29   72.16
   0   0   5  275.14   28.01
   0   0   5  267.75   25.96
   0   0   5  259.83   24.21
   0   0   5  256.67   23.45
   0   0   5  283.14   29.49
   0   0  -5  383.65   35.44
   0   0  -5  374.83   28.41
   0   0  -5  361.77   39.67
   0   0  -5  392.24   31.22
   0   0  -5  316.21   32.63
   0   0   6   85.03    9.09
   0   0   6  102.17   21.28
   0   0   6   96.85   12.61
   0   0   6   85.61   14.41
   0   0   6   78.71    9.06
   0   0  -6   31.95   12.55
   0   0  -6   38.24   18.39
   0   0  -6   35.88    8.25
   0   0  -6   31.76    8.74
   0   0  -6   35.28    9.24
   0   0   7  742.59   86.41
   0   0   7  780.97   73.88
   0   0   7  819.21   77.23
   0   0  -7  725.70   84.99
   0   0  -7  588.69   64.42
   0   0  -7  662.40   82.82
   0   0   8   60.02   12.22
   0   0  -8   55.75   18.63
   0   0  -8   55.67   18.72
   0   0  -9   82.07   23.26
   0   0  -9   90.97   25.89
   0   0 -10 1879.33  317.57
   0   0 -11  123.00   35.31
   0   0 -12   19.26   13.42
   0   1 -12  129.25   31.04
   0   1 -11   40.22   20.42
   0   1 -10   94.55   28.84
   0   1  -9  901.16  122.75
   0  -1   9  982.86  111.14
   0   1  -8  127.17   17.27
   0   1  -8   -1.14   20.53
   0  -1   8   98.36   16.20
   0  -1   8  107.34   20.86
   0   1  -7   30.20    7.71
   0   1  -7   31.67    8.70
   0   1  -7   21.20    9.90
   0  -1   7   40.26    8.72
   0  -1   7   40.71   10.73
   0  -1   7   30.89   17.15
   0   1  -6  289.97   33.82
   0   1  -6  368.06   33.51
   0   1  -6  387.13   37.97
   0   1  -6  378.77   39.66
   0   1  -6  318.07   34.93
   0  -1   6  401.57   36.64
   0  -1   6  414.49   33.62
   0  -1   6  420.08   38.15
   0  -1   6  426.46   41.64
   0   1  -5 1404.72  141.87
   0   1  -5 1488.83  147.57
   0   1  -5 1442.33  142.87
   0   1  -5 1471.68  147.64
   0  -1   5 1326.07  135.63
   0  -1   5 1328.92  127.61
   0  -1   5 1444.20  140.30
   0  -1   5 1379.17  150.89
   0  -1   5 1307.41  136.39
   0   1  -4 4015.27  490.41
   0   1  -4 4119.16  512.53
   0   1  -4 3943.53  495.59
   0   1  -4 4184.44  519.74
   0   1  -4 3942.49  479.00
   0  -1   4 3859.40  489.66
   0  -1   4 3738.50  453.86
   0  -1   4 4030.07  498.97
   0  -1   4 3961.35  492.09
   0  -1   4 4067.70  482.98
   0   1  -3 5101.73  669.83
   0   1  -3 5210.74  661.92
   0   1  -3 5134.27  659.77
   0   1  -3 5451.15  674.50
   0  -1   3 4669.56  586.97
   0  -1   3 4122.31  547.73
   0  -1   3 4478.58  575.37
   0  -1   3 4650.67  607.13
   0   1  -2 6552.22  875.51
   0   1  -2 5856.26  821.97
   0   1  -2 6701.23  933.97
   0   1  -2 6651.71  918.34
   0  -1   2 6622.11  885.40
   0  -1   2 6347.60  876.93
   0  -1   2 6353.68  883.28
   0  -1   2 6540.00  917.78
   0   1  -1 3823.72  405.21
   0   1  -1 3904.68  426.22
   0   1  -1 3420.10  381.79
   0  -1   1 3609.87  400.50
   0  -1   1 3920.34  414.27
   0  -1   1 3408.51  374.30
   0  -1   1 4026.27  439.15
   0  -1   1 3689.57  408.41
   0   1   0 2402.62  238.39
   0   1   0 2503.78  240.05
   0   1   0 2783.90  269.62
   0   1   0 2598.68  252.29
   0   1   0 2963.16  289.96
   0  -1   0 3051.64  305.55
   0  -1   0 2998.17  295.76
   0  -1   0 2599.52  250.30
   0  -1   0 2885.21  284.30
   0  -1   0 2866.30  272.63
   0   1   116397.07 3404.47
   0   1   119798.58 3974.33
   0   1   119794.83 4078.02
   0  -1  -117856.34 3682.07
   0  -1  -118834.65 3911.64
   0  -1  -120980.32 4332.31
   0  -1  -120807.09 4216.93
   0   1   2 1503.10  162.52
   0   1   2 1431.28  142.65
   0   1   2 1904.25  158.63
   0   1   2 1875.46  163.42
   0  -1  -2 1589.46  149.09
   0  -1  -2 1716.21  172.60
   0  -1  -2 1758.18  162.30
   0  -1  -2 1775.70  156.46
   0  -1  -2 1702.45  166.39
   0  -1  -2 1972.89  164.29
   0   1   3 1192.92  108.30
   0   1   3 1159.90  105.90
   0   1   3 1363.03  111.55
   0   1   3 1226.69   97.85
   0  -1  -3 1273.92  108.70
   0  -1  -3 1309.49  104.28
   0  -1  -3 1235.22  115.92
   0  -1  -3 1196.70  107.33
   0  -1  -3 1133.85  101.61
   0  -1  -3 1168.26  115.45
   0   1   4  105.22    9.52
   0   1   4   88.93    7.54
   0   1   4  101.54   20.92
   0   1   4   86.47   11.20
   0  -1  -4   85.95   11.31
   0  -1  -4   75.61   15.17
   0  -1  -4   84.37   12.43
   0  -1  -4   74.58   13.29
   0  -1  -4   86.51    7.69
   0  -1  -4   88.14   13.84
   0   1   5 1701.08  184.23
   0   1   5 1820.75  206.60
   0   1   5 1946.33  194.79
   0   1   5 1695.57  172.88
   0  -1  -5 2130.53  227.80
   0  -1  -5 1790.70  204.05
   0  -1  -5 1835.31  213.14
   0  -1  -5 1860.32  181.75
   0  -1  -5 1850.50  196.31
   0  -1  -5 1789.42  187.21
   0   1   6  415.13   49.89
   0   1   6  436.38   36.87
   0   1   6  404.43   39.47
   0  -1  -6  362.14   47.41
   0  -1  -6  378.87   39.14
   0  -1  -6  379.57   44.04
   0  -1  -6  355.12   44.66
   0  -1  -6  277.61   40.32
   0   1   7  182.41   35.07
   0  -1  -7  207.32   33.69
   0  -1  -7  235.99   37.33
   0   1   8  236.81   57.96
   0  -1  -8  281.83   46.25
   0  -1  -8  287.64   47.61
   0  -1  -9  437.63   68.47
   0  -1  -9  458.14   74.16
   0  -1 -10  277.71   53.39
   0  -1 -10  212.38   40.47
   0  -1 -11  844.81  125.87
   0   2 -12   63.54   21.00
   0   2 -11   37.35   17.75
   0   2 -10  190.55   38.32
   0  -2  10  149.41   25.20
   0   2  -9  163.55   28.84
   0  -2   9  232.82   35.88
   0  -2   9  225.30   30.39
   0   2  -8  699.85   81.87
   0  -2   8  698.43   83.12
   0   2  -7  596.14   62.30
   0  -2   7  451.69   54.91
   0  -2   7  473.41   53.09
   0   2  -6  499.35   42.57
   0   2  -6  353.10   38.80
   0   2  -6  520.93   68.11
   0   2  -6  573.10   57.11
   0  -2   6  444.33   40.70
   0  -2   6  545.80   53.59
   0  -2   6  513.64   41.52
   0  -2   6  530.50   52.53
   0   2  -5   93.40   13.15
   0   2  -5   69.49   19.36
   0   2  -5   61.08    7.03
   0  -2   5   73.03   12.00
   0  -2   5   68.34    7.08
   0  -2   5   66.06   11.94
   0   2  -4 1231.78  122.63
   0   2  -4 1308.34  127.14
   0   2  -4 1343.95  111.36
   0  -2   4 1176.00  132.06
   0  -2   4  999.93  108.55
   0  -2   4 1302.34  109.61
   0  -2   4 1146.99  113.02
   0   2  -3 2318.43  259.85
   0   2  -3 2842.19  307.33
   0   2  -3 2867.07  282.67
   0  -2   3 2480.89  274.86
   0  -2   3 2348.07  257.66
   0  -2   3 2652.73  286.50
   0  -2   3 2470.64  276.43
   0  -2   3 2845.65  284.58
   0   2  -2 9691.68 1556.40
   0   2  -210253.56 1578.25
   0   2  -2 9989.93 1624.85
   0   2  -2 7737.84 1269.42
   0  -2   2 9894.64 1541.36
   0  -2   2 8882.02 1441.64
   0  -2   2 9299.00 1501.52
   0  -2   2 8639.34 1389.83
   0   2  -1 6310.37  869.24
   0   2  -1 7353.20 1045.29
   0   2  -1 6467.74  927.90
   0   2  -1 5224.73  759.93
   0   2  -1 6858.23  957.46
   0  -2   1 7181.13 1019.76
   0  -2   1 6493.01  925.88
   0  -2   1 6980.93  962.36
   0  -2   1 6859.70  985.85
   0  -2   1 7442.40 1027.88
   0   2   0 4872.39  603.77
   0   2   0 4662.00  572.08
   0   2   0 4080.40  495.93
   0   2   0 4598.54  553.45
   0   2   0 4732.45  576.29
   0  -2   0 4237.95  527.96
   0  -2   0 4195.30  512.16
   0  -2   0 3801.80  480.17
   0  -2   0 4477.28  553.26
   0   2   1 9107.81 1418.28
   0   2   1 9291.50 1504.75
   0   2   110787.07 1769.21
   0   2   1 8468.81 1368.00
   0  -2  -1 8859.19 1435.05
   0  -2  -1 8919.36 1459.14
   0  -2  -1 8990.04 1410.17
   0  -2  -1 8794.24 1423.43
   0   2   2 2964.68  278.34
   0   2   2 3022.32  312.53
   0   2   2 2638.08  278.38
   0  -2  -2 2310.69  230.72
   0  -2  -2 1975.08  210.62
   0  -2  -2 2150.70  231.49
   0  -2  -2 2463.38  268.47
   0  -2  -2 2316.69  278.79
   0   2   3 1089.15  110.00
   0   2   3 1261.95   99.21
   0   2   3 1019.78  103.47
   0  -2  -3 1307.15  118.51
   0  -2  -3 1386.70  133.93
   0  -2  -3 1227.55  125.09
   0  -2  -3 1157.20  107.49
   0  -2  -3 1321.38  112.19
   0   2   4  391.56   30.04
   0   2   4  391.55   43.48
   0   2   4  382.81   39.47
   0   2   4  315.71   21.74
   0  -2  -4  433.01   39.89
   0  -2  -4  308.20   33.37
   0  -2  -4  675.96   73.90
   0  -2  -4  370.63   58.37
   0  -2  -4  424.45   34.14
   0   2   5  703.29   58.91
   0   2   5  617.88   63.54
   0   2   5  667.05   74.12
   0  -2  -5  727.81  105.40
   0  -2  -5  764.97  100.71
   0  -2  -5  738.46   72.89
   0  -2  -5  637.81   58.51
   0  -2  -5  652.20   66.31
   0   2   6 1287.18  158.87
   0   2   6 1349.26  148.76
   0  -2  -6 1379.27  171.40
   0  -2  -6 1363.59  165.77
   0   2   7  374.07   73.05
   0  -2  -7  367.48   56.28
   0  -2  -7  341.29   55.06
   0   2   8  117.50   25.19
   0  -2  -8  150.79   34.59
   0  -2  -8  167.34   34.05
   0   2   9  152.71   29.15
   0  -2  -9  199.72   58.76
   0  -2  -9  192.07   42.25
   0  -2 -10  200.59   46.59
   0  -2 -10  206.13   38.85
   0  -2 -11  106.97   23.21
   0  -2 -11  143.66   33.60
   0   3 -11   15.61   21.63
   0  -3  11  123.11   21.35
   0   3 -10   73.09   22.86
   0   3 -10   50.53   15.27
   0  -3  10   57.10   14.27
   0   3  -9  873.45  110.60
   0  -3   9  920.87  115.57
   0  -3   9  954.98  110.43
   0   3  -8  387.56   54.35
   0  -3   8  445.96   54.78
   0  -3   8  408.77   55.39
   0   3  -7  593.44   96.26
   0  -3   7  712.76   99.20
   0  -3   7  674.17   76.73
   0   3  -6 1631.59  188.42
   0  -3   6 1489.82  169.00
   0  -3   6 1524.26  173.97
   0   3  -5 1389.01  146.16
   0   3  -5 1225.06  135.64
   0  -3   5 1266.49  152.48
   0  -3   5 1342.03  124.10
   0  -3   5 1230.02  132.67
   0   3  -4 1072.35   83.45
   0   3  -4  993.53  104.26
   0   3  -4  820.34   85.59
   0   3  -4 1025.52  100.01
   0  -3   4  866.72   86.18
   0  -3   4  814.28   81.72
   0  -3   4  834.59   86.68
   0  -3   4  994.61   81.94
   0   3  -3 4092.73  487.74
   0   3  -3 4115.67  447.43
   0   3  -3 2700.39  338.44
   0   3  -3 3465.52  430.43
   0  -3   3 3121.95  377.90
   0  -3   3 2890.51  352.64
   0  -3   3 3535.82  405.36
   0  -3   3 2850.98  354.24
   0   3  -213714.07 2341.84
   0   3  -212227.97 2160.41
   0   3  -2 8747.58 1572.80
   0   3  -213232.54 2322.43
   0  -3   212098.16 2081.03
   0  -3   210996.65 1941.51
   0  -3   210048.25 1793.04
   0  -3   210183.07 1796.12
   0   3  -1 1471.19  141.49
   0   3  -1 1655.60  163.45
   0   3  -1 1208.89  121.74
   0   3  -1 1713.54  155.39
   0   3  -1 1420.21  154.08
   0  -3   1 1501.89  132.03
   0  -3   1 1731.60  171.89
   0  -3   1 1591.34  149.30
   0  -3   1 1439.16  143.96
   0  -3   1 1412.51  137.76
   0   3   0  411.97   33.93
   0   3   0  422.82   35.41
   0   3   0  434.29   40.96
   0   3   0  353.90   30.07
   0   3   0  409.85   33.51
   0   3   0  437.18   34.21
   0  -3   0  402.89   32.52
   0  -3   0  439.30   35.72
   0  -3   0  514.30   45.03
   0  -3   0  375.83   37.06
   0   3   1 7272.63 1125.22
   0   3   1 7330.59 1123.84
   0   3   1 6988.40 1028.54
   0   3   1 7372.92 1131.06
   0   3   1 7884.19 1171.99
   0  -3  -1 6871.57 1072.21
   0  -3  -1 7712.25 1178.72
   0  -3  -1 7600.18 1191.36
   0  -3  -1 7237.97 1077.33
   0   3   2 2519.97  259.73
   0   3   2 2342.42  262.50
   0   3   2 2231.39  216.34
   0   3   2 2531.27  280.92
   0  -3  -2 2318.15  263.51
   0  -3  -2 2217.35  228.48
   0  -3  -2 2240.13  259.71
   0  -3  -2 2263.45  253.20
   0   3   3  784.70   83.97
   0   3   3  765.22   81.23
   0   3   3  898.10   82.57
   0   3   3  773.03   60.85
   0  -3  -3  814.91   78.24
   0  -3  -3  839.95   71.44
   0  -3  -3  900.01   92.29
   0  -3  -3  924.06   87.33
   0  -3  -3 1009.06  104.19
   0   3   4  614.70   46.14
   0   3   4  528.18   54.28
   0   3   4  565.31   73.86
   0  -3  -4  469.91   56.01
   0  -3  -4  461.77   54.95
   0  -3  -4  426.22   46.36
   0  -3  -4  436.90   39.61
   0  -3  -4  411.22   43.57
   0   3   5  908.05  118.19
   0   3   5  891.05  124.57
   0  -3  -5  863.33   94.08
   0  -3  -5  879.07   93.28
   0  -3  -5  937.17  110.98
   0  -3  -5  859.81  104.72
   0   3   6   97.32   19.46
   0  -3  -6   80.49   22.85
   0  -3  -6   77.67   22.35
   0   3   7  882.97  108.93
   0  -3  -7  831.10  116.39
   0  -3  -7  805.47  116.58
   0   3   8  670.83   84.53
   0  -3  -8  542.85   90.45
   0  -3  -8  589.39  122.83
   0   3   9  226.69   39.04
   0  -3  -9  238.15   46.87
   0  -3  -9  221.87   76.82
   0   3  10   88.71   20.15
   0  -3 -10  124.01   28.21
   0  -3 -10  109.52   31.80
   0  -3 -11   56.94   21.62
   0  -3 -11   58.88   16.00
   0   4 -11  211.77   40.19
   0   4 -10    1.91   23.51
   0   4 -10   78.29   17.77
   0  -4  10   93.75   20.08
   0  -4  10   83.96   16.47
   0   4  -9  219.67   37.46
   0  -4   9  226.84   35.29
   0  -4   9  229.89   38.64
   0   4  -8  820.89  110.40
   0  -4   8  909.49  138.20
   0   4  -7  899.83  110.18
   0  -4   7  807.93   99.58
   0  -4   7  770.32   98.57
   0   4  -6   51.29   17.77
   0  -4   6   78.42   17.05
   0  -4   6   74.32   15.75
   0   4  -5  848.75   98.15
   0  -4   5  917.43  119.17
   0  -4   5  949.32   99.44
   0   4  -4 1308.33  153.23
   0   4  -4 1690.94  194.93
   0   4  -4 1866.15  205.41
   0  -4   4 1508.00  165.37
   0  -4   4 1712.76  175.18
   0  -4   4 1687.93  182.16
   0  -4   4 1533.58  172.75
   0   4  -3 1593.22  171.18
   0   4  -3 1655.15  175.13
   0   4  -3 1433.42  131.88
   0   4  -3 1122.17  126.82
   0  -4   3 1315.12  142.21
   0  -4   3 1297.76  141.83
   0  -4   3 1532.98  145.21
   0  -4   3 1513.19  156.14
   0   4  -2 3081.25  410.61
   0   4  -2 3710.11  462.05
   0   4  -2 4062.75  502.72
   0   4  -2 4563.26  588.98
   0   4  -2 4061.21  524.23
   0  -4   2 4352.31  539.91
   0  -4   2 4006.82  510.12
   0  -4   2 3494.18  460.77
   0  -4   2 3524.85  486.27
   0   4  -1  970.93   85.93
   0   4  -1 1035.44   99.23
   0   4  -1  778.69   92.65
   0   4  -1 1045.59  111.65
   0   4  -1 1006.65   88.30
   0  -4   1 1103.42  106.75
   0  -4   1  956.86  103.59
   0  -4   1  848.43   93.93
   0  -4   1  899.68   77.68
   0  -4   1  910.63   90.50
   0   4   0  245.61   23.96
   0   4   0  280.32   26.03
   0   4   0  284.63   34.29
   0   4   0  286.99   25.38
   0   4   0  272.40   26.39
   0   4   0  267.45   25.77
   0  -4   0  272.91   32.13
   0  -4   0  285.28   34.03
   0  -4   0  273.89   25.02
   0  -4   0  331.02   47.76
   0   4   1  190.33   18.76
   0   4   1  165.10   15.11
   0   4   1  189.31   19.74
   0   4   1  232.59   39.83
   0   4   1  188.37   32.56
   0  -4  -1  186.24   21.27
   0  -4  -1  184.44   17.48
   0  -4  -1  161.77   23.58
   0  -4  -1  187.93   24.69
   0   4   2 3606.65  447.82
   0   4   2 3201.50  385.17
   0   4   2 3400.54  423.31
   0   4   2 2767.90  308.11
   0   4   2 2587.97  294.55
   0  -4  -2 3088.82  395.73
   0  -4  -2 3372.22  418.55
   0  -4  -2 3358.99  413.24
   0  -4  -2 2952.34  343.82
   0   4   3 2664.29  293.61
   0   4   3 2862.59  347.37
   0   4   3 2579.27  312.98
   0  -4  -3 2189.61  260.48
   0  -4  -3 2632.34  327.13
   0  -4  -3 2401.22  308.65
   0   4   4  349.39   45.58
   0   4   4  323.63   43.71
   0  -4  -4  373.20   47.48
   0  -4  -4  337.78   48.18
   0   4   5 1338.06  161.45
   0  -4  -5 1176.24  159.89
   0  -4  -5 1292.14  163.46
   0   4   6  210.80   36.00
   0  -4  -6  194.95   57.53
   0  -4  -6  176.86   38.52
   0   4   7 1052.55  136.44
   0  -4  -7  909.89  127.94
   0  -4  -7  946.32  143.46
   0   4   8  649.65   89.62
   0  -4  -8  580.29   89.06
   0  -4  -8  514.53   93.81
   0   4   9  209.15   37.23
   0  -4  -9  192.65   43.42
   0  -4  -9  175.47   44.50
   0   4  10   -0.33    4.40
   0  -4 -10    1.87    5.98
   0  -4 -10    2.69    6.14
   0   5 -11  230.11   42.22
   0   5 -10  233.08   40.53
   0  -5  10  349.44   42.11
   0  -5  10  290.64   44.69
   0   5  -9  142.49   31.12
   0  -5   9  147.87   28.12
   0  -5   9  125.56   28.78
   0   5  -8  167.61   35.38
   0  -5   8  179.75   32.87
   0  -5   8  162.04   30.13
   0   5  -7  130.42   30.07
   0  -5   7  139.09   26.20
   0  -5   7  142.60   28.09
   0   5  -6  811.13  101.71
   0  -5   6  783.48   97.14
   0  -5   6  790.14  114.68
   0   5  -5  111.41   20.82
   0  -5   5   85.34   29.69
   0  -5   5   76.41   17.48
   0   5  -4  212.26   40.69
   0  -5   4  222.74   30.24
   0  -5   4  194.93   27.00
   0   5  -3  630.93   70.25
   0   5  -3  676.57   77.01
   0   5  -3  520.03   47.10
   0   5  -3  461.73   56.24
   0  -5   3  690.22   68.25
   0  -5   3  600.09   64.69
   0  -5   3  652.57   68.28
   0  -5   3  715.33   71.17
   0   5  -2  514.49   54.37
   0   5  -2  445.26   50.20
   0   5  -2  590.46   62.67
   0   5  -2  624.21   70.79
   0  -5   2  676.03   66.36
   0  -5   2  555.76   61.40
   0  -5   2  603.05   63.27
   0   5  -1  366.63   44.11
   0   5  -1  318.42   28.60
   0   5  -1  292.58   25.29
   0   5  -1  287.04   28.56
   0  -5   1  233.81   28.79
   0  -5   1  266.69   27.96
   0  -5   1  223.93   20.54
   0  -5   1  270.73   41.71
   0   5   0   60.32    8.48
   0   5   0   32.22    8.44
   0   5   0   37.61   10.60
   0  -5   0   69.43    9.22
   0  -5   0   54.31   10.13
   0  -5   0   69.19   14.65
   0  -5   0   77.86   12.43
   0   5   1   58.25    8.17
   0   5   1   66.59    9.39
   0   5   1   78.60   17.01
   0   5   1   56.81    7.99
   0   5   1   73.82   13.34
   0  -5  -1   81.88   13.25
   0  -5  -1   70.13    9.94
   0  -5  -1   64.90   14.49
   0  -5  -1   61.62   15.53
   0   5   2   80.32   10.66
   0   5   2  101.71   17.42
   0   5   2  101.37   20.62
   0  -5  -2   90.54   16.55
   0  -5  -2   77.38   17.69
   0  -5  -2   85.39   19.32
   0  -5  -2   67.23   10.13
   0   5   3  567.39   88.78
   0  -5  -3  561.31   67.30
   0  -5  -3  464.80   83.47
   0   5   4  741.59   90.31
   0  -5  -4  586.23   83.83
   0  -5  -4  647.53   83.39
   0   5   5  340.12   49.98
   0  -5  -5  248.13   43.96
   0  -5  -5  206.09   44.07
   0   5   6  330.65   85.21
   0  -5  -6  451.63   72.94
   0  -5  -6  341.39   59.11
   0   5   7  311.58   53.84
   0  -5  -7  259.74   56.97
   0  -5  -7  334.86   57.33
   0   5   8  296.24   50.58
   0  -5  -8  300.20   55.75
   0  -5  -8  233.53   53.50
   0   5   9   14.90   11.94
   0  -5  -9   11.54   12.54
   0  -5  -9   16.88   13.72
   0   6 -10   16.37   13.91
   0  -6  10   46.23   12.62
   0  -6  10   38.46   14.04
   0   6  -9   70.80   24.68
   0  -6   9   82.39   22.15
   0  -6   9   92.65   22.20
   0   6  -8   44.60   18.96
   0  -6   8   41.64   17.16
   0  -6   8   36.69   15.31
   0   6  -7   21.37   24.97
   0  -6   7   29.06   14.29
   0  -6   7   28.97   12.73
   0   6  -6   32.40   15.08
   0  -6   6   58.91   22.20
   0  -6   6   22.56   14.18
   0   6  -5  508.07   62.41
   0  -6   5  419.49   76.90
   0  -6   5  370.76   51.52
   0   6  -4  119.79   21.46
   0  -6   4  104.35   21.92
   0  -6   4   79.36   18.62
   0   6  -3  352.50   60.22
   0  -6   3  385.39   49.14
   0  -6   3  450.33   54.29
   0   6  -2  441.61   50.56
   0   6  -2  425.00   42.31
   0  -6   2  400.12   45.89
   0  -6   2  422.53   53.90
   0  -6   2  441.76   52.48
   0   6  -1 2336.79  289.35
   0   6  -1 2316.21  277.22
   0   6  -1 2156.65  265.19
   0  -6   1 2401.52  300.63
   0  -6   1 2366.83  288.05
   0   6   0  368.19   42.41
   0  -6   0  380.92   44.14
   0  -6   0  373.63   38.55
   0   6   1 1407.65  160.84
   0  -6  -1 1127.21  131.59
   0  -6  -1 1421.58  155.35
   0  -6  -1 1341.16  192.47
   0   6   2  189.68   29.69
   0  -6  -2  163.42   33.23
   0  -6  -2  191.64   40.53
   0   6   3  223.43   35.49
   0  -6  -3  200.97   34.95
   0  -6  -3  151.63   35.02
   0   6   4  239.71   38.38
   0  -6  -4  125.28   35.08
   0  -6  -4  174.53   35.86
   0   6   5  399.21   62.74
   0  -6  -5  355.72   60.43
   0   6   6  604.64   85.60
   0  -6  -6  417.11   74.76
   0  -6  -6  523.52   80.57
   0   6   7    7.34   12.19
   0  -6  -7    8.34   11.43
   0  -6  -7   14.49   12.33
   0   6   8    7.00    9.86
   0  -6  -8    3.82    9.06
   0  -6  -8    6.48    9.97
   0   6   9  217.72   33.92
   0  -6  -9  199.16   37.85
   0  -6  -9  139.55   32.04
   0   7  -9   15.99   10.80
   0  -7   9    9.32    9.59
   0  -7   9    7.15    8.82
   0   7  -8   28.74   18.49
   0  -7   8   37.24   14.55
   0  -7   8   41.92   17.04
   0   7  -7   28.70   17.76
   0  -7   7   33.25   13.86
   0  -7   7   40.12   16.22
   0   7  -6   96.04   26.92
   0  -7   6   73.44   33.80
   0  -7   6  104.30   24.79
   0   7  -5   57.03   19.16
   0  -7   5   51.47   17.62
   0  -7   5   58.92   18.32
   0   7  -4 1290.64  164.27
   0  -7   4 1432.08  177.79
   0  -7   4 1159.68  149.18
   0   7  -3   73.77   17.43
   0  -7   3   62.42   18.83
   0  -7   3   65.42   19.24
   0   7  -2  331.28   45.41
   0  -7   2  400.75   51.02
   0  -7   2  320.17   51.50
   0   7  -1  433.58   65.39
   0  -7   1  780.33  111.98
   0  -7   1  497.90   62.80
   0   7   0  930.45  111.78
   0  -7   0  873.46  123.00
   0  -7   0 1112.37  147.19
   0   7   1  128.19   24.16
   0  -7  -1  128.66   30.10
   0   7   2   37.74   25.50
   0  -7  -2   58.02   20.05
   0  -7  -2   64.00   15.39
   0   7   3  203.10   35.64
   0  -7  -3  163.63   31.83
   0   7   4   90.42   24.02
   0  -7  -4   66.05   25.42
   0  -7  -4   73.83   21.85
   0   7   5  147.41   32.04
   0  -7  -5  105.97   28.48
   0  -7  -5  100.07   31.42
   0   7   6  198.10   41.11
   0  -7  -6  204.33   38.11
   0  -7  -6  150.08   38.96
   0   7   7   20.42   21.00
   0  -7  -7   16.92   12.89
   0  -7  -7   17.66   13.26
   0   8  -8  105.26   24.92
   0  -8   8   86.19   22.77
   0  -8   8   71.23   20.24
   0   8  -7   33.04   16.26
   0  -8   7   26.69   12.94
   0  -8   7   35.94   15.09
   0   8  -6   98.15   25.27
   0  -8   6   81.40   21.39
   0  -8   6   94.63   24.14
   0   8  -5  169.17   48.63
   0  -8   5  149.66   30.59
   0  -8   5  176.52   33.36
   0   8  -4   41.44   15.33
   0  -8   4   43.82   16.15
   0  -8   4   35.60   15.27
   0   8  -3  848.92  113.49
   0  -8   3  876.13  139.23
   0  -8   3 1119.75  136.41
   0  -8   2  350.91   60.49
   0  -8   2  440.47   61.32
   0  -8   1  117.06   23.96
   0  -8   1  151.40   35.74
   0   8   0  140.44   34.41
   0  -8   0  165.68   37.22
   0   8   1  622.84   78.57
   0  -8  -1  670.99   97.34
   0   8   2  124.62   25.63
   0  -8  -2  127.90   32.18
   0   8   3    1.15    4.51
   0  -8  -3    0.20    5.68
   0   8   4   54.22   17.14
   0  -8  -4   46.60   19.81
   0  -8  -4   49.01   14.78
   0   8   5  203.30   34.85
   0  -8  -5  169.31   36.64
   0  -8  -5  198.57   32.25
   0   8   6    8.67    9.54
   0  -8  -6   13.15    9.80
   0  -8  -6   11.03   13.49
   0   9  -6   56.87   19.50
   0  -9   6   88.87   20.23
   0  -9   6   74.77   18.53
   0   9  -5   68.34   19.29
   0  -9   5  113.46   21.97
   0  -9   5   85.12   20.26
   0   9  -4  168.31   35.82
   0  -9   4  319.51   42.14
   0  -9   4  281.41   41.72
   0  -9   3  313.64   48.80
   0  -9   3  344.06   47.32
   0  -9   2  125.35   23.91
   0  -9   2  139.13   44.64
   0  -9   1  371.99   59.62
   0  -9   0  140.31   33.78
   0   9   1  122.24   23.51
   0  -9  -1  228.80   36.16
   0   9   2  126.47   24.72
   0  -9  -2  214.96   36.02
   0   9   3   23.96   16.28
   0  -9  -3   32.63   22.84
   0   9   4    7.88   12.59
   0  -9  -4   14.16   15.75
   0 -10   3  150.11   26.68
   0 -10   2  149.52   28.59
   0 -10   1   46.91   17.02
   0 -10   0   71.00   28.26
   0 -10  -1   87.98   20.61
   1 -10  -1   37.49   15.19
   1 -10   0   82.97   21.96
   1 -10   1  203.98   34.30
   1 -10   2   -4.74    7.22
   1 -10   3  186.13   30.59
   1  -9  -5   11.57   18.38
   1  -9  -4  360.81   85.36
   1  -9  -3   37.89   21.45
  -1   9   3   11.70   11.12
   1  -9  -2  119.76   30.51
   1  -9  -1   39.33   18.39
   1  -9   2  438.52   61.37
   1  -9   3   80.20   16.10
   1  -9   3   81.83   20.65
  -1   9  -3   57.56   17.32
   1  -9   4  102.83   30.39
   1  -9   4   89.29   22.65
  -1   9  -4   86.34   32.55
   1  -9   5   -0.07    4.30
   1  -9   5    0.31    4.81
  -1   9  -5    3.12    4.75
   1  -9   6  114.62   24.24
   1  -9   6  129.57   24.03
  -1   9  -6  132.26   28.36
   1  -8  -6   61.66   22.06
   1  -8  -6   73.51   16.72
  -1   8   6   57.69   18.98
   1  -8  -5   42.95   21.55
   1  -8  -5   46.55   19.61
  -1   8   5   44.60   14.43
   1  -8  -4   13.77    7.26
   1  -8  -4   16.75   11.53
  -1   8   4    1.04    8.05
   1  -8  -3  233.64   43.86
   1  -8  -3  197.16   28.36
  -1   8   3  175.62   30.29
   1  -8  -2  104.88   26.22
  -1   8   2   61.20   16.22
   1  -8  -1   40.67   18.91
   1  -8   2  157.92   33.07
   1  -8   2  166.28   27.67
  -1   8  -2  187.61   32.08
   1  -8   3  367.76   50.86
   1  -8   3  315.73   48.98
  -1   8  -3  432.55   59.14
   1  -8   4  126.95   29.35
   1  -8   4  149.26   28.49
  -1   8  -4  186.46   32.81
   1  -8   5   25.36   12.42
   1  -8   5   19.44   11.90
  -1   8  -5   14.92   13.09
   1  -8   6   33.00   14.54
   1  -8   6   30.92   14.12
  -1   8  -6   18.46   26.02
   1  -8   7   81.93   21.18
   1  -8   7  106.52   23.33
  -1   8  -7   73.92   25.07
   1  -7  -8  320.56   50.23
   1  -7  -8  234.10   71.04
  -1   7   8  252.48   71.98
   1  -7  -7   27.73   16.96
   1  -7  -7   37.84   17.14
  -1   7   7   19.93   16.82
   1  -7  -6   56.62   23.18
   1  -7  -6   52.07   23.72
  -1   7   6   80.31   23.33
   1  -7  -5   72.66   27.05
   1  -7  -5   97.66   24.77
  -1   7   5   67.08   23.40
   1  -7  -4 1073.56  166.23
   1  -7  -4 1262.44  166.81
  -1   7   4 1272.89  167.11
   1  -7  -3  607.29  124.50
   1  -7  -3  721.97   93.60
  -1   7   3  757.59   95.70
   1  -7  -2  896.20  124.11
   1  -7  -2  896.07  107.36
  -1   7   2  883.96  107.79
   1  -7  -1 1014.20  134.41
   1  -7  -1  947.08  108.06
  -1   7   1 1018.19  115.29
   1  -7   0  119.71   29.42
   1  -7   1  448.99   57.19
   1  -7   1  465.60   62.20
  -1   7  -1  461.62   58.06
   1  -7   2   34.76   14.82
   1  -7   2   47.35   13.59
  -1   7  -2   40.39   13.99
   1  -7   3  101.45   22.89
   1  -7   3  121.69   22.23
  -1   7  -3   80.15   34.48
   1  -7   4  223.85   36.10
   1  -7   4  206.71   35.28
  -1   7  -4  301.22   42.43
   1  -7   5   63.32   18.71
   1  -7   5   56.55   17.89
  -1   7  -5   52.75   19.59
   1  -7   6  157.66   49.60
   1  -7   6  137.84   29.96
  -1   7  -6  175.70   35.65
   1  -7   7  110.87   26.66
   1  -7   7   83.99   23.33
  -1   7  -7  110.22   44.82
   1  -7   8   93.41   23.01
   1  -7   8   59.64   20.93
  -1   7  -8   90.45   24.97
   1  -7   9   70.94   17.70
   1  -7   9   83.65   18.94
  -1   7  -9   54.82   20.15
   1  -6  -9  251.05   46.26
   1  -6  -9  178.07   40.43
  -1   6   9  241.54   44.21
   1  -6  -8   53.99   21.92
   1  -6  -8   33.64   20.78
  -1   6   8   49.67   21.27
   1  -6  -7  583.05   89.19
   1  -6  -7  467.89   81.93
  -1   6   7  606.65   87.82
   1  -6  -6  399.29   72.45
   1  -6  -6  529.72  104.47
  -1   6   6  458.72   71.17
   1  -6  -5  166.76   50.38
   1  -6  -5  122.94   32.86
  -1   6   5  155.96   49.01
   1  -6  -4  347.03   58.40
   1  -6  -4  421.44   61.12
  -1   6   4  415.84   58.64
   1  -6  -3  607.38   79.82
   1  -6  -3  515.55   80.08
  -1   6   3  709.50   83.03
   1  -6  -2 1526.53  203.80
   1  -6  -2 1640.05  199.53
  -1   6   2 1637.99  195.51
   1  -6  -1  636.29   69.47
   1  -6  -1  554.16   79.93
  -1   6   1  625.42   66.95
  -1   6   1  641.81   69.06
  -1   6   1  648.64   68.10
   1  -6   0 1922.64  225.56
   1  -6   0 1492.27  177.63
   1  -6   0 1661.10  187.51
  -1   6   0 1794.15  198.25
  -1   6   0 1847.92  211.39
  -1   6   0 2067.91  256.76
   1  -6   1  262.43   32.60
   1  -6   1  253.40   27.27
  -1   6  -1  316.00   37.37
  -1   6  -1  256.05   29.86
   1  -6   2  242.64   32.43
   1  -6   2  224.96   33.56
  -1   6  -2  231.04   33.97
   1  -6   3 1689.18  226.43
   1  -6   3 1533.85  190.90
  -1   6  -3 1752.52  215.04
   1  -6   4  215.03   31.63
   1  -6   4  227.18   32.49
  -1   6  -4  187.41   34.04
   1  -6   5  275.25   41.51
   1  -6   5  261.49   40.07
  -1   6  -5  313.88   46.03
   1  -6   6  213.32   36.14
   1  -6   6  187.34   33.14
  -1   6  -6  189.28   37.00
   1  -6   7  140.58   30.61
   1  -6   7  170.96   33.91
  -1   6  -7  175.73   36.53
   1  -6   8  466.99   67.10
   1  -6   8  433.77   87.04
  -1   6  -8  474.39   71.75
   1  -6   9  155.91   40.05
   1  -6   9   90.10   23.32
  -1   6  -9   98.56   25.13
   1  -5 -10    1.85    8.45
   1  -5 -10    5.24    8.25
  -1   5  10    4.88    7.77
   1  -5  -9  178.47   38.93
   1  -5  -9  141.23   59.91
  -1   5   9  179.41   37.75
   1  -5  -8  122.49   37.42
   1  -5  -8  162.88   39.95
  -1   5   8  149.69   37.19
   1  -5  -7   69.05   23.69
   1  -5  -7   38.82   22.09
  -1   5   7   32.66   20.69
   1  -5  -6  700.85  101.50
   1  -5  -6  631.88  104.71
  -1   5   6  737.38  101.46
   1  -5  -5  931.79  122.75
   1  -5  -5  843.55  120.81
  -1   5   5  920.14  116.96
   1  -5  -4  183.82   51.99
   1  -5  -4  165.76   32.39
  -1   5   4  194.01   31.61
   1  -5  -3  717.48   86.26
   1  -5  -3  577.42   78.98
  -1   5   3  742.02   82.57
   1  -5  -2  331.09   45.11
  -1   5   2  291.45   29.26
  -1   5   2  387.25   48.19
  -1   5   2  308.04   36.51
  -1   5   2  391.64   41.55
   1  -5  -1 3508.55  472.62
   1  -5  -1 3637.24  466.73
   1  -5  -1 2678.46  347.72
   1  -5  -1 3201.50  404.83
  -1   5   1 4105.58  571.06
  -1   5   1 3721.99  466.46
  -1   5   1 3358.27  423.18
  -1   5   1 3544.47  460.25
  -1   5   1 3558.31  447.20
   1  -5   0  263.98   25.64
   1  -5   0  279.88   36.96
   1  -5   0  237.10   35.85
   1  -5   0  295.86   38.94
   1  -5   0  232.64   26.07
  -1   5   0  308.75   32.65
  -1   5   0  394.24   49.93
  -1   5   0  301.08   31.14
  -1   5   0  334.60   34.17
  -1   5   0  303.60   27.87
   1  -5   1  175.34   22.75
   1  -5   1  224.10   32.22
   1  -5   1  167.63   18.84
   1  -5   1  178.84   19.96
   1  -5   1  190.59   30.20
  -1   5  -1  246.01   20.58
  -1   5  -1  291.77   31.04
  -1   5  -1  259.65   29.02
  -1   5  -1  272.77   33.38
  -1   5  -1  364.04   53.71
   1  -5   2  167.94   16.58
   1  -5   2  164.78   24.21
   1  -5   2  219.47   24.20
   1  -5   2  175.98   23.09
  -1   5  -2  220.39   41.81
  -1   5  -2  226.69   31.15
  -1   5  -2  177.53   37.52
  -1   5  -2  207.76   22.76
   1  -5   3  465.82   47.71
   1  -5   3  357.99   43.18
   1  -5   3  354.83   42.72
  -1   5  -3  403.36   48.17
   1  -5   4 2205.33  271.15
   1  -5   4 2149.14  269.57
  -1   5  -4 2430.57  303.66
   1  -5   5  373.40   47.75
   1  -5   5  378.76   48.50
  -1   5  -5  351.86   69.13
   1  -5   6  157.73   28.85
   1  -5   6  147.55   27.06
  -1   5  -6  138.74   29.48
   1  -5   7   35.56   14.36
  -1   5  -7   38.22   16.24
   1  -5   8  239.00   41.59
   1  -5   8  226.21   39.85
  -1   5  -8  269.45   43.49
   1  -5   9  379.18   57.41
   1  -5   9  432.89   81.54
  -1   5  -9  397.35   58.58
   1  -5  10   61.98   16.42
  -1   5 -10   65.96   22.02
   1  -4 -10  492.58   84.27
   1  -4 -10  546.31   76.12
  -1   4  10  500.90   70.14
   1  -4  -9   11.07   17.21
   1  -4  -9   24.44   15.85
  -1   4   9   26.50   14.87
   1  -4  -8  574.14  101.96
   1  -4  -8  659.94   97.40
  -1   4   8  758.68  100.91
   1  -4  -7  326.68   57.65
   1  -4  -7  264.60   48.58
  -1   4   7  239.40   43.52
   1  -4  -6  518.08   69.36
   1  -4  -6  467.64   72.32
  -1   4   6  460.27   64.01
   1  -4  -5  180.24   32.25
   1  -4  -5  190.38   30.70
  -1   4   5  134.66   27.00
   1  -4  -4  754.15   79.49
   1  -4  -4  815.35   92.69
   1  -4  -4  806.62   96.09
   1  -4  -4  797.42   81.63
  -1   4   4  688.12   80.39
   1  -4  -3 1429.76  160.01
   1  -4  -3 1337.77  156.15
   1  -4  -3 1327.26  137.45
  -1   4   3 1381.94  149.49
  -1   4   3 1447.50  160.98
  -1   4   3 1236.87  118.26
   1  -4  -2 2048.12  224.69
   1  -4  -2 1404.74  140.93
   1  -4  -2 1513.73  149.76
   1  -4  -2 1977.74  210.26
   1  -4  -2 1687.94  220.23
  -1   4   2 1911.95  210.71
  -1   4   2 1779.41  178.86
  -1   4   2 1916.97  205.36
  -1   4   2 1927.29  211.84
   1  -4  -1  503.51   49.52
   1  -4  -1  542.39   53.65
   1  -4  -1  524.43   42.06
   1  -4  -1  513.33   57.28
   1  -4  -1  455.75   41.19
   1  -4  -1  579.57   59.31
  -1   4   1  644.35   63.63
  -1   4   1  606.68   60.81
  -1   4   1  638.32   60.66
  -1   4   1  661.71   57.31
   1  -4   0  547.49   50.93
   1  -4   0  454.35   41.53
   1  -4   0  487.42   43.10
   1  -4   0  544.55   68.82
   1  -4   0  439.93   40.11
  -1   4   0  407.99   36.45
  -1   4   0  516.95   49.75
  -1   4   0  413.73   41.92
  -1   4   0  496.63   54.31
  -1   4   0  454.97   46.31
   1  -4   1 1463.03  138.07
   1  -4   1 1243.35  130.83
   1  -4   1 1469.36  142.48
   1  -4   1 1486.65  160.41
   1  -4   1 1689.66  163.25
  -1   4  -1 1424.98  130.84
  -1   4  -1 1652.33  175.61
  -1   4  -1 1343.37  145.33
  -1   4  -1 1605.60  174.38
  -1   4  -1 1623.00  162.54
   1  -4   2 1071.70  115.73
   1  -4   2 1092.02  102.56
   1  -4   2 1218.84  114.77
   1  -4   2 1183.73  126.90
   1  -4   2 1421.46  155.39
  -1   4  -2 1619.98  159.20
  -1   4  -2 1408.95  148.74
  -1   4  -2 1668.27  170.27
  -1   4  -2 1811.07  183.37
   1  -4   3  789.87   68.31
   1  -4   3  880.36   86.06
   1  -4   3  739.73   78.01
   1  -4   3  933.82   89.09
  -1   4  -3  784.21   88.63
  -1   4  -3  917.81   97.76
  -1   4  -3  941.51   83.71
  -1   4  -3  736.69   81.52
   1  -4   4 1269.79  146.16
   1  -4   4 1307.29  145.11
   1  -4   4 1291.04  131.93
   1  -4   4 1562.89  167.04
  -1   4  -4 1312.67  152.60
  -1   4  -4 1731.68  190.66
  -1   4  -4 1401.44  162.40
  -1   4  -4 1811.54  176.24
   1  -4   5  291.11   39.23
   1  -4   5  304.71   38.51
  -1   4  -5  358.99   56.42
   1  -4   6 1794.00  225.78
   1  -4   6 1851.55  228.07
  -1   4  -6 1888.30  237.16
   1  -4   7  400.07   55.10
   1  -4   7  429.29   58.61
  -1   4  -7  450.91   60.91
   1  -4   8    1.98    7.39
   1  -4   8    3.90    7.67
  -1   4  -8    9.66    7.64
   1  -4   9  126.04   27.27
   1  -4   9  128.17   39.28
  -1   4  -9  129.27   25.69
   1  -4  10  338.20   40.24
  -1   4 -10  139.30   40.81
  -1   4 -11   26.73   13.35
   1  -3 -11   45.99   21.56
   1  -3 -11   46.57   14.06
  -1   3  11   40.99   12.80
   1  -3 -10   57.89   20.53
   1  -3 -10   50.70   25.35
  -1   3  10   57.21   18.59
   1  -3  -9  568.85   81.65
   1  -3  -9  518.47  124.51
  -1   3   9  580.19   81.29
   1  -3  -8  110.15   29.25
   1  -3  -8  110.56   26.43
  -1   3   8   82.20   25.39
   1  -3  -7 1066.11  139.68
   1  -3  -7 1077.10  147.53
  -1   3   7 1246.27  164.87
   1  -3  -6  220.74   51.72
   1  -3  -6  207.10   35.55
  -1   3   6  211.48   37.45
   1  -3  -5  948.77   98.88
   1  -3  -5  993.98  115.26
   1  -3  -5  994.08  115.39
   1  -3  -5  945.07   98.01
  -1   3   5  944.25  102.44
  -1   3   5 1033.30  116.08
   1  -3  -4 1480.43  154.34
   1  -3  -4 1570.21  160.66
   1  -3  -4 1545.76  175.14
   1  -3  -4 1553.97  197.77
  -1   3   4 1503.31  143.00
  -1   3   4 1421.36  159.07
  -1   3   4 1283.91  144.06
   1  -3  -3 6307.73  979.68
   1  -3  -3 5908.96  817.94
   1  -3  -3 6959.81 1074.94
   1  -3  -3 7460.88 1089.69
   1  -3  -3 6234.42  939.86
  -1   3   3 6790.21  979.67
  -1   3   3 6868.06 1039.91
   1  -3  -2  447.36   46.40
   1  -3  -2  423.07   32.72
   1  -3  -2  458.55   42.47
   1  -3  -2  454.21   48.06
  -1   3   2  515.23   39.47
  -1   3   2  497.26   49.56
  -1   3   2  521.22   46.45
  -1   3   2  491.90   46.88
   1  -3  -1 3043.88  364.79
   1  -3  -1 3194.48  341.51
   1  -3  -1 2754.56  320.64
   1  -3  -1 2642.41  294.74
   1  -3  -1 3447.83  405.26
   1  -3  -1 3174.02  374.23
  -1   3   1 3070.75  367.56
  -1   3   1 3202.72  381.60
  -1   3   1 3472.50  411.58
  -1   3   1 3176.45  361.56
   1  -3   0 1638.07  158.79
   1  -3   0 1340.66  129.99
   1  -3   0 1661.78  169.92
   1  -3   0 1629.04  149.72
   1  -3   0 1630.31  167.22
   1  -3   0 1361.93  129.13
  -1   3   0 1620.71  148.80
  -1   3   0 1935.29  192.07
  -1   3   0 1738.54  178.38
  -1   3   0 1596.05  159.28
   1  -3   1 5435.01  699.75
   1  -3   1 5184.25  691.17
   1  -3   1 4101.03  518.60
   1  -3   1 4405.68  587.90
   1  -3   1 5121.81  663.36
  -1   3  -1 5078.08  686.97
  -1   3  -1 4767.81  588.83
  -1   3  -1 6218.64  807.71
  -1   3  -1 5917.09  789.68
  -1   3  -1 4282.82  581.95
   1  -3   2 3836.06  440.42
   1  -3   2 3672.07  468.06
   1  -3   2 3880.77  471.67
   1  -3   2 3463.08  444.29
   1  -3   2 4365.39  539.48
  -1   3  -2 4582.04  579.61
  -1   3  -2 3730.89  483.78
  -1   3  -2 3748.31  490.04
  -1   3  -2 5398.14  664.36
   1  -3   3 6327.77  876.09
   1  -3   3 5059.44  731.94
   1  -3   3 4768.14  709.44
   1  -3   3 5077.91  689.57
   1  -3   3 5064.59  635.59
  -1   3  -3 5190.05  748.03
  -1   3  -3 6777.32  949.61
  -1   3  -3 4978.70  721.24
  -1   3  -3 6881.78  925.10
   1  -3   4 2375.59  260.85
   1  -3   4 2038.33  228.54
   1  -3   4 1992.17  228.57
   1  -3   4 1870.65  196.47
  -1   3  -4 1904.43  222.73
  -1   3  -4 2447.90  253.69
  -1   3  -4 2139.00  240.90
   1  -3   5 2889.95  341.51
   1  -3   5 2479.39  297.74
   1  -3   5 2484.31  304.37
   1  -3   5 2243.01  268.77
  -1   3  -5 2670.21  304.62
  -1   3  -5 2241.99  302.50
  -1   3  -5 2501.14  306.38
   1  -3   6  317.03   38.57
   1  -3   6  314.35   40.67
  -1   3  -6  248.00   35.91
   1  -3   7  685.11   84.51
   1  -3   7  690.39  106.64
  -1   3  -7  755.90   89.75
   1  -3   8  219.77   35.56
  -1   3  -8  195.69   33.55
   1  -3   9   84.87   19.51
   1  -3   9   83.39   21.45
  -1   3  -9   71.53   17.28
   1  -3  10   37.48   12.70
  -1   3 -10   33.20   17.43
   1  -3  11  113.66   16.45
  -1   3 -11  118.31   26.79
   1  -2 -11   24.37    9.32
   1  -2 -11   32.82   17.13
  -1   2  11   -0.04   15.04
   1  -2 -10   51.01   22.22
   1  -2 -10   44.32   16.95
  -1   2  10   37.90   15.87
   1  -2  -9  158.00   31.49
   1  -2  -9  154.01   37.76
  -1   2   9  150.75   56.03
   1  -2  -8  558.12   82.93
   1  -2  -8  549.59   95.63
  -1   2   8  583.27   90.45
   1  -2  -7  654.14   83.50
   1  -2  -7  668.59   86.57
  -1   2   7  651.49   91.36
   1  -2  -6   72.86   16.94
   1  -2  -6   67.87   12.07
   1  -2  -6   68.38   16.96
   1  -2  -6   71.17   14.27
  -1   2   6   57.14   14.08
  -1   2   6   63.49   18.79
   1  -2  -5  828.58   96.75
   1  -2  -5  778.07   88.62
   1  -2  -5  835.12   74.18
   1  -2  -5  806.16   80.46
   1  -2  -5  808.71   90.91
  -1   2   5  818.67   83.32
  -1   2   5  997.20  102.34
  -1   2   5  921.78   85.97
   1  -2  -4  760.17   66.03
   1  -2  -4  746.79   68.67
   1  -2  -4  761.53   84.14
   1  -2  -4  764.28   76.33
   1  -2  -4  652.84   46.17
   1  -2  -4  665.52   70.00
  -1   2   4  618.59   78.20
  -1   2   4  563.41   57.89
  -1   2   4  699.91   57.67
   1  -2  -3 1636.97  176.10
   1  -2  -3 2059.38  192.25
   1  -2  -3 1784.02  148.88
   1  -2  -3 1859.04  180.07
   1  -2  -3 1886.55  194.46
  -1   2   3 1352.81  145.73
  -1   2   3 1745.18  183.65
  -1   2   3 1709.58  161.40
  -1   2   3 1700.60  171.62
   1  -2  -2 7157.23 1021.45
   1  -2  -2 6874.33 1013.81
   1  -2  -2 6079.98  910.02
   1  -2  -2 5928.65  800.35
  -1   2   2 7740.64 1120.88
  -1   2   2 7213.24 1068.49
  -1   2   2 6944.09 1020.56
  -1   2   2 7014.81  997.10
   1  -2  -1 3901.86  466.88
   1  -2  -1 3622.81  401.39
   1  -2  -1 3805.91  458.38
   1  -2  -1 3725.25  446.10
   1  -2  -1 3210.37  355.57
  -1   2   1 3699.65  430.37
  -1   2   1 3540.27  435.95
  -1   2   1 3713.54  445.20
  -1   2   1 4080.60  494.69
   1  -2   0  725.13   68.65
   1  -2   0  780.66   71.64
   1  -2   0  761.96   76.33
   1  -2   0  836.49   64.51
   1  -2   0  855.07   73.56
   1  -2   0  764.05   59.74
  -1   2   0  903.39   66.42
  -1   2   0  865.90   77.22
  -1   2   0  997.76   87.35
  -1   2   0 1066.67   86.64
   1  -2   1 5807.67  823.30
   1  -2   1 4584.71  593.02
   1  -2   1 6913.50  941.63
   1  -2   1 5958.69  814.43
   1  -2   1 6657.05  898.26
  -1   2  -1 5782.81  730.99
  -1   2  -1 7259.84  992.67
  -1   2  -1 6979.24  942.77
  -1   2  -1 5283.05  750.17
  -1   2  -1 7163.66  971.26
   1  -2   2 4559.76  576.77
   1  -2   2 3810.32  434.31
   1  -2   2 4943.37  622.09
   1  -2   2 4342.67  574.01
  -1   2  -2 4533.53  607.13
  -1   2  -2 5237.64  661.79
  -1   2  -2 4097.31  535.49
  -1   2  -2 4933.75  619.91
  -1   2  -2 5227.23  655.27
   1  -2   3  335.92   33.63
   1  -2   3  323.70   27.52
   1  -2   3  324.49   31.06
   1  -2   3  380.67   20.78
  -1   2  -3  446.92   39.16
  -1   2  -3  491.95   41.72
  -1   2  -3  516.22   36.47
  -1   2  -3  492.84   40.28
   1  -2   4  143.66   17.99
   1  -2   4  161.64   20.14
   1  -2   4  158.12   15.95
   1  -2   4  157.18    8.72
  -1   2  -4  172.39   20.49
  -1   2  -4  179.25   20.43
  -1   2  -4  174.04   19.43
  -1   2  -4  172.71   15.46
   1  -2   5  149.37   17.03
   1  -2   5  171.32   20.76
  -1   2  -5  170.42   17.16
  -1   2  -5  172.34   21.03
  -1   2  -5  181.66   23.56
  -1   2  -5  178.92   22.75
   1  -2   6 2778.87  339.29
   1  -2   6 2261.21  275.01
   1  -2   6 2815.56  362.67
  -1   2  -6 2559.62  304.13
  -1   2  -6 2719.12  334.63
   1  -2   7  819.39   90.91
   1  -2   7  790.90   87.10
  -1   2  -7  809.41   87.32
  -1   2  -7  549.95   72.11
   1  -2   8  858.15  104.42
   1  -2   8  847.42   98.61
  -1   2  -8  810.04   95.32
   1  -2   9  291.52   41.05
  -1   2  -9  294.65   50.92
   1  -2  10  175.96   38.70
  -1   2 -10  162.17   35.83
   1  -2  11   45.78    8.35
  -1   2 -11   78.14   31.26
   1  -1 -12   19.02   14.75
   1  -1 -11  370.19   66.81
   1  -1 -10  420.47   71.61
  -1   1  10  411.99   55.51
   1  -1  -9  364.13   54.32
   1  -1  -9  474.22   94.44
  -1   1   9  425.15   70.70
   1  -1  -8  429.04   59.39
   1  -1  -8  426.68   62.84
  -1   1   8  472.46   74.28
   1  -1  -7  538.43   66.10
   1  -1  -7  513.70   62.69
   1  -1  -7  442.75   58.87
   1  -1  -7  520.93   51.01
  -1   1   7  639.60   97.43
  -1   1   7  495.20   48.87
   1  -1  -6   15.18    9.20
   1  -1  -6   14.45   10.08
   1  -1  -6   14.91    7.02
   1  -1  -6   14.93   10.02
   1  -1  -6   17.54   10.14
  -1   1   6   52.27    8.49
  -1   1   6   53.61    7.18
  -1   1   6   57.60   10.43
   1  -1  -5  396.43   35.74
   1  -1  -5  352.70   42.08
   1  -1  -5  431.13   45.09
   1  -1  -5  435.12   36.90
   1  -1  -5  418.99   52.18
   1  -1  -5  364.42   28.62
  -1   1   5  463.80   31.92
  -1   1   5  457.70   42.53
  -1   1   5  474.54   44.72
  -1   1   5  434.72   36.34
   1  -1  -4  233.07   22.13
   1  -1  -4  187.45   24.39
   1  -1  -4  222.83   20.02
   1  -1  -4  223.21   24.97
   1  -1  -4  198.98   17.28
   1  -1  -4  250.62   21.20
  -1   1   4  256.89   24.49
  -1   1   4  283.37   16.50
  -1   1   4  284.11   25.78
  -1   1   4  270.92   21.16
   1  -1  -3 4793.46  575.59
   1  -1  -3 4469.63  554.07
   1  -1  -3 4326.64  538.25
   1  -1  -3 3512.24  457.47
   1  -1  -3 3685.63  417.97
  -1   1   3 4402.92  492.54
  -1   1   3 4511.37  543.92
  -1   1   3 4032.51  500.00
  -1   1   3 4811.98  586.37
   1  -1  -2  170.87   15.25
   1  -1  -2  128.79   17.98
   1  -1  -2  159.03   17.20
   1  -1  -2  159.53   17.47
  -1   1   2  266.92   21.87
   1  -1  -1 7044.47  986.53
   1  -1  -1 7444.99 1068.90
   1  -1  -1 7311.24 1034.44
   1  -1  -1 6474.94  852.24
   1  -1  -1 6877.54  908.96
   1  -1  -1 7104.25 1025.79
  -1   1   1 7694.83 1122.63
  -1   1   1 6919.48  996.14
  -1   1   1 7689.53 1085.85
   1  -1   015053.11 2861.77
   1  -1   012918.90 2531.83
   1  -1   016497.22 3167.54
   1  -1   018177.13 3492.84
  -1   1   014524.28 2834.85
  -1   1   016133.79 3000.34
  -1   1   019328.13 3709.75
  -1   1   018080.35 3420.76
  -1   1   016859.94 3246.87
   1  -1   1  501.40   37.62
   1  -1   1  444.11   38.02
   1  -1   1  547.77   37.45
   1  -1   1  538.40   39.38
  -1   1  -1  418.48   34.08
  -1   1  -1  409.05   34.88
  -1   1  -1  391.92   30.93
   1  -1   210353.41 1539.26
   1  -1   2 9836.42 1552.58
   1  -1   210245.48 1617.54
   1  -1   210260.52 1638.71
   1  -1   2 6672.60 1026.81
  -1   1  -210597.00 1675.29
  -1   1  -2 9301.92 1495.12
  -1   1  -210562.43 1690.31
   1  -1   3  999.54   81.52
   1  -1   3  649.89   53.94
   1  -1   3  945.31   78.22
   1  -1   3  974.59   95.45
   1  -1   3  921.89   62.30
  -1   1  -3  876.39   73.56
  -1   1  -3  840.07   76.67
  -1   1  -3  855.50   73.28
   1  -1   4 1588.33  161.52
   1  -1   4 2128.59  197.96
   1  -1   4 2183.89  227.13
   1  -1   4 2163.12  228.91
   1  -1   4 2146.35  238.74
  -1   1  -4 1988.83  230.11
  -1   1  -4 2178.60  224.33
  -1   1  -4 2280.23  247.40
   1  -1   5  132.00   15.67
   1  -1   5  139.50   13.70
   1  -1   5  157.30   19.13
   1  -1   5   98.55   12.76
   1  -1   5  136.34   17.50
  -1   1  -5  147.74   15.67
  -1   1  -5  147.10   15.69
  -1   1  -5  133.87   17.95
   1  -1   6   99.98   15.39
   1  -1   6  109.28   16.69
   1  -1   6   83.44   13.49
  -1   1  -6   87.63   16.14
  -1   1  -6   90.36   13.81
  -1   1  -6   91.77   19.71
   1  -1   7 1160.34  127.24
   1  -1   7 1084.47  117.87
  -1   1  -7  906.16  112.74
   1  -1   8  169.37   27.76
  -1   1  -8  158.56   30.27
  -1   1  -8  212.89   35.60
   1  -1   9  123.28   22.80
  -1   1  -9  126.93   31.31
   1  -1  10  402.43   47.45
  -1   1 -10  387.87   62.39
  -1   1 -11  431.80   69.00
   1   0 -12   33.97   17.70
   1   0 -11   52.57   22.90
   1   0 -10  461.24  101.42
   1   0  -9  214.63   40.26
  -1   0   9  235.43   44.54
   1   0  -8 1195.57  146.41
   1   0  -8  937.97  123.33
   1   0  -8 1182.83  129.40
  -1   0   8 1445.13  202.24
   1   0  -7  190.32   19.69
   1   0  -7  145.43   23.77
   1   0  -7  189.80   22.20
   1   0  -7  171.43   27.41
  -1   0   7  175.33   24.64
  -1   0   7  153.03   19.98
  -1   0   7  160.79   20.25
   1   0  -6  153.51   14.06
   1   0  -6  114.25   17.55
   1   0  -6  149.87   18.70
   1   0  -6  160.65   16.70
  -1   0   6  101.04   10.97
  -1   0   6  109.31   14.57
  -1   0   6  125.44   18.53
  -1   0   6  114.55   16.57
  -1   0   6  117.18   22.43
   1   0  -5 1141.16  105.66
   1   0  -5 1034.63   88.46
   1   0  -5  929.84   82.00
   1   0  -5  782.39   82.71
   1   0  -5 1065.77  110.27
  -1   0   5  971.97   90.00
  -1   0   5  943.41   79.31
  -1   0   5 1104.57  102.48
  -1   0   5 1024.22   95.13
   1   0  -4 1917.12  189.70
   1   0  -4 1849.97  182.85
   1   0  -4 1500.57  183.85
   1   0  -4 2114.75  221.72
   1   0  -4 2153.90  219.41
   1   0  -4 2366.89  239.14
  -1   0   4 2327.19  233.08
  -1   0   4 2299.02  216.64
  -1   0   4 2344.80  237.48
  -1   0   4 2256.56  227.37
   1   0  -3 2269.90  214.54
   1   0  -3 2128.26  205.50
   1   0  -3 1388.27  144.33
   1   0  -3 2248.01  219.63
   1   0  -3 1818.22  167.02
   1   0  -3 1895.74  173.28
  -1   0   3 2029.13  197.30
  -1   0   3 2106.97  199.86
  -1   0   3 1931.46  188.38
  -1   0   3 2013.20  179.54
   1   0  -2 4085.13  471.68
   1   0  -2 4328.96  486.12
   1   0  -2 2863.47  339.73
   1   0  -2 4045.13  472.33
  -1   0   2 4585.23  524.50
  -1   0   2 4209.37  464.90
  -1   0   2 3972.56  453.47
  -1   0   2 4946.04  580.26
   1   0  -1 1333.69  102.46
   1   0  -1 1113.94   84.71
   1   0  -1 1305.33  103.97
   1   0  -1 1430.59  108.08
   1   0  -1 1424.75   99.60
  -1   0   1 1379.07  117.96
  -1   0   1 1252.12   95.64
  -1   0   1 1329.32  107.74
   1   0   0 4913.43  615.12
   1   0   0 5226.06  649.95
   1   0   0 5230.56  610.48
   1   0   0 5424.89  660.28
   1   0   0 5815.11  722.70
  -1   0   0 5437.75  672.06
  -1   0   0 6165.00  756.35
  -1   0   0 5865.54  724.99
   1   0   111742.15 1916.58
   1   0   110829.57 1765.38
   1   0   1 8225.68 1332.66
   1   0   110090.67 1632.47
   1   0   112155.94 1937.86
  -1   0  -1 9849.66 1592.25
  -1   0  -112254.85 2021.02
  -1   0  -112348.90 2010.56
   1   0   2 1083.93   84.75
   1   0   2 1233.64  103.92
   1   0   2 1317.01  113.66
   1   0   2 1244.76  103.68
   1   0   2  801.97   68.72
  -1   0  -2 1134.45   88.18
  -1   0  -2 1107.96   98.37
  -1   0  -2 1153.33   99.02
   1   0   3  651.13   50.37
   1   0   3  432.32   37.68
   1   0   3  645.72   62.89
   1   0   3  605.47   49.67
   1   0   3  590.89   48.53
  -1   0  -3  627.91   44.66
  -1   0  -3  583.57   48.92
  -1   0  -3  584.96   63.08
   1   0   4  424.54   34.64
   1   0   4  378.74   28.00
   1   0   4  281.55   27.61
   1   0   4  381.91   34.58
   1   0   4  396.27   33.99
  -1   0  -4  339.13   34.37
  -1   0  -4  339.98   26.25
  -1   0  -4  319.56   30.89
   1   0   5 2760.39  314.00
   1   0   5 3002.30  343.67
   1   0   5 2126.83  259.44
   1   0   5 2704.35  317.03
   1   0   5 3176.33  361.67
  -1   0  -5 2808.92  307.48
  -1   0  -5 2622.56  312.53
  -1   0  -5 2788.01  323.02
   1   0   6  119.18   16.29
   1   0   6   94.50   11.06
   1   0   6   82.97   21.53
  -1   0  -6   93.56   18.71
  -1   0  -6  114.29   15.98
  -1   0  -6   93.36   23.46
   1   0   7  123.55   18.80
  -1   0  -7  105.11   22.67
  -1   0  -7   90.50   22.01
   1   0   8  270.33   47.21
  -1   0  -8  254.61   43.93
  -1   0  -8  249.04   43.74
   1   0   9  860.36   97.43
  -1   0  -9  854.56  127.63
  -1   0  -9  830.37  117.26
  -1   0 -10   67.34   22.85
  -1   0 -10   93.09   26.79
  -1   0 -11  418.68   66.16
   1   1 -12  123.52   31.47
   1   1 -11   56.52   35.97
   1   1 -10  380.43   64.92
   1   1  -9   49.62   19.05
   1   1  -9   49.38   13.82
   1   1  -8  677.38   75.93
  -1  -1   8  617.53   64.12
  -1  -1   8  616.85   73.25
  -1  -1   8  735.54   82.57
   1   1  -7  896.69   96.81
  -1  -1   7  983.99   96.63
  -1  -1   7  927.41  100.05
  -1  -1   7  898.75   88.03
  -1  -1   7  951.79   99.33
  -1  -1   7 1006.65  108.01
   1   1  -6  603.49   60.84
   1   1  -6  527.10   44.35
   1   1  -6  549.70   55.70
   1   1  -6  563.99   56.64
  -1  -1   6  658.70   63.37
  -1  -1   6  655.19   57.81
  -1  -1   6  643.00   64.53
  -1  -1   6  676.68   64.26
   1   1  -5  459.78   44.35
   1   1  -5  449.34   45.45
   1   1  -5  401.60   30.98
   1   1  -5  428.93   43.26
  -1  -1   5  547.16   48.17
  -1  -1   5  568.28   64.20
  -1  -1   5  517.32   42.87
  -1  -1   5  518.78   43.28
   1   1  -4 4314.72  658.38
   1   1  -4 8520.45 1249.97
   1   1  -4 7212.23 1017.09
   1   1  -4 8008.44 1180.13
   1   1  -4 7910.22 1177.15
  -1  -1   4 8690.09 1262.35
  -1  -1   4 8183.10 1192.16
  -1  -1   4 8770.52 1292.73
  -1  -1   4 8007.20 1163.50
   1   1  -3 1368.67  114.93
   1   1  -3  876.91   77.33
   1   1  -3 1278.01   95.77
   1   1  -3 1311.40  116.63
   1   1  -3 1320.45  110.68
  -1  -1   3 1248.16  112.62
  -1  -1   3 1106.84  105.58
  -1  -1   3 1218.13  104.70
  -1  -1   3 1156.39   99.98
   1   1  -2 9781.40 1504.98
   1   1  -2 9929.55 1549.23
   1   1  -2 6365.84  914.17
   1   1  -210317.38 1576.73
   1   1  -2 9848.96 1414.20
  -1  -1   210230.15 1589.28
  -1  -1   210130.13 1561.12
   1   1  -1  994.11   65.55
   1   1  -1  815.13   68.46
   1   1  -1 1106.23   83.72
   1   1  -1 1058.87   95.31
   1   1  -1 1021.93   80.54
  -1  -1   1 1426.20  109.63
  -1  -1   1 1396.05  106.56
  -1  -1   1 1058.68   82.98
  -1  -1   1 1414.20  107.74
   1   1   0 4246.42  485.49
   1   1   0 4697.61  553.42
   1   1   0 4187.97  490.22
   1   1   0 4274.37  475.07
   1   1   0 4346.32  502.23
  -1  -1   0 4210.47  494.39
  -1  -1   0 4467.61  494.14
  -1  -1   0 3781.12  438.63
  -1  -1   0 4106.84  483.35
   1   1   1 1716.31  152.17
   1   1   1 1686.97  153.45
   1   1   1 1238.38  121.99
  -1  -1  -1 1484.88  137.60
  -1  -1  -1 1762.91  160.56
  -1  -1  -1 1712.87  164.39
  -1  -1  -1 1671.25  149.34
   1   1   2 1655.76  151.18
   1   1   2 1821.24  163.53
   1   1   2 1172.97  116.46
  -1  -1  -2 1633.98  151.51
  -1  -1  -2 1707.02  125.38
  -1  -1  -2 1441.66  133.13
  -1  -1  -2 1604.12  148.20
  -1  -1  -2 1670.79  154.40
   1   1   3  335.55   29.56
   1   1   3  290.65   27.59
   1   1   3  262.34   25.51
  -1  -1  -3  439.12   35.62
  -1  -1  -3  427.24   24.46
  -1  -1  -3  440.57   36.42
  -1  -1  -3  434.54   45.47
   1   1   4  661.57   54.75
   1   1   4  474.35   48.51
   1   1   4  618.02   53.04
  -1  -1  -4  499.89   53.12
  -1  -1  -4  544.10   51.95
  -1  -1  -4  555.09   52.93
  -1  -1  -4  499.89   33.85
   1   1   5  609.67   57.72
   1   1   5  712.93   65.52
   1   1   5  528.32   71.72
  -1  -1  -5  653.74   65.00
  -1  -1  -5  709.44   69.02
  -1  -1  -5  665.91   70.19
  -1  -1  -5  678.40   73.84
   1   1   6  919.70   92.78
   1   1   6  775.96   86.19
   1   1   6 1076.61  116.90
  -1  -1  -6 1007.87  112.34
  -1  -1  -6  913.61   96.59
  -1  -1  -6 1000.55  116.34
   1   1   7  161.24   20.26
   1   1   7  103.80   18.76
  -1  -1  -7  132.62   29.42
  -1  -1  -7  123.86   26.81
   1   1   8  765.49   85.43
  -1  -1  -8  805.22  118.69
  -1  -1  -8  797.00  142.83
  -1  -1  -9  276.79   54.33
  -1  -1  -9  317.73   57.86
  -1  -1 -10  506.93   81.01
  -1  -1 -10  516.80  107.08
  -1  -1 -11   26.33   24.37
   1   2 -12   29.92   16.75
   1   2 -11  376.34   62.32
   1   2 -10  472.31   72.33
   1   2 -10  419.16   56.93
   1   2  -9  949.39  117.64
  -1  -2   9  903.79  101.32
  -1  -2   9 1020.53  124.54
   1   2  -8   47.13   13.53
  -1  -2   8   44.89   11.02
  -1  -2   8   47.75   14.59
   1   2  -7   21.34    9.30
  -1  -2   7   20.51    9.23
  -1  -2   7   22.41    7.32
  -1  -2   7    2.08    6.87
  -1  -2   7   32.76    6.18
   1   2  -6  598.27   78.16
   1   2  -6  555.43   61.40
   1   2  -6  559.33   54.52
  -1  -2   6  599.03   59.70
  -1  -2   6  592.28   57.01
  -1  -2   6  635.10   66.95
  -1  -2   6  599.82   53.60
   1   2  -5 1003.33   91.07
   1   2  -5 1046.55   77.48
   1   2  -5  759.53   72.07
   1   2  -5 1071.21  106.57
   1   2  -5 1137.32  126.22
  -1  -2   5 1003.72   90.76
  -1  -2   5  942.84   91.59
  -1  -2   5  980.83  100.21
  -1  -2   5  974.35   94.69
   1   2  -4  664.24   39.92
   1   2  -4  639.89   60.61
   1   2  -4  682.10   56.16
   1   2  -4  682.60   62.01
  -1  -2   4  569.94   54.12
  -1  -2   4  589.78   57.58
  -1  -2   4  548.63   52.45
  -1  -2   4  609.30   51.85
   1   2  -3  444.31   34.05
   1   2  -3  413.03   37.96
   1   2  -3  464.91   39.48
  -1  -2   3  462.45   36.29
  -1  -2   3  421.34   37.92
  -1  -2   3  495.25   43.24
  -1  -2   3  413.91   34.98
   1   2  -2 2506.90  253.02
   1   2  -2 2332.99  230.23
   1   2  -2 1886.72  197.00
   1   2  -2 1890.61  197.39
  -1  -2   2 2645.17  264.37
  -1  -2   2 2624.75  259.92
  -1  -2   2 1910.73  197.40
  -1  -2   2 2330.96  232.99
   1   2  -1   67.69    7.18
   1   2  -1   75.68    9.43
   1   2  -1   92.84    9.74
   1   2  -1   79.79    8.87
  -1  -2   1   50.87    8.85
  -1  -2   1   45.02    8.08
  -1  -2   1   39.57    5.91
  -1  -2   1   56.09    7.52
  -1  -2   1   53.45    7.88
   1   2   0 2016.43  178.02
   1   2   0 1928.27  189.04
   1   2   0 1861.90  188.17
   1   2   0 1755.08  154.32
   1   2   0 1846.68  196.14
  -1  -2   0 2009.65  199.54
  -1  -2   0 1908.96  199.46
  -1  -2   0 2008.66  188.47
  -1  -2   0 1912.23  187.96
   1   2   1 1598.53  161.61
   1   2   1 1798.98  166.38
   1   2   1 1906.29  178.68
  -1  -2  -1 1685.52  162.68
  -1  -2  -1 1663.65  163.59
  -1  -2  -1 1549.83  169.29
  -1  -2  -1 1622.56  162.37
   1   2   2 3133.58  397.49
   1   2   2 3977.14  466.89
  -1  -2  -2 4008.81  495.33
  -1  -2  -2 3781.79  465.42
  -1  -2  -2 3544.53  432.09
  -1  -2  -2 3962.66  486.21
   1   2   3  266.29   30.70
   1   2   3  342.67   29.44
  -1  -2  -3  387.74   34.01
  -1  -2  -3  369.63   39.54
  -1  -2  -3  342.95   33.63
  -1  -2  -3  330.10   32.16
  -1  -2  -3  387.71   38.25
   1   2   4  326.97   30.00
   1   2   4  289.96   32.12
   1   2   4  262.24   31.70
  -1  -2  -4  416.34   44.59
  -1  -2  -4  400.83   44.92
  -1  -2  -4  402.14   35.97
  -1  -2  -4  405.93   50.42
   1   2   5 1163.95  142.45
   1   2   5 1252.78  124.97
   1   2   5 1040.25  118.85
  -1  -2  -5 1302.42  135.37
  -1  -2  -5 1359.59  145.11
  -1  -2  -5 1362.66  158.46
  -1  -2  -5 1313.55  149.59
   1   2   6  287.06   38.34
   1   2   6  350.33   36.11
  -1  -2  -6  385.56   50.86
  -1  -2  -6  419.82   56.38
   1   2   7   55.70   16.03
  -1  -2  -7   90.13   22.61
  -1  -2  -7  101.84   27.00
   1   2   8  144.56   26.00
  -1  -2  -8  148.11   36.03
  -1  -2  -8  175.00   40.62
  -1  -2  -9  711.01  107.20
  -1  -2  -9  625.75   99.45
  -1  -2 -10    4.52    9.35
  -1  -2 -10    6.05    8.91
  -1  -2 -11  267.03   44.24
   1   3 -12   88.81   40.12
   1   3 -11   50.05   14.42
   1   3 -11   70.69   22.83
   1   3 -10  100.40   22.91
   1   3 -10   83.19   29.40
  -1  -3  10  101.50   17.82
   1   3  -9  375.99   74.19
  -1  -3   9  410.18   50.36
  -1  -3   9  451.91   60.39
   1   3  -8  630.07   83.22
  -1  -3   8  764.02   89.27
   1   3  -7  272.91   37.95
  -1  -3   7  247.40   31.69
  -1  -3   7  239.44   34.33
   1   3  -6  309.85   57.22
   1   3  -6  355.58   34.06
   1   3  -6  338.32   40.12
  -1  -3   6  309.98   36.35
  -1  -3   6  302.63   35.83
  -1  -3   6  360.36   39.30
   1   3  -5  169.73   18.20
   1   3  -5  170.58   22.90
   1   3  -5  142.76   23.26
  -1  -3   5  197.61   24.61
  -1  -3   5  199.21   26.80
  -1  -3   5  184.61   21.50
  -1  -3   5  190.71   22.26
   1   3  -4 7860.16 1261.67
   1   3  -4 6130.83  993.48
   1   3  -4 7192.84 1097.51
  -1  -3   4 6904.27 1121.02
  -1  -3   4 8553.22 1333.80
  -1  -3   4 7108.25 1110.82
  -1  -3   4 8812.45 1338.66
   1   3  -3 7639.90 1347.42
   1   3  -3 9993.34 1674.18
   1   3  -311884.50 2027.16
  -1  -3   310200.44 1739.14
  -1  -3   3 9133.23 1574.32
  -1  -3   312124.42 2054.07
  -1  -3   3 9327.24 1621.30
  -1  -3   312026.83 2016.35
   1   3  -2 1717.92  170.67
   1   3  -2 1076.33  126.95
   1   3  -2 1420.70  140.25
   1   3  -2 1680.53  163.95
  -1  -3   2 1845.62  188.79
  -1  -3   2 1564.65  154.36
  -1  -3   2 1636.54  170.31
   1   3  -1  483.59   42.90
   1   3  -1  497.60   42.27
   1   3  -1  538.76   43.05
   1   3  -1  550.20   48.90
  -1  -3   1  426.59   40.66
  -1  -3   1  524.34   48.48
  -1  -3   1  444.41   40.92
  -1  -3   1  468.41   32.86
   1   3   0 1461.83  141.15
   1   3   0 1300.14  130.15
   1   3   0 1397.35  121.12
   1   3   0 1405.38  139.48
  -1  -3   0 1670.53  166.83
  -1  -3   0 1384.11  128.94
  -1  -3   0 1378.34  135.94
  -1  -3   0 1377.71  133.95
   1   3   1 3623.42  420.45
   1   3   1 4062.82  549.23
   1   3   1 4298.35  493.17
   1   3   1 4595.76  603.21
   1   3   1 5120.62  659.24
  -1  -3  -1 5184.49  670.90
  -1  -3  -1 4799.92  635.51
  -1  -3  -1 4906.79  647.79
  -1  -3  -1 5629.85  736.86
   1   3   2 7450.50 1127.12
   1   3   2 6517.17 1033.38
  -1  -3  -2 7074.57 1099.14
  -1  -3  -2 7052.37 1067.63
  -1  -3  -2 7174.65 1121.26
  -1  -3  -2 7184.16 1151.89
   1   3   3 1607.78  159.89
   1   3   3 1441.58  161.70
  -1  -3  -3 1512.17  155.65
  -1  -3  -3 1461.84  165.07
  -1  -3  -3 1522.96  171.91
  -1  -3  -3 1540.29  168.29
   1   3   4  811.16   87.27
   1   3   4  906.75   83.76
   1   3   4  835.82   90.72
  -1  -3  -4  824.78   94.95
  -1  -3  -4  819.68  118.53
  -1  -3  -4  786.15   91.36
  -1  -3  -4  759.07   81.12
   1   3   5  180.00   28.77
   1   3   5  192.66   22.42
  -1  -3  -5  205.58   25.25
  -1  -3  -5  227.38   33.10
  -1  -3  -5  238.99   38.25
   1   3   6  568.11   70.31
  -1  -3  -6  594.32   84.92
  -1  -3  -6  510.63   75.30
   1   3   7  676.56   86.85
  -1  -3  -7  721.81  105.65
  -1  -3  -7  621.86   93.62
   1   3   8  103.11   23.18
  -1  -3  -8  124.71   34.34
  -1  -3  -8  106.61   48.23
   1   3   9  113.03   23.75
  -1  -3  -9  145.44   34.22
  -1  -3  -9  171.21   53.58
  -1  -3 -10  238.91   42.83
  -1  -3 -10  213.24   40.80
   1   4 -11  133.54   25.59
   1   4 -11  169.35   35.14
   1   4 -10   33.46   13.68
  -1  -4  10   26.73   10.46
  -1  -4  10   30.75   13.85
   1   4  -9  355.34   54.03
  -1  -4   9  355.46   48.50
  -1  -4   9  367.28   53.31
   1   4  -8  353.41   50.67
  -1  -4   8  306.07   43.70
  -1  -4   8  278.52   61.09
   1   4  -7  828.92  110.89
  -1  -4   7  938.20  109.92
  -1  -4   7  970.03  112.12
   1   4  -6 1060.82  127.36
  -1  -4   6 1057.71  118.38
  -1  -4   6 1132.26  126.46
   1   4  -5  215.68   21.06
   1   4  -5  166.53   26.45
   1   4  -5  234.82   33.19
   1   4  -5  254.96   30.54
  -1  -4   5  170.47   25.30
  -1  -4   5  144.52   22.79
  -1  -4   5  199.15   21.51
   1   4  -4   93.77   17.48
   1   4  -4  153.72   22.28
   1   4  -4  145.52   20.02
   1   4  -4  129.18   13.38
  -1  -4   4  123.15   17.90
  -1  -4   4   99.31   15.67
  -1  -4   4  138.23   16.26
  -1  -4   4  117.36   27.56
   1   4  -3 2370.52  261.90
   1   4  -3 1569.86  202.75
   1   4  -3 2786.98  346.64
   1   4  -3 2761.15  324.39
  -1  -4   3 2658.19  303.92
  -1  -4   3 2967.17  336.12
  -1  -4   3 3503.43  382.39
  -1  -4   3 2728.58  318.38
   1   4  -2  772.00  101.15
   1   4  -2 1395.90  138.36
   1   4  -2 1478.81  150.01
   1   4  -2 1314.39  124.90
  -1  -4   2 1430.41  140.85
  -1  -4   2 1824.86  176.32
  -1  -4   2 1277.42  131.79
  -1  -4   2 1339.93  153.61
  -1  -4   2 1141.37   92.71
   1   4  -1  170.99   16.67
   1   4  -1   88.00   18.64
   1   4  -1  147.90   18.92
   1   4  -1  385.73   43.62
   1   4  -1  157.53   18.40
  -1  -4   1  165.74   12.57
  -1  -4   1  167.74   19.25
  -1  -4   1  186.73   26.39
  -1  -4   1  131.05   20.71
   1   4   0 3450.82  387.39
   1   4   0 2066.61  249.65
   1   4   0 2854.50  347.46
   1   4   0 3089.70  367.22
   1   4   0 3288.72  399.86
  -1  -4   0 3194.50  366.03
  -1  -4   0 3298.84  388.72
  -1  -4   0 3891.37  468.60
  -1  -4   0 3139.48  382.31
   1   4   1 1641.68  191.80
   1   4   1 1780.59  196.57
   1   4   1 1747.72  197.19
  -1  -4  -1 1830.74  209.32
  -1  -4  -1 2084.35  221.57
  -1  -4  -1 1970.31  223.35
  -1  -4  -1 2176.56  267.32
   1   4   2  556.48   52.02
   1   4   2  515.33   56.62
  -1  -4  -2  554.20   63.70
  -1  -4  -2  491.34   57.05
  -1  -4  -2  508.44   54.22
  -1  -4  -2  460.13   45.17
   1   4   3 2624.64  317.34
   1   4   3 2607.77  370.97
  -1  -4  -3 2622.11  318.14
  -1  -4  -3 2573.29  337.07
  -1  -4  -3 2886.30  365.75
  -1  -4  -3 2727.14  348.64
   1   4   4  307.75   34.26
   1   4   4  321.60   44.58
  -1  -4  -4  404.59   49.49
  -1  -4  -4  272.74   43.16
  -1  -4  -4  278.18   43.74
   1   4   5  620.77  101.07
  -1  -4  -5  534.72   76.80
  -1  -4  -5  536.70   77.30
   1   4   6   53.80   29.93
  -1  -4  -6   60.15   22.36
  -1  -4  -6   54.99   21.27
   1   4   7 1208.55  159.80
  -1  -4  -7 1109.68  167.93
  -1  -4  -7 1267.81  178.45
   1   4   8  419.02   61.94
  -1  -4  -8  452.12   72.27
  -1  -4  -8  387.56   69.34
   1   4   9   -0.02    6.73
  -1  -4  -9   11.71    9.59
  -1  -4  -9    7.99    8.65
  -1  -4 -10   10.16    8.27
  -1  -4 -10    7.44   10.36
   1   5 -11   99.04   22.22
   1   5 -11  108.19   28.11
   1   5 -10  112.11   27.32
  -1  -5  10  128.15   26.00
  -1  -5  10  130.92   22.26
   1   5  -9  116.89   28.06
  -1  -5   9  102.38   23.09
  -1  -5   9   95.02   25.00
   1   5  -8  709.17  100.37
  -1  -5   8  783.24   96.04
  -1  -5   8  719.31   92.86
   1   5  -7  214.82   40.09
  -1  -5   7  253.47   38.03
  -1  -5   7  236.15   36.35
   1   5  -6  593.77   79.74
  -1  -5   6  670.45   99.25
  -1  -5   6  661.48   80.58
   1   5  -5  234.41   34.49
  -1  -5   5  282.43   37.14
  -1  -5   5  243.31   32.47
   1   5  -4  238.60   32.12
   1   5  -4  305.98   28.99
  -1  -5   4  298.79   33.40
  -1  -5   4  240.71   42.08
  -1  -5   4  287.55   36.55
   1   5  -3  555.59   51.68
   1   5  -3  405.63   48.68
   1   5  -3  679.64   83.44
   1   5  -3  711.52   74.46
  -1  -5   3  653.87   83.73
  -1  -5   3  610.95   63.90
  -1  -5   3  494.01   55.83
  -1  -5   3  539.71   62.47
   1   5  -2  872.80   99.34
   1   5  -2 1271.22  140.51
   1   5  -2 1450.57  179.41
   1   5  -2 1295.60  135.15
  -1  -5   2 1499.10  162.66
  -1  -5   2 1286.29  134.75
  -1  -5   2 1081.44  139.69
  -1  -5   2 1142.24  127.57
   1   5  -1  451.51   46.84
   1   5  -1  593.18   58.18
   1   5  -1  600.57   58.01
   1   5  -1  706.67   74.92
   1   5  -1  620.54   61.29
  -1  -5   1  643.78   69.32
  -1  -5   1  858.87   86.93
   1   5   0   82.69   23.11
   1   5   0   98.72   28.83
   1   5   0   81.11   13.84
  -1  -5   0  108.49   26.51
  -1  -5   0  108.69   32.60
  -1  -5   0  110.02   13.29
  -1  -5   0   91.95   14.58
   1   5   1  101.87   15.04
   1   5   1  118.84   18.70
   1   5   1  107.58   18.60
  -1  -5  -1   83.86   18.71
  -1  -5  -1   96.72   21.75
  -1  -5  -1  108.92   22.70
  -1  -5  -1   95.21   15.40
   1   5   2 1952.23  223.53
   1   5   2 2041.28  249.26
  -1  -5  -2 1889.40  236.44
  -1  -5  -2 2020.19  238.81
  -1  -5  -2 1805.66  211.63
   1   5   3 2474.53  319.98
   1   5   3 2517.34  326.74
  -1  -5  -3 2064.63  280.98
  -1  -5  -3 2267.12  320.75
   1   5   4  226.39   41.54
  -1  -5  -4  247.49   59.26
  -1  -5  -4  231.27   40.90
   1   5   5  107.68   27.71
  -1  -5  -5  116.73   40.77
  -1  -5  -5   91.33   27.48
   1   5   6  115.81   31.87
  -1  -5  -6  137.71   32.22
  -1  -5  -6  154.75   37.99
   1   5   7   53.99   24.11
  -1  -5  -7   88.30   25.79
  -1  -5  -7   65.10   38.01
   1   5   8   85.99   25.83
  -1  -5  -8  118.84   30.03
  -1  -5  -8   88.72   26.12
   1   5   9   32.11   10.37
  -1  -5  -9   11.82   11.68
  -1  -5  -9   16.00   15.29
   1   6 -10  134.43   29.82
  -1  -6  10  156.68   24.84
  -1  -6  10  144.83   28.04
   1   6  -9   46.87   19.60
  -1  -6   9   52.82   16.41
  -1  -6   9   41.47   16.48
   1   6  -8   80.99   24.90
  -1  -6   8   81.09   21.69
  -1  -6   8   65.44   19.11
   1   6  -7  153.35   33.14
  -1  -6   7  157.80   30.68
  -1  -6   7  142.66   27.38
   1   6  -6   83.41   29.63
  -1  -6   6   64.60   29.32
  -1  -6   6   45.87   15.72
   1   6  -5   94.34   21.80
  -1  -6   5   85.04   19.14
  -1  -6   5  102.03   23.10
   1   6  -4  233.81   34.35
  -1  -6   4  232.22   46.09
  -1  -6   4  286.06   39.86
   1   6  -3  601.76   63.49
   1   6  -3  571.47   66.79
  -1  -6   3  703.03   89.36
  -1  -6   3  622.92   75.06
   1   6  -2 1759.70  214.12
   1   6  -2 1982.94  233.70
  -1  -6   2 2253.00  276.05
  -1  -6   2 1985.69  247.75
   1   6  -1 1756.28  206.74
  -1  -6   1 1647.48  215.56
  -1  -6   1 1660.84  204.04
   1   6   0  534.14   60.44
  -1  -6   0  496.27   67.87
  -1  -6   0  435.22   54.32
   1   6   1  161.37   21.42
   1   6   1  198.96   41.45
  -1  -6  -1  172.91   33.74
  -1  -6  -1  162.76   43.11
   1   6   2   93.77   15.83
   1   6   2  114.18   24.53
  -1  -6  -2  120.91   21.82
  -1  -6  -2  100.41   25.38
   1   6   3  984.67  130.72
  -1  -6  -3  895.23  126.04
  -1  -6  -3 1066.36  131.84
   1   6   4  695.03   97.66
  -1  -6  -4  713.35   94.67
  -1  -6  -4  587.68   90.68
   1   6   5   59.25   22.03
  -1  -6  -5   46.61   19.45
  -1  -6  -5   47.64   19.84
   1   6   6  102.05   29.78
  -1  -6  -6  100.12   27.39
  -1  -6  -6   80.74   25.82
   1   6   7  142.90   50.44
  -1  -6  -7   96.77   28.24
  -1  -6  -7  137.94   32.27
   1   6   8  149.30   29.25
  -1  -6  -8  123.76   26.83
  -1  -6  -8  181.93   49.72
   1   7  -9  294.35   74.80
  -1  -7   9  288.58   43.35
  -1  -7   9  330.10   46.63
   1   7  -8   13.04   10.85
  -1  -7   8    7.89    9.61
  -1  -7   8    7.14    8.16
   1   7  -7   69.19   21.71
  -1  -7   7   50.92   16.73
  -1  -7   7   57.78   20.04
   1   7  -6  118.72   28.98
  -1  -7   6  140.67   29.59
  -1  -7   6  117.95   39.02
   1   7  -5  514.43   88.84
  -1  -7   5  433.16   62.31
  -1  -7   5  563.71   76.36
   1   7  -4  152.92   27.98
  -1  -7   4  161.68   28.37
  -1  -7   4  206.78   34.90
   1   7  -3  262.73   38.48
  -1  -7   3  337.83   47.73
  -1  -7   3  294.74   45.92
   1   7  -2 1104.88  133.80
  -1  -7   2 1279.57  174.96
  -1  -7   2 1429.74  177.05
   1   7  -1 1587.51  223.96
  -1  -7   1 1832.77  234.99
  -1  -7   1 1762.29  272.73
   1   7   0 1062.83  130.58
  -1  -7   0  942.97  119.69
  -1  -7   0 1013.01  137.44
   1   7   1 1533.35  180.25
  -1  -7  -1  973.10  130.52
  -1  -7  -1 1368.48  175.03
   1   7   2   86.53   21.14
  -1  -7  -2   67.89   21.59
   1   7   3  256.36   40.67
  -1  -7  -3  231.35   37.14
  -1  -7  -3  202.50   39.27
   1   7   4  131.77   30.43
  -1  -7  -4  176.05   51.12
  -1  -7  -4  124.34   26.78
   1   7   5  390.50   60.22
  -1  -7  -5  338.88   82.37
  -1  -7  -5  374.40   56.23
   1   7   6   48.74   17.89
  -1  -7  -6    0.10   23.72
  -1  -7  -6   54.29   16.33
   1   7   7   15.32   11.70
  -1  -7  -7   15.32    9.07
  -1  -7  -7   19.50   11.40
   1   8  -8   99.13   43.24
  -1  -8   8  137.59   26.94
  -1  -8   8  107.48   34.59
   1   8  -7   44.41   16.40
  -1  -8   7   44.24   16.25
  -1  -8   7   26.02   13.04
   1   8  -6  167.81   32.61
  -1  -8   6  145.83   27.77
  -1  -8   6  188.26   34.65
   1   8  -5    3.86    7.80
  -1  -8   5   10.45    8.06
   1   8  -4  476.90   70.80
  -1  -8   4  581.37   71.80
  -1  -8   3  209.41   37.91
  -1  -8   3  154.19   45.48
  -1  -8   2  120.80   31.20
  -1  -8   2  160.79   31.95
   1   8  -1   61.31   18.04
  -1  -8   1  145.28   26.45
  -1  -8   1  108.28   26.75
   1   8   0  312.36   44.12
  -1  -8   0  286.93   46.64
  -1  -8   0  247.03   54.02
   1   8   1  323.09   47.81
  -1  -8  -1  289.41   50.40
   1   8   2  160.58   32.00
  -1  -8  -2  153.38   33.07
   1   8   3   15.96   11.45
  -1  -8  -3   13.26   11.33
   1   8   4  268.23   44.50
  -1  -8  -4  233.99   40.89
   1   8   5   22.84   15.76
  -1  -8  -5   42.24   13.40
   1   8   6  173.53   32.43
   1   9  -6   11.57    9.13
  -1  -9   6   28.95   10.11
  -1  -9   6   38.67   13.12
  -1  -9   5  221.39   35.44
  -1  -9   5  308.36   44.91
  -1  -9   4  173.70   31.03
  -1  -9   4  226.26   37.08
  -1  -9   3  323.98   46.94
  -1  -9   3  403.61   78.59
  -1  -9   2   51.03   16.49
  -1  -9   2   43.25   15.01
  -1  -9   1   89.81   22.00
  -1  -9   1   85.71   19.84
   1   9   0   55.29   13.88
  -1  -9   0   65.39   18.48
   1   9   1  393.13   57.96
  -1  -9  -1  455.72   61.80
   1   9   2  193.38   30.90
  -1  -9  -2  174.70   32.31
   1   9   3   62.21   17.07
  -1  -9  -3   63.67   16.56
   1   9   4    6.73    9.85
  -1  -9  -4   25.06    7.03
  -1 -10   3   72.29   15.14
  -1 -10   2   -6.11    6.60
  -1 -10   1   99.31   18.26
  -1 -10   0    6.22    5.38
   2 -10  -1   43.03   23.47
   2 -10   0  108.17   22.32
   2 -10   1  -11.12    9.26
   2  -9  -5  115.46   41.57
   2  -9  -4   17.09   15.60
   2  -9  -4    6.89    5.31
   2  -9  -3  127.46   30.20
   2  -9  -2   97.00   26.40
   2  -9  -1  229.87   44.10
   2  -9   0  153.06   35.74
   2  -9   1  375.87   77.73
   2  -9   2   53.92   17.08
  -2   9  -2   48.56   15.20
   2  -9   3  182.97   33.60
  -2   9  -3  186.99   33.07
   2  -9   4  103.91   18.38
   2  -9   4  116.46   38.26
  -2   9  -4  136.57   26.26
   2  -9   5  440.95   50.52
   2  -9   5  499.70   64.19
  -2   9  -5  576.69   75.24
   2  -8  -7    4.24    6.33
  -2   8   7    4.84    5.47
   2  -8  -6   57.11   13.57
   2  -8  -6   20.74   15.36
  -2   8   6   11.59    9.97
   2  -8  -5  246.70   47.96
   2  -8  -5  247.86   37.59
  -2   8   5  248.12   47.67
   2  -8  -4  560.22   68.47
   2  -8  -4  554.47   82.87
  -2   8   4  468.47   59.42
   2  -8  -3   29.65   16.54
   2  -8  -3   24.23   11.21
   2  -8  -2   75.21   24.22
   2  -8  -2   71.84   16.67
   2  -8  -1  242.89   66.82
   2  -8   0  368.11   65.97
  -2   8   0  364.99   49.73
   2  -8   1  178.89   37.87
  -2   8  -1  151.00   30.14
   2  -8   2    5.57   16.48
  -2   8  -2   13.52    9.84
   2  -8   3   87.62   31.24
   2  -8   3  109.69   24.77
  -2   8  -3  144.96   29.43
   2  -8   4  108.19   22.46
   2  -8   4  101.72   25.09
  -2   8  -4  134.88   28.37
   2  -8   5   74.34   18.38
   2  -8   5   52.86   19.46
  -2   8  -5   72.10   22.96
   2  -8   6  217.29   37.95
   2  -8   6  260.85   38.53
  -2   8  -6  289.04   69.89
   2  -8   7   71.82   28.33
   2  -8   7   58.55   16.30
  -2   8  -7   54.79   20.89
   2  -7  -8  174.12   49.35
   2  -7  -8  105.98   50.09
  -2   7   8  160.60   33.68
   2  -7  -7  722.35  102.01
   2  -7  -7  574.43   99.21
  -2   7   7  694.24   94.64
   2  -7  -6  126.74   32.66
   2  -7  -6  109.95   35.00
  -2   7   6  133.59   29.22
   2  -7  -5   35.07   15.89
   2  -7  -5   36.03   14.42
  -2   7   5   -0.42   12.65
   2  -7  -4  416.22   64.50
  -2   7   4  459.30   61.83
   2  -7  -3  442.30   70.44
  -2   7   3  514.20   62.62
   2  -7  -2  205.66   39.98
   2  -7  -2  216.80   32.31
   2  -7  -1   48.06   19.00
   2  -7  -1   54.46   14.04
  -2   7   1   54.62   22.08
   2  -7   0  377.83   73.05
   2  -7   0  304.35   49.59
  -2   7   0  287.36   43.01
   2  -7   1  900.50  124.51
  -2   7  -1 1080.88  133.13
   2  -7   2  151.51   24.28
   2  -7   2  157.90   30.41
  -2   7  -2  191.86   32.40
   2  -7   3  868.61  103.95
   2  -7   3  839.78  106.36
  -2   7  -3  984.06  126.70
   2  -7   4   32.60   12.21
   2  -7   4   24.17   13.00
  -2   7  -4   20.81   23.78
   2  -7   5  713.99   92.09
   2  -7   5  672.43  113.38
  -2   7  -5  770.97  104.74
   2  -7   6  126.60   28.01
   2  -7   6  103.15   25.57
  -2   7  -6  141.61   31.36
   2  -7   7  386.01   54.82
   2  -7   7  310.47   48.38
  -2   7  -7  391.12   84.22
   2  -7   8   88.37   20.73
   2  -7   8  102.97   23.56
  -2   7  -8  101.58   25.02
   2  -6  -9  191.82   39.38
   2  -6  -9  115.16   39.72
  -2   6   9  207.36   38.49
   2  -6  -8  598.61   91.62
   2  -6  -8  454.54   86.94
  -2   6   8  656.55   90.13
   2  -6  -7  262.78   51.32
   2  -6  -7  195.02   48.84
  -2   6   7  303.03   75.84
   2  -6  -6  467.18   79.26
  -2   6   6  560.65   79.38
   2  -6  -5   87.32   25.79
   2  -6  -5   62.18   25.27
  -2   6   5  101.36   23.39
   2  -6  -4  656.12   87.14
   2  -6  -4  558.74   86.34
  -2   6   4  651.98   83.13
   2  -6  -3  143.13   27.09
   2  -6  -3  125.79   29.61
  -2   6   3  112.00   32.88
   2  -6  -2 1129.80  132.48
   2  -6  -2  962.85  129.30
  -2   6   2 1018.16  114.12
  -2   6   2 1197.65  127.95
   2  -6  -1 2129.26  284.22
   2  -6  -1 2083.06  256.51
  -2   6   1 2172.52  267.40
   2  -6   0 1153.27  148.97
   2  -6   0  980.89  111.59
  -2   6   0 1057.50  123.82
   2  -6   1   18.41    8.35
   2  -6   1   30.41   11.16
   2  -6   1   32.68    7.93
  -2   6  -1   28.89   12.18
   2  -6   2 1099.95  125.46
   2  -6   2 1149.62  136.95
  -2   6  -2 1345.40  162.64
   2  -6   3  179.76   26.78
   2  -6   3  158.38   39.38
  -2   6  -3  188.22   34.11
   2  -6   4  851.21  102.76
   2  -6   4  810.24  101.45
  -2   6  -4 1012.13  123.70
   2  -6   5   90.12   33.70
   2  -6   5   91.29   33.46
  -2   6  -5   87.09   37.65
   2  -6   6  364.49   59.87
   2  -6   6 1191.58  109.91
  -2   6  -6  435.38   70.84
   2  -6   7   21.89   12.53
   2  -6   7   19.91   10.65
  -2   6  -7    4.72   12.64
   2  -6   8  585.76   78.50
   2  -6   8  209.61   39.59
  -2   6  -8  250.07   45.54
   2  -6   9   42.46   12.77
   2  -6   9   39.16   11.61
  -2   6  -9   20.21   10.93
  -2   6  -9    1.21   13.23
   2  -5 -10  569.59   79.12
   2  -5 -10  444.08   78.88
  -2   5  10  560.40   76.36
   2  -5  -9   53.65   24.30
   2  -5  -9  126.02   44.26
  -2   5   9   59.04   24.11
   2  -5  -8   97.56   29.26
   2  -5  -8   82.34   31.60
  -2   5   8   90.94   28.31
   2  -5  -7   78.36   25.82
   2  -5  -7  135.48   31.56
  -2   5   7   50.68   23.61
   2  -5  -6  258.48   57.11
   2  -5  -6  312.55   75.21
  -2   5   6  311.24   48.26
   2  -5  -5  201.00   52.18
   2  -5  -5  116.84   44.43
  -2   5   5  115.55   25.98
   2  -5  -4   29.50   13.17
   2  -5  -4   23.73   12.92
  -2   5   4   17.74   10.82
   2  -5  -3  198.47   29.80
   2  -5  -3  207.52   34.66
   2  -5  -3  232.84   33.48
  -2   5   3  203.46   23.77
  -2   5   3  243.57   29.87
   2  -5  -2 1113.68  130.38
   2  -5  -2 1146.81  132.10
   2  -5  -2 1164.99  139.33
  -2   5   2 1243.16  145.26
  -2   5   2 1160.11  124.88
  -2   5   2 1100.25  133.90
  -2   5   2 1216.45  142.48
   2  -5  -1  828.75   99.50
   2  -5  -1  802.41   96.89
  -2   5   1  887.13   85.66
  -2   5   1  947.52  105.82
  -2   5   1  918.80   98.00
  -2   5   1 1210.42  130.75
   2  -5   0  825.90   74.42
   2  -5   0  762.16   80.01
   2  -5   0  964.63  102.21
   2  -5   0  526.23   68.51
  -2   5   0 1096.56  115.07
  -2   5   0  852.24   91.31
  -2   5   0  892.51   94.55
  -2   5   0  721.92   78.80
   2  -5   1  442.16   60.89
   2  -5   1  551.99   80.96
   2  -5   1  751.62   69.18
   2  -5   1  565.23   68.72
  -2   5  -1  737.41  102.52
  -2   5  -1  652.03   72.37
  -2   5  -1  770.34   82.82
  -2   5  -1  768.35   78.71
   2  -5   2  168.78   24.07
   2  -5   2  289.79   30.01
   2  -5   2  221.05   23.83
   2  -5   2  217.34   28.59
  -2   5  -2  327.24   33.60
  -2   5  -2  286.24   36.66
   2  -5   3  499.00   58.71
   2  -5   3  609.93   57.83
   2  -5   3  587.33   78.57
  -2   5  -3  650.73   79.51
  -2   5  -3  694.36   85.34
   2  -5   4  327.67   42.97
   2  -5   4  338.86   42.80
  -2   5  -4  387.39   50.42
   2  -5   5  779.61  114.92
  -2   5  -5  849.23  105.33
   2  -5   6  674.28   89.20
   2  -5   6  676.88   84.62
  -2   5  -6  735.01   94.07
   2  -5   7  237.59   41.38
   2  -5   7  223.99   36.78
  -2   5  -7  207.97   40.21
   2  -5   8  882.51  147.53
   2  -5   8  874.70  111.86
  -2   5  -8  876.60  115.92
   2  -5   9  384.20   50.82
   2  -5   9  341.05   47.75
  -2   5  -9  299.27   44.88
   2  -4 -11   69.67   39.47
   2  -4 -11   81.71   18.99
  -2   4  11   71.49   20.55
   2  -4 -10  319.13   66.23
   2  -4 -10  350.04   56.02
  -2   4  10  408.54   59.86
   2  -4  -9  358.33   58.24
   2  -4  -9  331.51   65.84
  -2   4   9  344.50   57.78
   2  -4  -8  633.37   92.12
   2  -4  -8  572.18   95.02
  -2   4   8  605.14   85.76
   2  -4  -7 1699.21  230.00
   2  -4  -7 1519.31  226.61
  -2   4   7 1711.92  271.98
   2  -4  -6 2221.88  311.63
   2  -4  -6 2293.39  315.05
  -2   4   6 2246.91  306.03
   2  -4  -5  525.18   74.51
   2  -4  -5  601.06   76.39
  -2   4   5  584.35   72.02
   2  -4  -4  200.53   25.88
   2  -4  -4  236.55   35.20
   2  -4  -4  219.66   34.65
   2  -4  -4  198.92   25.27
  -2   4   4  237.77   30.23
  -2   4   4  231.74   23.73
   2  -4  -3   26.47   10.53
   2  -4  -3   23.58    9.67
   2  -4  -3   28.02    8.35
  -2   4   3   27.27   11.66
  -2   4   3   22.78    9.55
  -2   4   3   24.44    6.39
  -2   4   3   22.35    8.10
   2  -4  -2    7.57    7.33
   2  -4  -2   12.96    7.21
   2  -4  -2   13.74    7.36
  -2   4   2    9.27    7.14
  -2   4   2   40.58    8.49
  -2   4   2   10.79    5.33
  -2   4   2   12.96    5.64
   2  -4  -1 1124.50  101.77
   2  -4  -1 1206.08  127.57
   2  -4  -1 1235.31  143.49
   2  -4  -1 1145.16  128.85
  -2   4   1 1403.53  150.13
  -2   4   1 1489.24  156.31
  -2   4   1 1284.79  131.86
  -2   4   1 1309.73  123.79
   2  -4   0  815.02   70.09
   2  -4   0  720.64   76.61
   2  -4   0  725.45   72.45
   2  -4   0  773.28   88.16
  -2   4   0  898.88   90.11
  -2   4   0 1067.74  104.00
  -2   4   0  804.79   84.61
  -2   4   0  708.98   58.51
   2  -4   1  671.72   67.76
   2  -4   1  995.07   88.22
   2  -4   1  950.41  101.42
  -2   4  -1 1050.55  105.62
  -2   4  -1  816.04   86.52
  -2   4  -1  977.73  102.27
  -2   4  -1 1063.50  101.82
   2  -4   2  143.45   19.85
   2  -4   2  180.25   19.60
   2  -4   2  146.28   16.96
   2  -4   2  118.33   17.53
  -2   4  -2  245.47   24.85
  -2   4  -2  193.00   26.73
  -2   4  -2  183.54   24.41
  -2   4  -2  212.85   26.26
   2  -4   3  957.05   94.38
   2  -4   3  851.65   94.09
   2  -4   3 1278.13  122.93
   2  -4   3  941.01   99.14
  -2   4  -3 1202.87  120.05
  -2   4  -3 1002.59  117.70
  -2   4  -3  961.82  134.40
  -2   4  -3 1123.91  121.49
   2  -4   4 1049.51  118.37
   2  -4   4 1028.99  117.10
   2  -4   4 1099.70  119.34
  -2   4  -4  982.19  119.29
  -2   4  -4 1426.53  159.27
   2  -4   5  474.21   57.60
   2  -4   5  461.52   53.80
   2  -4   5  403.43   45.40
  -2   4  -5  393.57   54.30
   2  -4   6  304.40   45.28
   2  -4   6  285.48   41.78
  -2   4  -6  310.28   44.34
   2  -4   7  326.57   63.47
  -2   4  -7  336.92   49.79
   2  -4   8  319.56   47.26
   2  -4   8  330.22   49.98
  -2   4  -8  316.70   47.76
   2  -4   9  259.30   30.55
  -2   4  -9    7.60   25.89
   2  -4  10   53.68   24.00
  -2   4 -10   48.10   16.25
   2  -3 -11  302.26   44.99
   2  -3 -11  370.16   65.55
  -2   3  11  455.25   56.71
   2  -3 -10  266.15   45.04
   2  -3 -10  306.16   59.71
  -2   3  10  293.73   48.17
   2  -3  -9   77.77   23.77
   2  -3  -9   82.50   44.88
  -2   3   9   91.18   47.67
   2  -3  -8  132.46   28.38
   2  -3  -8  113.07   31.09
  -2   3   8  129.09   38.64
   2  -3  -7  820.68  108.58
   2  -3  -7  842.01  116.03
  -2   3   7 1059.93  136.48
   2  -3  -6  167.58   30.36
   2  -3  -6  171.23   31.05
   2  -3  -6  152.33   22.87
  -2   3   6  234.70   35.67
  -2   3   6  201.29   21.71
   2  -3  -5 1819.48  218.91
   2  -3  -5 1809.76  197.80
   2  -3  -5 1892.29  208.58
   2  -3  -5 1945.70  228.14
   2  -3  -5 2016.20  220.51
  -2   3   5 2110.84  232.01
  -2   3   5 2237.71  251.53
  -2   3   5 1182.50  152.10
   2  -3  -4 4465.41  618.15
   2  -3  -4 4627.94  671.02
   2  -3  -4 5230.74  725.26
   2  -3  -4 4451.24  655.03
  -2   3   4 5236.89  757.17
  -2   3   4 4919.98  696.23
  -2   3   4 4683.71  644.15
   2  -3  -3  228.75   26.47
   2  -3  -3  330.60   32.14
   2  -3  -3  200.56   28.40
  -2   3   3  195.03   20.81
  -2   3   3  205.61   28.81
  -2   3   3  213.81   24.45
  -2   3   3  149.91   22.53
   2  -3  -2 1193.29   91.21
   2  -3  -2 1492.20  155.91
   2  -3  -2 1235.35  132.31
   2  -3  -2 1311.48  138.84
  -2   3   2 1441.54  151.38
  -2   3   2 1422.78  135.50
  -2   3   2 1275.73  129.15
  -2   3   2 1356.23  134.14
   2  -3  -1 1416.79  148.88
   2  -3  -1 1453.11  121.20
   2  -3  -1 1379.78  138.28
   2  -3  -1  955.45   91.56
   2  -3  -1 1348.93  137.75
  -2   3   1 1580.95  153.67
  -2   3   1 1767.76  176.19
  -2   3   1 1469.82  142.75
  -2   3   1 1552.47  136.56
   2  -3   0 1278.23  131.22
   2  -3   0 1944.52  183.08
   2  -3   0 1768.62  197.53
   2  -3   0 1728.77  181.88
   2  -3   0 1665.38  175.39
  -2   3   0 2200.05  224.85
  -2   3   0 2169.07  225.57
  -2   3   0 2590.16  262.43
  -2   3   0 2109.78  187.01
   2  -3   1  387.42   35.19
   2  -3   1  383.36   36.12
   2  -3   1  308.85   29.63
   2  -3   1  449.80   35.35
   2  -3   1  357.26   42.14
  -2   3  -1  430.33   41.45
  -2   3  -1  512.12   44.88
  -2   3  -1  375.87   42.24
   2  -3   2  905.00   92.40
   2  -3   2 1046.85  102.24
   2  -3   2 1042.67  100.20
  -2   3  -2 1397.49  128.91
  -2   3  -2 1351.97  127.47
  -2   3  -2 1135.23  121.81
  -2   3  -2 1014.21  107.45
  -2   3  -2 1253.45  122.59
   2  -3   3  749.79   74.20
   2  -3   3  719.93   67.05
   2  -3   3  723.71   68.96
  -2   3  -3  803.98   80.56
  -2   3  -3  867.57   79.50
  -2   3  -3  664.34   73.12
  -2   3  -3  809.91   80.30
   2  -3   4 2244.31  255.13
   2  -3   4 1583.31  172.01
   2  -3   4 1507.18  185.33
  -2   3  -4 1748.37  187.17
  -2   3  -4 1582.55  180.73
  -2   3  -4 1328.49  160.38
  -2   3  -4 1654.01  188.40
   2  -3   5 1781.49  214.63
   2  -3   5 1918.02  220.40
   2  -3   5 1913.77  232.47
  -2   3  -5 2167.49  246.78
  -2   3  -5 1884.96  227.90
   2  -3   6 2491.96  319.34
   2  -3   6 2136.87  266.24
   2  -3   6 2415.98  300.47
  -2   3  -6 2433.43  311.78
   2  -3   7   83.02   22.27
   2  -3   7   85.19   19.37
  -2   3  -7  100.30   19.84
   2  -3   8  288.60   43.47
   2  -3   8  277.92   42.05
   2  -3   9  172.12   31.68
  -2   3  -9  157.23   33.50
   2  -3  10  145.48   24.17
  -2   3 -10  112.92   26.74
   2  -2 -12   92.31   27.57
   2  -2 -11   14.32   10.45
  -2   2  11   -0.22    7.32
   2  -2 -10  139.65   36.98
   2  -2 -10  120.05   41.38
  -2   2  10  195.66   62.35
   2  -2  -9  879.33  119.81
   2  -2  -9 1015.38  143.40
  -2   2   9 1254.08  176.36
   2  -2  -8  531.60   72.11
   2  -2  -8  625.27   86.47
  -2   2   8  716.77  104.93
   2  -2  -7  353.64   49.92
   2  -2  -7  431.79   60.11
   2  -2  -7  451.57   61.28
  -2   2   7  598.14   98.65
  -2   2   7  494.85   48.95
   2  -2  -6   63.35   16.14
   2  -2  -6   73.36   18.20
   2  -2  -6   81.41   15.04
   2  -2  -6   71.60   12.19
   2  -2  -6   74.90   12.80
  -2   2   6   99.09   16.71
  -2   2   6  106.16   13.34
  -2   2   6  128.36   19.04
   2  -2  -5 1559.85  192.20
   2  -2  -5 2180.30  233.00
   2  -2  -5 2005.99  234.51
   2  -2  -5 2064.05  222.65
   2  -2  -5 2104.82  224.38
  -2   2   5 1929.93  220.36
  -2   2   5 2016.83  216.02
  -2   2   5 2190.14  243.81
   2  -2  -4  889.34  101.70
   2  -2  -4 1089.28  117.55
   2  -2  -4 1047.76  106.76
   2  -2  -4 1210.46  136.16
  -2   2   4 1262.46  123.50
  -2   2   4 1344.96  138.61
  -2   2   4 1362.57  126.57
  -2   2   4 1481.36  141.14
   2  -2  -3 3637.83  492.53
   2  -2  -3 4157.72  539.44
   2  -2  -3 4337.92  557.56
   2  -2  -3 3998.06  501.10
  -2   2   3 4255.74  565.25
  -2   2   3 4839.88  604.40
  -2   2   3 4431.61  559.91
   2  -2  -2 3379.65  411.59
   2  -2  -2 3319.87  412.07
   2  -2  -2 3538.29  433.49
  -2   2   2 3803.53  473.05
  -2   2   2 3584.02  448.72
  -2   2   2 3895.02  448.57
  -2   2   2 3375.06  402.27
   2  -2  -1 1325.40  110.31
   2  -2  -1 1523.32  156.10
   2  -2  -1 1676.32  163.45
   2  -2  -1 1707.81  138.56
   2  -2  -1 1475.43  141.75
  -2   2   1 1491.99  147.42
  -2   2   1 1746.11  148.37
  -2   2   1 1540.08  146.07
  -2   2   1 1706.93  167.58
   2  -2   0 6648.96 1010.50
   2  -2   0 7195.30 1150.84
   2  -2   0 7928.80 1211.25
   2  -2   0 8050.57 1252.22
  -2   2   0 9027.07 1413.59
  -2   2   0 9906.29 1477.96
  -2   2   0 8114.26 1279.07
  -2   2   0 7784.72 1127.84
  -2   2   0 9000.24 1372.37
   2  -2   1 5889.39  859.25
   2  -2   1 5759.07  882.26
   2  -2   1 6876.57 1001.72
   2  -2   1 6501.89  935.31
  -2   2  -1 7740.20 1124.90
  -2   2  -1 5833.77  884.70
  -2   2  -1 8351.87 1192.17
  -2   2  -1 8277.55 1179.85
   2  -2   2 4027.81  509.90
   2  -2   2 4168.78  519.60
   2  -2   2 4066.38  500.95
  -2   2  -2 3560.99  464.38
  -2   2  -2 4224.22  527.90
  -2   2  -2 4567.57  576.67
  -2   2  -2 4160.28  536.20
   2  -2   3 1231.42  127.70
   2  -2   3 1255.77  125.42
   2  -2   3 1314.43  127.05
  -2   2  -3 1287.25  132.97
  -2   2  -3 1375.38  134.03
  -2   2  -3 1338.94  130.26
  -2   2  -3 1518.30  152.13
   2  -2   4  384.94   43.21
   2  -2   4  376.01   37.79
   2  -2   4  391.40   40.27
  -2   2  -4  489.77   49.47
  -2   2  -4  454.21   43.63
  -2   2  -4  483.07   42.91
  -2   2  -4  468.11   44.74
   2  -2   5  344.63   38.47
   2  -2   5  328.13   33.20
   2  -2   5  325.62   44.20
  -2   2  -5  249.04   41.02
  -2   2  -5  242.33   28.65
   2  -2   6  192.79   28.50
   2  -2   6  152.51   22.57
   2  -2   6  172.53   25.60
  -2   2  -6  194.35   25.26
   2  -2   7  919.35  111.57
   2  -2   7  964.86  112.12
   2  -2   8  196.94   29.75
  -2   2  -8  101.83   25.92
  -2   2  -8  141.00   30.47
   2  -2   9   60.96   17.66
  -2   2  -9   54.91   19.66
   2  -2  10  191.32   28.54
  -2   2 -10  193.88   34.48
   2  -1 -12   35.83   30.65
   2  -1 -11   81.38   26.05
  -2   1  11   62.37   18.55
   2  -1 -10  233.05   47.36
  -2   1  10  237.76   56.04
   2  -1  -9  110.33   30.01
  -2   1   9  133.66   41.58
   2  -1  -8  722.39   98.40
   2  -1  -8 1219.63  143.40
   2  -1  -8 1187.86  125.76
  -2   1   8 1431.26  159.62
   2  -1  -7  515.09   65.89
   2  -1  -7  765.83   74.14
   2  -1  -7  868.43   86.03
   2  -1  -7  791.88   91.50
  -2   1   7  821.17   81.05
  -2   1   7  877.69   93.37
   2  -1  -6   46.78   12.47
   2  -1  -6   68.78   14.57
   2  -1  -6   69.44    9.93
   2  -1  -6   78.04   12.87
   2  -1  -6   81.22   13.41
  -2   1   6   90.40   14.24
  -2   1   6  100.87   18.59
  -2   1   6  102.50   15.56
   2  -1  -5  676.52   63.91
   2  -1  -5  632.66   58.59
   2  -1  -5  559.79   50.25
   2  -1  -5  649.50   63.92
  -2   1   5  631.39   61.51
  -2   1   5  685.04   63.15
  -2   1   5  659.55   63.72
   2  -1  -4 3143.71  356.40
   2  -1  -4 1953.28  242.86
   2  -1  -4 3388.00  382.45
   2  -1  -4 2878.31  330.37
   2  -1  -4 3082.09  339.43
  -2   1   4 3079.61  349.22
  -2   1   4 3341.82  374.04
  -2   1   4 3018.80  350.89
   2  -1  -3 1991.72  210.02
   2  -1  -3 1717.67  181.57
   2  -1  -3 2084.56  206.90
   2  -1  -3 2057.84  204.11
   2  -1  -3 2231.86  223.42
  -2   1   3 1913.77  191.71
  -2   1   3 1939.59  198.37
  -2   1   3 1741.07  203.50
   2  -1  -2 2730.74  268.95
   2  -1  -2 2822.91  290.88
   2  -1  -2 2396.04  250.07
   2  -1  -2 2602.26  279.19
   2  -1  -2 2592.31  280.68
  -2   1   2 2335.96  259.37
  -2   1   2 2393.68  263.37
   2  -1  -1  390.20   32.05
   2  -1  -1  358.85   21.39
   2  -1  -1  353.53   32.65
   2  -1  -1  362.69   30.00
   2  -1  -1  348.48   24.22
  -2   1   1  348.42   32.55
  -2   1   1  335.92   28.30
  -2   1   1  406.89   33.65
  -2   1   1  418.88   27.53
   2  -1   0 2044.46  188.49
   2  -1   0 1946.12  190.35
   2  -1   0 1794.62  194.95
   2  -1   0 2152.23  189.39
   2  -1   0 2108.28  216.11
  -2   1   0 2650.37  265.27
  -2   1   0 2382.31  206.14
  -2   1   0 2280.31  221.29
  -2   1   0 2577.57  254.63
   2  -1   1 2563.24  271.67
   2  -1   1 2683.20  300.70
   2  -1   1 2353.41  261.68
   2  -1   1 2504.60  250.34
  -2   1  -1 2732.92  291.94
  -2   1  -1 2542.89  258.13
  -2   1  -1 2902.58  322.38
   2  -1   2 4004.39  510.85
   2  -1   2 3897.91  493.32
   2  -1   2 4084.75  497.55
  -2   1  -2 3885.93  490.21
  -2   1  -2 4791.33  598.93
  -2   1  -2 4604.51  561.14
  -2   1  -2 4771.67  601.37
   2  -1   3 1348.59  132.19
   2  -1   3 1446.69  139.64
   2  -1   3 1119.17   81.08
   2  -1   3 1254.60   92.98
   2  -1   3 1326.22  121.20
  -2   1  -3 1372.98  139.18
  -2   1  -3 1470.14  138.64
  -2   1  -3 1434.15  140.58
   2  -1   4  265.11   28.91
   2  -1   4  278.87   28.19
   2  -1   4  268.75   32.51
  -2   1  -4  253.00   23.53
  -2   1  -4  275.35   27.45
  -2   1  -4  243.61   27.87
   2  -1   5   70.35   19.97
   2  -1   5   71.77   11.72
   2  -1   5   64.46   10.78
  -2   1  -5   47.45    9.35
  -2   1  -5   53.07   11.30
  -2   1  -5   41.23   19.45
   2  -1   6 2199.06  267.54
   2  -1   6 1990.76  245.31
   2  -1   6 2265.84  267.01
   2  -1   7  155.62   25.45
  -2   1  -7  105.08   25.28
  -2   1  -7  116.31   26.84
   2  -1   8  266.77   40.22
  -2   1  -8  229.80   41.73
  -2   1  -8  299.50   45.06
   2  -1   9   95.09   19.79
  -2   1  -9   58.74   24.73
  -2   1  -9   92.26   23.05
   2  -1  10   57.16   13.03
  -2   1 -10   58.60   19.24
   2   0 -12   59.19   22.92
   2   0 -11   15.17   11.06
  -2   0  11    0.32   10.40
   2   0 -10  271.94   75.66
  -2   0  10  332.50   64.76
   2   0  -9  588.53   72.27
   2   0  -9  610.29   84.23
  -2   0   9  622.60  120.05
   2   0  -8  157.12   25.51
   2   0  -8  148.03   29.92
  -2   0   8  228.64   31.02
   2   0  -7  530.84   56.21
   2   0  -7  585.21   61.97
   2   0  -7  573.80   65.54
   2   0  -7  644.17   82.67
  -2   0   7  521.69   58.77
  -2   0   7  502.71   54.60
  -2   0   7  516.33   56.05
   2   0  -6  960.24   98.12
   2   0  -6  729.79   82.38
   2   0  -6  893.11   77.66
   2   0  -6 1038.37  101.43
   2   0  -6 1046.43   97.14
  -2   0   6  862.41   86.39
  -2   0   6  867.33   87.25
   2   0  -5 1433.83  154.11
   2   0  -5 1577.98  164.83
   2   0  -5 1262.71  128.73
   2   0  -5 1703.17  166.39
  -2   0   5 1534.85  156.14
  -2   0   5 1707.47  174.77
  -2   0   5 1584.19  155.27
  -2   0   5 1585.29  142.79
   2   0  -4 2836.18  338.46
   2   0  -4 2105.94  241.34
   2   0  -4 3150.35  358.00
   2   0  -4 3175.86  343.68
   2   0  -4 2539.21  270.56
  -2   0   4 2997.45  336.44
  -2   0   4 3363.37  377.95
  -2   0   4 3077.66  330.72
  -2   0   4 3159.03  323.48
   2   0  -316196.05 3175.91
   2   0  -316256.51 3215.32
   2   0  -314012.93 2750.48
   2   0  -316935.59 3251.90
  -2   0   315818.19 2982.53
  -2   0   313599.42 2670.27
  -2   0   315522.72 3076.02
  -2   0   316131.42 3212.26
   2   0  -213137.61 2417.71
   2   0  -210665.36 1916.82
   2   0  -213555.70 2499.86
   2   0  -215195.94 2764.70
   2   0  -213361.45 2373.83
   2   0  -214867.43 2612.38
  -2   0   214857.13 2726.97
  -2   0   212309.53 2238.28
  -2   0   214210.43 2579.08
   2   0  -1  295.01   22.75
   2   0  -1  286.96   21.25
   2   0  -1  302.30   23.47
   2   0  -1  302.75   27.71
  -2   0   1  339.75   22.26
  -2   0   1  371.47   26.66
  -2   0   1  364.40   27.63
  -2   0   1  331.30   22.89
   2   0   0 2666.54  259.29
   2   0   0 2747.46  294.49
   2   0   0 2472.23  255.57
   2   0   0 2376.78  210.35
   2   0   0 2328.85  243.81
  -2   0   0 2694.47  274.95
  -2   0   0 2427.76  218.86
  -2   0   0 2621.98  271.07
  -2   0   0 2736.39  267.80
   2   0   1 4818.28  613.80
   2   0   1 5069.67  647.59
   2   0   1 4520.39  573.50
   2   0   1 5035.96  611.54
   2   0   1 5221.89  628.33
  -2   0  -1 5176.10  682.78
  -2   0  -1 4352.48  534.41
  -2   0  -1 4814.21  618.48
   2   0   2  593.35   41.98
   2   0   2  621.84   52.59
   2   0   2  643.48   53.74
   2   0   2  676.79   47.54
  -2   0  -2  563.53   41.03
  -2   0  -2  516.65   37.17
  -2   0  -2  560.17   49.81
  -2   0  -2  589.51   53.59
   2   0   3  345.07   23.57
   2   0   3  369.12   32.61
   2   0   3  259.89   24.42
   2   0   3  376.75   31.67
   2   0   3  390.80   27.26
  -2   0  -3  238.60   18.95
  -2   0  -3  233.90   27.16
  -2   0  -3  239.71   28.99
   2   0   4  217.13   17.18
   2   0   4  247.46   26.35
   2   0   4  242.83   21.12
   2   0   4  228.41   24.95
  -2   0  -4  215.76   25.11
  -2   0  -4  215.09   17.01
  -2   0  -4  194.32   24.84
   2   0   5  116.55   19.57
   2   0   5  149.18   20.37
  -2   0  -5  147.99   20.82
  -2   0  -5  130.11   19.04
   2   0   6  493.32   56.86
  -2   0  -6  487.94   58.84
   2   0   7 1613.99  217.95
  -2   0  -7 1442.84  196.11
  -2   0  -7 1596.34  199.85
   2   0   8  361.87   44.21
  -2   0  -8  255.05   48.60
  -2   0  -8  261.68   45.66
   2   0   9   91.43   19.32
  -2   0  -9  105.59   27.17
  -2   0  -9  112.85   31.52
   2   0  10   59.02   11.94
  -2   0 -10   76.18   22.21
  -2   0 -10   79.92   20.45
   2   1 -12  310.57   55.06
   2   1 -11  331.01   81.78
   2   1 -10  158.64   34.85
   2   1 -10  141.73   27.44
  -2  -1  10  171.14   40.08
   2   1  -9  186.16   34.62
   2   1  -9  171.02   29.50
  -2  -1   9  165.06   30.27
   2   1  -8  526.94   62.71
  -2  -1   8  461.44   57.63
   2   1  -7  971.74   99.92
   2   1  -7  922.45   99.29
   2   1  -7  835.29   93.85
  -2  -1   7  856.71   93.93
  -2  -1   7  811.01   89.27
  -2  -1   7  837.52   87.26
   2   1  -6  487.33   50.13
   2   1  -6  490.20   65.59
   2   1  -6  557.95   51.24
  -2  -1   6  475.13   46.50
  -2  -1   6  436.40   46.08
  -2  -1   6  442.01   38.08
  -2  -1   6  465.54   45.96
   2   1  -5 1756.22  179.48
   2   1  -5 2159.62  238.72
   2   1  -5 2069.64  202.09
   2   1  -5 2194.33  245.75
   2   1  -5 2400.71  255.11
  -2  -1   5 2340.60  246.38
  -2  -1   5 2310.39  254.16
  -2  -1   5 2268.71  232.82
  -2  -1   5 2367.44  256.13
   2   1  -4 6433.29  918.54
   2   1  -4 5601.83  730.93
   2   1  -4 5356.56  724.37
   2   1  -4 6369.47  889.04
   2   1  -4 5651.47  823.55
  -2  -1   4 6457.94  892.03
  -2  -1   4 6432.31  920.02
  -2  -1   4 6113.21  864.28
  -2  -1   4 6500.06  923.88
   2   1  -3  842.22   73.89
   2   1  -3  948.67   74.85
   2   1  -3  857.35   70.39
   2   1  -3  882.60   59.51
   2   1  -3  870.07   79.43
  -2  -1   3 1164.44   98.44
  -2  -1   3 1038.12   88.17
   2   1  -2 8178.57 1267.62
   2   1  -2 8194.84 1175.42
   2   1  -2 7839.60 1221.11
   2   1  -2 7027.60 1072.70
   2   1  -2 8182.49 1194.14
  -2  -1   2 9337.90 1408.31
  -2  -1   2 8809.63 1333.34
  -2  -1   2 7161.05 1037.08
   2   1  -1  443.16   27.02
   2   1  -1  390.02   30.91
   2   1  -1  406.84   28.42
   2   1  -1  362.80   19.96
   2   1  -1  469.04   34.51
  -2  -1   1  340.19   31.76
  -2  -1   1  327.26   28.78
   2   1   0 2872.88  316.59
   2   1   0 2640.16  276.86
   2   1   0 2900.84  314.81
   2   1   0 2941.38  308.39
  -2  -1   0 3069.19  336.20
  -2  -1   0 2562.82  257.95
  -2  -1   0 2968.03  316.99
  -2  -1   0 3604.89  357.46
   2   1   1 6407.94  903.43
   2   1   1 6641.03  916.45
   2   1   1 5952.12  848.35
   2   1   1 5794.15  750.71
  -2  -1  -1 6323.49  891.41
  -2  -1  -1 5803.76  813.87
  -2  -1  -1 6471.56  827.81
  -2  -1  -1 6080.03  827.89
   2   1   2 3126.69  362.52
   2   1   2 2806.00  322.48
   2   1   2 2133.54  245.69
  -2  -1  -2 2660.42  289.05
  -2  -1  -2 2904.11  322.57
  -2  -1  -2 2982.76  319.84
  -2  -1  -2 3083.64  345.47
   2   1   3  293.80   40.53
   2   1   3  552.96   58.62
   2   1   3  509.19   44.05
  -2  -1  -3  434.90   41.71
  -2  -1  -3  468.96   41.09
  -2  -1  -3  395.04   34.11
  -2  -1  -3  474.21   46.43
   2   1   4  784.33   71.24
   2   1   4  860.15   82.73
   2   1   4  887.85   95.59
  -2  -1  -4  718.58   73.62
  -2  -1  -4  690.81   71.12
  -2  -1  -4  756.14   79.12
   2   1   5  281.88   29.99
   2   1   5  358.81   38.73
  -2  -1  -5  406.82   43.46
  -2  -1  -5  396.05   42.11
   2   1   6  441.70   47.94
  -2  -1  -6  351.84   48.43
  -2  -1  -6  389.23   55.11
   2   1   7  277.90   37.22
  -2  -1  -7  275.86   64.31
  -2  -1  -7  297.40   50.75
   2   1   8 1438.88  176.74
  -2  -1  -8 1823.62  295.15
  -2  -1  -8 1426.64  199.61
   2   1   9  374.15   45.54
  -2  -1  -9  487.76   79.83
  -2  -1  -9  396.21   62.40
  -2  -1 -10  192.82   53.20
  -2  -1 -10  230.52   63.29
   2   2 -12  141.29   25.88
   2   2 -12   57.96   11.72
   2   2 -11  270.09   41.19
   2   2 -11  302.21   52.43
   2   2 -10  179.78   32.67
   2   2 -10  183.82   37.71
   2   2  -9 1106.61  137.90
  -2  -2   9  948.83  119.13
  -2  -2   9 1144.96  136.84
   2   2  -8   55.83   15.70
  -2  -2   8   40.74   10.49
  -2  -2   8   50.58   13.92
   2   2  -7 1347.82  149.89
   2   2  -7 1288.75  148.31
  -2  -2   7 1335.20  147.63
  -2  -2   7 1349.66  144.62
  -2  -2   7 1294.17  136.60
   2   2  -6 4617.06  653.90
   2   2  -6 4432.35  642.81
   2   2  -6 5090.93  713.84
  -2  -2   6 4909.94  684.51
  -2  -2   6 4605.68  638.35
  -2  -2   6 4549.93  634.27
  -2  -2   6 5189.43  737.78
   2   2  -5 1246.55  140.80
   2   2  -5 1380.83  145.41
   2   2  -5 1434.32  148.00
  -2  -2   5 1629.78  189.61
  -2  -2   5 1627.55  160.95
  -2  -2   5 1448.00  144.28
  -2  -2   5 1431.68  143.81
   2   2  -4 1986.57  228.14
   2   2  -4 2199.75  236.89
   2   2  -4 2118.27  229.72
  -2  -2   4 2418.62  259.83
  -2  -2   4 2507.75  272.30
  -2  -2   4 2117.25  230.11
  -2  -2   4 2117.39  235.73
   2   2  -3  731.69   74.89
   2   2  -3  666.63   61.64
   2   2  -3  711.51   66.46
   2   2  -3  744.79   70.68
  -2  -2   3  819.43   64.52
  -2  -2   3  996.40   83.26
  -2  -2   3  896.76   76.33
   2   2  -2 1656.68  162.85
   2   2  -2 1550.07  150.08
   2   2  -2 1481.23  164.87
   2   2  -2 1624.00  151.67
  -2  -2   2 2073.62  190.00
  -2  -2   2 1878.74  182.94
   2   2  -1 4322.45  515.67
   2   2  -1 4181.74  529.29
   2   2  -1 4377.75  501.56
   2   2  -1 3994.14  482.68
   2   2  -1 4574.41  571.98
  -2  -2   1 5304.57  622.26
  -2  -2   1 3817.34  484.58
  -2  -2   1 4094.50  512.83
  -2  -2   1 4103.50  491.38
   2   2   0 3781.48  449.74
   2   2   0 3632.80  393.03
   2   2   0 3954.40  443.84
   2   2   0 3739.15  424.54
   2   2   0 3486.47  439.67
  -2  -2   0 4422.95  468.53
  -2  -2   0 3374.75  433.82
  -2  -2   0 2978.34  350.00
  -2  -2   0 3475.11  420.32
   2   2   1 4280.20  536.23
   2   2   1 4342.05  529.01
   2   2   1 3603.00  474.36
  -2  -2  -1 4406.24  560.20
  -2  -2  -1 3989.65  497.54
  -2  -2  -1 4304.03  545.51
   2   2   2 1278.47  120.11
   2   2   2 1306.46  119.43
   2   2   2  900.35   97.39
  -2  -2  -2 1306.46  125.96
  -2  -2  -2 1236.21  119.26
  -2  -2  -2 1204.94  115.15
   2   2   3  663.85   59.49
   2   2   3  408.66   58.63
  -2  -2  -3  604.60   54.27
  -2  -2  -3  646.33   60.61
   2   2   4 1825.93  203.69
   2   2   4 1358.54  187.63
   2   2   4 2099.31  226.51
  -2  -2  -4 2016.52  226.27
  -2  -2  -4 1846.94  215.97
  -2  -2  -4 2090.42  246.44
  -2  -2  -4 2143.98  240.93
   2   2   5  263.24   33.03
   2   2   5  294.82   33.23
   2   2   5  189.73   40.11
  -2  -2  -5  374.79   47.79
  -2  -2  -5  340.38   41.34
   2   2   6   57.66   13.34
   2   2   6   37.53   12.73
  -2  -2  -6   84.53   21.91
  -2  -2  -6   73.34   17.55
   2   2   7 1551.94  207.10
  -2  -2  -7 1495.29  206.59
  -2  -2  -7 1756.40  289.29
  -2  -2  -8  231.87   49.72
  -2  -2  -8  162.02   36.11
  -2  -2  -9  695.85  103.08
  -2  -2  -9  526.19   80.00
  -2  -2 -10   17.62   12.71
   2   3 -12   27.03    9.16
   2   3 -12   32.79   24.21
   2   3 -11  377.47   62.34
   2   3 -11  406.12   74.95
   2   3 -10  256.68   42.52
   2   3 -10  242.69   47.23
   2   3  -9  209.40   33.75
  -2  -3   9  141.20   23.84
  -2  -3   9  169.30   30.58
   2   3  -8  204.76   29.99
   2   3  -8  247.64   37.71
  -2  -3   8  250.39   34.66
  -2  -3   8  233.08   30.31
   2   3  -7  349.39   40.55
   2   3  -7  336.47   46.67
  -2  -3   7  356.68   40.80
  -2  -3   7  346.21   39.57
   2   3  -6  693.75   68.75
   2   3  -6  621.58   73.77
   2   3  -6  684.20   72.88
  -2  -3   6  724.34   81.67
  -2  -3   6  605.48   65.71
  -2  -3   6  593.20   64.28
   2   3  -5 2610.71  323.26
   2   3  -5 2176.66  277.17
   2   3  -5 2713.80  337.04
  -2  -3   5 2910.99  347.78
  -2  -3   5 2430.16  301.48
  -2  -3   5 2898.51  354.17
  -2  -3   5 2316.11  299.36
   2   3  -4   55.55    9.24
   2   3  -4   63.24   11.84
   2   3  -4   59.45   10.42
  -2  -3   4   42.76   10.41
  -2  -3   4   56.05   12.56
  -2  -3   4   36.41    8.25
  -2  -3   4   52.19   10.29
   2   3  -3 1100.51  103.84
   2   3  -3  825.50  102.25
   2   3  -3  985.16   99.15
   2   3  -3 1127.48  107.35
  -2  -3   3 1502.22  135.82
  -2  -3   3 1147.93  104.98
  -2  -3   3 1373.08  129.49
   2   3  -2 1262.56  123.67
   2   3  -2 1000.49  108.98
   2   3  -2 1134.03  115.63
   2   3  -2 1346.81  128.32
  -2  -3   2 1689.10  149.87
  -2  -3   2 1286.75  127.24
  -2  -3   2 1308.99  121.17
  -2  -3   2 1569.09  166.38
   2   3  -1  382.25   37.13
   2   3  -1  378.31   31.74
   2   3  -1  319.76   23.84
   2   3  -1  378.16   35.87
  -2  -3   1  371.70   25.98
  -2  -3   1  346.62   35.20
  -2  -3   1  311.55   28.34
  -2  -3   1  402.22   40.75
  -2  -3   1  395.65   27.89
   2   3   0  163.14    8.95
   2   3   0  205.84   22.34
   2   3   0  198.70   13.18
   2   3   0  176.00   16.46
   2   3   0  151.41   28.97
  -2  -3   0  148.26   16.35
  -2  -3   0  161.65   20.26
  -2  -3   0  208.76   36.89
  -2  -3   0  171.77   16.20
   2   3   1   30.74    8.21
   2   3   1   29.84    9.28
  -2  -3  -1   28.32    7.86
  -2  -3  -1   23.90   10.27
  -2  -3  -1   25.93    7.43
  -2  -3  -1   21.85    7.16
   2   3   2 3240.37  378.83
   2   3   2 2314.34  297.82
  -2  -3  -2 2707.71  329.47
  -2  -3  -2 2991.26  364.59
  -2  -3  -2 3042.92  369.23
   2   3   3 2304.05  255.87
   2   3   3 1672.28  208.85
  -2  -3  -3 2182.94  251.04
  -2  -3  -3 2239.93  265.86
  -2  -3  -3 1938.43  230.07
  -2  -3  -3 2063.96  240.90
   2   3   4 1412.36  148.36
   2   3   4 1079.48  130.92
  -2  -3  -4 1324.62  160.54
  -2  -3  -4 1129.44  155.74
  -2  -3  -4 1347.48  150.01
   2   3   5 1657.18  213.34
  -2  -3  -5 1814.08  262.60
  -2  -3  -5 2094.32  272.64
   2   3   6  233.72   32.07
   2   3   6  182.57   32.74
  -2  -3  -6  276.94   49.65
  -2  -3  -6  216.07   56.14
   2   3   7  463.48   66.97
  -2  -3  -7  549.95   80.67
  -2  -3  -7  727.57  103.54
  -2  -3  -8  356.71   64.51
  -2  -3  -8  277.55   49.25
  -2  -3  -9   86.55   42.00
  -2  -3  -9   64.03   19.32
  -2  -3 -10   42.81   16.90
   2   4 -12  149.95   24.24
   2   4 -12  184.65   31.96
   2   4 -11   41.81   15.35
   2   4 -11   34.82   17.93
   2   4 -10  402.77   59.77
  -2  -4  10  358.24   44.38
  -2  -4  10  407.27   55.34
   2   4  -9  117.71   40.05
  -2  -4   9   99.28   30.16
  -2  -4   9   98.22   23.04
   2   4  -8  350.46   54.09
  -2  -4   8  363.25   66.27
  -2  -4   8  360.22   46.38
   2   4  -7  148.51   31.56
   2   4  -7  131.99   28.95
  -2  -4   7  141.45   23.04
  -2  -4   7  150.58   35.37
   2   4  -6 1553.50  164.76
   2   4  -6 1219.02  154.63
  -2  -4   6 1443.89  166.10
  -2  -4   6 1370.76  154.80
   2   4  -5 2013.84  223.95
   2   4  -5 1419.16  186.97
   2   4  -5 2215.85  255.76
  -2  -4   5 1925.43  218.51
  -2  -4   5 2542.01  281.47
  -2  -4   5 1908.77  247.77
   2   4  -4  969.49   92.22
   2   4  -4  585.03   87.60
   2   4  -4 1035.78  117.94
  -2  -4   4  937.47   98.82
  -2  -4   4  894.64   87.53
  -2  -4   4 1204.34  129.25
   2   4  -3  120.49   28.25
   2   4  -3  211.09   23.44
   2   4  -3  243.51   26.84
   2   4  -3  275.12   29.20
  -2  -4   3  240.20   28.13
  -2  -4   3  253.15   27.94
  -2  -4   3  342.59   34.01
  -2  -4   3  231.53   23.61
   2   4  -2   43.12   15.08
   2   4  -2   27.61   10.72
   2   4  -2   40.64    9.96
   2   4  -2   55.86   15.91
   2   4  -2   57.69    8.91
  -2  -4   2   56.34   16.78
  -2  -4   2   46.10   13.35
  -2  -4   2   66.77   12.91
   2   4  -1  194.69   17.20
   2   4  -1  298.04   29.55
   2   4  -1  271.42   28.57
   2   4  -1  306.24   28.55
   2   4  -1  285.38   29.96
  -2  -4   1  308.41   31.22
  -2  -4   1  269.86   19.98
  -2  -4   1  244.71   25.20
  -2  -4   1  313.50   49.67
   2   4   0 1689.66  178.42
   2   4   0 1495.32  154.24
   2   4   0 1346.00  149.87
  -2  -4   0 1546.50  155.46
  -2  -4   0 1527.80  166.40
  -2  -4   0 1789.78  197.61
  -2  -4   0 1400.08  153.18
   2   4   1   55.11   10.74
   2   4   1   52.57    8.28
   2   4   1   44.88   11.78
  -2  -4  -1   22.28    8.66
  -2  -4  -1   26.39    8.89
  -2  -4  -1   50.62   13.84
  -2  -4  -1   22.42    8.90
   2   4   2 1039.20  108.63
   2   4   2  836.36  100.49
  -2  -4  -2 1027.40  112.09
  -2  -4  -2  908.67  112.32
  -2  -4  -2  858.93  115.30
  -2  -4  -2 1063.58  121.69
   2   4   3  267.98   46.70
   2   4   3  233.78   35.30
  -2  -4  -3  265.05   37.85
  -2  -4  -3  217.21   33.57
   2   4   4 1064.80  130.98
  -2  -4  -4 1099.66  141.86
  -2  -4  -4  960.49  123.79
   2   4   5 1730.70  231.35
   2   4   5 1627.01  213.75
  -2  -4  -5 1737.03  237.43
  -2  -4  -5 1421.11  198.96
   2   4   6  292.23   49.97
  -2  -4  -6  411.47   65.26
  -2  -4  -6  329.48   53.95
   2   4   7    0.08   14.65
  -2  -4  -7   68.77   20.34
  -2  -4  -7   48.82   15.69
   2   4   8   -0.53    8.43
  -2  -4  -8   49.99   22.89
  -2  -4  -8   33.82   11.02
  -2  -4  -9  174.58   37.50
   2   5 -11  359.18   52.46
   2   5 -11  355.78   55.54
   2   5 -10    0.04    7.30
  -2  -5  10    2.33    4.85
  -2  -5  10    5.54    5.78
   2   5  -9  527.75  106.21
  -2  -5   9  537.04   70.14
  -2  -5   9  556.71   88.22
   2   5  -8  143.26   30.34
  -2  -5   8  112.63   23.10
  -2  -5   8  126.38   25.05
   2   5  -7  771.10  106.04
  -2  -5   7  983.21  140.77
  -2  -5   7  899.23  104.14
   2   5  -6  238.62   29.95
   2   5  -6  189.11   34.16
  -2  -5   6  219.02   34.87
  -2  -5   6  232.48   41.80
   2   5  -5  335.64   35.16
   2   5  -5  235.44   35.87
  -2  -5   5  266.64   33.81
  -2  -5   5  317.40   40.83
   2   5  -4  197.62   24.29
   2   5  -4  129.10   34.79
  -2  -5   4  275.68   33.57
  -2  -5   4  227.44   25.78
   2   5  -3  336.88   34.81
   2   5  -3  227.18   39.86
   2   5  -3  419.73   45.49
   2   5  -3  393.56   42.54
  -2  -5   3  303.69   40.30
  -2  -5   3  393.58   46.31
  -2  -5   3  261.30   32.78
   2   5  -2  570.05   58.57
   2   5  -2  733.34   74.45
   2   5  -2  369.67   50.40
   2   5  -2  593.58   62.22
   2   5  -2  609.41   59.65
  -2  -5   2  486.23   53.76
  -2  -5   2  645.61   68.38
  -2  -5   2  714.97   80.90
   2   5  -1  479.74   55.05
   2   5  -1  477.37   52.99
   2   5  -1  600.43   62.03
  -2  -5   1  573.86   61.82
  -2  -5   1  440.85   50.88
  -2  -5   1  638.79   75.62
   2   5   0  200.92   26.45
   2   5   0  204.51   25.75
   2   5   0  184.42   27.76
  -2  -5   0  218.70   27.26
  -2  -5   0  283.37   42.29
   2   5   1  885.41   95.83
   2   5   1 1057.88  129.26
   2   5   1  876.02  121.46
  -2  -5  -1  885.52  108.21
  -2  -5  -1  857.93  100.00
   2   5   2  193.61   25.57
   2   5   2  181.37   29.37
  -2  -5  -2  120.86   23.02
  -2  -5  -2  108.70   24.09
   2   5   3 2001.90  245.82
   2   5   3 1902.29  250.03
  -2  -5  -3 1951.42  249.15
  -2  -5  -3 1624.99  218.12
   2   5   4  214.31   32.36
   2   5   4  214.13   38.18
  -2  -5  -4  187.66   36.87
  -2  -5  -4  144.62   33.28
   2   5   5  661.93   87.93
  -2  -5  -5  615.32   87.90
  -2  -5  -5  446.80   72.43
   2   5   6  308.58   50.11
  -2  -5  -6  243.01   43.87
  -2  -5  -6  293.74   72.16
   2   5   7  166.71   31.60
  -2  -5  -7  203.54   38.49
  -2  -5  -7  148.85   32.03
   2   5   8   58.10   16.04
  -2  -5  -8  102.27   24.26
   2   6 -10   64.31   20.38
  -2  -6  10   58.16   14.23
  -2  -6  10   62.19   15.31
   2   6  -9   16.16   11.02
  -2  -6   9    8.03    8.17
  -2  -6   9    6.58   13.73
   2   6  -8  571.48   80.33
  -2  -6   8  473.75   62.49
  -2  -6   8  555.81   72.39
   2   6  -7  146.24   31.11
  -2  -6   7  124.45   24.29
  -2  -6   7  173.92   44.15
   2   6  -6  215.63   38.47
  -2  -6   6  246.85   49.22
  -2  -6   6  297.17   43.70
   2   6  -5   75.67   15.03
   2   6  -5   64.72   17.64
  -2  -6   5   70.71   16.06
  -2  -6   5   97.98   21.21
   2   6  -4  791.88   86.22
   2   6  -4  630.15   79.99
  -2  -6   4  724.04   82.14
  -2  -6   4  957.02  111.03
   2   6  -3   29.73   11.18
   2   6  -3   29.93    9.89
  -2  -6   3   70.54   15.20
  -2  -6   3   55.04   12.55
   2   6  -2 1632.25  196.91
  -2  -6   2 1642.01  198.59
  -2  -6   2 1852.62  230.17
   2   6  -1 1350.46  154.70
   2   6  -1 1296.27  156.25
  -2  -6   1 1248.88  152.12
   2   6   0  660.93   72.96
   2   6   0  660.85   79.16
  -2  -6   0  555.02   71.49
   2   6   1  300.50   36.34
   2   6   1  314.63   43.63
  -2  -6  -1  222.03   36.62
   2   6   2  923.81  105.30
   2   6   2  975.75  119.93
  -2  -6  -2  870.51  107.14
  -2  -6  -2  819.44  135.08
   2   6   3  468.69   56.08
   2   6   3  511.49   68.75
  -2  -6  -3  479.16   64.81
  -2  -6  -3  425.03   63.48
   2   6   4  340.78   74.66
  -2  -6  -4  345.18   50.85
  -2  -6  -4  285.98   48.44
   2   6   5  105.20   24.91
  -2  -6  -5   85.86   23.32
  -2  -6  -5   63.91   21.38
   2   6   6  328.23   49.30
  -2  -6  -6  340.16   51.77
  -2  -6  -6  244.99   42.89
  -2  -6  -7 2614.18  355.69
   2   7  -9    2.22    5.10
  -2  -7   9   -7.37    4.43
  -2  -7   9    2.12    3.48
   2   7  -8   87.07   36.53
  -2  -7   8   63.94   25.83
  -2  -7   8   78.07   21.27
   2   7  -7  438.99   64.39
  -2  -7   7  363.82   50.75
  -2  -7   7  482.04   64.40
   2   7  -6  253.63   42.76
  -2  -7   6  345.11   51.37
  -2  -7   6  233.60   36.22
   2   7  -5   48.88   16.16
  -2  -7   5   58.71   15.29
  -2  -7   5   77.07   21.84
   2   7  -4   86.57   18.36
  -2  -7   4  108.02   20.00
  -2  -7   4  147.13   27.41
   2   7  -3  313.05   43.99
  -2  -7   3  462.33   60.52
  -2  -7   3  349.92   48.23
   2   7  -2  232.92   34.51
  -2  -7   2  253.98   38.29
  -2  -7   2  218.92   38.46
   2   7  -1  426.88   59.13
  -2  -7   1  511.98   66.00
  -2  -7   1  477.42   62.30
   2   7   0   48.01   17.00
  -2  -7   0   28.76   15.08
  -2  -7   0   79.82   16.30
   2   7   1   49.37   17.32
  -2  -7  -1   47.32   15.10
  -2  -7  -1   40.01   13.94
   2   7   2  226.98   37.72
  -2  -7  -2  140.13   29.92
   2   7   3  579.11   74.69
  -2  -7  -3  365.86   56.70
   2   7   4  365.04   55.17
  -2  -7  -4  315.95   60.82
  -2  -7  -4  264.65   42.59
   2   7   5   61.34   19.91
  -2  -7  -5   49.51   16.05
   2   7   6   12.44   13.14
  -2  -7  -6   32.21   10.71
   2   8  -8   69.13   18.85
  -2  -8   8   60.02   13.67
  -2  -8   8   86.01   19.90
   2   8  -7   67.55   20.30
  -2  -8   7   72.79   16.26
  -2  -8   7  109.13   23.31
   2   8  -6  188.09   50.66
  -2  -8   6  232.72   33.66
  -2  -8   6  338.63   48.58
  -2  -8   5  154.45   26.09
  -2  -8   4  117.24   23.23
  -2  -8   4  177.64   34.86
   2   8  -3   15.96    7.80
  -2  -8   3   14.72    8.51
   2   8  -2  285.14   41.43
  -2  -8   2  288.21   42.84
  -2  -8   2  320.21   72.93
   2   8  -1  319.00   45.55
  -2  -8   1  307.52   47.73
  -2  -8   1  273.41   43.26
   2   8   0  187.49   30.96
  -2  -8   0  138.96   27.44
  -2  -8   0  151.18   29.18
   2   8   1  255.62   53.28
  -2  -8  -1  146.62   28.77
  -2  -8  -1  183.14   30.52
   2   8   2   27.78   14.13
  -2  -8  -2   15.52   17.56
   2   8   3  122.36   29.75
   2   8   4  203.40   39.26
   2   8   5   99.19   38.60
  -2  -9   6  152.78   22.58
  -2  -9   6  238.85   36.48
  -2  -9   5  110.25   19.32
  -2  -9   5  176.61   31.03
  -2  -9   4  136.63   22.82
  -2  -9   4  203.54   36.75
  -2  -9   3    0.79    3.58
  -2  -9   3    1.54    5.70
   2   9  -2    6.70    5.35
  -2  -9   2    8.48    8.61
  -2  -9   2    8.24    6.23
   2   9  -1   62.38   25.74
  -2  -9   1  109.05   21.38
  -2  -9   1   80.19   24.41
   2   9   0   39.16   13.52
  -2  -9   0   48.76   13.24
  -2  -9   0   45.76   12.23
   2   9   1   42.75   13.90
  -2  -9  -1   39.90   10.85
   2   9   2   78.23   17.11
  -2  -9  -2   47.80   11.16
   2   9   3   50.57   15.74
   3  -9  -4  112.77   19.12
   3  -9  -4  112.73   25.26
   3  -9  -3  151.34   22.10
   3  -9  -3  157.93   31.27
   3  -9  -2   47.22   17.07
   3  -9  -1  298.37   47.03
   3  -9   0  120.17   32.23
  -3   9   0   58.40   16.24
   3  -9   1   41.54   14.39
  -3   9  -1   41.41   14.39
   3  -9   2   10.34    7.92
  -3   9  -2    6.86    8.49
   3  -9   3  236.61   53.78
  -3   9  -3  306.40   45.79
   3  -9   4  109.09   20.82
  -3   9  -4  112.86   25.86
   3  -8  -7  102.06   24.77
   3  -8  -7  121.90   23.68
   3  -8  -6  140.61   26.89
   3  -8  -6  121.19   29.68
   3  -8  -5  422.43   59.08
   3  -8  -4  139.21   34.52
   3  -8  -4  161.44   29.94
   3  -8  -3  291.31   43.09
   3  -8  -3  255.45   49.54
   3  -8  -2  286.55   39.49
   3  -8  -2  268.77   48.44
   3  -8  -1  374.97   57.10
   3  -8  -1  277.89   39.38
  -3   8   1  348.00   49.03
   3  -8   0  437.27   66.54
  -3   8   0  474.54   67.45
   3  -8   1  239.76   57.83
  -3   8  -1  216.98   40.52
   3  -8   2   36.15   14.43
  -3   8  -2   53.10   18.06
   3  -8   3    8.05    7.84
  -3   8  -3    4.16   16.38
   3  -8   4  199.36   33.72
   3  -8   4  200.71   29.58
  -3   8  -4  263.00   43.84
   3  -8   5  625.36   80.25
   3  -8   5  736.52  103.74
  -3   8  -5  776.24  101.75
   3  -8   6  326.63   40.59
   3  -8   6  268.01   37.48
  -3   8  -6  369.96   74.88
   3  -7  -8   95.17   23.43
   3  -7  -8   61.48   22.82
  -3   7   8  102.84   22.22
   3  -7  -7   61.17   20.50
  -3   7   7   59.78   18.24
   3  -7  -6   43.33   16.41
   3  -7  -6   34.39   17.85
  -3   7   6   34.84   14.40
   3  -7  -5  703.74   94.81
   3  -7  -5  575.77   92.07
  -3   7   5  700.10   84.53
   3  -7  -4  485.29   67.72
   3  -7  -4  441.47   69.52
   3  -7  -3  198.80   34.67
   3  -7  -3  185.87   37.14
   3  -7  -2   67.20   21.35
  -3   7   2   78.43   17.02
   3  -7  -1    1.93    9.70
   3  -7  -1    2.62    8.13
  -3   7   1    2.64    5.70
   3  -7   0   61.70   19.16
   3  -7   0   88.69   16.49
  -3   7   0   77.57   21.13
   3  -7   1  202.26   34.24
   3  -7   1  218.50   29.34
  -3   7  -1  245.87   40.96
   3  -7   2  342.76   48.91
  -3   7  -2  472.84   66.02
   3  -7   3  237.38   34.27
   3  -7   3  231.68   37.35
  -3   7  -3  371.88   52.88
   3  -7   4   79.88   18.04
   3  -7   4   67.63   29.53
  -3   7  -4   69.19   24.12
   3  -7   5   97.22   21.58
   3  -7   5   79.75   19.85
  -3   7  -5   98.52   26.76
   3  -7   6  500.28   65.04
  -3   7  -6  644.38   85.04
   3  -7   7   30.64   11.59
  -3   7  -7   46.15   15.34
   3  -6  -9  217.30   38.72
   3  -6  -9  188.07   41.82
  -3   6   9  232.90   40.69
   3  -6  -8   79.96   30.83
   3  -6  -8  127.87   32.31
  -3   6   8  113.06   44.96
   3  -6  -7  148.93   34.98
   3  -6  -7  107.68   33.08
  -3   6   7  108.39   28.95
   3  -6  -6   76.37   27.88
   3  -6  -6  105.03   29.75
  -3   6   6  108.32   24.90
   3  -6  -5  178.64   36.74
   3  -6  -5  135.47   35.25
  -3   6   5  183.37   31.16
   3  -6  -4  294.63   53.89
   3  -6  -4  317.74   72.73
  -3   6   4  346.35   47.00
   3  -6  -3  833.93  107.05
   3  -6  -3  868.21  105.02
   3  -6  -2   35.28   13.07
   3  -6  -2   34.95   13.74
  -3   6   2   36.99   11.53
   3  -6  -1  199.04   32.89
   3  -6  -1  211.24   31.47
  -3   6   1  216.53   31.47
   3  -6   0  409.83   54.41
   3  -6   0  400.02   48.95
  -3   6   0  493.17   60.16
   3  -6   1 1095.13  134.34
   3  -6   1 1195.82  134.67
  -3   6  -1 1365.59  166.80
   3  -6   2   25.04    8.98
   3  -6   2   29.69    8.84
   3  -6   2   20.37   17.18
  -3   6  -2   58.34   24.81
   3  -6   3  209.24   31.32
  -3   6  -3  241.59   42.01
   3  -6   4   96.19   20.27
   3  -6   4   79.78   19.68
  -3   6  -4  118.09   26.80
   3  -6   5  764.15   96.14
   3  -6   5  686.28   88.60
  -3   6  -5  840.66  139.92
   3  -6   6  188.87   34.36
   3  -6   6  151.41   27.59
  -3   6  -6  185.18   35.60
   3  -6   7  624.65   79.23
   3  -6   7  489.46   66.98
  -3   6  -7  636.08   82.94
   3  -6   8   85.88   20.64
   3  -6   8   73.18   15.53
  -3   6  -8   71.32   17.76
   3  -5 -10  106.19   35.13
   3  -5 -10   74.22   27.22
  -3   5  10  113.28   42.47
   3  -5  -9  166.71   43.89
   3  -5  -9  221.59   45.74
  -3   5   9  278.21   45.19
   3  -5  -8  495.10   87.98
   3  -5  -8  622.61   92.02
  -3   5   8  599.24   85.30
   3  -5  -7  333.44   56.65
   3  -5  -7  276.80   53.11
  -3   5   7  303.16   49.73
   3  -5  -6  242.80   43.52
   3  -5  -6  188.39   41.20
  -3   5   6  217.79   36.34
   3  -5  -5  133.66   29.91
   3  -5  -5  166.76   32.77
   3  -5  -5  118.05   27.03
  -3   5   5  156.06   26.48
   3  -5  -4 1660.11  210.71
   3  -5  -4 1527.65  200.23
   3  -5  -4 1421.08  189.17
  -3   5   4 1648.06  194.45
   3  -5  -3  256.84   41.42
   3  -5  -3  287.59   41.76
   3  -5  -3  265.10   43.71
  -3   5   3  318.98   35.31
   3  -5  -2 1509.21  188.65
   3  -5  -2 1407.63  165.39
   3  -5  -2 1422.94  167.26
   3  -5  -1  447.07   55.02
   3  -5  -1  503.83   65.51
   3  -5  -1  471.71   54.33
   3  -5   0  153.54   32.85
   3  -5   0  225.39   37.12
  -3   5   0  131.16   23.56
   3  -5   1 1416.15  144.13
   3  -5   1 1038.63  121.20
   3  -5   1 1239.32  135.66
  -3   5  -1 1460.56  163.77
   3  -5   2  186.98   35.86
   3  -5   2  249.72   36.86
   3  -5   2  239.53   41.49
  -3   5  -2  239.65   37.40
   3  -5   3  527.26   65.13
   3  -5   3  746.62   74.55
   3  -5   3  668.42   72.21
  -3   5  -3  743.19  112.91
   3  -5   4  654.13   82.98
   3  -5   4  825.65   89.03
   3  -5   4  748.88  103.63
  -3   5  -4  787.04  101.56
   3  -5   5  617.24   80.39
   3  -5   5  627.33   75.22
  -3   5  -5  745.00   92.86
   3  -5   6 1547.47  176.39
   3  -5   6  921.47  121.65
  -3   5  -6 1099.96  145.72
   3  -5   7   68.16   21.86
   3  -5   7   70.20   17.70
  -3   5  -7   72.03   19.85
   3  -5   8  556.54   69.00
   3  -5   8  398.72   52.21
  -3   5  -8  368.52   54.25
   3  -5   9   15.00   17.60
   3  -4 -11   91.84   19.72
   3  -4 -11  130.80   31.13
  -3   4  11  213.78   31.16
   3  -4 -10   35.05   16.39
   3  -4 -10   34.00   19.76
  -3   4  10   41.63   17.96
   3  -4  -9  111.17   31.87
   3  -4  -9  112.04   28.31
  -3   4   9   80.91   28.18
   3  -4  -8  170.65   37.05
   3  -4  -8  155.49   39.02
  -3   4   8  205.55   45.53
   3  -4  -7  905.61  123.80
   3  -4  -7  904.72  129.99
  -3   4   7 1020.43  137.59
   3  -4  -6  605.78   82.65
   3  -4  -6  548.76   70.83
   3  -4  -6  601.56   86.74
  -3   4   6  729.96   89.44
   3  -4  -5 1004.23  131.94
   3  -4  -5 1028.86  123.29
   3  -4  -5 1010.19  127.84
  -3   4   5 1132.27  131.04
   3  -4  -4  108.54   31.65
   3  -4  -4  103.69   22.51
   3  -4  -4   97.98   20.45
   3  -4  -4  103.66   15.76
  -3   4   4  135.83   19.09
  -3   4   4  130.19   26.34
   3  -4  -3  916.51  105.36
   3  -4  -3  945.32  111.38
   3  -4  -3 1044.77  120.08
  -3   4   3  980.89  103.45
  -3   4   3  989.92  101.60
  -3   4   3 1182.68  137.33
   3  -4  -2  515.49   53.23
   3  -4  -2  547.75   77.08
   3  -4  -2  449.29   61.99
  -3   4   2  520.35   61.77
  -3   4   2  459.29   49.62
  -3   4   2  390.62   43.76
  -3   4   2  437.24   49.17
   3  -4  -1  486.60   48.17
   3  -4  -1  289.87   45.55
   3  -4  -1  298.07   38.58
  -3   4   1  474.76   52.78
  -3   4   1  426.88   47.33
  -3   4   1  546.49   51.00
   3  -4   0 1647.29  199.74
   3  -4   0 1593.86  166.77
   3  -4   0 1599.24  179.22
   3  -4   0 1535.77  186.24
  -3   4   0 1640.84  188.27
  -3   4   0 1629.32  184.80
  -3   4   0 1836.16  205.89
   3  -4   1  880.99   82.78
   3  -4   1  719.99   75.20
   3  -4   1  747.06   80.25
  -3   4  -1  822.99   89.25
  -3   4  -1  987.93  101.69
  -3   4  -1  934.41  103.45
  -3   4  -1 1103.17  112.35
   3  -4   2  726.97   83.78
   3  -4   2 1095.24  123.39
   3  -4   2 1261.50  122.31
   3  -4   2  924.27  107.65
  -3   4  -2 1069.89  120.14
  -3   4  -2 1189.19  134.00
  -3   4  -2 1573.66  157.78
   3  -4   3  727.95   83.91
   3  -4   3  928.25   94.77
   3  -4   3  883.02   90.52
  -3   4  -3  953.52  109.11
   3  -4   4 1905.97  245.05
   3  -4   4 2037.59  246.20
   3  -4   4 2363.66  282.17
  -3   4  -4 2326.97  294.04
   3  -4   5  550.57   65.22
   3  -4   5  613.97   69.05
  -3   4  -5  618.79   76.60
   3  -4   6  173.33   47.86
   3  -4   6  133.38   22.81
   3  -4   6  164.82   35.69
  -3   4  -6  189.93   30.54
   3  -4   7  620.75   80.69
   3  -4   7  581.04   73.39
  -3   4  -7  614.45   80.44
   3  -4   8   99.91   18.16
  -3   4  -8    0.65   14.07
   3  -4   9   97.65   37.00
   3  -3 -11   -0.30    7.24
   3  -3 -11    6.25    8.60
  -3   3  11    7.26    8.06
   3  -3 -10  239.80   41.09
   3  -3 -10  255.13   52.02
  -3   3  10  364.38   88.75
   3  -3  -9   27.63   12.94
   3  -3  -9   20.33   15.73
  -3   3   9   23.71   21.83
   3  -3  -8  298.97   53.02
   3  -3  -8  271.66   44.04
  -3   3   8  355.82   66.10
   3  -3  -7  170.36   32.23
   3  -3  -7  195.91   32.02
   3  -3  -7  232.79   40.93
  -3   3   7  253.56   46.03
   3  -3  -6  599.41   81.03
   3  -3  -6  852.74   97.60
   3  -3  -6  733.59   94.98
  -3   3   6 1066.82  116.68
   3  -3  -5  301.80   40.38
   3  -3  -5  278.07   39.27
   3  -3  -5  261.65   31.10
  -3   3   5  405.69   39.13
  -3   3   5  409.18   56.19
   3  -3  -4  811.88   90.56
   3  -3  -4  820.29   78.80
   3  -3  -4  746.30   88.02
   3  -3  -4  921.40  103.10
  -3   3   4  957.35  108.16
  -3   3   4  921.92   90.21
  -3   3   4  875.69   88.86
   3  -3  -3  404.48   46.11
   3  -3  -3  471.95   52.45
   3  -3  -3  417.62   55.78
   3  -3  -3  387.32   35.25
  -3   3   3  462.88   54.48
  -3   3   3  408.81   42.07
  -3   3   3  424.03   38.30
   3  -3  -2 2854.73  387.03
   3  -3  -2 3248.36  417.15
   3  -3  -2 2822.31  347.30
  -3   3   2 3382.43  427.89
  -3   3   2 2829.06  341.07
  -3   3   2 3164.39  417.09
  -3   3   2 3305.51  381.94
   3  -3  -1  705.64   57.72
   3  -3  -1  978.20   89.21
   3  -3  -1 1086.85  110.66
   3  -3  -1 1012.98   77.61
   3  -3  -1  992.98   96.60
  -3   3   1  899.35   93.34
  -3   3   1 1036.23  105.19
  -3   3   1  968.70   77.91
  -3   3   1  853.59   82.29
   3  -3   0  524.59   46.53
   3  -3   0  700.52   76.50
   3  -3   0  711.64   83.06
  -3   3   0  789.58   76.15
  -3   3   0  845.00   84.74
  -3   3   0 1078.28   97.55
   3  -3   1  469.44   44.64
   3  -3   1  544.26   47.46
   3  -3   1  571.24   65.94
   3  -3   1  581.72   55.95
  -3   3  -1  742.40   82.21
  -3   3  -1  658.69   59.20
  -3   3  -1  651.40   55.70
   3  -3   2 1814.49  214.77
   3  -3   2 2155.80  247.07
   3  -3   2 1964.53  218.86
  -3   3  -2 2974.23  330.67
  -3   3  -2 2280.92  268.36
  -3   3  -2 2686.58  292.67
  -3   3  -2 2520.83  296.90
   3  -3   3  816.51   89.92
   3  -3   3  932.66   98.19
   3  -3   3  835.08   84.09
  -3   3  -3 1115.67  112.61
  -3   3  -3  893.46  100.71
  -3   3  -3 1077.35  109.50
   3  -3   4  709.16   82.10
   3  -3   4  815.66   85.88
   3  -3   4  704.95   72.31
  -3   3  -4  793.77   88.48
   3  -3   5  162.18   24.04
   3  -3   5  160.85   27.96
   3  -3   5  161.85   21.78
  -3   3  -5  142.62   24.68
   3  -3   6   39.50   14.30
   3  -3   6   30.80   10.69
   3  -3   6   36.81   10.55
  -3   3  -6   33.23   11.89
   3  -3   7   39.34   13.91
   3  -3   7   16.93    9.39
   3  -3   7   29.66   10.41
   3  -3   8  281.49   44.90
  -3   3  -8  240.75   41.40
   3  -3   9   69.88   18.21
  -3   3  -9   40.31   14.20
   3  -2 -12   11.77   10.90
  -3   2  12   10.78    8.82
   3  -2 -11   97.18   29.39
  -3   2  11  113.36   51.89
   3  -2 -10  116.47   46.25
  -3   2  10  104.42   44.07
   3  -2  -9   42.13   15.12
   3  -2  -9   61.08   20.37
  -3   2   9   96.18   31.68
   3  -2  -8  809.47  106.03
   3  -2  -8  554.05   97.92
   3  -2  -8  874.09  100.68
  -3   2   8 1193.96  183.12
   3  -2  -7  682.90  117.74
   3  -2  -7 1131.89  126.78
   3  -2  -7 1004.26  122.72
  -3   2   7 1304.76  143.36
   3  -2  -6 1142.10  138.59
   3  -2  -6  671.74  108.75
   3  -2  -6  973.82   99.00
   3  -2  -6 1018.09  114.62
   3  -2  -6 1059.76  107.52
  -3   2   6 1081.23  113.50
  -3   2   6 1059.07  115.34
   3  -2  -5  598.34   74.49
   3  -2  -5 1029.37  107.35
   3  -2  -5  924.18   96.32
   3  -2  -5  966.44   89.38
  -3   2   5 1073.70  104.04
  -3   2   5  969.94  102.00
  -3   2   5 1111.82  106.98
   3  -2  -4  820.73   96.80
   3  -2  -4  672.44   76.03
   3  -2  -4  909.03   92.84
   3  -2  -4  846.47   83.83
  -3   2   4  885.67   87.05
  -3   2   4 1000.63   91.77
  -3   2   4  903.04   96.22
   3  -2  -3 1215.55  131.31
   3  -2  -3 1337.51  146.99
   3  -2  -3 1228.46  124.36
   3  -2  -3 1272.98  117.37
  -3   2   3 1515.77  161.11
  -3   2   3 1423.08  143.61
  -3   2   3 1540.25  143.93
   3  -2  -2 1806.23  193.83
   3  -2  -2 1437.51  113.89
   3  -2  -2 1547.92  152.52
   3  -2  -2 1495.44  156.53
   3  -2  -2 1593.29  125.05
  -3   2   2 1859.11  191.55
  -3   2   2 1708.31  160.78
  -3   2   2 1977.01  182.75
  -3   2   2 1928.37  220.49
   3  -2  -1 2924.42  333.03
   3  -2  -1 3512.22  449.27
   3  -2  -1 3563.04  440.20
   3  -2  -1 3063.98  359.64
  -3   2   1 3491.89  436.49
  -3   2   1 4304.40  472.45
  -3   2   1 3374.18  394.25
  -3   2   1 4196.79  515.36
  -3   2   1 4360.79  482.89
   3  -2   0  527.35   40.07
   3  -2   0  576.49   56.72
   3  -2   0  567.96   39.48
   3  -2   0  593.24   51.14
  -3   2   0  473.02   45.97
  -3   2   0  457.70   37.38
  -3   2   0  535.10   50.12
  -3   2   0  482.50   27.69
  -3   2   0  400.93   24.06
   3  -2   1 1442.08  147.20
   3  -2   1 1446.95  135.34
   3  -2   1 1523.19  173.02
   3  -2   1 1576.26  163.26
  -3   2  -1 1685.47  171.31
  -3   2  -1 1916.48  194.58
  -3   2  -1 1979.13  192.22
   3  -2   2  234.38   25.86
   3  -2   2  255.40   27.17
   3  -2   2  217.56   20.07
  -3   2  -2  330.81   44.57
  -3   2  -2  255.39   27.97
  -3   2  -2  412.63   35.39
  -3   2  -2  282.63   25.17
   3  -2   3 2032.65  234.68
   3  -2   3 2271.78  278.34
   3  -2   3 1961.04  210.77
  -3   2  -3 2112.56  238.06
  -3   2  -3 1969.85  229.91
  -3   2  -3 2302.63  287.89
  -3   2  -3 2151.48  253.28
   3  -2   4 1040.37  114.42
   3  -2   4 1101.95  117.24
   3  -2   4  992.01   98.16
  -3   2  -4 1009.38  108.69
  -3   2  -4 1112.32  115.02
   3  -2   5 2279.46  285.35
   3  -2   5 2308.10  308.32
   3  -2   5 2181.60  258.26
  -3   2  -5 2379.38  306.22
   3  -2   6 1316.69  155.66
   3  -2   6 1212.95  143.06
   3  -2   6 1126.81  128.24
   3  -2   7  468.99   62.82
  -3   2  -7  406.20   58.00
   3  -2   8  389.04   70.58
  -3   2  -8  257.90   40.76
  -3   2  -8  212.28   42.17
   3  -2   9  193.12   29.21
  -3   2  -9  101.15   27.25
  -3   2  -9  132.30   36.62
   3  -2  10  106.52   18.17
   3  -1 -12   34.90   17.52
  -3   1  12   39.99   13.42
   3  -1 -11  229.61   46.76
  -3   1  11  299.09   63.13
   3  -1 -10  595.65   91.46
  -3   1  10  765.97  130.33
   3  -1  -9 1264.48  156.47
   3  -1  -9 1256.43  175.57
  -3   1   9 1614.78  202.79
   3  -1  -8  200.30   30.41
   3  -1  -8  197.14   35.75
  -3   1   8  265.76   39.29
   3  -1  -7  284.82   54.21
   3  -1  -7  421.71   41.61
   3  -1  -7  532.40   55.89
   3  -1  -7  508.28   75.14
  -3   1   7  619.02   62.79
   3  -1  -6 4124.73  503.11
   3  -1  -6 2296.75  319.89
   3  -1  -6 3526.39  414.16
   3  -1  -6 3940.02  506.31
   3  -1  -6 4060.00  479.75
  -3   1   6 4102.60  493.18
  -3   1   6 4739.04  565.47
  -3   1   6 1927.58  276.25
   3  -1  -5 1891.05  208.20
   3  -1  -5 1812.29  200.27
   3  -1  -5 1265.28  146.36
   3  -1  -5 1734.87  187.45
   3  -1  -5 1842.74  187.90
  -3   1   5 2099.51  218.45
  -3   1   5 2382.31  247.21
  -3   1   5 1900.57  200.75
   3  -1  -4 5819.80  829.10
   3  -1  -4 5743.49  829.98
   3  -1  -4 5285.45  746.92
   3  -1  -4 5651.53  769.92
   3  -1  -4 4915.94  714.03
  -3   1   4 6384.27  910.01
  -3   1   4 5788.58  832.70
   3  -1  -3  989.06   89.16
   3  -1  -3  896.23   89.34
   3  -1  -3  987.99   91.56
   3  -1  -3  822.99   79.15
   3  -1  -3  919.74   72.64
  -3   1   3 1198.51  110.18
  -3   1   3 1175.17  106.82
   3  -1  -2 1998.33  191.37
   3  -1  -2 1711.73  149.55
   3  -1  -2 1900.13  200.85
   3  -1  -2 1872.64  188.64
   3  -1  -2 1605.70  147.54
   3  -1  -2 1863.19  162.35
  -3   1   2 1979.55  205.33
  -3   1   2 1981.02  202.78
  -3   1   2 2245.31  195.16
   3  -1  -1 1107.38   86.91
   3  -1  -1 1046.27   75.81
   3  -1  -1  976.75   84.11
   3  -1  -1 1019.45   98.46
   3  -1  -1 1149.79  112.93
  -3   1   1 1020.11   93.91
  -3   1   1  948.66   79.65
  -3   1   1 1009.06  106.64
  -3   1   1  945.62   68.46
  -3   1   1 1226.75   94.89
   3  -1   0 1539.33  117.94
   3  -1   0 1368.64  121.23
   3  -1   0 1424.81  137.44
   3  -1   0 1384.31  104.70
   3  -1   0 1527.16  140.33
  -3   1   0 1342.78  130.46
  -3   1   0  985.69   82.07
  -3   1   0 1221.32   97.65
  -3   1   0 1397.72  125.77
   3  -1   1 5781.06  751.53
   3  -1   1 6866.75  998.97
   3  -1   1 6694.71  976.45
   3  -1   1 6423.54  966.54
   3  -1   1 6656.28  910.00
  -3   1  -1 7014.46 1030.57
  -3   1  -1 5528.18  714.50
  -3   1  -1 6855.87  955.32
  -3   1  -1 7727.74 1144.58
   3  -1   2 2466.43  274.03
   3  -1   2 2268.57  256.37
   3  -1   2 2234.76  225.86
  -3   1  -2 2627.71  293.23
  -3   1  -2 2047.05  225.70
  -3   1  -2 2611.19  290.44
  -3   1  -2 2280.16  237.69
   3  -1   3  119.24   17.91
   3  -1   3  129.23   17.10
   3  -1   3  115.18   11.22
  -3   1  -3  124.95   13.14
  -3   1  -3  132.74   18.87
  -3   1  -3  124.53   19.88
  -3   1  -3  140.01   18.65
   3  -1   4 1476.01  163.29
   3  -1   4 1501.99  162.41
   3  -1   4 1303.90  131.74
  -3   1  -4 1440.43  163.07
  -3   1  -4 1431.50  148.46
  -3   1  -4 1546.25  168.38
   3  -1   5  327.51   41.86
   3  -1   5  306.48   38.61
   3  -1   5  285.47   30.82
   3  -1   6  819.24   98.66
   3  -1   6  744.10   92.14
  -3   1  -6  809.65   95.37
   3  -1   7  330.91   46.35
  -3   1  -7  288.28   49.18
  -3   1  -7  274.94   42.33
   3  -1   8 1008.13  119.36
  -3   1  -8  852.67  108.76
  -3   1  -8  830.74  121.07
   3  -1   9  287.23   38.49
  -3   1  -9  257.41   48.18
  -3   1  -9  231.83   38.20
   3  -1  10    8.32    5.47
   3   0 -12   51.15   19.35
  -3   0  12   55.95   15.02
   3   0 -11  112.47   32.53
  -3   0  11  185.42   46.46
   3   0 -10   89.60   20.48
   3   0 -10  104.66   27.22
  -3   0  10  131.82   52.12
   3   0  -9  593.48   75.55
   3   0  -9  551.48   77.55
  -3   0   9  659.88   85.63
   3   0  -8 2846.18  382.35
   3   0  -8 2583.82  357.98
  -3   0   8 3067.05  404.63
   3   0  -7  200.67   32.35
   3   0  -7  213.51   43.45
   3   0  -7  206.38   28.69
   3   0  -7  220.96   28.49
   3   0  -6 1153.33  122.42
   3   0  -6 1151.19  121.26
   3   0  -6  849.07   85.12
   3   0  -6  987.82   95.49
   3   0  -6 1100.24  112.09
   3   0  -6 1256.51  131.87
  -3   0   6 1204.37  140.89
  -3   0   6 1150.74  118.26
   3   0  -5   73.42   13.88
   3   0  -5  104.58   15.56
   3   0  -5   62.98    9.15
   3   0  -5   52.60    8.32
   3   0  -5   60.15   11.07
  -3   0   5  141.06   16.42
  -3   0   5  122.46   15.05
   3   0  -4 2181.64  249.20
   3   0  -4 2285.57  290.68
   3   0  -4 2380.70  255.70
   3   0  -4 2230.58  240.26
   3   0  -4 2385.06  247.42
  -3   0   4 3144.84  346.75
  -3   0   4 2504.69  269.14
  -3   0   4 2663.56  259.51
  -3   0   4 2810.81  305.58
   3   0  -3 3576.13  426.47
   3   0  -3 3568.48  437.54
   3   0  -3 3419.80  392.48
   3   0  -3 3094.70  343.03
   3   0  -3 3063.46  348.38
   3   0  -3 3563.97  391.05
  -3   0   3 3689.38  434.36
  -3   0   3 3675.09  396.89
  -3   0   3 4124.81  491.95
   3   0  -2  116.18   11.57
   3   0  -2  104.89    9.23
   3   0  -2  120.05   15.00
   3   0  -2  126.56   11.31
  -3   0   2  148.25   12.67
  -3   0   2  163.81   15.72
  -3   0   2  148.11   11.73
  -3   0   2  159.34   12.63
   3   0  -1 3028.24  335.36
   3   0  -1 2986.03  338.89
   3   0  -1 3091.12  360.40
   3   0  -1 3322.23  373.62
  -3   0   1 3239.92  358.67
  -3   0   1 3272.36  374.17
  -3   0   1 3316.11  374.88
  -3   0   1 3175.67  348.18
   3   0   0 6503.98  897.45
   3   0   0 6555.41  934.69
   3   0   0 6517.58  936.88
   3   0   0 5885.88  854.39
  -3   0   0 6864.79  980.79
  -3   0   0 6310.68  891.50
  -3   0   0 6524.79  945.78
  -3   0   0 6144.68  866.50
   3   0   1 2701.11  277.52
   3   0   1 2840.56  318.19
   3   0   1 2835.60  325.79
   3   0   1 2600.42  289.61
  -3   0  -1 2885.98  329.98
  -3   0  -1 2758.91  276.02
  -3   0  -1 2785.69  280.09
  -3   0  -1 2486.39  266.79
  -3   0  -1 3017.86  344.47
   3   0   2 9003.56 1475.72
   3   0   2 8711.18 1417.02
   3   0   2 7671.82 1205.87
  -3   0  -2 8506.84 1348.15
  -3   0  -2 7606.62 1192.33
  -3   0  -2 9177.18 1499.94
  -3   0  -2 9686.20 1586.43
   3   0   3  724.35   74.43
   3   0   3  666.48   67.98
  -3   0  -3  784.14   62.11
  -3   0  -3  772.81   67.33
  -3   0  -3  746.01   75.75
  -3   0  -3  779.16   79.75
   3   0   4  210.77   28.18
   3   0   4  196.19   25.53
  -3   0  -4  186.29   22.24
  -3   0  -4  244.91   28.90
  -3   0  -4  216.79   28.05
   3   0   5  195.18   29.61
   3   0   5  185.77   27.65
  -3   0  -5  170.39   24.08
   3   0   6 1438.91  171.33
  -3   0  -6 1265.10  155.13
   3   0   7  315.01   46.09
  -3   0  -7  311.11   61.04
  -3   0  -7  342.55   55.76
   3   0   8   71.77   19.18
  -3   0  -8   92.75   26.20
  -3   0  -8   70.40   19.98
   3   0   9   53.80   22.07
  -3   0  -9   61.04   23.70
  -3   0 -10  103.78   24.66
   3   1 -12    8.59    5.53
   3   1 -12   14.27    9.63
  -3  -1  12   -0.15   12.47
   3   1 -11  293.62   42.51
   3   1 -11  316.14   53.95
  -3  -1  11  340.29   65.29
   3   1 -10  127.75   27.44
   3   1 -10  124.58   29.66
  -3  -1  10  166.05   31.31
   3   1  -9  715.36  113.82
   3   1  -9  636.78   85.02
  -3  -1   9  664.22   86.54
   3   1  -8  222.72   36.55
   3   1  -8  226.92   35.01
   3   1  -8  221.21   35.60
   3   1  -7 3012.65  403.44
   3   1  -7 3035.51  407.29
   3   1  -7 3104.99  392.31
   3   1  -6  243.13   25.36
   3   1  -6  244.34   41.71
   3   1  -6  249.22   34.01
  -3  -1   6  296.12   33.38
  -3  -1   6  275.93   25.12
  -3  -1   6  296.69   32.05
   3   1  -5 4971.32  710.34
   3   1  -5 5248.14  760.00
   3   1  -5 5472.88  743.07
  -3  -1   5 5554.90  821.82
  -3  -1   5 5045.96  679.13
  -3  -1   5 4925.97  664.86
  -3  -1   5 5520.80  780.66
   3   1  -4 2614.93  290.87
   3   1  -4 2717.31  285.60
   3   1  -4 2454.71  282.31
   3   1  -4 2281.59  224.65
  -3  -1   4 2778.76  312.79
  -3  -1   4 2197.44  219.06
  -3  -1   4 2295.49  244.63
   3   1  -3 4642.80  624.22
   3   1  -3 4830.13  656.42
   3   1  -3 4160.67  553.44
   3   1  -3 4918.02  610.15
   3   1  -3 5003.56  619.18
  -3  -1   3 4921.22  622.45
  -3  -1   3 6329.52  836.53
  -3  -1   3 5882.61  778.26
   3   1  -2  438.77   47.78
   3   1  -2  467.51   32.19
   3   1  -2  440.39   48.36
   3   1  -2  417.71   36.72
  -3  -1   2  536.39   36.50
  -3  -1   2  521.23   44.78
  -3  -1   2  668.69   49.38
  -3  -1   2  574.39   45.11
   3   1  -1  790.61   65.78
   3   1  -1  799.91   61.10
   3   1  -1  745.53   64.67
   3   1  -1  728.25   59.47
  -3  -1   1  728.67   62.78
  -3  -1   1  846.68   66.03
  -3  -1   1  720.80   56.68
  -3  -1   1  765.15   62.96
   3   1   0 4717.55  629.97
   3   1   0 4673.04  603.48
   3   1   0 4139.18  529.82
   3   1   0 4586.67  596.73
  -3  -1   0 5007.45  660.11
  -3  -1   0 5824.00  717.41
  -3  -1   0 4864.89  628.62
   3   1   1 3427.98  399.15
   3   1   1 3375.59  381.49
   3   1   1 2952.69  329.38
   3   1   1 3232.27  365.81
  -3  -1  -1 3136.44  373.36
  -3  -1  -1 3292.96  343.33
  -3  -1  -1 2359.85  257.02
  -3  -1  -1 2992.28  346.92
   3   1   2   59.58   12.92
   3   1   2   33.81   16.41
  -3  -1  -2   89.34    8.43
  -3  -1  -2   53.79    8.33
  -3  -1  -2  176.59   25.04
   3   1   3  876.57   85.14
   3   1   3  792.92   78.09
   3   1   3  620.62   70.64
  -3  -1  -3  740.02   76.30
  -3  -1  -3  653.83   58.86
  -3  -1  -3  842.72   82.34
  -3  -1  -3  917.10   91.29
   3   1   4  412.45   45.61
   3   1   4  414.67   47.27
  -3  -1  -4  359.65   49.11
   3   1   5  915.64  101.75
   3   1   5  969.42  111.95
  -3  -1  -5  725.15  105.74
   3   1   6   83.21   18.66
  -3  -1  -6   86.68   24.43
  -3  -1  -6   62.73   18.05
   3   1   7 1081.83  131.06
  -3  -1  -7 1171.77  161.67
  -3  -1  -7  996.80  130.84
   3   1   8   98.59   19.63
  -3  -1  -8  129.24   52.21
  -3  -1  -8   76.09   21.09
   3   1   9   27.43    9.27
  -3  -1  -9   31.56   19.70
   3   2 -12  188.10   27.05
   3   2 -12  197.59   36.02
   3   2 -11  472.48   63.70
   3   2 -11  424.26   64.56
  -3  -2  11  441.79   73.05
   3   2 -10  211.48   36.48
   3   2 -10  196.58   37.12
  -3  -2  10  184.67   34.24
   3   2  -9  233.31   38.74
   3   2  -9  213.28   35.97
  -3  -2   9  197.59   35.31
   3   2  -8 1952.08  249.93
   3   2  -8 1968.48  256.92
  -3  -2   8 1937.06  234.21
   3   2  -7  580.28   65.03
   3   2  -7  565.59   66.44
  -3  -2   7  485.05   52.25
   3   2  -6 1258.47  139.75
   3   2  -6 1216.17  141.54
   3   2  -6 1307.70  138.12
  -3  -2   6 1580.81  168.11
  -3  -2   6 1361.28  138.19
  -3  -2   6 1464.18  155.98
  -3  -2   6 1273.89  127.97
   3   2  -5  440.27   46.38
   3   2  -5  395.48   60.15
   3   2  -5  432.10   39.39
  -3  -2   5  561.20   54.71
  -3  -2   5  519.75   49.57
  -3  -2   5  471.14   43.16
  -3  -2   5  434.23   36.11
   3   2  -4 3080.41  367.03
   3   2  -4 3279.13  381.96
   3   2  -4 2806.63  362.98
  -3  -2   4 3692.99  434.77
  -3  -2   4 3294.27  393.68
  -3  -2   4 2411.63  296.86
   3   2  -3  212.72   23.13
   3   2  -3  201.08   20.84
   3   2  -3  201.69   21.30
   3   2  -3  205.81   15.44
  -3  -2   3  378.27   28.56
   3   2  -2 1103.45  103.12
   3   2  -2  975.04   87.90
   3   2  -2 1013.61   98.80
   3   2  -2 1052.29   78.43
   3   2  -2  875.88   70.70
  -3  -2   2 1108.81   84.29
  -3  -2   2 1430.66  119.91
  -3  -2   2 1198.17  112.11
   3   2  -1 3415.81  426.59
   3   2  -1 3372.00  408.09
   3   2  -1 3109.13  351.68
   3   2  -1 3053.85  328.04
   3   2  -1 3498.89  385.99
  -3  -2   1 3228.95  395.55
  -3  -2   1 4055.90  448.92
  -3  -2   1 2915.21  326.12
  -3  -2   1 3573.00  429.01
   3   2   0 2410.26  269.03
   3   2   0 2103.65  205.70
   3   2   0 2522.27  259.95
   3   2   0 2180.24  243.19
  -3  -2   0 2444.49  273.43
  -3  -2   0 2895.58  272.71
  -3  -2   0 2011.10  200.51
  -3  -2   0 2517.23  279.40
   3   2   1  223.21   25.22
   3   2   1  216.40   20.87
   3   2   1  177.99   21.22
  -3  -2  -1  273.27   28.17
  -3  -2  -1  213.27   17.53
  -3  -2  -1  296.70   28.36
   3   2   2 2533.44  275.14
   3   2   2 2446.02  262.21
   3   2   2 1786.35  226.58
  -3  -2  -2 2347.83  268.02
  -3  -2  -2 1959.09  219.11
  -3  -2  -2 1812.43  208.38
   3   2   3 1377.63  135.28
   3   2   3  743.31   90.60
   3   2   3 1412.28  139.95
  -3  -2  -3 1052.27  106.65
  -3  -2  -3 1387.91  145.18
   3   2   4  282.05   35.47
   3   2   4  402.54   44.89
  -3  -2  -4  490.87   58.34
  -3  -2  -4  374.05   41.18
   3   2   5   77.85   17.62
  -3  -2  -5   93.52   24.11
  -3  -2  -5   72.86   16.74
   3   2   6 2343.80  312.52
  -3  -2  -6 2179.07  308.56
  -3  -2  -6 1735.62  236.78
   3   2   7   99.56   20.25
  -3  -2  -7   65.85   32.90
  -3  -2  -7  105.61   50.99
   3   2   8  263.65   38.50
  -3  -2  -8  355.55   65.23
   3   2   9   38.10    9.39
  -3  -2  -9   39.53   22.29
   3   3 -12   47.19   14.14
   3   3 -12   50.28   16.31
   3   3 -11   65.72   20.06
   3   3 -11   57.32   19.24
   3   3 -10  353.96   52.98
   3   3 -10  312.96   50.45
  -3  -3  10  283.78   43.53
   3   3  -9  104.97   22.90
   3   3  -9  132.37   30.33
  -3  -3   9  134.27   22.51
   3   3  -8 1015.33  123.19
   3   3  -8 1171.73  147.56
  -3  -3   8  980.51  113.58
  -3  -3   8 1009.63  112.43
   3   3  -7 1369.48  197.41
  -3  -3   7 1385.30  152.93
  -3  -3   7 1478.09  164.83
   3   3  -6 2689.75  329.71
   3   3  -6 2256.88  294.02
   3   3  -6 2818.95  340.83
  -3  -3   6 2598.65  315.74
  -3  -3   6 2422.68  286.50
   3   3  -5 2012.57  227.40
   3   3  -5 1900.80  213.01
   3   3  -5 1516.40  188.30
  -3  -3   5 2548.62  281.68
  -3  -3   5 1814.12  194.00
  -3  -3   5 1938.65  221.18
  -3  -3   5 2402.85  266.26
   3   3  -4  173.15   20.35
   3   3  -4  161.78   19.91
   3   3  -4  166.61   16.10
  -3  -3   4  211.20   32.46
  -3  -3   4  149.18   20.63
  -3  -3   4  142.67   13.81
  -3  -3   4  181.32   22.13
   3   3  -3 2114.51  233.44
   3   3  -3 1818.34  217.35
   3   3  -3 1991.23  215.43
   3   3  -3 2026.44  228.29
  -3  -3   3 2602.09  287.24
  -3  -3   3 2356.02  264.18
   3   3  -2  464.40   45.76
   3   3  -2  394.70   33.78
   3   3  -2  410.04   35.14
   3   3  -2  465.08   47.04
  -3  -3   2  566.19   44.16
  -3  -3   2  567.39   55.40
   3   3  -1 1231.66  116.42
   3   3  -1 1487.13  156.83
   3   3  -1 1143.84  110.80
   3   3  -1 1350.66  142.85
  -3  -3   1 1755.43  149.84
  -3  -3   1 1577.94  180.54
  -3  -3   1 1574.98  144.34
  -3  -3   1 1310.09  120.41
  -3  -3   1 1803.04  185.58
   3   3   0 2724.01  332.18
   3   3   0 2097.10  252.07
  -3  -3   0 2564.48  298.49
  -3  -3   0 2767.94  305.90
  -3  -3   0 2827.19  329.21
  -3  -3   0 2014.44  232.67
   3   3   1   15.32    6.78
   3   3   1   10.59    5.78
  -3  -3  -1   10.09   10.26
  -3  -3  -1   12.67    5.76
  -3  -3  -1   14.36    7.16
  -3  -3  -1    7.91    3.83
   3   3   2  335.85   36.87
   3   3   2  200.36   42.95
  -3  -3  -2  295.29   35.53
  -3  -3  -2  327.01   36.68
  -3  -3  -2  303.41   34.84
  -3  -3  -2  225.10   26.05
   3   3   3 1110.91  116.12
   3   3   3  646.66   86.67
  -3  -3  -3 1258.26  132.88
  -3  -3  -3  940.22   99.04
   3   3   4 1070.54  138.87
  -3  -3  -4 1320.53  153.40
  -3  -3  -4 1737.65  203.39
   3   3   5   28.46   12.72
   3   3   5   19.64   16.81
  -3  -3  -5   29.33   16.60
   3   3   6   17.48   11.11
  -3  -3  -6   32.20   27.92
   3   3   7  374.45   52.32
  -3  -3  -7  436.92   78.04
  -3  -3  -8   -2.04    8.96
  -3  -3  -9  186.65   38.41
   3   4 -12  131.24   25.38
   3   4 -11  128.51   27.67
   3   4 -11  160.09   47.85
   3   4 -10  302.82   50.68
   3   4 -10  275.87   48.04
   3   4  -9  351.40   49.16
   3   4  -9  426.51   63.69
  -3  -4   9  434.14   53.00
  -3  -4   9  425.91   50.65
   3   4  -8   64.31   16.84
   3   4  -8   65.09   20.23
  -3  -4   8   69.26   15.44
  -3  -4   8   77.44   16.28
   3   4  -7  152.21   22.45
   3   4  -7  120.88   25.18
  -3  -4   7  129.38   22.28
  -3  -4   7  108.58   17.57
   3   4  -6  800.96  101.44
  -3  -4   6 1099.26  119.74
  -3  -4   6 1037.27  104.16
   3   4  -5  883.93   87.42
   3   4  -5  890.82  102.71
   3   4  -5  506.59   65.86
  -3  -4   5  739.57   83.09
  -3  -4   5  816.77   87.32
   3   4  -4   72.44   13.73
   3   4  -4   47.33   12.37
   3   4  -4   77.95   12.48
  -3  -4   4   71.07    9.86
  -3  -4   4   86.69   16.22
  -3  -4   4  117.23   26.29
   3   4  -3  541.16   54.52
   3   4  -3  407.68   43.20
   3   4  -3  584.45   63.58
   3   4  -3  565.39   57.24
  -3  -4   3  795.64   79.43
  -3  -4   3  508.23   53.26
   3   4  -2 1867.61  213.10
   3   4  -2 1471.70  163.31
   3   4  -2 1866.14  213.92
   3   4  -2 2281.32  239.35
   3   4  -2 1893.48  207.29
  -3  -4   2 2432.44  268.52
  -3  -4   2 1774.33  185.72
  -3  -4   2 2860.92  315.40
   3   4  -1   63.15   13.91
   3   4  -1   52.31    8.33
   3   4  -1   56.11   13.59
  -3  -4   1   94.33   22.58
  -3  -4   1   73.61    9.11
  -3  -4   1  110.20   26.89
   3   4   0  122.45   19.76
   3   4   0   83.70   17.76
  -3  -4   0  132.50   19.56
  -3  -4   0   92.80   12.52
  -3  -4   0  155.04   24.41
  -3  -4   0  138.59   15.74
   3   4   1  462.71   48.16
   3   4   1  298.51   38.06
  -3  -4  -1  376.54   52.03
  -3  -4  -1  311.86   33.19
   3   4   2  150.68   22.90
   3   4   2   80.62   19.08
  -3  -4  -2  129.39   32.15
   3   4   3   34.90   20.63
  -3  -4  -3   43.79   24.37
   3   4   4 1123.63  158.94
   3   4   4  749.72  125.85
  -3  -4  -4 1058.25  141.68
   3   4   5 1769.95  219.94
   3   4   5 1225.84  169.86
  -3  -4  -5 1836.14  248.09
   3   4   6  116.95   25.04
  -3  -4  -6  210.73   40.90
  -3  -4  -7   90.57   30.96
  -3  -4  -8   69.57   23.66
   3   5 -11   80.20   19.58
   3   5 -11  117.72   38.48
   3   5 -10  387.12   35.68
   3   5 -10    2.43   21.74
   3   5  -9  190.66   39.37
  -3  -5   9  200.31   29.96
  -3  -5   9  218.67   31.14
   3   5  -8  235.54   35.20
   3   5  -8  218.39   40.80
  -3  -5   8  238.87   32.57
  -3  -5   8  274.12   37.92
   3   5  -7  496.29   57.21
   3   5  -7  353.78   54.92
  -3  -5   7  476.93   62.12
  -3  -5   7  406.85   47.80
   3   5  -6  254.89   32.31
   3   5  -6  154.44   30.07
  -3  -5   6  234.75   33.28
  -3  -5   6  168.53   23.79
   3   5  -5 1440.02  154.56
   3   5  -5  813.51  111.02
  -3  -5   5 1275.73  134.26
  -3  -5   5 1600.79  176.62
   3   5  -4  677.77   67.92
   3   5  -4  429.75   53.13
  -3  -5   4  659.66   74.35
  -3  -5   4  537.62   54.17
   3   5  -3  330.66   37.15
   3   5  -3  355.39   37.68
   3   5  -3  231.62   28.84
   3   5  -3  360.25   41.43
   3   5  -3  369.65   40.06
  -3  -5   3  281.10   30.45
   3   5  -2  165.42   23.60
   3   5  -2  186.66   24.89
   3   5  -2  174.42   28.75
  -3  -5   2  127.33   17.43
   3   5  -1  156.11   23.28
   3   5  -1  125.77   17.79
   3   5  -1  139.14   24.25
  -3  -5   1  172.29   26.87
   3   5   0  856.29  105.52
   3   5   0  694.78   79.24
  -3  -5   0  531.93   60.00
   3   5   1  743.06   83.29
   3   5   1  569.60   73.62
   3   5   2  453.63   55.84
   3   5   2  354.98   50.74
  -3  -5  -2  388.09   51.92
   3   5   3  307.63   43.25
   3   5   3  263.34   42.01
  -3  -5  -3  261.39   43.57
   3   5   4   92.02   21.42
   3   5   4   61.82   19.00
  -3  -5  -4   43.78   21.02
   3   5   5  353.67   54.07
  -3  -5  -5  445.76   65.94
   3   5   6   55.71   17.01
  -3  -5  -6   80.37   33.65
   3   5   7   39.83   12.60
  -3  -5  -7   83.51   19.97
   3   6 -10  107.48   25.09
   3   6 -10   73.66   20.01
   3   6  -9  216.41   39.42
  -3  -6   9  189.44   28.17
  -3  -6   9  237.58   33.56
   3   6  -8   40.91   15.24
  -3  -6   8   22.84   15.51
  -3  -6   8   24.93   13.14
   3   6  -7  190.33   29.51
   3   6  -7  172.77   49.16
  -3  -6   7  243.39   38.02
  -3  -6   7  163.30   24.81
   3   6  -6  211.22   31.43
   3   6  -6  161.24   30.97
  -3  -6   6  220.28   35.31
  -3  -6   6  154.79   24.00
   3   6  -5   56.81   13.75
   3   6  -5   44.18   13.58
  -3  -6   5   41.12   11.44
  -3  -6   5   63.27   27.78
   3   6  -4  118.10   19.74
  -3  -6   4  131.69   25.64
  -3  -6   4   83.59   16.05
   3   6  -3  332.87   42.20
  -3  -6   3  359.80   49.91
  -3  -6   3  251.36   46.49
   3   6  -2  920.22  113.55
   3   6  -2 1068.56  124.45
   3   6  -1  762.97   95.03
   3   6  -1  850.19  100.44
   3   6   0  157.43   26.97
   3   6   0  149.37   32.40
   3   6   1  897.94  106.83
   3   6   1  843.54  112.58
   3   6   2   51.34   15.29
   3   6   2   53.81   18.98
   3   6   3  287.87   40.04
   3   6   3  306.74   48.18
  -3  -6  -3  249.44   41.25
   3   6   4   35.13   12.05
   3   6   4   39.97   16.23
  -3  -6  -4   37.58   14.01
   3   6   5  166.14   31.98
  -3  -6  -5  155.57   30.32
   3   6   6   -0.21    8.01
  -3  -6  -6   19.43    8.56
   3   7  -9    6.08    6.55
  -3  -7   9    2.29    3.52
  -3  -7   9    2.79    5.29
   3   7  -8  307.02   47.90
  -3  -7   8  246.74   33.40
  -3  -7   8  377.49   48.00
   3   7  -7    3.64    7.49
  -3  -7   7    3.75   14.88
  -3  -7   7    7.16    5.06
   3   7  -6   60.36   17.64
   3   7  -6   81.15   19.50
  -3  -7   6  133.44   26.43
  -3  -7   6   80.30   15.37
   3   7  -5  284.24   41.66
  -3  -7   5  235.07   47.17
  -3  -7   5  375.95   53.55
   3   7  -4  724.69   95.71
  -3  -7   4  994.31  126.13
   3   7  -3  250.95   53.87
  -3  -7   3  299.49   47.88
   3   7  -2  196.36   33.34
  -3  -7   2  229.49   38.92
   3   7  -1  163.12   30.58
  -3  -7   1  166.70   32.02
   3   7   0  225.57   26.12
  -3  -7   0    1.28   19.68
   3   7   1   96.62   20.84
   3   7   1  107.69   41.82
   3   7   2  377.13   50.42
   3   7   2  441.49   66.87
   3   7   3   17.94    8.11
   3   7   3   20.36   13.77
   3   7   4   51.95   19.42
   3   7   5   81.19   33.16
   3   8  -8   35.68   13.00
  -3  -8   8   66.01   15.89
   3   8  -7  119.36   26.30
  -3  -8   7  155.90   25.94
  -3  -8   7  308.01   37.67
  -3  -8   6   54.92   21.75
   3   8  -5    8.71    8.26
  -3  -8   5   32.06   13.25
   3   8  -4  125.87   23.42
   3   8  -3  198.87   31.87
   3   8  -2    8.89    8.38
  -3  -8   2   12.56   10.86
   3   8  -1  138.01   28.20
  -3  -8   1  137.52   28.90
   3   8   0   21.18   13.10
  -3  -8   0   28.64   12.49
   3   8   1  135.05   25.65
  -3  -8  -1   69.65   20.05
   3   8   2   26.70   11.78
  -3  -8  -2    8.12    7.71
   3   8   3  189.29   36.59
   3   8   4   14.23   10.49
  -3  -9   6  291.29   46.61
  -3  -9   5  101.95   43.79
   3   9  -4   90.09   22.17
  -3  -9   4  314.12   39.24
   3   9  -3    4.94    5.45
  -3  -9   3   15.80    9.58
   3   9  -2  196.08   33.79
  -3  -9   2  316.24   44.73
   3   9  -1   42.16   12.34
  -3  -9   1   34.00   14.13
   3   9   0   39.18   23.57
  -3  -9   0   53.53   13.90
   3   9   1   24.29   11.67
   4  -9  -4  121.05   18.70
   4  -9  -3    4.66    9.05
   4  -9  -3   28.72    7.88
   4  -9  -2  117.98   16.83
   4  -9  -2  123.51   33.04
   4  -9  -1   55.04    9.32
   4  -9  -1   67.99   14.65
  -4   9   1   74.59   22.81
   4  -9   0   42.37   12.65
  -4   9   0   59.18   23.79
   4  -9   1  106.75   19.07
  -4   9  -1  147.41   26.84
   4  -9   2  217.64   26.50
  -4   9  -2  339.36   45.35
   4  -8  -6  197.31   54.16
   4  -8  -5  182.42   49.68
   4  -8  -5  264.59   55.99
   4  -8  -4    2.36    6.14
   4  -8  -4    4.40    6.70
   4  -8  -3  524.39   74.01
   4  -8  -3  717.72   83.50
   4  -8  -2   24.12   12.02
   4  -8  -2   25.49   11.51
  -4   8   2   30.51   11.49
   4  -8  -1   26.03   13.02
   4  -8  -1   31.99   11.59
  -4   8   1   57.09   15.60
   4  -8   0  106.40   17.57
   4  -8   0   85.48   19.22
  -4   8   0  122.33   26.68
   4  -8   1   54.23   15.56
  -4   8  -1   99.46   23.89
   4  -8   2   99.23   20.78
  -4   8  -2  173.99   33.17
   4  -8   3  232.68   32.64
  -4   8  -3  413.83   79.15
   4  -8   4   50.55   11.24
  -4   8  -4   62.60   20.72
  -4   8  -5  137.60   28.80
   4  -7  -8   18.02   10.08
   4  -7  -8   23.72   12.50
   4  -7  -7   43.03   15.72
   4  -7  -7   23.30   13.75
   4  -7  -6   83.53   22.55
  -4   7   6   96.62   18.59
   4  -7  -5    1.02    4.33
   4  -7  -5   -0.50    3.80
   4  -7  -4  224.23   47.01
   4  -7  -4  652.12   72.50
   4  -7  -3  327.25   49.57
   4  -7  -3  257.01   42.92
  -4   7   3  252.29   38.79
   4  -7  -2  696.03   94.28
   4  -7  -2  852.51  103.82
  -4   7   2  819.86  103.12
   4  -7  -1  293.10   50.77
   4  -7  -1  413.19   52.74
  -4   7   1  454.62   60.71
   4  -7   0   85.22   24.75
   4  -7   0  126.29   22.12
  -4   7   0  142.96   30.61
   4  -7   1  292.23   42.65
  -4   7  -1  926.33   87.62
   4  -7   2   38.70   10.95
   4  -7   2   35.97   11.93
  -4   7  -2   51.15   18.91
   4  -7   3   30.18   17.88
  -4   7  -3   46.39   18.54
   4  -7   4  416.41   45.42
   4  -7   4  182.74   30.29
  -4   7  -4  338.31   73.52
   4  -7   5  122.57   21.57
   4  -7   5   89.94   24.99
  -4   7  -5  109.00   27.64
   4  -7   6   96.59   20.46
  -4   7  -6  114.85   23.76
   4  -6  -9  201.83   34.59
   4  -6  -9  143.40   29.57
  -4   6   9  266.20   36.21
   4  -6  -8   25.35   14.39
   4  -6  -8   27.50   22.80
  -4   6   8   27.20   13.62
   4  -6  -7   41.86   18.40
   4  -6  -7   43.25   18.73
  -4   6   7   50.35   16.03
   4  -6  -6   83.10   42.29
  -4   6   6  122.12   23.98
   4  -6  -5  312.62   52.72
   4  -6  -5  449.95   62.41
   4  -6  -5  353.62   54.71
  -4   6   5  470.59   56.86
   4  -6  -4   38.96   16.33
   4  -6  -4   38.42   14.63
   4  -6  -4   54.05   17.14
   4  -6  -3  157.85   34.25
   4  -6  -3  174.56   32.23
   4  -6  -3  147.16   27.65
   4  -6  -2   29.73   10.72
   4  -6  -2   43.94   12.84
  -4   6   2    4.44   10.93
   4  -6  -1  278.37   42.12
   4  -6  -1  385.11   48.40
  -4   6   1  397.44   50.93
   4  -6   0  229.95   36.52
   4  -6   0  320.94   40.99
  -4   6   0  410.51   51.64
   4  -6   1   67.62   21.16
   4  -6   1   73.32   25.62
  -4   6  -1  100.34   23.79
   4  -6   2  210.44   28.38
   4  -6   2  155.17   24.26
  -4   6  -2  278.43   60.27
   4  -6   3   14.75    9.18
   4  -6   3   25.40   15.07
   4  -6   3   14.28   13.69
  -4   6  -3   33.27   13.80
   4  -6   4   12.39   14.37
   4  -6   4    7.84    7.37
  -4   6  -4   32.43   12.37
   4  -6   5  232.18   34.99
   4  -6   5  169.53   26.56
  -4   6  -5  311.25   44.73
   4  -6   6  103.50   17.93
  -4   6  -6  149.05   27.24
   4  -5 -10   23.15   12.71
   4  -5 -10   26.56   11.78
  -4   5  10   40.77   15.08
   4  -5  -9  174.58   33.02
   4  -5  -9  150.09   33.98
  -4   5   9  166.98   33.83
   4  -5  -8   67.50   23.97
   4  -5  -8   82.06   37.35
  -4   5   8   99.85   23.52
   4  -5  -7  331.66   84.44
   4  -5  -7  284.93   50.54
  -4   5   7  366.06   50.44
   4  -5  -6   99.91   25.91
   4  -5  -6  518.32   60.11
   4  -5  -6   92.89   26.86
  -4   5   6   89.48   22.70
   4  -5  -5  245.58   43.57
   4  -5  -5  205.21   54.87
   4  -5  -5  206.91   37.67
  -4   5   5  255.26   34.81
   4  -5  -4 1193.23  156.68
   4  -5  -4 1410.50  190.19
   4  -5  -4 1215.61  156.61
  -4   5   4 1558.00  172.40
   4  -5  -3  980.18  124.93
   4  -5  -3  860.47  104.03
   4  -5  -3  718.06   87.85
   4  -5  -2  949.18  111.76
   4  -5  -2 1238.39  158.14
   4  -5  -2 1135.62  134.33
   4  -5  -1   41.39   20.86
   4  -5  -1   90.59   22.26
   4  -5  -1   80.29   25.64
   4  -5   0  699.88   79.43
   4  -5   0  891.18   99.71
  -4   5   0 1121.88  119.35
   4  -5   1   73.77   19.54
   4  -5   1   85.82   16.88
  -4   5  -1  110.83   22.45
   4  -5   2   96.48   19.44
   4  -5   2  195.13   24.69
   4  -5   2  148.86   20.35
  -4   5  -2  263.95   34.95
   4  -5   3  174.92   27.19
   4  -5   3  140.88   30.60
  -4   5  -3  196.07   34.18
   4  -5   4  207.98   39.39
   4  -5   4  126.55   20.67
   4  -5   4  156.60   24.96
  -4   5  -4  143.52   31.11
   4  -5   5   81.01   20.28
   4  -5   5   78.43   23.98
   4  -5   5   69.10   21.73
  -4   5  -5   81.50   32.58
   4  -5   6  615.44   83.24
  -4   5  -6  719.72   91.32
   4  -5   7  246.27   41.69
   4  -5   8   42.22   15.75
   4  -4 -11  109.68   23.84
  -4   4  11  202.01   31.99
   4  -4 -10  161.79   34.25
   4  -4 -10  158.53   28.16
  -4   4  10  225.62   37.99
   4  -4  -9  544.43  105.61
   4  -4  -9  448.35   99.00
  -4   4   9  659.87  124.65
   4  -4  -8  445.81   68.52
   4  -4  -8  401.30   94.94
  -4   4   8  543.09   81.20
   4  -4  -7  275.66   49.12
   4  -4  -7  290.58   46.76
   4  -4  -7  249.34   66.32
  -4   4   7  384.74   54.86
   4  -4  -6 1652.33  218.41
   4  -4  -6 1465.67  200.91
   4  -4  -6 1317.05  209.97
  -4   4   6 1922.55  231.95
   4  -4  -5  447.63   64.30
   4  -4  -5  562.46   73.51
   4  -4  -5  431.16   57.87
  -4   4   5  526.72   62.09
   4  -4  -4  770.31   93.15
   4  -4  -4  540.33   67.58
   4  -4  -4  589.29   69.95
  -4   4   4  702.38   73.00
   4  -4  -3  480.80   61.47
   4  -4  -3  406.91   50.98
   4  -4  -3  349.61   56.63
   4  -4  -3  375.34   37.96
  -4   4   3  600.71   52.25
   4  -4  -2 2201.37  304.84
   4  -4  -2 2075.55  249.00
   4  -4  -2 1727.01  201.23
   4  -4  -1 1463.85  182.54
   4  -4  -1 1330.86  174.86
   4  -4   0  126.47   16.02
   4  -4   0  172.48   30.71
   4  -4   0  150.15   21.83
   4  -4   1   83.10   12.29
   4  -4   1  117.79   14.83
   4  -4   1   96.61   17.55
  -4   4  -1  170.80   22.74
   4  -4   2  175.62   26.08
   4  -4   2  263.83   31.29
   4  -4   2  224.28   23.80
  -4   4  -2  263.07   35.31
   4  -4   3   39.58   13.74
   4  -4   3   68.39   15.07
   4  -4   3   52.42   10.40
  -4   4  -3   67.88   17.50
   4  -4   4  314.32   45.17
   4  -4   4  410.45   50.62
  -4   4  -4  449.13   57.12
   4  -4   5  221.55   35.48
   4  -4   5  247.56   34.23
  -4   4  -5  221.15   36.51
   4  -4   6  280.37   42.77
   4  -4   6  247.13   34.37
  -4   4  -6  234.79   37.64
   4  -4   7   75.93   21.84
  -4   4  -7   59.50   18.94
   4  -4   8  153.81   30.55
   4  -3 -11  103.91   40.94
  -4   3  11  138.00   30.57
   4  -3 -10  266.91   46.00
   4  -3 -10  204.07   33.20
  -4   3  10  367.36   66.74
   4  -3  -9   48.42   16.74
   4  -3  -9   43.18   18.59
  -4   3   9   63.26   28.53
   4  -3  -8  155.29   40.88
   4  -3  -8   91.12   24.75
   4  -3  -8  107.82   26.69
  -4   3   8  162.59   37.73
   4  -3  -7  858.83  111.78
   4  -3  -7 1167.73  139.64
   4  -3  -7  645.45   95.85
  -4   3   7 1246.03  149.30
   4  -3  -6  379.77   52.60
   4  -3  -6  235.98   41.21
   4  -3  -6  285.82   41.84
  -4   3   6  419.24   47.34
   4  -3  -5  395.67   53.21
   4  -3  -5  247.32   37.92
   4  -3  -5  265.89   37.28
   4  -3  -5  252.24   27.92
  -4   3   5  403.13   39.97
   4  -3  -4  150.02   41.65
   4  -3  -4  104.90   17.60
   4  -3  -4  104.78   19.27
  -4   3   4  162.74   22.86
  -4   3   4  179.34   19.01
   4  -3  -3 1611.85  188.53
   4  -3  -3 1205.64  118.98
   4  -3  -3 1215.82  130.65
   4  -3  -3 1273.07  145.66
  -4   3   3 1643.48  177.07
  -4   3   3 1672.94  161.98
  -4   3   3 1836.92  206.85
   4  -3  -2  318.93   31.48
   4  -3  -2  431.60   54.29
   4  -3  -2  383.15   44.67
  -4   3   2  496.03   52.01
  -4   3   2  405.88   36.44
  -4   3   2  577.07   49.71
  -4   3   2  585.80   61.16
   4  -3  -1  714.23   83.00
   4  -3  -1  565.27   50.50
   4  -3  -1  700.05   73.21
  -4   3   1  876.42   88.40
  -4   3   1  709.89   63.52
  -4   3   1 1009.60   97.79
   4  -3   0  141.16   14.72
   4  -3   0  188.98   28.15
   4  -3   0  158.89   14.30
   4  -3   0  187.20   22.73
  -4   3   0  235.32   29.75
  -4   3   0  153.32   16.54
  -4   3   0  170.39   16.16
   4  -3   1  694.85   84.31
   4  -3   1  554.53   66.78
   4  -3   1  756.70   86.65
   4  -3   1  610.94   52.96
  -4   3  -1 1086.54  119.59
   4  -3   2 1205.02  126.73
   4  -3   2  904.77  114.48
  -4   3  -2 1079.43  121.70
   4  -3   3 1991.43  255.92
   4  -3   3 1447.85  177.51
  -4   3  -3 1923.63  228.06
   4  -3   4  272.98   40.15
   4  -3   4  300.65   40.49
  -4   3  -4  353.85   43.54
   4  -3   5  541.17   69.10
   4  -3   5  560.62   85.37
  -4   3  -5  543.63   81.79
   4  -3   6  124.04   23.66
   4  -3   6  142.40   29.67
   4  -3   7  867.48   58.14
  -4   3  -7   -1.64   28.76
   4  -3   8  178.73   29.05
  -4   3  -8   79.74   23.11
   4  -3   9  171.15   28.19
  -4   2  12  184.61   33.23
   4  -2 -11   47.46   18.60
  -4   2  11   80.62   32.93
   4  -2 -10  165.93   36.20
  -4   2  10  239.91   61.45
   4  -2  -9  238.16   38.40
   4  -2  -9  177.45   38.12
  -4   2   9  322.61   64.60
   4  -2  -8  986.39  111.54
   4  -2  -8  483.58   72.19
   4  -2  -8  705.10  111.81
  -4   2   8  932.33  107.68
   4  -2  -7  734.03   83.15
   4  -2  -7  351.14   53.47
   4  -2  -7  549.36   84.03
  -4   2   7  737.04   80.11
   4  -2  -6 1942.23  238.62
   4  -2  -6 2598.36  314.81
   4  -2  -6 1499.96  199.73
   4  -2  -6 2117.25  236.07
  -4   2   6 3002.97  332.97
   4  -2  -5  296.00   37.07
   4  -2  -5  206.96   29.08
   4  -2  -5  211.32   26.14
   4  -2  -5  211.98   20.64
  -4   2   5  350.38   36.71
  -4   2   5  376.21   34.74
   4  -2  -4  123.59   19.32
   4  -2  -4   91.57   11.90
   4  -2  -4   82.11   13.88
   4  -2  -4   92.01    9.16
  -4   2   4   95.90   17.09
  -4   2   4   99.62   13.82
  -4   2   4  100.75   18.56
   4  -2  -3 1108.59  117.92
   4  -2  -3  824.82   75.03
   4  -2  -3  937.49   94.85
   4  -2  -3  854.17   76.02
  -4   2   3 1137.99  112.15
  -4   2   3 1278.97  129.11
   4  -2  -2 4366.37  598.74
   4  -2  -2 4237.12  559.19
   4  -2  -2 3556.13  431.37
   4  -2  -2 3460.24  411.78
  -4   2   2 4784.71  630.38
  -4   2   2 5215.78  686.92
   4  -2  -1    1.61    5.08
   4  -2  -1    3.51    8.62
   4  -2  -1   11.78    7.17
  -4   2   1   18.29   12.26
  -4   2   1   21.85    8.94
  -4   2   1   19.22    2.88
  -4   2   1   23.80    2.62
   4  -2   0  323.38   28.33
   4  -2   0  372.87   57.27
   4  -2   0  377.54   36.88
  -4   2   0  346.81   39.15
  -4   2   0  349.78   30.58
   4  -2   1 1042.85  105.84
   4  -2   1  842.69   87.07
   4  -2   1 1002.38  113.80
  -4   2  -1 1218.27  123.10
  -4   2  -1 1188.82  111.98
   4  -2   2  281.06   34.46
   4  -2   2  229.74   29.11
  -4   2  -2  423.49   42.95
  -4   2  -2  322.72   34.48
   4  -2   3  241.10   30.84
   4  -2   3  269.23   33.31
  -4   2  -3  222.78   29.45
   4  -2   4 1831.65  227.52
   4  -2   4 1901.20  232.32
  -4   2  -4 1911.11  226.52
   4  -2   5    5.74    7.49
   4  -2   5    5.67    6.77
   4  -2   6   62.78   19.53
   4  -2   6   53.38   16.36
   4  -2   7   94.59   26.83
  -4   2  -7  112.07   29.34
   4  -2   8  889.04  108.05
  -4   2  -8  707.60  105.46
   4  -2   9   93.54   20.24
   4  -1 -12    6.96    6.73
  -4   1  12    1.98   17.99
   4  -1 -11  447.01   58.66
   4  -1 -11  382.85   63.63
  -4   1  11  727.73  112.00
   4  -1 -10  214.35   34.07
   4  -1 -10  153.60   34.43
  -4   1  10  286.81   65.24
   4  -1  -9  436.18   79.14
   4  -1  -9  337.81   54.12
  -4   1   9  513.40   68.32
   4  -1  -8  628.56   83.94
   4  -1  -8  781.81   96.01
  -4   1   8 1001.95  114.59
   4  -1  -7 2461.56  294.81
   4  -1  -7 1714.02  213.90
   4  -1  -7 1955.86  219.35
   4  -1  -7 1842.24  230.10
  -4   1   7 2759.09  322.26
   4  -1  -6  227.54   30.09
   4  -1  -6  205.35   27.63
   4  -1  -6  176.07   21.92
   4  -1  -6  159.79   17.38
   4  -1  -6  161.51   21.26
   4  -1  -6  187.07   18.93
   4  -1  -5   46.81   11.73
   4  -1  -5   45.03   12.07
   4  -1  -5   52.50    7.67
   4  -1  -5   37.23    8.19
   4  -1  -5   36.39    5.95
  -4   1   5   65.60    9.61
  -4   1   5   92.52   20.64
   4  -1  -4  132.53   16.68
   4  -1  -4  121.43   29.35
   4  -1  -4  102.28   10.38
   4  -1  -4  125.65   13.71
   4  -1  -4  116.56    8.91
  -4   1   4  123.99   18.56
  -4   1   4  114.00   17.25
   4  -1  -3  777.66   80.54
   4  -1  -3  736.14   78.40
   4  -1  -3  731.72   66.86
  -4   1   3  672.96   70.57
  -4   1   3  684.68   86.79
   4  -1  -2 1552.45  149.56
   4  -1  -2 1258.93  118.09
   4  -1  -2 1491.72  168.13
   4  -1  -2 1500.04  154.93
  -4   1   2 1798.40  185.88
  -4   1   2 1867.76  191.06
  -4   1   2 1641.27  152.94
  -4   1   2 1950.54  170.23
   4  -1  -1 4961.89  661.47
   4  -1  -1 4471.56  615.40
   4  -1  -1 4984.42  727.64
   4  -1  -1 5344.06  746.77
  -4   1   1 5368.92  759.58
  -4   1   1 5553.23  779.59
  -4   1   1 5734.93  752.26
  -4   1   1 6201.61  825.68
   4  -1   0 1492.56  135.21
   4  -1   0 1577.07  165.84
   4  -1   0 1564.36  174.36
  -4   1   0 1830.97  192.45
  -4   1   0 1605.01  176.78
  -4   1   0 1588.91  140.87
  -4   1   0 1955.87  191.69
   4  -1   1 2193.42  249.83
   4  -1   1 1982.24  228.33
   4  -1   1 2043.48  243.98
  -4   1  -1 2344.22  280.18
  -4   1  -1 2588.39  285.80
   4  -1   2 2018.66  241.00
   4  -1   2 2172.69  273.02
  -4   1  -2 1951.86  233.35
  -4   1  -2 2316.59  268.16
  -4   1  -2 2673.92  304.10
   4  -1   3 2648.21  336.93
   4  -1   3 2703.80  334.65
   4  -1   4  595.49   71.86
   4  -1   4  572.18   67.01
   4  -1   5  955.49  116.86
   4  -1   5  935.48  114.95
   4  -1   6   28.98   12.74
   4  -1   6   15.86   11.93
   4  -1   7   57.04   17.93
  -4   1  -7   35.72   20.84
   4  -1   8   55.86   16.28
  -4   1  -8   28.11   18.91
   4  -1   9  281.30   37.95
  -4   1  -9  287.27   48.82
   4   0 -12   72.78   14.47
   4   0 -12   63.09   18.19
  -4   0  12  124.60   32.59
   4   0 -11   10.67   11.25
   4   0 -11   20.16   10.55
  -4   0  11   50.79   23.30
   4   0 -10   99.87   23.31
   4   0 -10   81.31   24.01
  -4   0  10  187.48   32.84
   4   0  -9  540.35   70.78
   4   0  -9  471.39   65.54
  -4   0   9  563.44   77.42
   4   0  -8  753.06   86.00
   4   0  -8  555.84   70.14
  -4   0   8  569.61   78.81
   4   0  -7   71.29   18.07
   4   0  -7   55.57   10.63
   4   0  -7   68.06   16.81
   4   0  -7   51.53   18.29
   4   0  -6 1693.47  210.98
   4   0  -6 2178.99  260.25
   4   0  -6 2088.71  252.75
   4   0  -6 1916.28  208.29
  -4   0   6 2395.72  278.74
  -4   0   6 2236.05  257.83
   4   0  -5 1509.95  175.60
   4   0  -5 1490.01  166.14
   4   0  -5 1389.13  133.27
  -4   0   5 1281.61  132.44
  -4   0   5 1755.24  185.74
   4   0  -4  283.01   27.68
   4   0  -4  290.37   32.28
   4   0  -4  270.57   26.16
  -4   0   4  284.04   44.82
  -4   0   4  241.16   24.03
   4   0  -3  608.41   54.77
   4   0  -3  563.26   58.65
   4   0  -3  484.82   39.78
   4   0  -3  594.55   49.43
  -4   0   3  734.42   52.47
  -4   0   3  763.18   68.68
  -4   0   3  650.65   55.90
  -4   0   3  712.28   59.43
   4   0  -2 1107.10  108.36
   4   0  -2  973.88   88.82
   4   0  -2 1108.65  113.00
   4   0  -2 1163.34  104.71
  -4   0   2 1206.68  103.46
  -4   0   2 1059.38  108.05
  -4   0   2 1225.62  115.68
  -4   0   2 1102.26   99.50
   4   0  -1 1212.64  112.38
   4   0  -1 1269.61  123.64
   4   0  -1 1193.15  131.19
   4   0  -1 1210.76  126.33
  -4   0   1 1578.17  144.42
  -4   0   1 1496.59  145.69
  -4   0   1 1567.66  158.41
  -4   0   1 1488.09  134.99
   4   0   0 1789.54  179.17
   4   0   0 1985.09  212.73
   4   0   0 1926.58  211.80
   4   0   0 1793.33  197.28
  -4   0   0 2242.51  231.28
  -4   0   0 2093.63  224.15
  -4   0   0 1968.45  197.39
  -4   0   0 2370.57  250.63
   4   0   1 1982.59  213.60
   4   0   1 2323.38  263.77
   4   0   1 2315.70  256.71
   4   0   1 2005.31  223.74
  -4   0  -1 2173.29  239.10
  -4   0  -1 2359.58  267.12
  -4   0  -1 2194.31  225.84
  -4   0  -1 2650.28  295.71
   4   0   2  164.09   23.39
   4   0   2  157.58   20.73
  -4   0  -2  169.85   23.90
  -4   0  -2  175.37   24.76
   4   0   3 1126.11  126.38
   4   0   3 1128.73  122.52
   4   0   4 1476.77  179.14
   4   0   4 1561.12  185.48
   4   0   5  253.08   39.31
   4   0   5  252.72   39.66
   4   0   6   39.57   13.23
  -4   0  -6    0.16   17.21
   4   0   7  145.62   29.65
  -4   0  -7  158.89   37.92
   4   0   8  111.20   34.39
  -4   0  -8   88.25   29.40
   4   0   9  130.16   21.42
  -4   0  -9  134.13   33.99
   4   1 -12   11.54    7.69
   4   1 -12   14.96    7.76
  -4  -1  12   -0.22   14.31
   4   1 -11   39.22   13.14
   4   1 -11    9.86   11.79
  -4  -1  11   39.25   29.56
   4   1 -10  127.13   25.97
   4   1 -10   98.95   23.68
  -4  -1  10  102.24   27.50
   4   1  -9  611.62   79.61
   4   1  -9  496.65   65.29
  -4  -1   9  587.01   81.09
   4   1  -8 1786.29  237.58
   4   1  -8 1777.74  231.44
   4   1  -7  110.08   22.75
   4   1  -7  114.15   35.40
   4   1  -6  249.02   30.23
   4   1  -6  242.09   33.63
   4   1  -5  693.43   72.66
   4   1  -5  679.87   94.20
  -4  -1   5  882.53   88.87
  -4  -1   5  837.21   84.12
   4   1  -4 3102.56  379.98
   4   1  -4 3020.40  380.26
   4   1  -4 2630.73  313.17
  -4  -1   4 2946.00  335.88
  -4  -1   4 3946.67  474.78
  -4  -1   4 3539.24  426.62
   4   1  -3  374.30   35.69
   4   1  -3  350.38   25.83
   4   1  -3  374.51   39.36
   4   1  -3  338.22   31.01
  -4  -1   3  449.07   34.31
  -4  -1   3  546.22   46.59
  -4  -1   3  401.42   30.81
  -4  -1   3  471.13   41.07
   4   1  -2  111.26   14.03
   4   1  -2  131.16   11.11
   4   1  -2  104.78   19.87
   4   1  -2  107.69   14.32
  -4  -1   2  135.16   11.91
  -4  -1   2  141.76   13.55
  -4  -1   2  165.62   21.65
  -4  -1   2  151.86   15.55
   4   1  -1  458.93   40.70
   4   1  -1  477.11   47.09
   4   1  -1  446.72   43.94
   4   1  -1  433.76   40.42
  -4  -1   1  593.68   52.02
  -4  -1   1  658.40   51.27
  -4  -1   1  534.99   50.03
  -4  -1   1  564.11   55.30
   4   1   0  957.71   89.68
   4   1   0 1074.75   99.67
   4   1   0 1038.95  120.13
   4   1   0  919.62   85.13
  -4  -1   0 1247.65  121.01
  -4  -1   0 1252.53  109.01
  -4  -1   0 1096.25  103.30
  -4  -1   0 1106.17  103.35
   4   1   1  306.53   26.16
   4   1   1  365.36   37.57
   4   1   1  347.48   32.11
  -4  -1  -1  324.06   33.45
  -4  -1  -1  292.65   28.79
   4   1   2 2358.80  293.52
   4   1   2 3159.55  396.51
   4   1   2 3320.68  420.80
  -4  -1  -2 3157.22  413.53
  -4  -1  -2 3300.15  417.42
   4   1   3  472.28   56.12
   4   1   3  492.61   55.77
   4   1   4  488.63   62.88
   4   1   4  565.26   68.65
   4   1   5  956.75   69.89
  -4  -1  -5   -3.29   44.97
   4   1   6 1023.90  127.26
  -4  -1  -6 1031.48  150.25
   4   1   7  427.33   57.70
  -4  -1  -7  433.38   73.86
   4   1   8  150.91   27.36
  -4  -1  -8  194.81   45.00
  -4  -1  -9  154.19   38.13
   4   2 -12  123.93   30.17
   4   2 -12   62.88   16.69
  -4  -2  12  133.58   26.13
   4   2 -11   34.86   12.42
   4   2 -11   20.20   10.63
  -4  -2  11   -0.17   13.27
   4   2 -10  152.05   36.09
  -4  -2  10  208.13   36.85
   4   2  -9  653.07   87.99
   4   2  -9  620.64  114.55
   4   2  -8 1706.90  221.59
   4   2  -8 1651.79  224.72
   4   2  -7  553.63   67.29
   4   2  -7  684.71   83.91
   4   2  -6   93.64   17.11
   4   2  -6   94.10   19.45
   4   2  -5  152.49   20.84
   4   2  -5  127.32   20.74
  -4  -2   5  168.22   22.28
  -4  -2   5  120.87   15.57
  -4  -2   5  143.94   20.39
   4   2  -4 1175.93  122.00
   4   2  -4 1011.04  110.05
   4   2  -4 1037.08  106.39
  -4  -2   4 1571.94  152.74
  -4  -2   4 1496.00  149.11
   4   2  -3 1980.68  216.27
   4   2  -3 1878.11  219.90
   4   2  -3 1917.41  226.81
  -4  -2   3 1768.41  192.81
  -4  -2   3 2286.90  254.72
  -4  -2   3 2048.66  227.72
   4   2  -2   29.71    5.24
   4   2  -2    6.58    3.79
   4   2  -2   -0.01    4.00
   4   2  -2    9.78    5.51
  -4  -2   2   12.60    2.86
  -4  -2   2   13.73    5.15
  -4  -2   2   12.05    6.54
  -4  -2   2   12.68    5.57
   4   2  -1  500.48   47.91
   4   2  -1  524.93   52.66
   4   2  -1  489.09   40.46
   4   2  -1  513.89   47.64
  -4  -2   1  552.61   54.07
  -4  -2   1  656.62   53.98
  -4  -2   1  496.05   41.65
  -4  -2   1  606.96   57.40
   4   2   0  224.05   23.75
   4   2   0  257.94   28.64
   4   2   0  241.91   21.81
  -4  -2   0  233.55   21.60
  -4  -2   0  268.51   37.71
   4   2   1  719.60   72.73
   4   2   1  733.52   66.92
   4   2   1  553.57   55.89
  -4  -2  -1  635.59   70.79
   4   2   2 1512.28  143.27
   4   2   2  902.35   94.43
   4   2   2  673.09   74.52
   4   2   3 1156.78  115.59
   4   2   3  695.40   77.83
   4   2   4 1745.81  223.04
  -4  -2  -4 1943.78  263.51
   4   2   5  703.75   91.58
  -4  -2  -5  779.62  111.34
   4   2   6  461.48   63.22
  -4  -2  -6  502.08   79.39
   4   2   7  117.59   24.30
  -4  -2  -7  111.17   59.11
   4   2   8   35.18   19.50
  -4  -2  -8   40.30   22.63
   4   3 -12  153.96   27.95
   4   3 -11  124.45   29.66
  -4  -3  11   92.07   23.12
   4   3 -10   55.24   20.65
  -4  -3  10    0.02   11.25
   4   3  -9   79.42   20.81
   4   3  -9   70.46   23.01
   4   3  -8   87.59   21.60
   4   3  -8   82.20   23.24
   4   3  -7  283.72   42.35
   4   3  -6  771.85   83.64
   4   3  -6  598.11   74.40
  -4  -3   6  793.32   95.86
   4   3  -5  274.28   32.08
   4   3  -5  196.00   28.79
  -4  -3   5  271.82   30.58
   4   3  -4 1035.86  105.66
   4   3  -4  817.74   87.26
   4   3  -4  952.42   97.18
  -4  -3   4 1138.16  118.06
   4   3  -3   61.05   18.94
   4   3  -3   50.93    9.39
   4   3  -3   60.22   12.05
  -4  -3   3  116.23   15.75
   4   3  -2 1144.13  120.78
   4   3  -2 1062.29  101.30
   4   3  -2 1204.59  129.40
  -4  -3   2 1146.68  125.32
  -4  -3   2 1342.18  131.63
  -4  -3   2 1341.87  145.52
   4   3  -1   55.02   11.90
   4   3  -1   62.36   13.79
  -4  -3   1   55.99   13.08
  -4  -3   1   65.53   14.20
   4   3   0  162.73   34.87
   4   3   0  117.72   28.41
  -4  -3   0  169.76   20.82
  -4  -3   0  162.84   33.96
   4   3   1 2296.32  256.61
   4   3   1 1245.55  155.14
  -4  -3  -1 2073.90  233.92
   4   3   2  939.27  114.43
  -4  -3  -2 2133.12  218.23
   4   3   3  510.47   68.69
  -4  -3  -3  534.78   73.29
   4   3   4 1245.81  160.92
  -4  -3  -4 1298.88  179.49
   4   3   5  331.07   51.20
  -4  -3  -5  348.91   61.60
   4   3   6  159.22   30.45
  -4  -3  -6  124.85   41.33
   4   3   7  135.40   26.83
  -4  -3  -7  151.31   40.80
  -4  -3  -8  319.00   60.90
   4   4 -11   55.35   21.02
   4   4 -10   24.01   14.88
  -4  -4  10   -0.13    7.31
   4   4  -9  153.42   29.59
   4   4  -9  158.30   34.61
   4   4  -8  493.97   77.98
   4   4  -8  308.57   51.81
   4   4  -7  794.32   90.40
   4   4  -7  537.37   77.27
  -4  -4   7  810.21   90.02
   4   4  -6   15.33   10.48
  -4  -4   6   34.34   10.53
   4   4  -5 1054.89  107.54
   4   4  -5  581.61   73.18
  -4  -4   5 1123.26  115.61
   4   4  -4  725.95   72.53
   4   4  -4  481.77   54.01
   4   4  -4  663.16   68.52
   4   4  -3 1340.26  151.42
   4   4  -3 1438.18  163.37
   4   4  -2  264.80   33.26
   4   4  -2  285.82   47.12
   4   4  -1   45.52   12.95
   4   4  -1   60.68   14.43
   4   4   0  176.37   26.72
   4   4   0  112.48   33.64
   4   4   1  128.45   23.93
   4   4   1   66.08   18.88
  -4  -4  -1  141.26   21.25
   4   4   2  412.62   49.83
   4   4   2  184.59   34.20
  -4  -4  -2  367.77   46.66
   4   4   3 1132.54  123.11
   4   4   3  515.95   75.06
  -4  -4  -3 1089.48  148.34
   4   4   4  121.36   23.68
   4   4   4   56.02   16.50
  -4  -4  -4   77.02   25.81
   4   4   5  736.07   71.51
  -4  -4  -5  124.74   50.52
   4   4   6  218.44   38.90
  -4  -4  -6  218.43   47.27
   4   4   7  258.24   37.68
  -4  -4  -7  393.57   57.73
   4   5 -11  178.92   36.66
   4   5 -10  211.03   61.39
   4   5  -9   33.94   13.71
   4   5  -9   41.12   18.33
  -4  -5   9   51.40   12.19
   4   5  -8  102.90   32.06
   4   5  -8   60.46   23.20
  -4  -5   8  164.62   34.26
   4   5  -7  151.66   26.20
   4   5  -7   95.73   24.90
  -4  -5   7  177.45   27.42
   4   5  -6  960.10  123.79
   4   5  -6  504.33   71.47
  -4  -5   6  958.20  123.45
   4   5  -5   36.17   10.91
   4   5  -5   12.94    8.87
  -4  -5   5   27.86   11.70
   4   5  -4    7.05    6.93
  -4  -5   4    9.48    8.24
   4   5  -3  355.48   46.88
   4   5  -3  453.69   53.16
   4   5  -2  617.50   75.10
   4   5  -2  755.53   86.51
   4   5  -1  471.44   61.43
   4   5  -1  597.74   68.84
   4   5   0  124.40   39.69
   4   5   0  174.13   29.54
   4   5   1   12.32    8.31
   4   5   1    2.67    7.86
   4   5   2  657.99   78.78
   4   5   2  435.68   65.27
   4   5   3  233.36   36.09
   4   5   3  136.32   30.60
  -4  -5  -3  187.85   34.82
   4   5   4  918.77  111.12
   4   5   4  580.78   84.78
  -4  -5  -4  890.96  113.27
   4   5   5   80.38   32.95
   4   5   5  174.50   31.53
  -4  -5  -5  153.92   31.48
   4   5   6    6.20    5.37
  -4  -5  -6    7.84    7.90
   4   6 -10  171.49   33.98
   4   6  -9  156.16   33.52
  -4  -6   9  176.90   26.05
   4   6  -8   81.01   18.81
   4   6  -8   68.28   21.33
  -4  -6   8   96.45   19.73
   4   6  -7  103.37   21.21
   4   6  -7   84.43   21.55
  -4  -6   7  113.81   24.05
   4   6  -6  159.53   28.30
   4   6  -6   96.94   23.78
  -4  -6   6  222.19   32.96
   4   6  -5  695.80   90.47
  -4  -6   5  823.24  105.61
   4   6  -4  183.07   31.73
  -4  -6   4  260.25   39.60
   4   6  -3   66.40   28.66
  -4  -6   3   81.37   21.82
   4   6  -2  168.82   31.34
   4   6  -2  209.99   34.81
   4   6  -1 1174.80  154.44
   4   6  -1 1449.32  175.98
   4   6   0  443.90   64.28
   4   6   0  553.37   69.63
   4   6   1  249.97   43.56
   4   6   1  301.81   43.43
   4   6   2  140.07   46.40
   4   6   2  157.21   28.54
   4   6   3  225.41   59.87
   4   6   3  273.61   39.11
   4   6   4    5.26    6.63
   4   6   4    4.34    5.83
   4   6   5   47.27   12.92
   4   6   5   42.51   10.26
   4   7  -9  273.35   42.91
   4   7  -8  106.79   37.05
  -4  -7   8  150.28   25.80
   4   7  -7  162.12   27.72
   4   7  -7  141.39   26.64
  -4  -7   7  266.39   37.43
   4   7  -6  110.20   23.68
  -4  -7   6  135.62   29.21
   4   7  -5   40.38   16.06
  -4  -7   5   71.99   20.66
   4   7  -4  103.20   24.27
  -4  -7   4  183.66   33.38
   4   7  -3   33.12   14.68
  -4  -7   3   64.40   18.98
   4   7  -2  171.38   31.61
  -4  -7   2  174.45   36.19
   4   7  -1   55.72   19.85
  -4  -7   1   68.23   21.02
   4   7   0  458.08   68.99
   4   7   0  506.07   67.72
   4   7   1  239.86   43.78
   4   7   1  250.57   38.77
   4   7   2   73.90   21.74
   4   7   2   66.66   16.98
   4   7   3   76.53   20.51
   4   7   3   63.42   14.90
   4   7   4  105.01   20.85
  -4  -7  -4   59.18   13.42
  -4  -8   7  130.00   26.81
   4   8  -6   59.48   16.50
  -4  -8   6  173.96   27.10
   4   8  -5  114.60   25.65
  -4  -8   5  190.99   33.90
   4   8  -4  162.14   30.59
  -4  -8   4  211.89   38.15
   4   8  -3   85.63   21.94
  -4  -8   3  130.48   29.84
   4   8  -2  295.48   46.05
  -4  -8   2  345.51   54.52
   4   8  -1  114.95   39.61
  -4  -8   1  125.21   28.57
   4   8   0  175.04   32.33
  -4  -8   0  144.35   30.41
   4   8   1   70.51   21.11
  -4  -8  -1   66.81   17.84
   4   8   2  219.47   34.78
  -4  -8  -2  148.42   25.61
  -4  -9   5   51.16   30.95
   4   9  -4   39.98   11.84
  -4  -9   4   81.62   19.72
   4   9  -3  199.60   34.24
  -4  -9   3  319.00   44.92
   4   9  -2   54.22   15.72
  -4  -9   2   91.96   20.34
   4   9  -1   57.14   15.90
  -4  -9   1   66.92   16.95
   5  -8  -4  266.94   35.85
  -5   8   4  154.81   25.27
   5  -8  -3  663.10   79.74
  -5   8   3  589.24   76.30
   5  -8  -2  345.61   63.30
  -5   8   2  365.85   52.15
   5  -8  -1   51.00   13.38
  -5   8   1   66.22   19.25
   5  -8   0    9.55    6.49
  -5   8   0   16.94   11.23
   5  -8   1  374.88   56.36
  -5   8  -1  515.30   71.44
  -5   8  -2  230.83   43.25
  -5   8  -3   93.33   25.53
   5  -7  -7  632.17  111.33
   5  -7  -6   24.76   23.82
   5  -7  -5  364.20   63.03
  -5   7   5  167.99   28.59
   5  -7  -4  570.29   75.47
  -5   7   4  463.86   64.05
   5  -7  -3  421.60   60.55
  -5   7   3  415.95   59.49
   5  -7  -2  126.27   27.27
  -5   7   2  147.24   31.19
   5  -7  -1  382.46   53.52
  -5   7   1  464.17   67.75
   5  -7   0  122.87   23.38
  -5   7   0  182.52   35.79
   5  -7   1   49.31   13.63
  -5   7  -1   53.64   21.05
   5  -7   2   47.54   23.88
  -5   7  -2   89.62   24.63
   5  -7   3  345.13   42.17
  -5   7  -3  428.95   63.97
  -5   7  -4   -2.75    6.80
  -5   7  -5   46.67   14.84
   5  -6  -9  165.05   45.59
   5  -6  -8  173.62   34.00
  -5   6   8  186.52   39.02
   5  -6  -7   70.08   24.23
  -5   6   7   91.08   18.23
   5  -6  -6  189.08   37.32
   5  -6  -6  296.95   45.98
   5  -6  -5  168.65   34.83
   5  -6  -4  319.92   59.20
   5  -6  -4  354.43   56.02
   5  -6  -3  511.97   72.40
   5  -6  -3  547.53   88.33
   5  -6  -2  934.38  123.42
  -5   6   2 1044.44  131.41
   5  -6  -1  492.68   66.02
  -5   6   1  525.57   73.88
   5  -6   0  203.70   51.03
  -5   6   0  333.79   50.03
   5  -6   1   12.55    8.52
  -5   6  -1   11.78   11.85
   5  -6   2  591.23   74.55
  -5   6  -2  626.59   89.88
   5  -6   3  157.11   26.82
  -5   6  -3  182.39   36.39
   5  -6   4  381.87   51.35
   5  -6   4  355.86   45.57
  -5   6  -4  464.41   63.60
   5  -6   5   87.77   28.95
  -5   6  -5   97.76   21.70
   5  -6   6  132.61   22.60
  -5   5  10  183.53   30.80
   5  -5  -9   64.51   17.86
  -5   5   9   79.20   18.92
  -5   5   8  123.71   24.99
   5  -5  -7  168.16   36.74
   5  -5  -7  190.68   36.57
  -5   5   7  204.38   31.38
   5  -5  -6  405.48   63.47
   5  -5  -6  368.65   57.65
  -5   5   6  360.56   47.79
   5  -5  -5  775.24  111.92
   5  -5  -5  649.05   91.15
   5  -5  -4    8.88   12.10
   5  -5  -4   13.44   10.45
   5  -5  -3  359.78   62.27
   5  -5  -3  334.32   70.96
   5  -5  -2   63.82   17.78
   5  -5  -2   57.22   24.09
   5  -5  -1  921.66  114.67
   5  -5  -1 1142.03  160.03
   5  -5   0  723.62   87.42
  -5   5   0  749.62   98.07
   5  -5   1   48.49   13.50
  -5   5  -1   30.23   16.48
   5  -5   2  819.43  102.00
  -5   5  -2  841.46  114.86
   5  -5   3  150.50   27.49
   5  -5   3  258.51   35.68
  -5   5  -3  294.57   41.96
   5  -5   4   20.30   11.17
   5  -5   4   29.58   11.25
  -5   5  -4   34.57   13.14
   5  -5   5  153.93   29.42
   5  -5   5  171.52   25.91
  -5   5  -5  195.88   31.96
   5  -5   6    4.97    6.72
   5  -5   6    4.04    4.02
   5  -5   7  322.47   44.49
   5  -4 -10  220.42   35.12
  -5   4  10  468.97   53.49
   5  -4  -9   73.24   18.63
  -5   4   9  113.94   41.57
   5  -4  -8  130.41   31.15
  -5   4   8  189.28   36.52
   5  -4  -7   43.60   17.79
   5  -4  -7   22.21   14.03
  -5   4   7   65.68   17.36
   5  -4  -6  877.26  116.23
   5  -4  -6  564.12   81.69
  -5   4   6  903.49  102.47
   5  -4  -5 1313.99  174.08
   5  -4  -5  931.57  127.45
  -5   4   5 1318.15  148.22
   5  -4  -4  576.56   80.18
   5  -4  -4  448.10   61.92
   5  -4  -3  876.68  139.77
   5  -4  -3  732.35   91.62
   5  -4  -2  208.23   32.97
   5  -4  -2  266.56   44.38
   5  -4  -1  170.46   27.83
   5  -4  -1  197.51   38.25
   5  -4   0 1866.17  233.28
   5  -4   0 2113.78  288.03
   5  -4   1  537.46   66.57
  -5   4  -1  613.71   77.09
   5  -4   2  496.12   63.34
  -5   4  -2  493.55   67.11
   5  -4   3    2.49    6.32
   5  -4   3    6.07    7.54
  -5   4  -3   16.73    7.89
   5  -4   4  256.82   39.63
   5  -4   4  349.42   45.16
  -5   4  -4  292.71   43.54
   5  -4   5  276.91   41.80
   5  -4   5  269.56   36.58
  -5   4  -5  188.07   34.84
   5  -4   6  214.36   36.70
   5  -4   6  204.12   29.65
   5  -4   7  260.18   35.49
  -5   4  -7  125.89   28.88
  -5   3  11   98.74   25.58
   5  -3 -10   20.43   11.97
  -5   3  10   81.57   24.52
   5  -3  -9  565.06   83.90
  -5   3   9  765.43  113.80
   5  -3  -8   16.00   11.83
  -5   3   8    7.36   13.91
   5  -3  -7   32.43   25.20
   5  -3  -7   16.02    9.91
  -5   3   7   52.50   22.90
   5  -3  -6  367.69   74.57
   5  -3  -6  171.46   30.92
  -5   3   6  365.92   40.41
   5  -3  -5  716.10   89.77
   5  -3  -5  391.91   55.00
  -5   3   5  649.42   65.84
   5  -3  -4  533.64   69.50
   5  -3  -4  390.04   49.15
  -5   3   4  439.57   45.32
   5  -3  -3  198.18   33.99
   5  -3  -3  159.27   38.32
   5  -3  -2  922.74  103.67
   5  -3  -2 1005.47  123.12
   5  -3  -1  165.30   24.44
   5  -3  -1  163.98   31.10
   5  -3   0  418.15   60.71
   5  -3   0  359.03   54.97
   5  -3   1 1147.24  115.12
   5  -3   1  668.70   74.11
   5  -3   2  346.03   43.82
   5  -3   2  217.22   31.46
  -5   3  -2  386.41   45.23
   5  -3   3   29.41   11.39
   5  -3   3   36.84   12.46
  -5   3  -3   33.02   18.42
   5  -3   4   46.53   15.83
   5  -3   4   58.59   15.36
   5  -3   5  185.32   51.96
   5  -3   5  180.44   30.35
   5  -3   6  245.84   37.20
   5  -3   7   47.88   18.05
  -5   3  -7   50.18   19.11
   5  -3   8  612.49   74.60
   5  -2 -11  203.79   33.03
  -5   2  11  315.70   64.77
   5  -2 -10  121.54   44.07
  -5   2  10  153.20   49.86
   5  -2  -9   11.79   11.44
  -5   2   9   15.27   25.28
   5  -2  -8  125.36   28.92
  -5   2   8   98.92   25.76
   5  -2  -7 1030.36  143.38
  -5   2   7 1101.55  134.40
   5  -2  -6  123.59   26.60
   5  -2  -6   75.85   15.86
  -5   2   6  134.17   20.56
   5  -2  -5  449.63   60.09
   5  -2  -5  330.41   40.31
  -5   2   5  462.22   47.77
   5  -2  -4  354.36   47.83
   5  -2  -4  245.35   29.96
  -5   2   4  245.61   27.14
   5  -2  -3  267.38   29.83
   5  -2  -3  320.72   40.51
  -5   2   3  200.06   21.55
   5  -2  -2   71.20   15.07
   5  -2  -2   72.13   20.25
  -5   2   2  113.47   18.38
  -5   2   2  129.06   20.40
   5  -2  -1   53.41   12.75
   5  -2  -1   56.41   16.42
  -5   2   1   94.60   17.39
   5  -2   0 1545.27  162.67
   5  -2   0 1111.34  121.51
   5  -2   0 1521.28  177.91
   5  -2   1  826.91   86.89
   5  -2   1  592.75   78.73
   5  -2   1  721.59   86.87
   5  -2   2  702.51   82.56
   5  -2   2  877.67  119.48
  -5   2  -2  932.35   99.91
   5  -2   3  849.17  101.87
   5  -2   3  966.48  110.65
   5  -2   4   36.29   22.17
   5  -2   4   38.44   13.36
   5  -2   5  236.54   39.49
   5  -2   5  225.97   37.77
   5  -2   6  123.62   28.05
   5  -2   6  109.12   25.53
   5  -2   7  226.65   37.28
  -5   2  -7  158.77   39.84
   5  -2   8    3.74   12.70
  -5   2  -8  -10.08    8.25
  -5   1  12  372.14   76.17
   5  -1 -11    5.19    8.61
  -5   1  11   27.65   18.73
   5  -1 -10  206.18   38.80
  -5   1  10  232.75   79.69
   5  -1  -9  506.80   76.09
  -5   1   9  577.24   80.85
   5  -1  -8  466.92   69.34
  -5   1   8  528.08   71.16
   5  -1  -7  157.04   35.16
  -5   1   7  244.94   35.97
   5  -1  -6 1123.10  125.09
   5  -1  -6 1122.15  130.63
   5  -1  -6  806.92   86.10
   5  -1  -5 1396.26  153.74
   5  -1  -5 1378.59  165.59
   5  -1  -5 1138.70  121.33
   5  -1  -4  621.07   61.64
   5  -1  -4  683.54   69.96
   5  -1  -4  674.06   80.70
  -5   1   4  789.92   83.40
   5  -1  -3  740.37   70.57
   5  -1  -3  776.23   71.65
   5  -1  -3  709.02   81.86
  -5   1   3  633.97   72.77
   5  -1  -2 1663.47  178.70
   5  -1  -2 1718.89  200.54
  -5   1   2 1623.35  204.73
  -5   1   2 1587.22  184.87
   5  -1  -1  170.63   19.00
   5  -1  -1  111.74   14.42
   5  -1  -1  138.34   21.77
  -5   1   1  122.87   20.54
   5  -1   0 1228.49  129.01
   5  -1   0 1089.03  116.90
   5  -1   0 1122.89  132.27
  -5   1   0 1370.21  146.14
   5  -1   1  472.19   65.48
   5  -1   1  431.06   47.24
   5  -1   1  406.53   49.50
   5  -1   2 1203.41  140.31
   5  -1   2 1300.61  144.71
   5  -1   3  169.28   27.61
   5  -1   3  142.67   25.14
   5  -1   4  177.26   31.00
   5  -1   4  167.11   30.27
   5  -1   5  131.66   28.25
   5  -1   5  122.13   27.71
   5  -1   6  211.91   30.26
  -5   1  -6   -1.65   32.28
   5  -1   7   23.77   13.35
  -5   1  -7   20.38   16.08
   5  -1   8  341.50   46.11
  -5   1  -8  294.38   77.52
   5   0 -12   10.58    7.55
  -5   0  12   11.37   16.98
   5   0 -11  668.78   89.89
  -5   0  11  843.36  181.35
   5   0 -10   62.20   21.96
  -5   0  10   71.18   24.57
   5   0  -9   41.86   17.21
  -5   0   9   51.79   19.00
   5   0  -8  408.98   62.07
   5   0  -8  384.80   55.98
   5   0  -7  386.02   54.73
   5   0  -7  343.85   49.87
   5   0  -6  414.14   51.47
   5   0  -6  353.59   48.13
   5   0  -5   39.39   15.56
   5   0  -5   29.11   11.64
   5   0  -4  536.37   47.85
   5   0  -4  559.79   55.40
   5   0  -4  563.18   82.34
  -5   0   4  669.12   84.76
   5   0  -3 1406.07  146.91
   5   0  -3 1484.88  157.60
   5   0  -3 1380.08  161.44
  -5   0   3 1666.96  181.03
  -5   0   3 1502.82  165.35
   5   0  -2 1402.26  138.53
   5   0  -2 1461.35  144.03
   5   0  -2 1078.53  115.95
   5   0  -2 1321.06  148.16
  -5   0   2 1520.58  158.04
  -5   0   2 1421.38  150.89
  -5   0   2 1427.90  140.67
  -5   0   2 1514.54  145.15
   5   0  -1 2866.11  338.84
   5   0  -1 2543.55  313.04
   5   0  -1 2677.92  335.99
  -5   0   1 3031.70  366.17
   5   0   0  367.85   40.57
   5   0   0  394.82   49.89
   5   0   0  340.29   49.46
   5   0   1 2053.45  248.60
   5   0   1 2091.36  242.05
   5   0   2  411.78   50.29
   5   0   2  401.12   46.01
   5   0   3 1147.51  138.62
   5   0   3 1138.63  136.51
   5   0   4  189.19   33.55
   5   0   4  196.74   34.68
   5   0   5   50.96   18.43
   5   0   5   55.94   18.97
   5   0   6   90.56   24.87
  -5   0  -6   91.08   31.14
   5   0   7  105.59   24.13
  -5   0  -7   88.41   30.29
   5   0   8    8.29    7.35
  -5   0  -8    3.07   10.32
   5   1 -12  250.96   38.51
  -5  -1  12  330.63   63.72
   5   1 -11   37.29   25.17
  -5  -1  11   31.17   18.39
   5   1 -10  287.20   49.61
  -5  -1  10  392.24   60.07
   5   1  -9  159.52   32.96
   5   1  -8  225.76   40.22
   5   1  -8  191.67   36.41
   5   1  -7  288.27   42.73
   5   1  -7  252.28   41.47
   5   1  -6  826.13   91.99
   5   1  -6  795.25   95.65
   5   1  -5   94.55   15.90
   5   1  -5   86.30   18.55
   5   1  -4   11.27    5.98
   5   1  -4   11.12    6.90
   5   1  -3  147.00   16.87
   5   1  -3  129.60   15.67
   5   1  -3  143.22   20.34
   5   1  -2  610.02   57.46
   5   1  -2  577.62   52.04
   5   1  -2 1118.08  105.04
   5   1  -2  609.30   62.75
   5   1  -1   69.14    9.58
   5   1  -1   75.00    9.93
   5   1  -1   68.12   12.58
   5   1  -1   60.30   10.82
   5   1   0  738.90   70.61
   5   1   0  868.36   82.55
   5   1   0  835.64   88.59
   5   1   1  881.62   91.16
   5   1   2  204.97   47.44
   5   1   2  211.56   29.49
   5   1   3  435.38   78.76
   5   1   3  442.14   58.54
   5   1   4  323.09   67.35
   5   1   4  325.78   48.64
   5   1   5  133.53   30.79
  -5  -1  -5  189.21   40.29
   5   1   6    8.59    8.98
  -5  -1  -6    5.43   11.55
   5   1   7   69.09   19.55
  -5  -1  -7   66.14   26.13
   5   1   8  391.30   67.95
  -5  -1  -8  400.62   68.39
   5   2 -12   82.59   21.60
  -5  -2  12   93.02   30.28
   5   2 -11  306.77   52.10
  -5  -2  11  346.89   55.99
   5   2 -10  136.41   31.49
  -5  -2  10  139.66   34.65
   5   2  -9  247.79   43.28
   5   2  -9  201.85   40.89
   5   2  -8  113.52   25.67
   5   2  -8   82.94   25.02
   5   2  -7 1427.14  176.11
   5   2  -7 1307.81  168.91
   5   2  -6   12.29    7.75
   5   2  -6    9.12    8.47
   5   2  -5  979.95  104.95
   5   2  -5  847.56   98.38
   5   2  -4 1054.37  108.84
   5   2  -4  977.76  105.09
   5   2  -4  912.75   94.57
   5   2  -3   47.49   10.53
   5   2  -3   47.66    9.79
   5   2  -3   47.38   10.32
   5   2  -2  195.64   22.82
   5   2  -2  201.71   25.62
   5   2  -1  207.54   23.62
   5   2  -1  225.90   40.70
   5   2  -1  221.07   20.90
   5   2   0  312.20   33.51
   5   2   0  373.84   35.64
   5   2   1 1377.79  160.87
   5   2   1 1968.67  229.28
   5   2   1 1945.47  212.62
   5   2   2  121.70   20.83
   5   2   3  867.37   62.12
  -5  -2  -3    0.52   35.34
   5   2   4   95.38   23.57
  -5  -2  -4   70.71   26.15
   5   2   5  125.72   29.93
  -5  -2  -5  148.65   35.06
   5   2   6  102.14   24.06
  -5  -2  -6   74.46   29.74
   5   2   7   -0.11    5.87
  -5  -2  -7    0.39    5.30
   5   3 -12   44.50   26.61
   5   3 -11   24.87   11.31
  -5  -3  11   -0.25   11.05
   5   3 -10  279.80   39.08
  -5  -3  10   49.93   32.91
   5   3  -9  168.71   34.01
   5   3  -9  146.67   34.93
   5   3  -8  212.32   35.10
   5   3  -8  165.09   35.43
   5   3  -7  376.93   47.45
   5   3  -7  156.77   61.29
   5   3  -6 1652.00  190.86
   5   3  -6 1207.71  156.78
   5   3  -5  867.08   91.91
   5   3  -5  703.05   82.72
  -5  -3   5  760.96   85.70
   5   3  -4 2339.67  276.33
   5   3  -4 1879.37  228.95
   5   3  -4 2087.99  250.12
   5   3  -3 1408.51  157.67
   5   3  -3 1328.93  152.98
   5   3  -2   87.10   23.37
   5   3  -2   91.57   17.77
   5   3  -1    1.27    3.87
   5   3  -1    3.79    4.96
   5   3   0  292.47   36.47
   5   3   0  432.00   50.12
   5   3   1   81.31   17.08
  -5  -3  -1  197.76   25.78
   5   3   2  520.49   68.81
  -5  -3  -2  367.81   57.97
   5   3   3   97.32   23.75
  -5  -3  -3   67.16   23.27
   5   3   4  469.16   65.83
  -5  -3  -4  398.80   69.09
   5   3   5  295.00   57.51
  -5  -3  -5   30.98   53.44
   5   3   6  320.16   49.47
  -5  -3  -6  324.97   62.16
   5   3   7  371.88   49.53
  -5  -3  -7  416.72   66.75
   5   4 -11   58.89   21.50
  -5  -4  11   68.62   17.61
   5   4 -10   45.43   19.19
   5   4  -9  143.41   28.45
   5   4  -9  103.48   30.48
   5   4  -8  429.99   73.76
   5   4  -8  270.85   72.59
   5   4  -7  111.40   20.90
   5   4  -7   34.71   30.97
   5   4  -6  534.14   63.60
   5   4  -6  278.59   66.82
  -5  -4   6  497.78   58.98
   5   4  -5  229.13   32.03
   5   4  -5  146.43   25.92
  -5  -4   5  254.47   32.59
   5   4  -4  432.01   53.37
   5   4  -4  420.19   49.76
   5   4  -3  651.26   76.84
   5   4  -3  732.12   82.77
   5   4  -2  202.79   29.02
   5   4  -2  217.08   44.95
   5   4  -1   70.00   17.43
   5   4  -1  115.59   21.48
   5   4   0  172.09   29.21
   5   4   0  316.69   40.67
   5   4   1  361.38   52.39
   5   4   1  876.42   89.23
   5   4   2  867.44  112.64
  -5  -4  -2  770.33  130.16
   5   4   3   18.55   10.56
   5   4   3   61.77   17.81
  -5  -4  -3   54.41   16.78
   5   4   4  326.94   54.22
  -5  -4  -4  329.28   57.12
  -5  -4  -5   99.00   28.08
   5   4   6  148.34   26.21
  -5  -4  -6  154.19   32.80
   5   5 -11  244.45   41.11
   5   5 -10  -10.76    8.72
  -5  -5  10   -0.05    6.94
   5   5  -9  239.31   36.46
   5   5  -9  188.21   39.57
   5   5  -8  257.42   44.49
   5   5  -8   95.84   28.88
   5   5  -7  148.76   27.89
   5   5  -7  102.84   39.41
  -5  -5   7  159.25   26.16
   5   5  -6   15.67    9.56
   5   5  -6    6.99    7.80
  -5  -5   6   12.83    8.73
   5   5  -5  414.34   56.50
  -5  -5   5  470.66   61.80
   5   5  -4  121.46   22.66
  -5  -5   4  102.00   24.50
   5   5  -3  187.24   31.32
   5   5  -3  238.33   34.47
   5   5  -2  306.72   45.27
   5   5  -2  438.29   54.12
   5   5  -1  527.43   71.24
   5   5  -1  784.05   89.91
   5   5   0   18.69   10.33
   5   5   0   25.40   20.66
   5   5   1   58.85   18.18
   5   5   1  104.86   23.41
   5   5   2  209.41   38.45
   5   5   2  418.66   52.33
   5   5   3  132.79   27.95
   5   5   3  296.33   39.95
   5   5   4    3.35    4.98
  -5  -5  -4   12.94   10.90
   5   5   5   81.62   17.33
   5   6 -10  172.86   31.90
   5   6  -9   21.81   11.93
   5   6  -8   49.82   14.74
  -5  -6   8   37.70   12.64
   5   6  -7   64.90   17.35
   5   6  -7   50.17   15.59
  -5  -6   7   61.87   16.71
   5   6  -6  672.34   86.12
  -5  -6   6  597.65   80.54
   5   6  -5   53.45   17.88
  -5  -6   5   64.29   18.95
   5   6  -4   73.74   20.02
  -5  -6   4   85.93   22.76
   5   6  -3  277.75   43.22
  -5  -6   3  344.69   52.06
   5   6  -2  593.56  108.79
   5   6  -2  840.75  103.02
   5   6  -1  454.26   66.95
   5   6  -1  646.60   81.43
   5   6   0  651.14   93.04
   5   6   0  960.05  113.98
   5   6   1   36.64   16.05
   5   6   1   50.59   17.24
   5   6   2   51.52   17.99
   5   6   2   78.01   19.09
   5   6   3   44.19   15.93
   5   6   3   77.76   17.09
   5   6   4  105.01   21.94
   5   6   4  210.17   25.99
   5   7  -8   32.02   10.29
   5   7  -7   74.62   18.33
  -5  -7   7   99.31   21.10
   5   7  -6  173.95   32.01
  -5  -7   6  197.29   35.36
   5   7  -5  400.71   79.87
  -5  -7   5  447.81   85.91
   5   7  -4   13.69   10.22
  -5  -7   4   13.95   11.87
   5   7  -3   85.96   21.86
  -5  -7   3  101.54   26.20
   5   7  -2   39.22   16.51
  -5  -7   2   59.33   20.30
   5   7  -1  657.30  117.89
  -5  -7   1  776.03  106.89
   5   7   0   17.56   17.41
  -5  -7   0  135.84   25.21
   5   7   1   26.72   14.10
   5   7   1   37.00   13.73
   5   7   2   80.50   15.39
  -5  -7  -2    1.89   15.61
   5   7   3   25.23   20.39
  -5  -7  -3   51.83   13.83
   5   8  -6   21.06    9.68
  -5  -8   6   38.57   13.48
   5   8  -5   91.38   21.52
  -5  -8   5  123.04   26.45
   5   8  -4   67.79   29.96
  -5  -8   4   66.00   20.52
   5   8  -3  101.79   23.53
  -5  -8   3  124.93   29.36
   5   8  -2  173.89   32.22
  -5  -8   2  183.54   36.18
   5   8  -1   39.96   14.66
  -5  -8   1   38.13   16.24
   5   8   0  370.05   55.11
  -5  -8   0  399.34   56.33
   6  -8  -4  129.83   22.32
   6  -8  -3  147.22   24.07
  -6   8   3  150.97   25.63
   6  -8  -2   91.69   17.89
  -6   8   2  102.63   23.46
   6  -8  -1   13.81    8.34
  -6   8   1   28.04   12.45
   6  -8   0   42.64   11.20
  -6   8   0   55.61   18.43
   6  -7  -6   48.98   19.14
   6  -7  -5  233.24   37.45
  -6   7   5  176.34   29.63
   6  -7  -4   28.06   12.49
  -6   7   4   12.20   10.99
   6  -7  -3  636.95   84.89
  -6   7   3  695.50   91.86
   6  -7  -2  344.30   48.51
  -6   7   2  407.18   60.46
   6  -7  -1  120.69   23.90
  -6   7   1  143.07   32.18
   6  -7   0  143.44   26.05
  -6   7   0  159.56   33.69
   6  -7   1  419.63   71.39
  -6   7  -1  431.57   66.94
   6  -7   2  236.73   30.92
  -6   7  -2  280.62   45.66
  -6   7  -3   91.79   22.92
   6  -6  -8  185.80   32.40
   6  -6  -7   85.51   20.22
  -6   6   7   50.76   14.58
   6  -6  -6   80.36   21.91
   6  -6  -6   55.76   21.04
   6  -6  -5  105.14   25.53
   6  -6  -5   88.80   28.48
   6  -6  -4   82.28   22.55
   6  -6  -4   71.51   27.61
   6  -6  -3  354.90   56.05
  -6   6   3  418.07   62.29
   6  -6  -2  220.79   39.86
  -6   6   2  263.25   45.34
   6  -6  -1  845.90  108.09
  -6   6   1 1005.14  132.97
   6  -6   0   46.25   17.01
  -6   6   0   77.76   22.05
   6  -6   1  177.49   31.70
  -6   6  -1  173.13   57.34
   6  -6   2  379.80   52.90
  -6   6  -2  461.41   65.08
   6  -6   3  171.04   26.17
  -6   6  -3  173.83   32.62
   6  -6   4  112.33   17.25
  -6   6  -4  124.03   22.20
   6  -5  -9   -1.93    5.21
   6  -5  -8   93.19   20.76
   6  -5  -8   94.37   22.64
   6  -5  -7  327.17   48.94
   6  -5  -7  368.65   59.56
   6  -5  -6  265.68   43.94
   6  -5  -6  309.98   55.41
   6  -5  -5  198.07   36.64
   6  -5  -5  223.69   46.39
   6  -5  -4   10.68    9.87
   6  -5  -4   13.43   13.47
   6  -5  -3  175.71   33.90
   6  -5  -3  234.64   48.34
   6  -5  -2  429.89   60.79
   6  -5  -2  549.29   89.52
   6  -5  -1  126.92   41.51
  -6   5   1  167.97   33.37
   6  -5   0  611.70   82.93
  -6   5   0  807.52  103.46
   6  -5   1   10.49    8.93
  -6   5  -1    8.03   10.04
   6  -5   2  219.67   37.45
  -6   5  -2  226.37   39.41
   6  -5   3  175.63   30.63
  -6   5  -3  205.12   34.35
   6  -5   4  114.00   20.25
   6  -5   4  149.69   33.50
  -6   5  -4  108.50   21.51
   6  -5   5  190.57   27.32
   6  -5   5  188.44   25.14
  -6   4  10   31.77   12.16
   6  -4  -9  107.25   22.73
   6  -4  -9  206.39   46.80
  -6   4   9  285.24   47.35
   6  -4  -8  319.52   67.31
   6  -4  -8  445.77   67.67
  -6   4   8  503.90   62.59
   6  -4  -7  619.58   98.89
  -6   4   7  725.21   87.39
   6  -4  -6  351.11   57.02
   6  -4  -6  211.88   55.81
   6  -4  -5  469.95   65.33
   6  -4  -5  777.47  101.33
   6  -4  -4  244.91   38.38
   6  -4  -4  373.86   78.09
   6  -4  -3  291.64   43.76
   6  -4  -3  382.43   61.60
   6  -4  -2  312.63   44.27
   6  -4  -2  374.69   63.61
   6  -4  -1  308.19   61.88
   6  -4  -1  387.75   63.67
   6  -4   0   18.53    9.41
  -6   4   0    7.47   10.83
   6  -4   1  178.97   32.45
  -6   4  -1  190.57   33.98
   6  -4   2  136.81   26.20
  -6   4  -2  115.42   26.57
   6  -4   3  219.64   38.92
   6  -4   3  434.57   51.47
  -6   4  -3  395.28   50.86
   6  -4   4  136.56   26.42
   6  -4   4  202.74   43.44
   6  -4   5  241.43   37.92
   6  -4   5  282.79   37.73
   6  -4   6  109.61   22.30
  -6   4  -6  104.06   26.20
  -6   3  11   93.47   22.26
   6  -3 -10  294.66   47.78
  -6   3  10  438.81   67.63
   6  -3  -9   28.12   16.10
  -6   3   9   32.29   18.52
   6  -3  -8   26.64   23.25
   6  -3  -8  111.57   29.17
  -6   3   8  112.43   25.87
   6  -3  -7  249.42   61.48
   6  -3  -7  561.34   82.76
  -6   3   7  680.22   76.61
   6  -3  -6  480.48   88.64
   6  -3  -6  934.13  124.96
  -6   3   6 1170.01  139.33
   6  -3  -5  127.59   24.29
   6  -3  -5  208.91   37.86
   6  -3  -4  222.17   33.26
   6  -3  -4  276.65   47.60
   6  -3  -3  236.27   34.28
   6  -3  -3  259.99   46.03
   6  -3  -2  405.56   50.73
   6  -3  -2  448.86   68.87
   6  -3  -1  302.59   41.51
   6  -3  -1  305.59   53.40
   6  -3   0 2211.22  280.81
   6  -3   0 2018.82  286.47
   6  -3   1   63.82   20.09
  -6   3  -1   92.65   19.08
   6  -3   2  119.42   24.76
   6  -3   2  242.67   32.40
  -6   3  -2  216.41   31.85
   6  -3   3   57.28   17.45
   6  -3   3   87.51   19.40
   6  -3   4  635.35   86.02
   6  -3   4  884.04  127.99
   6  -3   5   -0.06   12.87
   6  -3   5   44.75   12.21
   6  -3   6  191.93   31.60
  -6   3  -6  139.24   37.05
   6  -2 -11   52.47   16.05
  -6   2  11   74.60   29.52
   6  -2 -10   33.01   18.27
  -6   2  10   55.61   26.24
   6  -2  -9  514.74  115.05
  -6   2   9  598.26  127.61
   6  -2  -8  136.62   36.93
  -6   2   8  159.48   29.91
   6  -2  -7   88.17   28.54
  -6   2   7  107.36   21.64
   6  -2  -6   31.80   11.76
   6  -2  -6   62.01   21.48
  -6   2   6   80.35   14.62
   6  -2  -5 1287.77  160.39
   6  -2  -5 1822.11  277.95
  -6   2   5 1917.22  210.16
   6  -2  -4  905.09  101.98
   6  -2  -4 1050.47  137.47
   6  -2  -3  677.20   75.70
   6  -2  -3  732.12   97.94
   6  -2  -2 1051.87  137.07
   6  -2  -2 1103.66  141.52
   6  -2  -1  718.26   80.62
   6  -2  -1  660.46   93.15
   6  -2   0  101.92   19.70
   6  -2   0   72.40   21.25
   6  -2   1  281.49   38.81
   6  -2   1  459.25   69.62
  -6   2  -1  400.69   48.12
   6  -2   2  103.26   21.14
   6  -2   2  129.34   22.88
   6  -2   3  218.52   37.43
   6  -2   3  304.01   40.87
   6  -2   4   -0.11    9.11
   6  -2   4   17.42    9.20
   6  -2   5  619.21   84.70
   6  -2   5  698.08   91.16
   6  -2   6  190.40   51.89
  -6   2  -6  176.97   42.37
   6  -1 -11   77.60   36.29
  -6   1  11   84.91   38.23
   6  -1 -10  235.05   43.75
  -6   1  10  195.03   42.14
   6  -1  -9  364.17   62.46
  -6   1   9  358.78   56.35
   6  -1  -8  332.70   58.93
  -6   1   8  342.36   51.00
   6  -1  -7  292.51   52.78
  -6   1   7  302.00   43.53
   6  -1  -6  626.74   77.53
   6  -1  -6  645.07   91.02
   6  -1  -5  357.81   39.75
   6  -1  -5  429.43   49.85
   6  -1  -5  434.87   62.04
   6  -1  -4 1823.78  211.21
   6  -1  -4 1880.59  222.02
   6  -1  -4 1946.95  253.49
   6  -1  -3 1378.51  152.61
   6  -1  -3 1496.06  187.44
   6  -1  -2  861.07   91.93
   6  -1  -2  865.62  108.24
   6  -1  -1  328.98   38.74
   6  -1  -1  289.57   60.68
   6  -1   0  988.59  133.24
   6  -1   0 1505.43  173.47
   6  -1   0 1064.85  133.73
   6  -1   1  719.22   86.97
   6  -1   1  872.18   96.42
   6  -1   2  304.92   42.68
   6  -1   2  329.38   43.71
   6  -1   3  176.80   31.83
   6  -1   3  197.67   47.32
   6  -1   4  176.18   34.92
   6  -1   4  195.49   36.36
   6  -1   5   62.18   21.04
   6  -1   6  334.45   50.82
  -6   1  -6  386.63   65.87
   6  -1   7  113.99   24.00
  -6   1  -7  110.92   28.71
   6   0 -12   90.55   35.18
  -6   0  12  117.20   39.14
   6   0 -11  179.33   36.91
  -6   0  11  210.59   73.93
   6   0 -10   45.05   20.55
  -6   0  10   51.47   20.38
   6   0  -9  487.35   78.33
  -6   0   9  554.70   78.12
   6   0  -8  148.38   32.62
   6   0  -8  147.50   34.58
   6   0  -7  309.88   47.51
   6   0  -7  285.24   49.73
   6   0  -6  785.28   94.35
   6   0  -6  708.22   96.93
   6   0  -5  191.77   28.23
   6   0  -5  176.90   33.68
   6   0  -4  167.59   29.56
   6   0  -3  982.55  103.53
   6   0  -3 1027.95  102.38
   6   0  -3  973.63  139.84
   6   0  -2 1607.14  173.32
   6   0  -2 1436.41  179.73
   6   0  -1  503.21   58.73
   6   0  -1  690.56   66.47
   6   0   0   30.73   10.42
   6   0   0   29.95    9.37
   6   0   1  788.97   95.46
   6   0   1  905.36   99.42
   6   0   2  434.16   77.66
   6   0   2  499.92   79.07
   6   0   3   75.54   31.69
   6   0   3   75.71   20.59
   6   0   4   63.50   20.38
   6   0   4   67.03   20.96
   6   0   5  101.12   27.25
  -6   0  -5  145.42   36.25
   6   0   6   45.76   17.01
  -6   0  -6   40.58   21.50
   6   0   7  180.67   30.60
  -6   0  -7  169.33   59.84
   6   1 -12   54.82   17.27
  -6  -1  12   60.29   29.04
   6   1 -11  438.82   66.99
  -6  -1  11  453.13   70.88
   6   1 -10   92.07   28.84
  -6  -1  10  111.16   29.66
   6   1  -9   13.36   19.45
   6   1  -8  502.75   71.18
   6   1  -8  398.18   63.32
   6   1  -7 1001.12  121.71
   6   1  -7  767.56  105.28
   6   1  -6  163.30   42.10
   6   1  -6  160.46   44.94
   6   1  -5   84.62   20.51
   6   1  -4   48.87   11.81
   6   1  -4   51.39   14.63
   6   1  -3 1717.57  207.44
   6   1  -2 1337.58  152.45
   6   1  -2 1080.50  127.66
   6   1  -1 1011.23  116.88
   6   1  -1 1082.91  110.95
   6   1   0  349.45   44.93
   6   1   0  350.36   50.89
   6   1   1  360.93   41.43
   6   1   1  144.13   27.03
   6   1   2 1225.44  157.40
   6   1   2 1323.79  160.66
   6   1   3  381.63   57.28
   6   1   3  408.23   57.07
   6   1   4    0.43   11.97
  -6  -1  -4   37.56   15.03
   6   1   5   72.71   23.06
  -6  -1  -5   86.76   28.14
   6   1   6   72.95   21.03
  -6  -1  -6   70.86   25.38
   6   2 -11  156.49   35.92
  -6  -2  11  191.13   38.60
   6   2 -10  163.61   58.18
  -6  -2  10  220.53   44.35
   6   2  -9   94.09   26.81
   6   2  -9   70.73   24.47
   6   2  -8  263.75   45.38
   6   2  -8  208.97   40.21
   6   2  -7  802.26  102.73
   6   2  -6 1229.02  142.32
   6   2  -6  961.65  124.97
   6   2  -5  305.46   38.77
   6   2  -5  240.79   51.96
   6   2  -4  390.71   49.28
   6   2  -3  129.98   19.70
   6   2  -3  122.49   29.45
   6   2  -2 2025.16  240.56
   6   2  -2 2014.29  254.63
   6   2  -1  276.01   32.85
   6   2  -1  337.38   43.03
   6   2   0  694.73  104.78
   6   2   0  591.88   64.44
   6   2   1  307.62   45.07
   6   2   1  279.81   36.11
   6   2   2  175.93   24.30
  -6  -2  -2    0.56   20.99
   6   2   3  879.85  117.16
  -6  -2  -3  914.70  130.08
   6   2   4  383.79   57.65
  -6  -2  -4  326.85   59.71
   6   2   5  177.53   34.03
  -6  -2  -5  135.12   36.18
   6   2   6   46.22   18.57
  -6  -2  -6   56.77   22.17
   6   3 -11  153.15   35.71
  -6  -3  11  198.62   37.40
   6   3 -10    1.91    3.73
  -6  -3  10   -2.51    4.34
   6   3  -9   29.71   14.56
   6   3  -9   16.92   14.01
   6   3  -8  184.40   33.28
   6   3  -8  107.46   29.26
   6   3  -7  104.01   21.39
   6   3  -7   59.43   19.81
   6   3  -6   53.05   15.67
   6   3  -5  656.50   74.92
   6   3  -5  413.22   55.92
   6   3  -4  559.08   62.07
   6   3  -4  456.34   54.56
   6   3  -3  611.91   69.62
   6   3  -3  597.65   70.25
   6   3  -2  349.55   43.88
   6   3  -2  410.38   51.93
   6   3  -1 1456.08  179.05
   6   3  -1 1974.40  239.27
   6   3   0  342.72   45.04
   6   3   0  612.75   69.56
   6   3   1  494.50   71.18
   6   3   2  105.74   24.82
  -6  -3  -2   61.41   21.29
  -6  -3  -3  371.07   59.17
   6   3   4   64.10   22.08
  -6  -3  -4   31.63   31.23
   6   3   5  380.97   57.68
  -6  -3  -5  355.26   60.16
   6   4 -11   75.82   23.08
  -6  -4  11   98.82   23.09
   6   4 -10  244.66   42.40
   6   4 -10  205.42   38.72
   6   4  -9   84.64   24.83
   6   4  -8  122.93   35.56
   6   4  -8   55.64   20.93
   6   4  -7   15.37    9.22
   6   4  -7    5.82    8.74
   6   4  -6  176.08   28.74
   6   4  -6  121.01   24.91
   6   4  -5  282.90   54.72
  -6  -4   5  210.89   34.04
   6   4  -4  648.67   77.89
   6   4  -4  638.72   74.95
   6   4  -3   76.14   18.14
   6   4  -3   89.39   19.09
   6   4  -2    4.58    6.30
   6   4  -2    6.63    7.03
   6   4  -1   77.91   19.07
   6   4  -1  163.30   26.51
   6   4   0  115.16   37.13
   6   4   0  287.36   39.54
   6   4   1    8.43    8.32
   6   4   1    0.22    8.51
   6   4   3  106.61   25.12
  -6  -4  -3   53.61   19.41
   6   4   4  435.55   64.18
   6   4   5  162.86   29.44
   6   5 -10   -1.15   11.08
  -6  -5  10    6.13    7.84
   6   5  -9  250.23   37.76
   6   5  -9  141.25   31.15
   6   5  -8  110.33   23.68
   6   5  -7   34.92   13.01
   6   5  -7   20.45   11.12
   6   5  -6  248.00   39.95
  -6  -5   6  250.83   52.53
   6   5  -5  190.10   50.52
  -6  -5   5  198.20   33.45
   6   5  -4  285.09   43.66
  -6  -5   4  305.96   46.09
   6   5  -3  280.15   43.84
   6   5  -3  379.67   49.26
   6   5  -2   46.68   16.37
   6   5  -2   80.35   19.03
   6   5  -1   89.83   22.53
   6   5  -1  190.81   30.08
   6   5   0  117.27   43.14
   6   5   0  287.92   40.81
   6   5   1  165.25   45.61
   6   5   1  415.35   68.20
   6   5   2   30.16   10.53
   6   5   2   90.42   26.43
   6   5   3   75.30   19.95
   6   5   4    2.36    5.08
   6   6  -9   50.79   14.60
   6   6  -8 1476.27  178.74
   6   6  -7   48.37   15.64
  -6  -6   7   47.15   12.95
   6   6  -6   29.83   13.85
  -6  -6   6   31.68   12.02
   6   6  -5  126.27   44.41
  -6  -6   5  144.02   28.98
   6   6  -4  363.63   55.60
  -6  -6   4  440.87   61.74
   6   6  -3  199.30   36.36
  -6  -6   3  251.48   42.47
   6   6  -2   64.81   20.11
   6   6  -2  104.68   23.38
   6   6  -1   80.48   21.40
   6   6  -1  142.30   27.60
   6   6   0  153.91   30.55
   6   6   0  293.76   41.34
   6   6   1   70.52   18.44
   6   6   1  127.63   24.81
   6   6   2    4.64    7.39
   6   6   2   40.72   10.75
   6   7  -7    9.48   12.20
   6   7  -6    9.40    7.66
  -6  -7   6    6.89    7.21
   6   7  -5    9.44    8.36
  -6  -7   5    7.28    8.10
   6   7  -4   41.24   26.16
  -6  -7   4   48.89   17.47
   6   7  -3  192.78   36.39
  -6  -7   3  249.30   41.19
   6   7  -2  211.73   37.44
  -6  -7   2  278.45   44.48
   6   7  -1    9.26    9.95
  -6  -7   1   24.78   13.12
   6   7   0   70.35   19.09
  -6  -7   0  109.10   24.69
   6   7   1   11.97    7.85
  -6  -7  -1   18.73   10.79
   7  -7  -5   55.01   15.80
  -7   7   5   63.06   15.15
   7  -7  -4   65.62   17.25
  -7   7   4   68.36   18.96
   7  -7  -3   54.12   15.36
  -7   7   3   46.22   18.11
   7  -7  -2  157.16   27.41
  -7   7   2  154.44   51.00
   7  -7  -1    2.49    7.13
  -7   7   1   10.63    8.56
   7  -7   0  292.19   39.27
  -7   7   0  311.28   48.00
   7  -6  -7  103.26   21.60
  -7   6   7  101.95   19.97
   7  -6  -6  120.18   25.76
  -7   6   6  132.02   27.01
   7  -6  -5  276.81   45.02
  -7   6   5  380.86   54.14
   7  -6  -4   21.27   24.99
  -7   6   4   56.56   18.76
   7  -6  -3  174.06   32.48
  -7   6   3  223.79   39.76
   7  -6  -2    7.05    8.08
  -7   6   2    7.23    9.84
   7  -6  -1  274.55   44.48
  -7   6   1  322.93   51.84
   7  -6   0   32.44   22.58
  -7   6   0   25.79   24.87
   7  -6   1  348.71   56.40
  -7   6  -1 2364.71  166.76
   7  -6   2   60.65   15.24
  -7   6  -2   71.36   17.10
   7  -5  -8  126.88   21.55
   7  -5  -8  131.32   28.28
   7  -5  -7    0.06   10.06
   7  -5  -7   47.17   13.38
   7  -5  -6   39.46   15.59
   7  -5  -6   56.37   21.99
   7  -5  -5   16.34   11.53
   7  -5  -5   24.37   16.66
   7  -5  -4   54.77   18.06
   7  -5  -4   63.61   26.55
   7  -5  -3   97.03   23.49
   7  -5  -3  132.25   36.58
   7  -5  -2   31.14   14.05
  -7   5   2   42.71   17.37
   7  -5  -1  115.79   25.38
  -7   5   1  121.89   29.06
   7  -5   0  288.95   48.42
  -7   5   0  383.81   55.18
   7  -5   1   86.49   20.84
  -7   5  -1   65.49   31.90
   7  -5   2  248.18   37.87
  -7   5  -2  281.20   39.38
   7  -5   3   12.35   13.34
   7  -4  -9  395.19   59.79
   7  -4  -8   56.85   15.53
   7  -4  -8  129.37   26.47
   7  -4  -7  152.37   27.08
   7  -4  -7  329.38   69.13
   7  -4  -6   41.49   15.95
   7  -4  -6  101.16   25.70
   7  -4  -5   15.87   11.46
   7  -4  -5   39.20   18.11
   7  -4  -4  132.48   27.37
   7  -4  -4  200.22   42.34
   7  -4  -3  626.09   82.54
   7  -4  -3  932.36  131.58
   7  -4  -2  462.81   59.64
   7  -4  -2  376.07   73.18
   7  -4  -1  103.47   25.13
  -7   4   1  124.09   26.73
   7  -4   0  114.66   26.17
  -7   4   0  133.47   27.36
   7  -4   1  479.10   64.71
  -7   4  -1  472.18   65.18
   7  -4   2  126.19   24.18
  -7   4  -2  101.30   21.59
   7  -4   3  244.21   54.23
   7  -4   4   90.65   16.47
   7  -4   4  154.09   23.37
   7  -3 -10  159.24   47.42
  -7   3  10  187.23   45.53
   7  -3  -9   57.57   22.65
  -7   3   9   74.79   19.57
   7  -3  -8  256.93   53.27
  -7   3   8  307.86   43.35
   7  -3  -7   78.94   19.26
   7  -3  -7  173.35   33.36
   7  -3  -6    2.49    4.54
   7  -3  -6    0.32    7.76
   7  -3  -5  370.86   49.16
   7  -3  -5  513.39   76.83
   7  -3  -4   70.23   26.96
   7  -3  -4   95.07   41.61
   7  -3  -3   10.65    8.32
   7  -3  -3   12.94   12.89
   7  -3  -2  964.67  118.64
   7  -3  -2 1052.13  150.31
   7  -3  -1  637.29   79.81
   7  -3  -1  592.07   91.88
   7  -3   0  170.21   45.03
  -7   3   0  159.31   29.37
   7  -3   1  154.00   27.88
  -7   3  -1  127.15   25.05
   7  -3   2  529.71   70.14
   7  -3   3   96.73   21.08
   7  -3   3  216.97   42.88
   7  -3   4   61.21   16.48
   7  -3   4   96.18   21.06
   7  -3   5  174.54   22.02
  -7   3  -5   -1.36   30.61
   7  -2 -10 2058.38  147.90
  -7   2  10  180.30   57.56
   7  -2  -9   10.85   12.01
  -7   2   9    6.90   11.13
   7  -2  -8   38.97   17.16
  -7   2   8    0.24   18.59
   7  -2  -7   39.87   20.09
  -7   2   7   33.30   12.08
   7  -2  -6  346.24   65.28
   7  -2  -5   19.10   13.79
   7  -2  -5   30.93   16.12
   7  -2  -4  725.68   82.73
   7  -2  -4  799.39  113.33
   7  -2  -3   54.65   13.81
   7  -2  -3   54.29   20.04
   7  -2  -2   93.46   18.54
   7  -2  -2   79.35   24.88
   7  -2  -1  479.30   58.57
   7  -2  -1  403.03   64.67
   7  -2   0  997.63  119.33
  -7   2   0  928.30  115.83
   7  -2   1   20.65   10.85
   7  -2   2  147.87   28.85
   7  -2   2  276.73   36.52
   7  -2   3   70.67   19.78
   7  -2   3  121.51   24.77
   7  -2   4  407.87   57.14
   7  -2   4  570.05   72.79
   7  -2   5    8.52    8.91
  -7   2  -5   19.10   13.63
   7  -1 -11  286.14   49.06
  -7   1  11  334.62   63.83
   7  -1 -10  252.24   51.81
  -7   1  10  306.44   82.64
   7  -1  -9  243.37   81.66
  -7   1   9  306.91   46.10
   7  -1  -8    3.30    9.19
  -7   1   8    3.11    6.20
   7  -1  -7   22.30   11.29
  -7   1   7    1.04    7.61
   7  -1  -6   29.87   42.20
  -7   1   6   95.75   18.22
   7  -1  -5  326.34   59.61
   7  -1  -4    3.53    5.06
   7  -1  -4   14.94    8.86
   7  -1  -3  229.66   29.02
   7  -1  -3  231.31   41.80
   7  -1  -2   22.53   13.00
   7  -1  -2   12.88   11.07
   7  -1  -1  901.56  103.46
   7  -1   0  444.33   54.30
   7  -1   1  202.49   33.47
   7  -1   1  297.32   38.80
   7  -1   2  139.16   27.94
   7  -1   2  208.07   32.57
   7  -1   3  165.39   31.85
   7  -1   3  222.12   37.18
   7  -1   4   44.29   16.23
   7  -1   4   49.03   18.59
   7  -1   5  338.65   49.90
  -7   1  -5  451.36   70.04
   7   0 -11   31.65   30.20
  -7   0  11   39.55   24.12
   7   0 -10  217.70   47.12
  -7   0  10  259.48   43.23
   7   0  -9  110.29   35.40
  -7   0   9  153.78   30.61
   7   0  -8   35.11   19.83
  -7   0   8   43.14   16.47
   7   0  -7  381.14   55.28
   7   0  -7  380.46   64.29
   7   0  -6  344.50   47.81
   7   0  -6  322.60   54.30
   7   0  -5   14.24    8.34
   7   0  -5   11.95   11.13
   7   0  -4  837.75  112.93
   7   0  -3  350.65   51.04
   7   0  -2  465.21   50.50
   7   0  -1  236.60   30.44
   7   0   0  911.03  116.24
   7   0   0 1258.75  135.97
   7   0   1  401.14   57.41
   7   0   1  545.93   63.96
   7   0   2  266.05   42.59
   7   0   2  325.29   46.08
   7   0   3  141.14   30.09
   7   0   3  169.50   31.85
   7   0   4  285.95   45.94
  -7   0  -4  336.35   59.73
   7   0   5   19.93   12.69
  -7   0  -5   27.51   16.10
   7   1 -11  150.84   34.52
  -7  -1  11  166.00   34.63
   7   1 -10   35.32   20.59
  -7  -1  10   54.80   19.70
   7   1  -9  251.05   51.99
  -7  -1   9  350.78   54.02
   7   1  -8   37.63   17.36
   7   1  -8   33.99   18.32
   7   1  -7  333.45   50.31
   7   1  -7  261.00   49.62
   7   1  -6  627.93   76.28
   7   1  -6  471.52   72.60
   7   1  -5  514.19   76.86
   7   1  -5  432.82   63.63
   7   1  -4   14.75    7.55
   7   1  -4   13.99   15.54
   7   1  -1  170.90   30.68
   7   1  -1  225.62   26.98
   7   1   0   80.16   16.34
   7   1   1  118.86   25.15
   7   1   1  125.19   23.05
   7   1   2   -0.41   13.65
   7   1   2   44.26   12.17
   7   1   3  129.44   29.30
  -7  -1  -3  147.31   34.68
   7   1   4  160.26   31.98
  -7  -1  -4  148.91   35.49
   7   1   5  418.16   60.11
  -7  -1  -5  412.71   63.80
   7   2 -11   70.26   24.13
  -7  -2  11   96.65   24.97
   7   2 -10  208.43   44.50
  -7  -2  10  278.76   48.94
   7   2  -9   94.48   26.93
   7   2  -9   70.80   25.27
   7   2  -8  463.59   65.92
   7   2  -8  290.71   55.51
   7   2  -7  338.69   48.77
   7   2  -7  223.04   43.11
   7   2  -6  307.75   40.62
   7   2  -6  214.55   40.72
   7   2  -5  104.49   18.91
   7   2  -5   66.64   19.83
   7   2  -4  425.51   51.95
   7   2  -3  233.76   31.83
   7   2  -2  299.34   42.08
   7   2   0  210.00   35.76
  -7  -2  -1   46.45   16.74
  -7  -2  -2  402.24   62.09
   7   2   3  633.51   87.79
  -7  -2  -3  526.30   79.84
   7   2   4   15.90   11.54
  -7  -2  -4    8.92   10.14
   7   3 -10    9.58   10.76
  -7  -3  10   14.31   12.73
   7   3  -9  358.20   52.48
   7   3  -9  188.94   42.26
   7   3  -8  108.27   25.42
   7   3  -8   57.02   21.80
   7   3  -7  279.07   57.97
   7   3  -7  158.57   33.61
   7   3  -6  315.59   42.09
   7   3  -6  217.85   38.56
   7   3  -5   39.11   13.65
   7   3  -4  110.57   21.71
   7   3  -3   35.08   18.94
   7   3  -3   36.93   11.56
   7   3  -2   73.12   15.68
   7   3  -2  100.21   28.52
   7   3  -1  113.19   24.76
   7   3   2   65.84   23.06
   7   3   4  529.04   72.73
   7   4 -10    1.14    6.11
  -7  -4  10    5.40    7.92
   7   4  -9   83.01   21.92
   7   4  -9   48.17   17.80
   7   4  -8  276.55   34.58
   7   4  -8   47.18   21.53
   7   4  -7   67.93   19.75
   7   4  -6  583.46   76.36
   7   4  -5  402.14   55.40
   7   4  -4   94.60   21.12
  -7  -4   4   89.95   21.88
   7   4  -3    1.73    3.39
   7   4  -3   -1.15    3.55
   7   4  -2  229.43   36.22
   7   4  -2  374.44   46.48
   7   4  -1   64.14   17.63
   7   4  -1  166.10   25.14
   7   4   0    1.27    9.02
   7   4   1  389.88   62.78
   7   4   3  186.06   51.84
   7   5  -9   19.07   11.53
   7   5  -8   23.49   13.26
   7   5  -7   35.30   14.38
   7   5  -6  126.86   25.91
   7   5  -5  181.88   33.84
  -7  -5   5  232.35   33.17
   7   5  -4  506.39   72.52
  -7  -5   4  667.75   81.59
   7   5  -3   66.77   14.12
  -7  -5   3   -3.82   16.08
   7   5  -2    7.77    6.31
   7   5  -2    1.38    7.57
   7   5  -1   34.82   14.05
   7   5  -1  114.38   20.37
   7   5   0   92.29   20.22
   7   5   0  326.42   35.83
   7   5   1  138.93   28.70
   7   5   2    1.66    5.60
   7   6  -7    1.96    9.51
   7   6  -6   37.90   14.09
   7   6  -5  204.84   36.34
  -7  -6   5  272.12   48.12
   7   6  -4  111.49   27.48
  -7  -6   4  185.18   28.30
   7   6  -3  248.54   67.07
  -7  -6   3  431.88   55.49
   7   6  -2    4.84    7.61
  -7  -6   2   16.58    9.52
   7   6  -1  164.35   29.85
  -7  -6   1  332.46   42.69
   7   6   0   11.71   15.34
   7   6   0   99.64   15.96
  -7  -6   0   -0.02   15.31
   8  -6  -4  163.63   28.71
  -8   6   4  213.66   35.27
   8  -6  -3   12.40   10.01
  -8   6   3   20.61   11.79
   8  -6  -2  117.80   38.27
  -8   6   2  130.58   27.24
   8  -6  -1  145.10   26.21
  -8   6   1  149.74   27.45
  -8   5   7   -0.97    5.24
   8  -5  -6   63.83   15.27
   8  -5  -6  108.64   28.29
   8  -5  -5   60.42   13.18
  -8   5   5    5.25   17.78
   8  -5  -4  113.79   24.11
  -8   5   4  181.41   33.67
   8  -5  -3  141.84   28.47
  -8   5   3  212.62   35.79
   8  -5  -2   26.73   12.90
  -8   5   2   29.77   14.09
   8  -5  -1  288.48   43.95
  -8   5   1  314.49   45.80
   8  -5   0   14.55   10.90
  -8   5   0   24.22    9.58
   8  -5   1  427.65   53.06
   8  -4  -8  448.63   74.66
   8  -4  -7    0.44    4.33
   8  -4  -7   29.66   10.28
   8  -4  -6   -0.57    5.28
   8  -4  -6   25.75   10.65
   8  -4  -5   12.89    8.30
   8  -4  -5   19.06   15.38
   8  -4  -4   40.51   13.92
   8  -4  -4   59.22   23.82
   8  -4  -3  129.84   26.07
   8  -4  -3  182.07   40.57
   8  -4  -2   72.90   19.89
  -8   4   2   88.29   22.08
   8  -4  -1  102.28   24.53
  -8   4   1  134.44   24.97
   8  -4   0  336.23   47.25
  -8   4   0  334.43   59.79
   8  -4   1   75.08   19.14
   8  -4   2  612.04   74.72
   8  -3  -9  333.87   61.06
   8  -3  -8   85.84   45.60
   8  -3  -7  140.06   59.25
   8  -3  -6   30.15   10.18
   8  -3  -6   77.17   21.99
   8  -3  -5   42.10   12.64
   8  -3  -5   77.18   24.58
   8  -3  -4   29.66   11.09
   8  -3  -4   28.71   19.08
   8  -3  -3  219.96   33.43
   8  -3  -3  242.37   49.12
   8  -3  -2   12.89   10.81
  -8   3   2    0.98    7.07
   8  -3  -1   74.78   19.05
  -8   3   1   80.70   18.72
   8  -3   0   23.25   11.35
   8  -3   1  576.78   73.18
   8  -3   2  195.35   33.06
   8  -3   3  120.55   25.13
   8  -2  -9    9.28   11.26
   8  -2  -8  418.42   70.74
   8  -2  -7  218.87   47.50
   8  -2  -6   97.36   31.44
   8  -2  -5  355.93   65.48
   8  -2  -4  143.89   22.79
   8  -2  -4  153.96   37.74
   8  -2  -3   25.28   16.53
   8  -2  -3   26.87   15.86
   8  -2  -2   62.18   15.28
   8  -2  -2   47.87   18.80
   8  -2  -1  116.60   22.35
   8  -2   0    6.16    6.84
   8  -2   1   19.93   18.13
   8  -2   2  448.57   61.84
   8  -2   3  197.28   34.69
   8  -1 -10  153.86   35.53
   8  -1  -9   20.43   17.06
  -8   1   9   29.12   19.53
   8  -1  -8   54.82   24.98
  -8   1   8   60.68   14.49
   8  -1  -7  759.18  119.39
  -8   1   7  879.72   98.99
   8  -1  -6  368.23   66.61
   8  -1  -5  118.43   30.64
   8  -1  -4   54.45   31.91
   8  -1  -3  307.58   35.39
   8  -1  -3  232.29   46.82
   8  -1  -2  319.32   39.17
   8  -1  -1  274.41   37.31
   8  -1   0  696.64  105.28
   8  -1   1    7.70    8.06
   8  -1   2   11.14   17.60
   8  -1   2   50.71   14.89
   8  -1   3   72.61   18.98
  -8   1  -3   -1.13   18.58
   8   0 -10   14.74   13.82
  -8   0  10   20.33   18.69
   8   0  -9   95.92   30.84
  -8   0   9  109.33   21.90
   8   0  -8   93.56   31.21
  -8   0   8  115.55   22.15
   8   0  -7   11.27    8.61
  -8   0   7   -0.07    5.65
   8   0  -6  331.11   65.34
  -8   0   6  510.90   56.54
   8   0  -5  655.88   94.29
   8   0  -4   27.64   13.61
   8   0  -1   98.96   18.22
   8   0   0   80.91   17.84
   8   0   1  183.68   33.62
   8   0   1  338.39   40.85
   8   0   2   56.84   17.57
   8   0   2   88.41   18.79
   8   0   3    1.06    4.03
  -8   0  -3    0.11    5.24
   8   1 -10  220.93   44.09
  -8  -1  10  244.15   38.13
   8   1  -9   26.03   29.64
  -8  -1   9   37.91   15.04
   8   1  -8   42.45   46.08
  -8  -1   8  128.29   25.23
   8   1  -7    9.51    8.94
   8   1  -7    9.37   10.51
   8   1  -6   78.89   23.49
   8   1  -5  182.05   28.04
   8   1  -5  125.98   29.55
   8   1   0  280.99   36.01
   8   1   1    4.54    5.98
  -8  -1  -1    1.52    6.34
   8   1   2  142.88   27.34
  -8  -1  -2  141.89   29.54
   8   1   3  131.25   25.54
   8   2 -10   99.98   47.36
  -8  -2  10  161.33   30.20
   8   2  -9  133.19   57.90
  -8  -2   9  306.82   44.73
   8   2  -8   79.43   20.59
   8   2  -8   27.89   30.11
   8   2  -7  145.87   29.67
   8   2  -7   79.52   38.99
   8   2  -6   26.16   12.61
   8   2  -4  123.30   33.36
   8   2   0  204.87   34.36
   8   2   1  310.62   46.20
   8   2   2   34.57   13.95
   8   3  -9    8.90   10.12
  -8  -3   9   -0.65    7.48
   8   3  -8   84.39   23.09
   8   3  -8   54.31   26.80
   8   3  -7   50.70   18.55
   8   3  -6   77.28   21.24
   8   3  -5   37.11   12.70
   8   3  -4  680.46   82.30
   8   3  -3  102.17   18.80
   8   3  -2  227.49   33.19
   8   3  -1   23.59   10.59
   8   3   0  177.40   30.30
   8   3   1   16.61   16.64
   8   3   2  265.62   57.66
   8   4  -7  102.37   24.88
   8   4  -6   53.84   26.90
   8   4  -5   53.23   14.98
   8   4  -4   53.53   14.02
   8   4  -3   99.66   21.52
  -8  -4   3  214.68   26.51
   8   4  -2    1.38    3.27
   8   4  -2    1.79    4.41
   8   4  -1   50.46   14.78
   8   4   0   37.30   13.62
   8   4   1  194.43   32.34
   8   5  -7   45.92   16.08
   8   5  -6   42.19   24.32
   8   5  -5   18.87    9.48
   8   5  -4   59.71   14.92
   8   5  -3   26.95    9.64
   8   5  -2   35.89   11.49
  -8  -5   2  113.99   16.24
  -8  -5   1  196.21   31.12
  -9   4   5  379.81   54.52
   9  -4  -4    0.07    5.66
  -9   4   4   22.78    8.04
   9  -4  -3   41.06   12.70
  -9   4   3   78.42   15.42
   9  -4  -2   78.38   16.23
   9  -3  -7   14.37   13.72
   9  -3  -6    5.61   10.59
   9  -3  -5   37.04    7.39
   9  -3  -5   91.25   20.78
   9  -3  -4  130.79   14.69
  -9   3   4   -3.96   17.76
   9  -3  -3   27.65    9.03
  -9   3   3   29.96   10.64
   9  -3  -2   -0.37    3.00
   9  -3  -1  368.66   61.68
   9  -3   0  129.43   22.67
   9  -2  -8   46.96   20.37
   9  -2  -7  391.16   65.90
   9  -2  -6    2.65    7.74
   9  -2  -5  190.81   39.01
   9  -2  -4   65.48   20.74
   9  -2  -3  187.62   23.24
   9  -2  -2    0.15    2.40
   9  -2  -1   36.77   10.99
   9  -2   0  289.61   38.89
   9  -1  -8  144.11   50.89
   9  -1  -7    7.22   16.15
   9  -1  -6  120.56   30.36
   9  -1  -5   52.68   18.05
   9  -1  -4  153.08   30.15
   9  -1  -2  132.75   18.84
   9  -1  -1   -0.18    2.45
   9  -1   0    0.00    2.05
   9   0  -8    5.21    7.97
   9   0  -7  152.56   30.56
   9   0  -6   55.25   17.92
   9   0  -5   49.96   15.74
   9   1  -8   16.52   10.03
   9   1  -7   35.37   12.56
   9   3  -6    9.93    6.39
;
#END Tags that were not found in dictionaries
loop_
_symmetry_equiv_pos_site_id
_space_group_symop_operation_xyz
1 +X,+Y,+Z
loop_
_atom_site_label
_atom_site_type_symbol
_atom_site_fract_x
_atom_site_fract_y
_atom_site_fract_z
_atom_site_U_iso_or_equiv
_atom_site_adp_type
_atom_site_occupancy
_atom_site_site_symmetry_multiplicity
_atom_site_calc_flag
_atom_site_refinement_flags
Cl36 Cl 0.79698(19) 0.61396(18) 0.85875(15) 0.0403(4) Uani 1 1 d .
S2 S 0.5333(2) 0.77514(18) 0.65906(16) 0.0369(4) Uani 1 1 d .
Si3 Si 0.2436(2) 0.19334(19) 1.15636(16) 0.0314(4) Uani 1 1 d .
O4 O 0.1164(6) 0.2688(5) 0.7189(4) 0.0369(11) Uani 1 1 d .
O5 O 0.5604(7) 0.9178(5) 0.7464(5) 0.0454(13) Uani 1 1 d .
O6 O 0.2827(7) 0.2731(6) 1.0326(5) 0.0472(13) Uani 1 1 d .
O7 O 0.3658(7) 0.7385(6) 0.5585(5) 0.0468(13) Uani 1 1 d .
O8 O 0.5197(7) 0.4277(5) 0.5801(4) 0.0437(13) Uani 1 1 d .
O9 O 0.5753(8) 0.5034(7) 1.0730(5) 0.0526(14) Uani 1 1 d .
C1 C 0.2167(9) 0.4031(7) 0.7797(6) 0.0304(14) Uani 1 1 d .
C10 C 0.5214(8) 0.4477(8) 0.6953(6) 0.0321(15) Uani 1 1 d .
C12 C 0.3952(9) 0.3593(8) 0.8676(6) 0.0325(15) Uani 1 1 d .
C13 C 0.1727(10) 0.5510(7) 0.7607(7) 0.0335(15) Uani 1 1 d .
C14 C 0.4822(9) 0.6519(8) 0.8819(6) 0.0361(16) Uani 1 1 d .
C15 C 0.5683(8) 0.6150(7) 0.7724(6) 0.0283(14) Uani 1 1 d .
C16 C 0.6673(10) 0.6806(9) 0.4617(7) 0.0408(17) Uani 1 1 d .
C17 C 0.8438(9) 0.8677(8) 0.6402(7) 0.0399(17) Uani 1 1 d .
C18 C 0.4267(11) 0.0774(9) 1.2518(7) 0.0461(19) Uani 1 1 d .
C19 C 0.4924(10) 0.5047(8) 0.9558(6) 0.0380(16) Uani 1 1 d .
C20 C 0.5006(9) 0.3130(8) 0.7738(6) 0.0337(15) Uani 1 1 d .
C21 C 0.7950(11) 0.6832(9) 0.4016(7) 0.048(2) Uani 1 1 d .
C22 C 0.2918(10) 0.6914(8) 0.8306(7) 0.0395(16) Uani 1 1 d .
C23 C 0.6953(9) 0.7719(8) 0.5825(7) 0.0351(15) Uani 1 1 d .
C24 C 0.2156(10) 0.3692(8) 1.2643(7) 0.0416(17) Uani 1 1 d .
C25 C 0.3822(10) 0.2246(8) 0.9506(7) 0.0409(17) Uani 1 1 d .
C26 C -0.0540(11) 0.2933(8) 0.6346(7) 0.0479(19) Uani 1 1 d .
C27 C 0.9463(10) 0.7765(9) 0.4605(8) 0.0444(18) Uani 1 1 d .
C28 C 0.5978(12) 0.1762(13) 1.3136(9) 0.070(3) Uani 1 1 d .
C29 C 0.9688(11) 0.8712(9) 0.5785(8) 0.0478(19) Uani 1 1 d .
C30 C -0.1115(11) 0.1457(11) 0.9975(9) 0.061(2) Uani 1 1 d .
C31 C 0.4484(13) -0.0746(10) 1.1720(8) 0.058(2) Uani 1 1 d .
C32 C 0.1264(15) 0.5057(10) 1.1863(9) 0.072(3) Uani 1 1 d .
C33 C 0.0436(10) 0.0563(9) 1.0780(7) 0.0437(18) Uani 1 1 d .
C34 C 0.1317(12) 0.3312(11) 1.3685(8) 0.058(2) Uani 1 1 d .
C35 C -0.0058(14) -0.0454(11) 1.1737(10) 0.066(3) Uani 1 1 d .
H13 H 0.06162 0.5681 0.70057 0.0402 Uiso 1 1 calc R
H14 H 0.55027 0.74165 0.94623 0.0434 Uiso 1 1 calc R
H16 H 0.56273 0.61749 0.42091 0.0490 Uiso 1 1 calc R
H17 H 0.86026 0.93101 0.72206 0.0478 Uiso 1 1 calc R
H18 H 0.39465 0.04251 1.32917 0.0553 Uiso 1 1 calc R
H20A H 0.61617 0.28225 0.82794 0.0405 Uiso 1 1 calc R
H20B H 0.44108 0.22046 0.71096 0.0405 Uiso 1 1 calc R
H21 H 0.77831 0.6204 0.31944 0.0575 Uiso 1 1 calc R
H22A H 0.25766 0.73514 0.90738 0.0474 Uiso 1 1 calc R
H22B H 0.2786 0.77416 0.76789 0.0474 Uiso 1 1 calc R
H24 H 0.33538 0.41265 1.31694 0.0499 Uiso 1 1 calc R
H25A H 0.3261 0.12855 0.89107 0.0490 Uiso 1 1 calc R
H25B H 0.49907 0.19954 1.007 0.0490 Uiso 1 1 calc R
H26A H -0.11527 0.19076 0.59591 0.0574 Uiso 1 1 calc R
H26B H -0.11625 0.34989 0.68762 0.0574 Uiso 1 1 calc R
H26C H -0.04783 0.35611 0.56243 0.0574 Uiso 1 1 calc R
H27 H 1.03458 0.77566 0.42019 0.0533 Uiso 1 1 calc R
H28A H 0.57922 0.27232 1.36376 0.0845 Uiso 1 1 calc R
H28B H 0.68242 0.11416 1.37441 0.0845 Uiso 1 1 calc R
H28C H 0.6415 0.20551 1.24218 0.0845 Uiso 1 1 calc R
H29 H 1.07049 0.93878 0.61709 0.0573 Uiso 1 1 calc R
H30A H -0.07629 0.21007 0.9369 0.0736 Uiso 1 1 calc R
H30B H -0.20589 0.0693 0.94511 0.0736 Uiso 1 1 calc R
H30C H -0.15079 0.21452 1.05947 0.0736 Uiso 1 1 calc R
H31A H 0.33661 -0.13478 1.13404 0.0700 Uiso 1 1 calc R
H31B H 0.49074 -0.04752 1.09939 0.0700 Uiso 1 1 calc R
H31C H 0.53166 -0.13887 1.23162 0.0700 Uiso 1 1 calc R
H32A H 0.18144 0.52893 1.1198 0.0861 Uiso 1 1 calc R
H32B H 0.00371 0.47475 1.14073 0.0861 Uiso 1 1 calc R
H32C H 0.13721 0.60008 1.24886 0.0861 Uiso 1 1 calc R
H33 H 0.07081 -0.01917 1.01104 0.0524 Uiso 1 1 calc R
H34A H 0.18952 0.24431 1.41736 0.0700 Uiso 1 1 calc R
H34B H 0.14252 0.42504 1.43159 0.0700 Uiso 1 1 calc R
H34C H 0.00902 0.29972 1.32346 0.0700 Uiso 1 1 calc R
H35A H 0.09485 -0.10078 1.2235 0.0798 Uiso 1 1 calc R
H35B H -0.04441 0.02221 1.23677 0.0798 Uiso 1 1 calc R
H35C H -0.09951 -0.12301 1.12241 0.0798 Uiso 1 1 calc R
loop_
_atom_site_aniso_label
_atom_site_aniso_U_11
_atom_site_aniso_U_22
_atom_site_aniso_U_33
_atom_site_aniso_U_12
_atom_site_aniso_U_13
_atom_site_aniso_U_23
Cl36 0.0335(10) 0.0500(10) 0.0340(8) 0.0036(8) 0.0065(7) 0.0023(7)
S2 0.0382(10) 0.0319(8) 0.0405(9) 0.0049(7) 0.0123(8) 0.0043(7)
Si3 0.0356(11) 0.0353(9) 0.0232(8) 0.0072(8) 0.0089(7) 0.0029(7)
O4 0.033(3) 0.035(2) 0.036(3) -0.000(2) 0.002(2) 0.003(2)
O5 0.049(3) 0.030(2) 0.059(3) 0.001(2) 0.022(3) -0.005(2)
O6 0.053(4) 0.056(3) 0.045(3) 0.021(3) 0.029(3) 0.016(2)
O7 0.043(3) 0.049(3) 0.045(3) 0.005(2) 0.006(2) 0.011(2)
O8 0.066(4) 0.041(3) 0.027(2) 0.003(2) 0.020(2) -0.0021(19)
O9 0.060(4) 0.065(3) 0.028(3) -0.003(3) 0.008(2) -0.000(2)
C1 0.035(4) 0.031(3) 0.026(3) 0.002(3) 0.011(3) -0.000(2)
C10 0.026(4) 0.038(4) 0.031(3) 0.006(3) 0.009(3) 0.001(3)
C12 0.037(4) 0.034(3) 0.026(3) 0.005(3) 0.011(3) 0.001(3)
C13 0.037(4) 0.029(3) 0.040(4) 0.003(3) 0.020(3) 0.002(3)
C14 0.041(4) 0.035(4) 0.029(3) -0.002(3) 0.011(3) -0.009(3)
C15 0.020(3) 0.037(3) 0.026(3) 0.004(3) 0.005(3) 0.001(3)
C16 0.042(5) 0.046(4) 0.033(4) 0.003(3) 0.009(3) 0.007(3)
C17 0.041(5) 0.036(4) 0.039(4) 0.005(3) 0.008(3) 0.008(3)
C18 0.057(5) 0.053(4) 0.028(3) 0.016(4) 0.011(4) 0.004(3)
C19 0.043(5) 0.047(4) 0.026(3) 0.007(3) 0.014(3) 0.001(3)
C20 0.040(4) 0.037(3) 0.029(3) 0.009(3) 0.018(3) 0.004(3)
C21 0.058(6) 0.053(4) 0.031(4) 0.013(4) 0.010(4) 0.012(3)
C22 0.043(4) 0.032(3) 0.045(4) 0.009(3) 0.018(3) -0.007(3)
C23 0.033(4) 0.038(4) 0.037(4) 0.005(3) 0.012(3) 0.008(3)
C24 0.036(4) 0.044(4) 0.039(4) -0.000(3) 0.007(3) -0.007(3)
C25 0.049(5) 0.047(4) 0.032(4) 0.014(4) 0.018(3) 0.010(3)
C26 0.055(5) 0.042(4) 0.042(4) 0.007(4) 0.008(4) 0.003(3)
C27 0.039(5) 0.055(4) 0.047(4) 0.017(4) 0.018(4) 0.021(4)
C28 0.052(6) 0.101(7) 0.044(5) 0.026(5) -0.003(4) -0.007(5)
C29 0.042(5) 0.048(4) 0.055(5) 0.005(4) 0.015(4) 0.017(4)
C30 0.034(5) 0.078(6) 0.052(5) 0.002(4) -0.011(4) -0.004(4)
C31 0.068(6) 0.056(5) 0.046(4) 0.026(4) 0.009(4) 0.006(4)
C32 0.101(8) 0.050(5) 0.071(6) 0.028(5) 0.036(6) 0.003(5)
C33 0.035(4) 0.045(4) 0.041(4) -0.002(3) 0.001(3) -0.006(3)
C34 0.067(6) 0.070(6) 0.037(4) -0.002(5) 0.020(4) -0.013(4)
C35 0.074(7) 0.054(5) 0.075(6) -0.006(5) 0.031(5) 0.006(5)
loop_
_atom_type_symbol
_atom_type_description
_atom_type_scat_dispersion_real
_atom_type_scat_dispersion_imag
_atom_type_scat_source
C C 0.0181 0.0091
;
International Tables for Crystallography
(Vol. C, Tables 4.2.6.8 and 6.1.1.4)
;
H H 0.0000 0.0000
;
International Tables for Crystallography
(Vol. C, Table 6.1.1.4)
;
O O 0.0492 0.0322
;
International Tables for Crystallography
(Vol. C, Tables 4.2.6.8 and 6.1.1.4)
;
Cl Cl 0.3639 0.7018
;
International Tables for Crystallography
(Vol. C, Tables 4.2.6.8 and 6.1.1.4)
;
S S 0.3331 0.5567
;
International Tables for Crystallography
(Vol. C, Tables 4.2.6.8 and 6.1.1.4)
;
Si Si 0.2541 0.3302
;
International Tables for Crystallography
(Vol. C, Tables 4.2.6.8 and 6.1.1.4)
;
loop_
_geom_angle_atom_site_label_1
_geom_angle_atom_site_label_2
_geom_angle_atom_site_label_3
_geom_angle
_geom_angle_publ_flag
O5 S2 O7 119.0(3) yes
O5 S2 C15 104.5(3) yes
O5 S2 C23 108.4(3) yes
O7 S2 C15 106.4(3) yes
O7 S2 C23 109.7(3) yes
C15 S2 C23 108.3(3) yes
O6 Si3 C18 112.3(4) yes
O6 Si3 C24 103.0(3) yes
O6 Si3 C33 106.3(3) yes
C18 Si3 C24 110.8(3) yes
C18 Si3 C33 109.4(3) yes
C24 Si3 C33 115.0(4) yes
C1 O4 C26 115.6(5) yes
Si3 O6 C25 131.8(5) yes
O4 C1 C12 110.0(5) yes
O4 C1 C13 126.0(6) yes
C12 C1 C13 123.9(6) yes
O8 C10 C15 119.7(6) yes
O8 C10 C20 122.6(6) yes
C15 C10 C20 117.3(5) yes
C1 C12 C19 109.6(5) yes
C1 C12 C20 107.7(5) yes
C1 C12 C25 111.8(6) yes
C19 C12 C20 105.4(6) yes
C19 C12 C25 111.4(5) yes
C20 C12 C25 110.7(6) yes
C1 C13 C22 122.4(6) yes
C15 C14 C19 106.6(6) yes
C15 C14 C22 115.8(5) yes
C19 C14 C22 107.5(6) yes
Cl36 C15 S2 107.7(4) yes
Cl36 C15 C10 103.7(4) yes
Cl36 C15 C14 106.5(4) yes
S2 C15 C10 112.7(4) yes
S2 C15 C14 110.1(4) yes
C10 C15 C14 115.4(6) yes
C21 C16 C23 118.8(7) yes
C23 C17 C29 119.6(7) yes
Si3 C18 C28 113.6(6) yes
Si3 C18 C31 113.3(5) yes
C28 C18 C31 111.7(8) yes
O9 C19 C12 123.5(7) yes
O9 C19 C14 122.6(6) yes
C12 C19 C14 113.8(5) yes
C10 C20 C12 111.3(6) yes
C16 C21 C27 120.5(7) yes
C13 C22 C14 113.1(6) yes
S2 C23 C16 119.8(6) yes
S2 C23 C17 118.9(6) yes
C16 C23 C17 121.1(8) yes
Si3 C24 C32 114.5(5) yes
Si3 C24 C34 114.8(5) yes
C32 C24 C34 110.3(8) yes
O6 C25 C12 108.0(6) yes
C21 C27 C29 119.8(9) yes
C17 C29 C27 120.2(7) yes
Si3 C33 C30 111.6(5) yes
Si3 C33 C35 115.4(5) yes
C30 C33 C35 111.1(8) yes
C1 C13 H13 118.790 no
C22 C13 H13 118.792 no
C15 C14 H14 108.913 no
C19 C14 H14 108.909 no
C22 C14 H14 108.910 no
C21 C16 H16 120.608 no
C23 C16 H16 120.604 no
C23 C17 H17 120.198 no
C29 C17 H17 120.200 no
Si3 C18 H18 105.802 no
C28 C18 H18 105.804 no
C31 C18 H18 105.802 no
C10 C20 H20A 109.370 no
C10 C20 H20B 109.369 no
C12 C20 H20A 109.372 no
C12 C20 H20B 109.368 no
H20A C20 H20B 107.995 no
C16 C21 H21 119.771 no
C27 C21 H21 119.775 no
C13 C22 H22A 108.967 no
C13 C22 H22B 108.966 no
C14 C22 H22A 108.975 no
C14 C22 H22B 108.970 no
H22A C22 H22B 107.767 no
Si3 C24 H24 105.429 no
C32 C24 H24 105.429 no
C34 C24 H24 105.430 no
O6 C25 H25A 110.112 no
O6 C25 H25B 110.106 no
C12 C25 H25A 110.106 no
C12 C25 H25B 110.105 no
H25A C25 H25B 108.433 no
O4 C26 H26A 109.475 no
O4 C26 H26B 109.467 no
O4 C26 H26C 109.466 no
H26A C26 H26B 109.479 no
H26A C26 H26C 109.468 no
H26B C26 H26C 109.473 no
C21 C27 H27 120.116 no
C29 C27 H27 120.117 no
C18 C28 H28A 109.473 no
C18 C28 H28B 109.469 no
C18 C28 H28C 109.471 no
H28A C28 H28B 109.470 no
H28A C28 H28C 109.470 no
H28B C28 H28C 109.474 no
C17 C29 H29 119.896 no
C27 C29 H29 119.890 no
C33 C30 H30A 109.470 no
C33 C30 H30B 109.472 no
C33 C30 H30C 109.468 no
H30A C30 H30B 109.475 no
H30A C30 H30C 109.469 no
H30B C30 H30C 109.473 no
C18 C31 H31A 109.474 no
C18 C31 H31B 109.467 no
C18 C31 H31C 109.472 no
H31A C31 H31B 109.472 no
H31A C31 H31C 109.472 no
H31B C31 H31C 109.471 no
C24 C32 H32A 109.472 no
C24 C32 H32B 109.475 no
C24 C32 H32C 109.473 no
H32A C32 H32B 109.471 no
H32A C32 H32C 109.470 no
H32B C32 H32C 109.467 no
Si3 C33 H33 105.980 no
C30 C33 H33 105.981 no
C35 C33 H33 105.981 no
C24 C34 H34A 109.470 no
C24 C34 H34B 109.473 no
C24 C34 H34C 109.467 no
H34A C34 H34B 109.470 no
H34A C34 H34C 109.474 no
H34B C34 H34C 109.474 no
C33 C35 H35A 109.475 no
C33 C35 H35B 109.472 no
C33 C35 H35C 109.473 no
H35A C35 H35B 109.469 no
H35A C35 H35C 109.470 no
H35B C35 H35C 109.469 no
loop_
_geom_bond_atom_site_label_1
_geom_bond_atom_site_label_2
_geom_bond_distance
_geom_bond_publ_flag
Cl36 C15 1.799(6) yes
S2 O5 1.429(5) yes
S2 O7 1.445(5) yes
S2 C15 1.853(7) yes
S2 C23 1.764(9) yes
Si3 O6 1.637(6) yes
Si3 C18 1.873(8) yes
Si3 C24 1.872(8) yes
Si3 C33 1.890(7) yes
O4 C1 1.368(7) yes
O4 C26 1.424(8) yes
O6 C25 1.416(11) yes
O8 C10 1.213(8) yes
O9 C19 1.208(8) yes
C1 C12 1.533(9) yes
C1 C13 1.329(9) yes
C10 C15 1.552(8) yes
C10 C20 1.503(10) yes
C12 C19 1.518(9) yes
C12 C20 1.548(11) yes
C12 C25 1.519(10) yes
C13 C22 1.497(9) yes
C14 C15 1.556(11) yes
C14 C19 1.518(10) yes
C14 C22 1.533(10) yes
C16 C21 1.388(13) yes
C16 C23 1.389(10) yes
C17 C23 1.375(9) yes
C17 C29 1.381(13) yes
C18 C28 1.530(12) yes
C18 C31 1.532(12) yes
C21 C27 1.383(11) yes
C24 C32 1.540(12) yes
C24 C34 1.525(13) yes
C27 C29 1.386(11) yes
C30 C33 1.542(11) yes
C33 C35 1.523(14) yes
C13 H13 0.950 no
C14 H14 1.000 no
C16 H16 0.950 no
C17 H17 0.950 no
C18 H18 1.000 no
C20 H20A 0.990 no
C20 H20B 0.990 no
C21 H21 0.950 no
C22 H22A 0.990 no
C22 H22B 0.990 no
C24 H24 1.000 no
C25 H25A 0.990 no
C25 H25B 0.990 no
C26 H26A 0.980 no
C26 H26B 0.980 no
C26 H26C 0.980 no
C27 H27 0.950 no
C28 H28A 0.980 no
C28 H28B 0.980 no
C28 H28C 0.980 no
C29 H29 0.950 no
C30 H30A 0.980 no
C30 H30B 0.980 no
C30 H30C 0.980 no
C31 H31A 0.980 no
C31 H31B 0.980 no
C31 H31C 0.980 no
C32 H32A 0.980 no
C32 H32B 0.980 no
C32 H32C 0.980 no
C33 H33 1.000 no
C34 H34A 0.980 no
C34 H34B 0.980 no
C34 H34C 0.980 no
C35 H35A 0.980 no
C35 H35B 0.980 no
C35 H35C 0.980 no
loop_
_geom_contact_atom_site_label_1
_geom_contact_atom_site_label_2
_geom_contact_distance
_geom_contact_publ_flag
_geom_contact_site_symmetry_2
Cl36 O5 3.336(5) no .
Cl36 O8 3.325(4) no .
Cl36 O9 3.495(7) no .
Cl36 C17 3.386(8) no .
Cl36 C19 3.130(9) no .
Cl36 C20 3.327(7) no .
Cl36 C23 3.189(7) no .
S2 O8 2.989(5) no .
S2 C22 3.186(9) no .
O4 O6 3.153(6) no .
O4 C20 3.014(9) no .
O4 C25 2.765(8) no .
O5 C14 2.930(9) no .
O5 C17 2.915(11) no .
O5 C22 3.257(10) no .
O6 O9 2.943(8) no .
O6 C1 2.873(8) no .
O6 C19 2.904(10) no .
O6 C28 3.427(9) no .
O6 C30 3.266(11) no .
O6 C31 3.519(10) no .
O6 C32 3.027(13) no .
O7 O8 2.951(7) no .
O7 C10 3.065(8) no .
O7 C13 3.493(10) no .
O7 C14 3.392(8) no .
O7 C16 3.001(11) no .
O7 C22 3.182(10) no .
O8 C12 3.590(9) no .
O8 C16 2.983(10) no .
O8 C23 3.212(8) no .
O9 C1 3.537(7) no .
O9 C15 3.376(8) no .
O9 C20 3.298(8) no .
O9 C22 3.399(8) no .
O9 C25 2.781(8) no .
C1 C10 2.932(11) no .
C1 C14 2.862(9) no .
C1 C15 3.373(10) no .
C10 C13 3.274(11) no .
C10 C19 2.847(10) no .
C10 C22 3.370(11) no .
C10 C23 3.525(10) no .
C12 C15 2.971(10) no .
C12 C22 2.988(9) no .
C13 C15 3.228(11) no .
C13 C19 2.823(9) no .
C13 C20 3.382(10) no .
C13 C26 2.774(9) no .
C14 C20 3.036(9) no .
C16 C29 2.775(10) no .
C17 C21 2.769(10) no .
C18 C25 3.432(11) no .
C18 C35 3.471(14) no .
C23 C27 2.758(13) no .
C24 C28 3.485(13) no .
C24 C30 3.562(10) no .
C25 C31 3.530(11) no .
C31 C33 3.387(12) no .
C33 C34 3.567(11) no .
C34 C35 3.599(12) no .
Cl36 C13 3.591(9) no 1_655
O4 C29 3.584(8) no 1_445
O5 C20 3.408(8) no 1_565
O5 C30 3.502(9) no 1_665
O7 C27 3.285(10) no 1_455
O7 C29 3.536(11) no 1_455
O8 C24 3.449(8) no 1_554
O8 C26 3.586(10) no 1_655
O8 C34 3.275(9) no 1_554
O9 C21 3.549(8) no 1_556
C13 Cl36 3.591(9) no 1_455
C13 C29 3.597(10) no 1_455
C20 O5 3.408(8) no 1_545
C21 O9 3.549(8) no 1_554
C22 C29 3.576(10) no 1_455
C24 O8 3.449(8) no 1_556
C26 O8 3.586(10) no 1_455
C27 O7 3.285(10) no 1_655
C29 O4 3.584(8) no 1_665
C29 O7 3.536(11) no 1_655
C29 C13 3.597(10) no 1_655
C29 C22 3.576(10) no 1_655
C30 O5 3.502(9) no 1_445
C34 O8 3.275(9) no 1_556
Cl36 H14 2.6997 no .
Cl36 H17 3.2615 no .
Cl36 H20A 3.0848 no .
S2 H14 3.0346 no .
S2 H16 2.8409 no .
S2 H17 2.8018 no .
S2 H22B 2.6877 no .
Si3 H25A 3.1051 no .
Si3 H25B 3.0029 no .
Si3 H28A 2.9276 no .
Si3 H28C 3.0818 no .
Si3 H30A 2.9015 no .
Si3 H30C 3.0710 no .
Si3 H31A 2.9214 no .
Si3 H31B 3.0784 no .
Si3 H32A 2.9437 no .
Si3 H32B 3.1191 no .
Si3 H34A 2.9365 no .
Si3 H34C 3.1098 no .
Si3 H35A 2.9808 no .
Si3 H35B 3.1115 no .
O4 H13 2.6053 no .
O4 H20B 2.7281 no .
O4 H25A 2.4781 no .
O4 H30A 3.2485 no .
O5 H14 2.7076 no .
O5 H17 2.5501 no .
O5 H22B 2.6588 no .
O6 H24 3.0337 no .
O6 H28A 3.5617 no .
O6 H28C 3.1580 no .
O6 H30A 2.8005 no .
O6 H31B 3.2589 no .
O6 H32A 2.5570 no .
O6 H32B 3.3267 no .
O6 H33 2.9341 no .
O7 H16 2.6735 no .
O7 H22B 2.5380 no .
O8 H16 2.5195 no .
O8 H20A 2.8767 no .
O8 H20B 2.5159 no .
O9 H14 2.4941 no .
O9 H20A 3.1902 no .
O9 H22A 3.4099 no .
O9 H25B 2.6198 no .
O9 H28C 3.1758 no .
O9 H32A 3.4267 no .
C1 H20A 3.3487 no .
C1 H20B 2.6759 no .
C1 H22A 2.9865 no .
C1 H22B 3.1946 no .
C1 H25A 2.7410 no .
C1 H25B 3.3820 no .
C1 H26A 3.1846 no .
C1 H26B 2.5924 no .
C1 H26C 2.5925 no .
C10 H14 3.4387 no .
C10 H16 3.4515 no .
C12 H13 3.3775 no .
C12 H14 3.3873 no .
C12 H22A 3.4548 no .
C13 H14 3.3601 no .
C13 H26B 2.7327 no .
C13 H26C 2.6854 no .
C14 H13 3.3770 no .
C14 H20A 3.4208 no .
C15 H20A 2.9441 no .
C15 H20B 3.4246 no .
C15 H22A 3.4375 no .
C15 H22B 2.7538 no .
C16 H17 3.2631 no .
C16 H27 3.2625 no .
C17 H16 3.2636 no .
C17 H27 3.2561 no .
C18 H24 3.0460 no .
C18 H25B 3.0872 no .
C18 H33 3.2213 no .
C18 H34A 3.2876 no .
C18 H35A 2.9849 no .
C19 H20A 2.6484 no .
C19 H20B 3.3078 no .
C19 H22A 2.7450 no .
C19 H22B 3.3138 no .
C19 H25A 3.3621 no .
C19 H25B 2.6884 no .
C19 H32A 3.5160 no .
C20 H25A 2.7127 no .
C20 H25B 2.7250 no .
C21 H29 3.2525 no .
C23 H21 3.2502 no .
C23 H29 3.2401 no .
C24 H18 3.1967 no .
C24 H28A 2.9849 no .
C24 H30C 3.2436 no .
C24 H35B 3.5178 no .
C25 H20A 2.6919 no .
C25 H20B 2.7286 no .
C25 H28C 3.1504 no .
C25 H31B 2.9006 no .
C25 H33 3.4836 no .
C26 H13 2.4501 no .
C26 H30A 3.3916 no .
C27 H16 3.2648 no .
C27 H17 3.2577 no .
C28 H24 2.9907 no .
C28 H25B 3.1054 no .
C28 H31A 3.3733 no .
C28 H31B 2.7272 no .
C28 H31C 2.7271 no .
C29 H21 3.2525 no .
C30 H32B 3.0371 no .
C30 H34C 3.4027 no .
C30 H35A 3.3713 no .
C30 H35B 2.7164 no .
C30 H35C 2.7164 no .
C31 H25A 3.4400 no .
C31 H25B 3.1161 no .
C31 H28A 3.3735 no .
C31 H28B 2.7269 no .
C31 H28C 2.7269 no .
C31 H33 3.0811 no .
C31 H35A 3.1175 no .
C32 H30A 3.4450 no .
C32 H30C 3.1962 no .
C32 H34A 3.3616 no .
C32 H34B 2.7011 no .
C32 H34C 2.7010 no .
C33 H18 3.2362 no .
C33 H25A 3.5644 no .
C33 H31A 2.8648 no .
C33 H34C 3.2776 no .
C34 H18 3.3981 no .
C34 H30C 3.3879 no .
C34 H32A 3.3586 no .
C34 H32B 2.7048 no .
C34 H32C 2.7048 no .
C34 H35B 2.9638 no .
C35 H18 3.1900 no .
C35 H30A 3.3675 no .
C35 H30B 2.7209 no .
C35 H30C 2.7209 no .
C35 H31A 3.0729 no .
C35 H34A 3.3659 no .
C35 H34C 3.1962 no .
H13 H22A 2.5435 no .
H13 H22B 2.3486 no .
H13 H26A 3.4201 no .
H13 H26B 2.2886 no .
H13 H26C 2.1933 no .
H14 H22A 2.2936 no .
H14 H22B 2.4483 no .
H16 H21 2.3439 no .
H17 H29 2.3324 no .
H18 H24 3.2008 no .
H18 H28A 2.3606 no .
H18 H28B 2.2990 no .
H18 H28C 2.8433 no .
H18 H31A 2.3617 no .
H18 H31B 2.8442 no .
H18 H31C 2.3001 no .
H18 H33 3.5362 no .
H18 H34A 2.7484 no .
H18 H35A 2.5650 no .
H18 H35B 3.4010 no .
H20A H25A 2.9606 no .
H20A H25B 2.5203 no .
H20B H25A 2.5464 no .
H20B H25B 3.0348 no .
H21 H27 2.3314 no .
H22A H32A 3.1601 no .
H24 H28A 2.2911 no .
H24 H28C 3.3645 no .
H24 H32A 2.3721 no .
H24 H32B 2.8464 no .
H24 H32C 2.2955 no .
H24 H34A 2.3580 no .
H24 H34B 2.2809 no .
H24 H34C 2.8346 no .
H25A H30A 3.5607 no .
H25A H31A 3.5240 no .
H25A H31B 2.7656 no .
H25A H33 3.0602 no .
H25B H28C 2.3791 no .
H25B H31B 2.3931 no .
H26A H30A 3.5090 no .
H26B H30A 2.9070 no .
H27 H29 2.3369 no .
H28A H34A 3.4203 no .
H28B H31B 3.0155 no .
H28B H31C 2.5558 no .
H28C H31B 2.5558 no .
H28C H31C 3.0155 no .
H30A H32A 3.4200 no .
H30A H32B 2.8893 no .
H30A H33 2.3732 no .
H30B H33 2.3125 no .
H30B H35B 3.0055 no .
H30B H35C 2.5440 no .
H30C H32B 2.4580 no .
H30C H33 2.8536 no .
H30C H34C 2.7013 no .
H30C H35B 2.5440 no .
H30C H35C 3.0055 no .
H31A H33 2.4286 no .
H31A H35A 2.4691 no .
H31A H35C 3.5367 no .
H31B H33 3.2798 no .
H31C H35A 3.5737 no .
H32A H34B 3.5922 no .
H32A H34C 3.5921 no .
H32B H34A 3.5978 no .
H32B H34B 2.9878 no .
H32B H34C 2.5230 no .
H32C H34A 3.5978 no .
H32C H34B 2.5231 no .
H32C H34C 2.9878 no .
H33 H35A 2.3560 no .
H33 H35B 2.8393 no .
H33 H35C 2.2947 no .
H34A H35A 3.3554 no .
H34A H35B 2.7768 no .
H34C H35B 2.4317 no .
Cl36 H13 3.1520 no 1_655
Cl36 H26B 3.0137 no 1_655
Cl36 H32A 3.5920 no 1_655
Cl36 H32B 3.2554 no 1_655
Cl36 H35C 3.2930 no 1_665
O4 H17 3.5101 no 1_445
O4 H29 2.8879 no 1_445
O4 H34A 3.4234 no 1_554
O4 H34B 3.4793 no 1_554
O5 H20A 3.1236 no 1_565
O5 H20B 2.7874 no 1_565
O5 H25A 3.2989 no 1_565
O5 H30B 2.5598 no 1_665
O7 H24 3.5573 no 1_554
O7 H27 2.6752 no 1_455
O7 H29 3.1886 no 1_455
O7 H32C 3.3024 no 1_554
O7 H34B 3.1256 no 1_554
O8 H24 2.6960 no 1_554
O8 H26B 2.9434 no 1_655
O8 H28A 2.7377 no 1_554
O8 H34A 3.0000 no 1_554
O8 H34B 2.9760 no 1_554
O9 H21 2.6894 no 1_556
O9 H30C 3.3980 no 1_655
O9 H31C 3.4349 no 1_565
O9 H32B 3.3653 no 1_655
C1 H34B 3.5575 no 1_554
C10 H26B 3.1286 no 1_655
C10 H34A 3.5706 no 1_554
C10 H34B 3.4252 no 1_554
C13 H34B 3.4881 no 1_554
C14 H31B 3.2792 no 1_565
C16 H24 3.3583 no 1_554
C16 H28A 3.5205 no 1_554
C16 H31C 2.9110 no 1_564
C17 H13 3.1396 no 1_655
C17 H22B 3.5157 no 1_655
C17 H26A 2.8480 no 1_665
C17 H28B 3.5721 no 1_564
C20 H26B 3.5494 no 1_655
C20 H30A 3.5074 no 1_655
C20 H30B 3.3813 no 1_655
C21 H13 3.4495 no 1_655
C21 H26C 3.4394 no 1_655
C21 H31C 2.8807 no 1_564
C21 H34B 3.5917 no 1_654
C22 H29 3.3398 no 1_455
C22 H31A 3.3267 no 1_565
C22 H31B 3.3806 no 1_565
C23 H13 3.4332 no 1_655
C24 H16 3.3608 no 1_556
C26 H17 3.3998 no 1_445
C26 H28A 3.4044 no 1_454
C26 H28B 3.1369 no 1_454
C26 H29 3.2172 no 1_445
C26 H34A 3.5062 no 1_554
C26 H34B 3.3124 no 1_554
C26 H34C 3.4991 no 1_554
C27 H13 3.1237 no 1_655
C27 H22B 3.5046 no 1_655
C27 H32C 3.4001 no 1_654
C27 H34B 3.4691 no 1_654
C27 H35A 3.3424 no 1_664
C27 H35B 3.2972 no 1_664
C28 H26A 3.1383 no 1_656
C28 H26C 3.4392 no 1_656
C28 H34C 3.4611 no 1_655
C28 H35B 3.5417 no 1_655
C29 H13 2.9817 no 1_655
C29 H22B 2.8701 no 1_655
C29 H26A 2.8252 no 1_665
C29 H28B 3.4870 no 1_564
C30 H17 3.2492 no 1_445
C30 H20A 2.7285 no 1_455
C30 H25B 3.2662 no 1_455
C31 H14 3.0992 no 1_545
C31 H22A 3.0305 no 1_545
C32 H27 3.5120 no 1_456
C32 H35A 3.3604 no 1_565
C34 H26C 2.8834 no 1_556
C35 H27 3.0561 no 1_446
C35 H32C 3.3260 no 1_545
H13 Cl36 3.1520 no 1_455
H13 C17 3.1396 no 1_455
H13 C21 3.4495 no 1_455
H13 C23 3.4332 no 1_455
H13 C27 3.1237 no 1_455
H13 C29 2.9817 no 1_455
H13 H17 3.5634 no 1_455
H13 H27 3.5224 no 1_455
H13 H29 3.3419 no 1_455
H13 H34B 3.2752 no 1_554
H14 C31 3.0992 no 1_565
H14 H30B 3.3774 no 1_665
H14 H31A 3.1828 no 1_565
H14 H31B 2.4826 no 1_565
H14 H31C 3.1604 no 1_565
H14 H35C 3.0028 no 1_665
H16 C24 3.3608 no 1_554
H16 H24 2.4229 no 1_554
H16 H28A 2.9601 no 1_554
H16 H31C 2.9548 no 1_564
H16 H32C 3.3612 no 1_554
H17 O4 3.5101 no 1_665
H17 C26 3.3998 no 1_665
H17 C30 3.2492 no 1_665
H17 H13 3.5634 no 1_655
H17 H26A 2.7035 no 1_665
H17 H30A 3.0571 no 1_665
H17 H30B 2.7680 no 1_665
H17 H33 2.9744 no 1_665
H20A O5 3.1236 no 1_545
H20A C30 2.7285 no 1_655
H20A H26B 3.0816 no 1_655
H20A H30A 2.5248 no 1_655
H20A H30B 2.5067 no 1_655
H20A H30C 2.6925 no 1_655
H20B O5 2.7874 no 1_545
H20B H30B 3.5003 no 1_655
H20B H34A 3.1515 no 1_554
H21 O9 2.6894 no 1_554
H21 H26C 3.5267 no 1_655
H21 H28A 3.4693 no 1_554
H21 H31C 2.9089 no 1_564
H21 H32B 3.2443 no 1_654
H21 H32C 3.2627 no 1_654
H21 H34B 3.3733 no 1_654
H21 H34C 3.3554 no 1_654
H21 H35C 3.4707 no 1_664
H22A C31 3.0305 no 1_565
H22A H25A 3.3975 no 1_565
H22A H29 3.5716 no 1_455
H22A H31A 2.4331 no 1_565
H22A H31B 2.8020 no 1_565
H22A H31C 3.4989 no 1_565
H22A H33 2.9667 no 1_565
H22B C17 3.5157 no 1_455
H22B C27 3.5046 no 1_455
H22B C29 2.8701 no 1_455
H22B H25A 3.1419 no 1_565
H22B H27 3.5771 no 1_455
H22B H29 2.4802 no 1_455
H22B H31B 3.5589 no 1_565
H24 O7 3.5573 no 1_556
H24 O8 2.6960 no 1_556
H24 C16 3.3583 no 1_556
H24 H16 2.4229 no 1_556
H25A O5 3.2989 no 1_545
H25A H22A 3.3975 no 1_545
H25A H22B 3.1419 no 1_545
H25A H29 3.2411 no 1_445
H25B C30 3.2662 no 1_655
H25B H30B 2.9241 no 1_655
H25B H30C 2.7344 no 1_655
H26A C17 2.8480 no 1_445
H26A C28 3.1383 no 1_454
H26A C29 2.8252 no 1_445
H26A H17 2.7035 no 1_445
H26A H28A 3.0301 no 1_454
H26A H28B 2.4171 no 1_454
H26A H29 2.6445 no 1_445
H26A H34C 3.5323 no 1_554
H26B Cl36 3.0137 no 1_455
H26B O8 2.9434 no 1_455
H26B C10 3.1286 no 1_455
H26B C20 3.5494 no 1_455
H26B H20A 3.0816 no 1_455
H26B H28A 3.5234 no 1_454
H26B H28B 3.5932 no 1_454
H26C C21 3.4394 no 1_455
H26C C28 3.4392 no 1_454
H26C C34 2.8834 no 1_554
H26C H21 3.5267 no 1_455
H26C H28A 3.1189 no 1_454
H26C H28B 3.0466 no 1_454
H26C H34A 2.9725 no 1_554
H26C H34B 2.4815 no 1_554
H26C H34C 2.7243 no 1_554
H27 O7 2.6752 no 1_655
H27 C32 3.5120 no 1_654
H27 C35 3.0561 no 1_664
H27 H13 3.5224 no 1_655
H27 H22B 3.5771 no 1_655
H27 H32C 2.6152 no 1_654
H27 H34B 3.1313 no 1_654
H27 H35A 2.5814 no 1_664
H27 H35B 2.9150 no 1_664
H27 H35C 3.1844 no 1_664
H28A O8 2.7377 no 1_556
H28A C16 3.5205 no 1_556
H28A C26 3.4044 no 1_656
H28A H16 2.9601 no 1_556
H28A H21 3.4693 no 1_556
H28A H26A 3.0301 no 1_656
H28A H26B 3.5234 no 1_656
H28A H26C 3.1189 no 1_656
H28B C17 3.5721 no 1_546
H28B C26 3.1369 no 1_656
H28B C29 3.4870 no 1_546
H28B H26A 2.4171 no 1_656
H28B H26B 3.5932 no 1_656
H28B H26C 3.0466 no 1_656
H28B H34C 3.2762 no 1_655
H28B H35B 3.1237 no 1_655
H28C H30C 2.9625 no 1_655
H28C H34C 2.9156 no 1_655
H28C H35B 3.0590 no 1_655
H29 O4 2.8879 no 1_665
H29 O7 3.1886 no 1_655
H29 C22 3.3398 no 1_655
H29 C26 3.2172 no 1_665
H29 H13 3.3419 no 1_655
H29 H22A 3.5716 no 1_655
H29 H22B 2.4802 no 1_655
H29 H25A 3.2411 no 1_665
H29 H26A 2.6445 no 1_665
H30A C20 3.5074 no 1_455
H30A H17 3.0571 no 1_445
H30A H20A 2.5248 no 1_455
H30B O5 2.5598 no 1_445
H30B C20 3.3813 no 1_455
H30B H14 3.3774 no 1_445
H30B H17 2.7680 no 1_445
H30B H20A 2.5067 no 1_455
H30B H20B 3.5003 no 1_455
H30B H25B 2.9241 no 1_455
H30B H31B 3.5424 no 1_455
H30C O9 3.3980 no 1_455
H30C H20A 2.6925 no 1_455
H30C H25B 2.7344 no 1_455
H30C H28C 2.9625 no 1_455
H31A C22 3.3267 no 1_545
H31A H14 3.1828 no 1_545
H31A H22A 2.4331 no 1_545
H31A H32A 3.0619 no 1_545
H31A H32C 3.2726 no 1_545
H31B C14 3.2792 no 1_545
H31B C22 3.3806 no 1_545
H31B H14 2.4826 no 1_545
H31B H22A 2.8020 no 1_545
H31B H22B 3.5589 no 1_545
H31B H30B 3.5424 no 1_655
H31B H35C 3.3684 no 1_655
H31C O9 3.4349 no 1_545
H31C C16 2.9110 no 1_546
H31C C21 2.8807 no 1_546
H31C H14 3.1604 no 1_545
H31C H16 2.9548 no 1_546
H31C H21 2.9089 no 1_546
H31C H22A 3.4989 no 1_545
H31C H35C 3.5670 no 1_655
H32A Cl36 3.5920 no 1_455
H32A H31A 3.0619 no 1_565
H32A H35A 3.4162 no 1_565
H32B Cl36 3.2554 no 1_455
H32B O9 3.3653 no 1_455
H32B H21 3.2443 no 1_456
H32B H35C 3.5483 no 1_565
H32C O7 3.3024 no 1_556
H32C C27 3.4001 no 1_456
H32C C35 3.3260 no 1_565
H32C H16 3.3612 no 1_556
H32C H21 3.2627 no 1_456
H32C H27 2.6152 no 1_456
H32C H31A 3.2726 no 1_565
H32C H35A 2.5973 no 1_565
H32C H35C 3.1910 no 1_565
H33 H17 2.9744 no 1_445
H33 H22A 2.9667 no 1_545
H34A O4 3.4234 no 1_556
H34A O8 3.0000 no 1_556
H34A C10 3.5706 no 1_556
H34A C26 3.5062 no 1_556
H34A H20B 3.1515 no 1_556
H34A H26C 2.9725 no 1_556
H34B O4 3.4793 no 1_556
H34B O7 3.1256 no 1_556
H34B O8 2.9760 no 1_556
H34B C1 3.5575 no 1_556
H34B C10 3.4252 no 1_556
H34B C13 3.4881 no 1_556
H34B C21 3.5917 no 1_456
H34B C26 3.3124 no 1_556
H34B C27 3.4691 no 1_456
H34B H13 3.2752 no 1_556
H34B H21 3.3733 no 1_456
H34B H26C 2.4815 no 1_556
H34B H27 3.1313 no 1_456
H34C C26 3.4991 no 1_556
H34C C28 3.4611 no 1_455
H34C H21 3.3554 no 1_456
H34C H26A 3.5323 no 1_556
H34C H26C 2.7243 no 1_556
H34C H28B 3.2762 no 1_455
H34C H28C 2.9156 no 1_455
H35A C27 3.3424 no 1_446
H35A C32 3.3604 no 1_545
H35A H27 2.5814 no 1_446
H35A H32A 3.4162 no 1_545
H35A H32C 2.5973 no 1_545
H35B C27 3.2972 no 1_446
H35B C28 3.5417 no 1_455
H35B H27 2.9150 no 1_446
H35B H28B 3.1237 no 1_455
H35B H28C 3.0590 no 1_455
H35C Cl36 3.2930 no 1_445
H35C H14 3.0028 no 1_445
H35C H21 3.4707 no 1_446
H35C H27 3.1844 no 1_446
H35C H31B 3.3684 no 1_455
H35C H31C 3.5670 no 1_455
H35C H32B 3.5483 no 1_545
H35C H32C 3.1910 no 1_545
loop_
_geom_torsion_atom_site_label_1
_geom_torsion_atom_site_label_2
_geom_torsion_atom_site_label_3
_geom_torsion_atom_site_label_4
_geom_torsion
_geom_torsion_publ_flag
O5 S2 C15 Cl36 -73.8(4) no
O5 S2 C15 C10 172.5(4) no
O5 S2 C15 C14 42.0(4) no
O5 S2 C23 C16 -157.1(4) no
O5 S2 C23 C17 19.1(6) no
O7 S2 C15 Cl36 159.5(3) no
O7 S2 C15 C10 45.7(5) no
O7 S2 C15 C14 -84.7(4) no
O7 S2 C23 C16 -25.7(6) no
O7 S2 C23 C17 150.6(4) no
C15 S2 C23 C16 90.1(5) no
C15 S2 C23 C17 -93.6(5) no
C23 S2 C15 Cl36 41.6(4) no
C23 S2 C15 C10 -72.2(4) no
C23 S2 C15 C14 157.4(3) no
O6 Si3 C18 C28 59.4(5) no
O6 Si3 C18 C31 -69.5(6) no
C18 Si3 O6 C25 30.3(5) no
O6 Si3 C24 C32 35.7(5) no
O6 Si3 C24 C34 164.7(4) no
C24 Si3 O6 C25 149.5(4) no
O6 Si3 C33 C30 -58.4(5) no
O6 Si3 C33 C35 173.5(4) no
C33 Si3 O6 C25 -89.3(5) no
C18 Si3 C24 C32 155.9(5) no
C18 Si3 C24 C34 -75.0(5) no
C24 Si3 C18 C28 -55.1(6) no
C24 Si3 C18 C31 176.0(5) no
C18 Si3 C33 C30 -179.8(4) no
C18 Si3 C33 C35 52.1(6) no
C33 Si3 C18 C28 177.1(5) no
C33 Si3 C18 C31 48.2(6) no
C24 Si3 C33 C30 54.8(6) no
C24 Si3 C33 C35 -73.3(5) no
C33 Si3 C24 C32 -79.4(6) no
C33 Si3 C24 C34 49.6(5) no
C26 O4 C1 C12 179.6(5) no
C26 O4 C1 C13 -4.3(10) no
Si3 O6 C25 C12 -170.8(3) no
O4 C1 C12 C19 -168.7(5) no
O4 C1 C12 C20 77.1(6) no
O4 C1 C12 C25 -44.7(7) no
O4 C1 C13 C22 -179.3(6) no
C12 C1 C13 C22 -3.7(12) no
C13 C1 C12 C19 15.1(10) no
C13 C1 C12 C20 -99.1(8) no
C13 C1 C12 C25 139.1(7) no
O8 C10 C15 Cl36 -93.8(6) no
O8 C10 C15 S2 22.4(8) no
O8 C10 C15 C14 150.2(6) no
O8 C10 C20 C12 -143.5(6) no
C15 C10 C20 C12 43.9(7) no
C20 C10 C15 Cl36 79.1(7) no
C20 C10 C15 S2 -164.7(5) no
C20 C10 C15 C14 -37.0(7) no
C1 C12 C19 O9 137.0(7) no
C1 C12 C19 C14 -45.4(8) no
C1 C12 C20 C10 60.0(6) no
C1 C12 C25 O6 -59.2(6) no
C19 C12 C20 C10 -56.9(6) no
C20 C12 C19 O9 -107.4(8) no
C20 C12 C19 C14 70.3(7) no
C19 C12 C25 O6 63.9(7) no
C25 C12 C19 O9 12.7(11) no
C25 C12 C19 C14 -169.6(6) no
C20 C12 C25 O6 -179.2(4) no
C25 C12 C20 C10 -177.5(4) no
C1 C13 C22 C14 21.0(11) no
C15 C14 C19 O9 115.7(7) no
C15 C14 C19 C12 -61.9(7) no
C19 C14 C15 Cl36 -72.1(5) no
C19 C14 C15 S2 171.3(4) no
C19 C14 C15 C10 42.3(6) no
C15 C14 C22 C13 70.9(8) no
C22 C14 C15 Cl36 168.3(5) no
C22 C14 C15 S2 51.8(6) no
C22 C14 C15 C10 -77.2(6) no
C19 C14 C22 C13 -48.1(7) no
C22 C14 C19 O9 -119.5(7) no
C22 C14 C19 C12 62.9(8) no
C21 C16 C23 S2 178.3(6) no
C21 C16 C23 C17 2.2(10) no
C23 C16 C21 C27 -0.7(10) no
C23 C17 C29 C27 -1.3(10) no
C29 C17 C23 S2 -177.4(6) no
C29 C17 C23 C16 -1.2(10) no
C16 C21 C27 C29 -1.7(11) no
C21 C27 C29 C17 2.7(11) no
