#------------------------------------------------------------------------------
#$Date: 2016-03-21 05:33:32 +0200 (Mon, 21 Mar 2016) $
#$Revision: 178484 $
#$URL: svn://www.crystallography.net/cod/cif/4/03/05/4030587.cif $
#------------------------------------------------------------------------------
#
# This file is available in the Crystallography Open Database (COD),
# http://www.crystallography.net/
#
# All data on this site have been placed in the public domain by the
# contributors.
#
data_4030587
loop_
_publ_author_name
'Masusai, Chonticha'
'Soorukram, Darunee'
'Kuhakarn, Chutima'
'Tuchinda, Patoomratana'
'Pakawatchai, Chaveng'
'Saithong, Saowanit'
'Reutrakul, Vichai'
'Pohmakotr, Manat'
_publ_section_title
;
 Synthesis of gem-Difluoromethylenated Polycyclic Cage Compounds.
;
_journal_issue                   3
_journal_name_full               'The Journal of organic chemistry'
_journal_page_first              1577
_journal_page_last               1592
_journal_paper_doi               10.1021/jo502501v
_journal_volume                  80
_journal_year                    2015
_chemical_formula_moiety         'C16 H14 F2 O3 S'
_chemical_formula_sum            'C16 H14 F2 O3 S'
_chemical_formula_weight         324.33
_chemical_name_systematic
;
 ?
;
_space_group_crystal_system      triclinic
_space_group_IT_number           2
_space_group_name_Hall           '-P 1'
_space_group_name_H-M_alt        'P -1'
_symmetry_space_group_name_Hall  '-P 1'
_symmetry_space_group_name_H-M   'P -1'
_atom_sites_solution_hydrogens   mixed
_atom_sites_solution_primary     direct
_atom_sites_solution_secondary   difmap
_audit_creation_method           SHELXL-2013
_cell_angle_alpha                75.980(2)
_cell_angle_beta                 75.691(2)
_cell_angle_gamma                72.424(2)
_cell_formula_units_Z            2
_cell_length_a                   8.5636(8)
_cell_length_b                   9.5609(9)
_cell_length_c                   10.2957(10)
_cell_measurement_reflns_used    10773
_cell_measurement_temperature    293(2)
_cell_measurement_theta_max      36.350
_cell_measurement_theta_min      5.572
_cell_volume                     765.76(13)
_computing_cell_refinement       'SAINT (Bruker, 2003)'
_computing_data_collection       'SMART (Bruker, 1998)'
_computing_data_reduction        'SAINT (Bruker, 2003)'
_computing_molecular_graphics    'Mercury 2.3 (Macrea <i>et al</i>., 2008)'
_computing_publication_material  'WinGX publication routines (Farrugia, 2012)'
_computing_structure_refinement  'SHELXL-2013 (Sheldrick, 2013)'
_computing_structure_solution    'SHELXL-2013 (Sheldrick, 2013)'
_diffrn_ambient_temperature      293(2)
_diffrn_measured_fraction_theta_full 0.994
_diffrn_measured_fraction_theta_max 0.994
_diffrn_measurement_device_type  'Bruker APEX CCD area-detector'
_diffrn_measurement_method       'Frames, each covering 0.3 \% in \w'
_diffrn_radiation_type           MoK\a
_diffrn_radiation_wavelength     0.71073
_diffrn_reflns_av_R_equivalents  0.1111
_diffrn_reflns_av_unetI/netI     0.1183
_diffrn_reflns_Laue_measured_fraction_full 0.994
_diffrn_reflns_Laue_measured_fraction_max 0.994
_diffrn_reflns_limit_h_max       10
_diffrn_reflns_limit_h_min       -10
_diffrn_reflns_limit_k_max       11
_diffrn_reflns_limit_k_min       -11
_diffrn_reflns_limit_l_max       12
_diffrn_reflns_limit_l_min       -12
_diffrn_reflns_number            8299
_diffrn_reflns_point_group_measured_fraction_full 0.994
_diffrn_reflns_point_group_measured_fraction_max 0.994
_diffrn_reflns_theta_full        25.000
_diffrn_reflns_theta_max         25.000
_diffrn_reflns_theta_min         2.272
_diffrn_source                   'fine-focus sealed tube'
_exptl_absorpt_coefficient_mu    0.242
_exptl_absorpt_correction_T_max  1.000
_exptl_absorpt_correction_T_min  0.594
_exptl_absorpt_correction_type   multi-scan
_exptl_absorpt_process_details   'SADABS (Bruker, 2003)'
_exptl_crystal_colour            colorless
_exptl_crystal_density_diffrn    1.407
_exptl_crystal_description       block
_exptl_crystal_F_000             336
_exptl_crystal_size_max          0.203
_exptl_crystal_size_mid          0.071
_exptl_crystal_size_min          0.025
_refine_diff_density_max         0.239
_refine_diff_density_min         -0.357
_refine_diff_density_rms         0.062
_refine_ls_extinction_coef       5.0(2)
_refine_ls_extinction_expression Fc^*^=kFc[1+0.001xFc^2^\l^3^/sin(2\q)]^-1/4^
_refine_ls_extinction_method     SHELXL
_refine_ls_goodness_of_fit_ref   1.073
_refine_ls_hydrogen_treatment    mixed
_refine_ls_matrix_type           full
_refine_ls_number_parameters     203
_refine_ls_number_reflns         2682
_refine_ls_number_restraints     1
_refine_ls_restrained_S_all      4.945
_refine_ls_R_factor_all          0.1235
_refine_ls_R_factor_gt           0.0789
_refine_ls_shift/su_max          0.000
_refine_ls_shift/su_mean         0.000
_refine_ls_structure_factor_coef Fsqd
_refine_ls_weighting_details
'w=1/[\s^2^(Fo^2^)+(0.0899P)^2^+0.0534P] where P=(Fo^2^+2Fc^2^)/3'
_refine_ls_weighting_scheme      calc
_refine_ls_wR_factor_gt          0.1705
_refine_ls_wR_factor_ref         0.1960
_reflns_Friedel_coverage         0.000
_reflns_number_gt                1687
_reflns_number_total             2682
_reflns_threshold_expression     'I > 2\s(I)'
_cod_data_source_file            jo502501v_si_003.cif
_cod_data_source_block           shelx
_cod_depositor_comments
'Adding full bibliography for 4030584--4030587.cif.'
_cod_database_code               4030587
#BEGIN Tags that were not found in dictionaries:
_shelx_space_group_comment
;
The symmetry employed for this shelxl refinement is uniquely defined
by the following loop, which should always be used as a source of
symmetry information in preference to the above space-group names.
They are only intended as comments.
;
_shelxl_version_number           2013-4
_shelx_res_file
;
TITL mpcma-p-1 in P-1
CELL  0.71073   8.5636   9.5609  10.2957   75.980   75.691   72.424
ZERR     2.00   0.0008   0.0009   0.0010    0.002    0.002    0.002
LATT   1
SFAC  C    H    O    F    S
UNIT  32   28   6    4    2
MERG   2
OMIT    -3.00  50.00
OMIT     1   0   2
OMIT     0   2   0
OMIT     0   1   2
OMIT    -1  -2   2
OMIT    -1   1   1
OMIT    -1   1   0
OMIT    -1  -2   1
OMIT     1   1   0
OMIT     0   1   1
OMIT     2   1   0
OMIT     1   2   1
OMIT     2   2   0
OMIT    -1   1   3
OMIT     1   0   1
OMIT     2   0   2
OMIT     2   3   0
DFIX  0.82 O1'A H4
EQIV $1 -x+1, -y+2, -z+1
HTAB O1'A O1'B_$1
FMAP   2
PLAN   20
ACTA    50.00
BOND   $H
CONF
LIST   4
L.S.  20
TEMP    20.00
WGHT    0.089900    0.053400
EXTI    5.039611
FVAR       1.33444
C1    1    0.268360    0.637625    0.663702    11.00000    0.05433    0.05161 =
         0.06981    0.00313   -0.02364   -0.01209
AFIX  13
H1    2    0.355140    0.581395    0.717052    11.00000   -1.20000
AFIX   0
C2    1    0.331381    0.712818    0.514706    11.00000    0.04296    0.03730 =
         0.06141   -0.00670   -0.01655   -0.00974
AFIX  13
H2    2    0.419521    0.637558    0.469964    11.00000   -1.20000
AFIX   0
C3    1    0.176677    0.751620    0.448000    11.00000    0.04274    0.03523 =
         0.05885   -0.00579   -0.01475   -0.01278
AFIX  13
H3    2    0.133662    0.860024    0.424511    11.00000   -1.20000
AFIX   0

C4    1    0.051653    0.684222    0.566087    11.00000    0.04588    0.05744 =
         0.07179   -0.00695   -0.01308   -0.02206
AFIX  13
H4    2   -0.040748    0.666156    0.537911    11.00000   -1.20000
AFIX   0
C5    1    0.001211    0.781374    0.670542    11.00000    0.05547    0.06490 =
         0.06148   -0.01056   -0.00113   -0.01488
AFIX  43
H5    2   -0.102212    0.847741    0.691118    11.00000   -1.20000
AFIX   0
C6    1    0.131277    0.755420    0.728482    11.00000    0.06842    0.07557 =
         0.06056   -0.01512   -0.01589   -0.01205
AFIX  43
H6    2    0.137069    0.801308    0.796522    11.00000   -1.20000
AFIX   0

C7    1    0.166766    0.546045    0.633583    11.00000    0.06459    0.04602 =
         0.08458    0.00669   -0.01617   -0.01976
AFIX  23
H7A   2    0.231441    0.478285    0.571726    11.00000   -1.20000
H7B   2    0.109634    0.493279    0.715238    11.00000   -1.20000
AFIX   0

C1'   1    0.400078    0.841111    0.508204    11.00000    0.04650    0.04615 =
         0.06346   -0.00694   -0.02367   -0.01261
O1'A  3    0.528018    0.801990    0.561746    11.00000    0.10944    0.05156 =
         0.21718    0.01587   -0.11780   -0.02948
O1'B  3    0.343108    0.968030    0.457480    11.00000    0.07846    0.04323 =
         0.12172    0.00197   -0.06115   -0.01991
C1''  1    0.208318    0.681170    0.326072    11.00000    0.04600    0.04340 =
         0.06955   -0.01343   -0.00657   -0.01936
O1''  3    0.308056    0.564242    0.309627    11.00000    0.07702    0.05589 =
         0.08747   -0.02686   -0.01945   -0.00683
C2''  1    0.107961    0.766913    0.214102    11.00000    0.04432    0.07498 =
         0.07548   -0.02606   -0.01497   -0.01654
F2A   4   -0.052798    0.829898    0.271815    11.00000    0.04346    0.11173 =
         0.08638   -0.03128   -0.01760   -0.01339
F2B   4    0.096182    0.670052    0.141607    11.00000    0.07921    0.11182 =
         0.08965   -0.04117   -0.01846   -0.04256
S1    5    0.186706    0.917644    0.105968    11.00000    0.05745    0.06697 =
         0.08071   -0.00231   -0.01869   -0.00594
C3''  1    0.400727    0.822885    0.063698    11.00000    0.05097    0.05535 =
         0.04999    0.00126   -0.01515   -0.01611
C4''  1    0.512025    0.842802    0.128696    11.00000    0.06708    0.07439 =
         0.05729    0.00223   -0.02272   -0.03504
AFIX  43
H4''  2    0.475567    0.903940    0.193819    11.00000   -1.20000
AFIX   0
C5''  1    0.678539    0.771203    0.096442    11.00000    0.05846    0.11043 =
         0.08038    0.01645   -0.02888   -0.04058
AFIX  43
H5''  2    0.754748    0.782820    0.140980    11.00000   -1.20000
AFIX   0
C6''  1    0.730910    0.685185    0.001459    11.00000    0.05429    0.10353 =
         0.09648    0.00828   -0.00241   -0.01243
AFIX  43
H6''  2    0.843775    0.638089   -0.019647    11.00000   -1.20000
AFIX   0
C7''  1    0.623532    0.665111   -0.064598    11.00000    0.08485    0.09602 =
         0.09865   -0.04362    0.00673   -0.01245
AFIX  43
H7''  2    0.662111    0.605519   -0.131022    11.00000   -1.20000
AFIX   0
C8''  1    0.455666    0.734152   -0.032343    11.00000    0.07750    0.10139 =
         0.07149   -0.03303   -0.01394   -0.03063
AFIX  43
H8''  2    0.380288    0.720027   -0.076187    11.00000   -1.20000
AFIX   0
H1'A  2    0.568213    0.858134    0.563321    11.00000   -1.20000
HKLF    4

REM  mpcma-p-1 in P-1
REM R1 =  0.0789 for    1687 Fo > 4sig(Fo)  and  0.1235 for all    2682 data
REM    203 parameters refined using      1 restraints

END

WGHT      0.0899      0.0534

REM Highest difference peak  0.239,  deepest hole -0.357,  1-sigma level  0.062
Q1    1   0.0044  0.8561  0.0665  11.00000  0.05    0.24
Q2    1   0.5617  0.7863  0.5857  11.00000  0.05    0.22
Q3    1   0.3873  0.8599  0.6563  11.00000  0.05    0.22
Q4    1   0.2645  0.7119  0.1798  11.00000  0.05    0.21
Q5    1   0.0869  0.5853  0.7813  11.00000  0.05    0.20
Q6    1   0.1018  0.7508  0.7553  11.00000  0.05    0.19
Q7    1   0.5777  0.8203  0.4970  11.00000  0.05    0.19
Q8    1   0.2404  0.7419  0.5009  11.00000  0.05    0.18
Q9    1   0.1049  1.0094 -0.0210  11.00000  0.05    0.18
Q10   1   0.3945  0.8677  0.0237  11.00000  0.05    0.18
Q11   1   0.2581  0.6962  0.0352  11.00000  0.05    0.18
Q12   1   0.1656  0.9484  0.6225  11.00000  0.05    0.18
Q13   1   0.4226  0.9698  0.2662  11.00000  0.05    0.18
Q14   1   0.0544  0.9763  0.0145  11.00000  0.05    0.18
Q15   1   0.2903  0.6991  0.5935  11.00000  0.05    0.17
Q16   1  -0.0109  0.6837  0.4529  11.00000  0.05    0.17
Q17   1   0.1589  0.8227  0.1593  11.00000  0.05    0.17
Q18   1   0.4527  1.0016  0.6082  11.00000  0.05    0.17
Q19   1   0.5023  0.4669  0.7993  11.00000  0.05    0.16
Q20   1   0.1685  0.9023 -0.0568  11.00000  0.05    0.16
;
_shelx_res_checksum              6381
_shelx_hkl_file
;
   1   0   0   30.15    3.83
   1   0   0   29.00    4.12
  -1   0   0   32.26    3.57
  -1   0   0   26.97    4.50
   2   0   0  130.35   12.13
   2   0   0  114.91   12.81
  -2   0   0  110.58   11.07
  -2   0   0  151.76   14.19
  -3   0   0   48.61    7.26
   3   0   0   47.67    9.22
   3   0   0   55.50    7.88
  -3   0   0   52.96    9.82
  -4   0   0  184.07   16.58
  -4   0   0  171.71   20.02
   4   0   0  170.63   17.15
   4   0   0  144.62   19.23
  -5   0   0    3.30    5.19
   5   0   0   -3.33    4.88
   5   0   0   -4.33    6.03
  -5   0   0    1.94    6.63
   6   0   0  159.49   18.68
  -6   0   0  139.87   16.43
   6   0   0  118.45   20.05
  -6   0   0  115.26   20.02
  -7   0   0   21.02   10.88
   7   0   0   30.18   10.18
   7   0   0   26.91   11.42
  -7   0   0   25.03    8.12
   8   0   0   66.79   17.21
  -8   0   0   93.77   19.42
  -9   0   0   10.73   13.44
   9   0   0   39.20   14.30
  10   0   0   24.35   14.54
 -10   0   0   -0.96   19.05
 -10   1   0    1.67   17.73
  10  -1   0    9.65   15.00
   9  -1   0    0.64   11.53
  -9   1   0   21.17   14.20
  -8   1   0   -2.43   10.91
   8  -1   0   17.38   11.99
  -7   1   0   34.42   12.17
   7  -1   0    6.92    8.96
   7  -1   0    8.50    8.80
  -6   1   0   37.24   13.28
  -6   1   0   37.17    7.81
   6  -1   0   34.20    9.82
   6  -1   0   33.75   10.66
  -5   1   0  693.46   56.20
  -5   1   0  795.19   63.42
   5  -1   0  664.50   61.48
   5  -1   0  712.16   62.06
   4  -1   0  217.93   23.57
   4  -1   0  228.33   22.64
  -4   1   0  205.07   18.68
  -4   1   0  209.97   24.45
   3  -1   0  420.61   38.58
  -3   1   0  428.43   34.79
  -3   1   0  456.13   39.52
   3  -1   0  483.55   38.88
  -2   1   0  172.97   14.34
  -2   1   0  183.08   18.29
   2  -1   0  182.92   17.19
   2  -1   0  171.60   17.38
   1  -1   0 4914.45  361.12
  -1   1   0 4447.85  364.80
   1  -1   0 4672.35  371.77
   0  -1   0  122.69   11.06
   0  -1   0  114.30   10.71
   0  -1   0  111.91    9.98
   0  -1   0  100.79   10.51
   1   1   0 2437.57  170.01
   1   1   0 1949.36  165.62
  -1  -1   0 2020.60  160.43
  -1  -1   0 2110.54  166.95
   2   1   0 2223.83  172.00
   2   1   0 2408.49  175.33
  -2  -1   0 1825.99  173.18
  -2  -1   0 2328.53  166.31
  -3  -1   0    5.06    4.09
   3   1   0   -1.41    3.90
  -3  -1   0    6.67    5.57
   3   1   0    8.57    3.49
   4   1   0  390.15   36.18
   4   1   0  438.99   37.93
  -4  -1   0  471.86   38.32
  -4  -1   0  429.78   35.97
  -5  -1   0   -0.92    4.58
  -5  -1   0    4.20    7.11
   5   1   0   12.03    5.28
   5   1   0   17.24    6.88
   6   1   0   67.37   15.80
   6   1   0   95.90   13.16
  -6  -1   0  106.88   17.68
  -6  -1   0   93.12   14.14
  -7  -1   0   62.95   15.92
  -7  -1   0   41.73   10.70
   7   1   0   58.98   14.52
   8   1   0   20.58   11.57
  -8  -1   0   17.46    8.48
  -8  -1   0   35.24   14.25
   9   1   0   26.82   13.08
  -9  -1   0   75.23   19.92
 -10  -1   0   10.31   17.23
  10   1   0   39.50   17.64
  10  -2   0   -2.01   14.60
 -10   2   0   16.24   18.96
   9  -2   0  -14.61    9.10
  -9   2   0   -2.35   14.77
  -8   2   0   45.69   16.70
   8  -2   0   40.32   13.97
  -7   2   0   18.16   10.65
   7  -2   0    8.73   12.10
   7  -2   0    4.45    8.45
  -6   2   0   -1.76    9.69
   6  -2   0   -0.57    9.06
   6  -2   0    7.06    8.06
   5  -2   0  502.77   44.28
   5  -2   0  439.67   43.14
  -5   2   0  444.47   46.11
  -4   2   0  569.97   49.36
   4  -2   0  495.59   47.78
  -4   2   0  521.97   41.31
   4  -2   0  585.73   47.95
   3  -2   0   52.19    9.86
  -3   2   0   51.63   11.15
   3  -2   0   62.87   10.58
  -2   2   0  391.57   36.58
   2  -2   0  420.01   35.76
   2  -2   0  429.69   36.81
   1  -2   0   54.63    8.32
  -1   2   0   49.98    4.79
  -1   2   0   49.62    5.12
  -1   2   0   72.82    9.90
   1  -2   0   52.74    8.11
   0  -2   0 6754.88  481.58
   0  -2   0 6234.95  513.20
   0  -2   0 6281.43  498.44
   0  -2   0 6580.73  503.26
  -1  -2   0  157.94   13.59
  -1  -2   0  155.88   13.35
  -1  -2   0  124.37   12.95
  -1  -2   0  123.34   13.00
  -2  -2   0 1906.01  149.05
  -2  -2   0 1574.57  143.51
   2   2   0 1997.67  148.51
   2   2   0 2053.15  150.99
  -3  -2   0   82.52   10.86
   3   2   0   62.94   10.04
   3   2   0   56.75    6.71
  -3  -2   0   55.41    9.52
  -4  -2   0  717.79   57.20
   4   2   0  622.69   56.37
  -4  -2   0  725.80   54.92
   4   2   0  635.80   54.47
   5   2   0  209.67   19.15
   5   2   0  178.97   23.19
  -5  -2   0  199.81   24.24
  -5  -2   0  224.54   22.91
   6   2   0  346.73   27.94
  -6  -2   0  321.84   34.10
  -6  -2   0  299.97   30.76
   6   2   0  218.42   31.06
   7   2   0   58.82   13.94
  -7  -2   0   48.34   14.30
  -7  -2   0   30.80    9.84
  -8  -2   0    4.43   12.39
  -8  -2   0   15.20    9.14
   8   2   0   -1.23    9.35
  -9  -2   0   37.05   17.06
   9   2   0   33.27   14.67
 -10  -2   0   44.54   20.59
  10   2   0    4.84   12.65
 -11  -2   0   75.15   21.76
  11   2   0   12.07   15.83
   9  -3   0   27.00   13.78
  -9   3   0   29.15   19.87
   8  -3   0    5.33   15.86
   8  -3   0    5.01    9.89
  -8   3   0   -1.05   13.89
  -7   3   0  104.75   22.82
   7  -3   0   96.17   20.46
   7  -3   0  100.43   22.62
   6  -3   0   12.38   11.59
   6  -3   0    8.94    9.96
  -6   3   0   37.53   15.16
   5  -3   0   13.25    7.67
   5  -3   0    7.62    7.03
  -5   3   0    9.14   11.61
   4  -3   0   11.26    6.95
  -4   3   0   -2.82    8.42
   4  -3   0    3.01    6.48
   3  -3   0  609.00   53.52
  -3   3   0  585.43   55.09
   3  -3   0  673.34   55.99
  -2   3   0  405.44   35.52
   2  -3   0  365.46   35.11
   2  -3   0  365.46   33.40
   1  -3   0  250.01   22.90
   1  -3   0  260.42   24.22
  -1   3   0  236.88   23.88
   0  -3   0    8.69    3.75
   0  -3   0   10.20    4.67
   0  -3   0    5.08    3.66
  -1  -3   0  541.42   46.27
  -1  -3   0  607.35   49.05
  -1  -3   0  617.37   47.78
  -1  -3   0  539.42   47.53
   2   3   0 1372.60  117.79
   2   3   0 1665.07  120.00
  -2  -3   0 1482.91  118.45
  -2  -3   0 1387.37  114.48
  -3  -3   0   59.66    9.67
   3   3   0   70.76   10.75
   3   3   0   69.41    7.85
  -3  -3   0   79.04   11.72
   4   3   0   67.73   11.69
  -4  -3   0   63.75   11.74
  -4  -3   0   73.12   11.54
   4   3   0   63.47    7.35
   5   3   0  119.97   11.36
  -5  -3   0  107.06   16.67
  -5  -3   0  105.32   16.05
   5   3   0   96.66   16.68
   6   3   0    9.39    8.80
  -6  -3   0   -1.33    6.67
  -6  -3   0    0.65    6.94
  -7  -3   0   29.36   10.50
  -7  -3   0   39.59   11.62
   7   3   0   26.66   10.78
  -8  -3   0    8.56   10.18
   8   3   0    4.34    9.84
  -8  -3   0   10.07    8.73
  -9  -3   0    8.18    9.88
   9   3   0   14.55   11.00
  -9  -3   0    5.54   10.54
 -10  -3   0   30.53   15.54
  10   3   0   17.29   14.77
  11   3   0   22.29   16.51
 -11  -3   0   16.94   15.95
   9  -4   0   30.24   15.89
  -9   4   0   37.74   19.55
   8  -4   0    6.62   11.79
  -8   4   0    3.15   15.68
   8  -4   0   -0.21   19.60
   7  -4   0   73.63   20.56
  -7   4   0   73.33   20.55
   7  -4   0   69.75   17.72
  -6   4   0   -0.61   10.92
   6  -4   0   24.34   14.21
   6  -4   0    5.58    8.68
   5  -4   0   87.67   19.58
   5  -4   0   80.51   16.02
  -5   4   0  135.18   23.04
   4  -4   0    7.84    7.02
  -4   4   0    9.57   11.09
   4  -4   0    0.51    7.53
  -3   4   0    0.02    8.79
   3  -4   0    0.13    5.89
   3  -4   0    4.38    5.11
  -2   4   0  353.23   33.79
   2  -4   0  346.94   31.79
   2  -4   0  330.40   33.29
   1  -4   0  148.12   14.60
  -1   4   0  216.49   21.05
   1  -4   0  186.14   19.16
   1  -4   0  206.31   20.99
   0  -4   0   34.14    7.89
   0  -4   0   48.57    8.00
   0  -4   0   34.30    6.25
   0   4   0   26.94    8.43
  -1  -4   0  437.26   36.77
  -1  -4   0  471.00   36.80
  -1  -4   0  397.09   37.57
  -1  -4   0  392.17   35.26
  -2  -4   0  413.70   37.13
  -2  -4   0  491.74   37.52
  -2  -4   0  417.01   36.81
   2   4   0  414.51   37.62
   3   4   0  152.25   15.78
  -3  -4   0  158.53   18.90
  -3  -4   0  177.81   17.82
   3   4   0  154.15   18.83
  -4  -4   0   44.73   10.24
   4   4   0   44.17    6.94
   4   4   0   47.46    9.87
  -4  -4   0   38.55    8.62
  -5  -4   0   20.42    7.26
   5   4   0   27.88    8.94
   5   4   0   20.82    4.60
  -5  -4   0   10.89    7.63
  -6  -4   0  444.14   40.72
  -6  -4   0  420.39   40.78
   7   4   0  369.63   43.16
  -7  -4   0  442.08   43.24
  -7  -4   0  432.05   41.72
  -8  -4   0  123.62   20.01
   8   4   0  107.15   21.39
  -8  -4   0  105.77   20.20
   9   4   0   55.72   16.30
  -9  -4   0   34.62   16.16
  -9  -4   0   48.40   14.11
 -10  -4   0    4.37   12.74
  10   4   0   34.93   15.49
 -10  -4   0   -7.66   10.99
  11   4   0   29.92   16.65
 -11  -4   0   10.77   14.61
   8  -5   0   25.41   14.56
   8  -5   0   68.60   25.07
  -8   5   0   55.56   20.89
  -7   5   0   19.39   16.93
   7  -5   0   14.68   17.46
   7  -5   0    6.63   10.04
  -6   5   0   11.13   13.96
   6  -5   0   19.88   14.91
   6  -5   0    3.30    8.41
  -5   5   0    6.34   12.30
   5  -5   0   -1.33   11.60
   5  -5   0   13.21    8.30
  -4   5   0    0.27   10.03
   4  -5   0    5.83    9.74
   4  -5   0   12.74    7.67
   3  -5   0   98.10   16.31
  -3   5   0  107.12   19.40
   3  -5   0  109.21   19.54
  -2   5   0   70.03    7.74
   2  -5   0   54.13   11.57
   2  -5   0   56.88   12.49
  -2   5   0   64.74   14.65
  -1   5   0  651.24   65.25
   1  -5   0  852.96   65.56
   1  -5   0  822.16   67.77
   0   5   0   15.78    8.05
   0  -5   0    7.81    4.39
   0  -5   0   11.05    5.18
   0  -5   0    8.71    6.19
  -1  -5   0   72.71   10.41
  -1  -5   0   59.74   11.24
  -1  -5   0   64.80   10.37
  -1  -5   0   66.54   10.37
  -2  -5   0  685.43   52.43
  -2  -5   0  659.97   51.29
  -2  -5   0  518.08   51.16
  -3  -5   0  211.66   23.30
  -3  -5   0  270.68   26.05
   3   5   0  269.31   26.17
   3   5   0  229.63   23.06
  -4  -5   0   17.60    7.64
   4   5   0   13.95    6.37
  -4  -5   0   29.23    7.88
   4   5   0    6.64    6.31
  -5  -5   0  361.23   34.29
  -5  -5   0  370.86   37.10
   5   5   0  376.20   37.41
   6   5   0   13.71    9.08
  -6  -5   0   -9.83    6.79
  -6  -5   0    7.03    6.84
   7   5   0  352.71   40.88
  -7  -5   0  356.23   38.13
  -7  -5   0  376.61   38.81
   8   5   0   49.79   15.91
  -8  -5   0    4.80   10.43
  -8  -5   0   13.55    9.73
   9   5   0   30.69   14.50
  -9  -5   0   -3.12   10.75
  -9  -5   0   -0.90   11.40
  10   5   0   23.15   14.63
 -10  -5   0   21.43   13.76
 -10  -5   0   12.71   13.54
   7  -6   0   17.78   11.76
   7  -6   0   18.55   17.84
  -7   6   0   31.96   18.55
   6  -6   0   60.67   16.97
   6  -6   0   49.18   19.81
  -6   6   0   97.64   23.45
   5  -6   0    3.88   13.26
  -5   6   0   19.94   14.03
   5  -6   0   14.23    8.73
   4  -6   0    9.32   10.88
  -4   6   0    5.63   11.51
   4  -6   0   -3.97    6.03
   3  -6   0  195.35   24.68
   3  -6   0  169.39   26.84
  -3   6   0  195.42   27.00
   2  -6   0  231.02   29.11
  -2   6   0  237.51   29.39
   2  -6   0  222.93   26.65
   1  -6   0   26.54    9.31
  -1   6   0   31.53   11.52
  -1   6   0   32.89    6.45
  -1   6   0   29.51    6.77
   1  -6   0   32.93    8.87
   0  -6   0   28.91    7.09
   0  -6   0   25.81    8.71
   0   6   0   23.14    9.46
   0  -6   0   10.85    5.85
  -1  -6   0  178.05   20.71
  -1  -6   0  166.92   20.48
  -1  -6   0  183.04   20.27
  -1  -6   0  211.91   22.75
  -2  -6   0  379.05   34.41
  -2  -6   0  360.70   34.49
  -2  -6   0  374.50   33.90
   3   6   0   99.16   16.36
   3   6   0  125.33   15.72
  -3  -6   0  105.08   14.77
  -3  -6   0  117.99   16.41
  -4  -6   0   26.21    8.56
  -4  -6   0   32.51   10.05
   4   6   0   26.44    8.56
   4   6   0   30.35    9.04
  -5  -6   0   19.04    9.37
   5   6   0   40.23   10.90
  -5  -6   0   12.11    7.84
   6   6   0  192.59   27.47
  -6  -6   0  203.01   27.00
  -6  -6   0  232.13   25.56
  -7  -6   0  150.08   24.48
   7   6   0  240.17   31.36
  -7  -6   0  249.68   29.30
  -8  -6   0   40.23   13.96
  -8  -6   0   35.58   14.21
   8   6   0   82.38   20.43
   9   6   0    8.11   11.84
  -9  -6   0   28.64   14.74
  -9  -6   0   13.29   11.95
  10   6   0   28.39   17.32
 -10  -6   0   30.73   15.84
 -10  -6   0   14.90   15.18
   7  -7   0   18.79   20.53
  -7   7   0   58.47   22.15
   7  -7   0    2.60   13.10
   6  -7   0   24.28   18.96
  -6   7   0   15.31   17.47
   6  -7   0   19.45   11.69
   5  -7   0   15.29   11.39
  -5   7   0   19.35   15.29
   5  -7   0   15.15   15.69
   4  -7   0   30.77   11.64
   4  -7   0   54.62   18.69
  -4   7   0   52.82   17.49
   3  -7   0   56.22   16.69
   3  -7   0   27.10   12.13
  -3   7   0   43.42   15.56
   2  -7   0   75.13   17.91
   2  -7   0   99.11   17.59
  -2   7   0   98.43   19.99
  -1   7   0   74.25   16.55
   1  -7   0   65.92   13.63
   1  -7   0   73.53   16.02
   0  -7   0   27.28    7.61
   0   7   0   25.02   10.95
   0  -7   0   21.95    7.49
   0  -7   0   21.46   10.59
  -1  -7   0   57.20   12.20
   1   7   0   49.88   12.88
  -1  -7   0   55.95   11.50
  -1  -7   0   65.52   11.99
  -2  -7   0   64.82   12.60
  -2  -7   0   66.07   10.86
  -2  -7   0   38.12   10.51
  -3  -7   0  150.42   19.45
  -3  -7   0  144.52   20.88
   3   7   0  176.29   21.02
   4   7   0   36.63   12.71
  -4  -7   0   34.02    9.24
   4   7   0   24.42    9.24
  -4  -7   0   24.57    8.04
  -5  -7   0   59.32   12.33
   5   7   0  110.14   18.05
  -5  -7   0   82.96   15.75
   6   7   0   35.59   13.04
  -6  -7   0   15.75    9.01
  -6  -7   0   31.59   10.77
  -7  -7   0   11.35   11.57
   7   7   0   -0.61   11.58
  -7  -7   0    6.35    9.85
   8   7   0   10.81   14.86
  -8  -7   0   13.74   12.53
  -8  -7   0   -0.40    9.55
   9   7   0   -1.93   13.99
  -9  -7   0    6.35   12.26
 -10  -7   0   13.62   15.93
  10   7   0   32.64   17.04
   6  -8   0    6.56   19.13
   6  -8   0   11.91   14.00
  -6   8   0    2.86   18.11
  -5   8   0   23.90   17.02
   5  -8   0   11.38   16.37
   5  -8   0    5.60   11.57
   4  -8   0   19.50   11.23
   4  -8   0   39.08   18.51
  -4   8   0   49.85   17.74
   3  -8   0   15.14   10.31
  -3   8   0   43.67   15.34
   3  -8   0    6.85   14.21
   2  -8   0  179.36   25.82
   2  -8   0  188.97   30.39
  -2   8   0  232.33   31.12
   1  -8   0   19.06    9.39
   1  -8   0   14.48   11.84
  -1   8   0   -3.20   10.60
   0  -8   0  142.64   23.81
   0   8   0  194.71   23.80
   0  -8   0  142.38   17.21
   0  -8   0  127.71   21.16
   1   8   0   13.49   10.65
  -1  -8   0   -7.92    8.07
  -1  -8   0   -0.03    6.08
  -1  -8   0   -5.19    6.19
  -2  -8   0  356.90   37.69
  -2  -8   0  378.78   36.53
  -2  -8   0  361.92   39.33
   2   8   0  426.56   41.80
  -3  -8   0   16.69    8.68
  -3  -8   0   13.21    7.99
   3   8   0   20.75   11.15
  -3  -8   0    9.16    6.64
  -4  -8   0   14.32    7.20
   4   8   0   17.18   11.23
   4   8   0   19.40   10.94
  -4  -8   0   29.59    8.46
  -5  -8   0   31.95    9.93
   5   8   0   34.68   13.41
  -5  -8   0   55.33   12.78
   6   8   0    3.41   10.14
  -6  -8   0    7.55    8.54
  -6  -8   0   13.60    9.73
   7   8   0    3.86   12.81
  -7  -8   0    0.03    9.67
  -8  -8   0   -6.55   12.21
   8   8   0   -0.71   14.18
  -9  -8   0    8.89   15.06
   9   8   0   24.25   17.85
  -5   9   0   12.44   19.40
   5  -9   0   32.58   15.05
   5  -9   0    4.67   18.37
   4  -9   0   -1.24   10.67
   4  -9   0   25.34   18.76
  -4   9   0   26.79   15.04
   3  -9   0   13.96   13.94
  -3   9   0   18.52   15.06
   3  -9   0   13.76   11.34
   2  -9   0   21.88   10.44
  -2   9   0   15.00   14.96
   2  -9   0    4.71   12.38
  -1   9   0   52.65   16.48
   1  -9   0   51.58   17.05
   1  -9   0   52.70   14.54
   0  -9   0   -1.56   10.17
   0  -9   0   15.88    8.89
   0   9   0   17.15   12.48
  -1  -9   0   49.23   12.10
  -1  -9   0   43.14   13.54
  -1  -9   0   34.58   14.05
   1   9   0   56.10   14.93
  -2  -9   0   38.86   12.30
   2   9   0   39.52   11.94
  -2  -9   0   43.57   11.54
   2   9   0   30.96   14.97
  -3  -9   0   -2.76    8.49
   3   9   0   22.24   12.08
  -3  -9   0   17.28    9.43
  -3  -9   0    3.34    9.12
   4   9   0   10.43   11.61
  -4  -9   0   11.35    9.19
  -4  -9   0    4.04    9.86
  -5  -9   0    5.57    7.83
   5   9   0   21.98   13.14
  -6  -9   0    3.36    9.82
   6   9   0   24.98   13.98
  -7  -9   0   -1.07   10.35
   7   9   0    1.49   13.11
  -8  -9   0  -13.18   10.10
   8   9   0   -0.68   15.89
   9   9   0   20.67   18.91
  -9  -9   0   34.40   18.33
  -3  10   0   17.23   16.23
   3 -10   0   10.03   12.62
   3 -10   0   15.24   18.57
   2 -10   0   -6.64   11.62
  -2  10   0    1.80   12.24
   2 -10   0  -17.84   13.94
   1 -10   0    2.52   11.04
  -1  10   0   34.64   15.91
   1 -10   0   -0.94   13.79
   0  10   0   -1.76   12.40
   0 -10   0   14.72   14.12
   0 -10   0  -10.47    8.91
   1  10   0   15.75   17.66
  -1 -10   0    5.95   10.56
   1  10   0   10.19   12.91
  -2 -10   0   14.35   10.08
   2  10   0   10.95   16.17
  -2 -10   0   24.81   11.99
  -3 -10   0   22.22   11.81
   3  10   0   23.84   14.95
  -3 -10   0    0.92    8.50
  -4 -10   0   54.05   15.55
   4  10   0   85.77   20.05
  -5 -10   0    8.70   10.43
   5  10   0    9.34   12.62
   6  10   0    5.68   12.59
  -6 -10   0   -0.76    9.73
   7  10   0   18.04   14.15
  -7 -10   0    0.51   11.23
   8  10   0    1.07   16.90
  -8 -10   0   41.74   17.70
   2 -11   0   -7.10   18.87
   1 -11   0  -12.32   12.50
   0 -11   0   -3.34   11.19
   0  11   0    6.53   19.20
  -1 -11   0   21.51   13.16
   1  11   0   33.52   20.41
  -2 -11   0   12.15   11.72
   2  11   0   68.15   21.12
  -3 -11   0   13.06   11.15
  -4 -11   0   53.77   16.43
   4  11   0   45.10   16.99
  -5 -11   0    5.84   10.32
   5  11   0   34.35   15.57
   6  11   0   37.49   15.89
  -6 -11   0   45.45   16.42
  -7 -11   0    5.21   14.50
   7  11   0   42.70   17.68
  -1 -12   0   23.52   15.32
   1  12   0   33.34   23.26
  -2 -12   0   31.84   16.31
   2  12   0   42.00   20.31
   3  12   0   36.04   17.88
   4  12   0   13.47   17.24
  -4 -12   0   -4.66   11.37
  -5 -12   0    0.43   12.34
   5  12   0   12.32   17.32
   4  12  -1   28.60   17.64
  -4 -12   1  -11.79   12.00
  -2 -12   1    2.99   13.59
   2  12  -1   29.48   21.74
   6  11  -1   12.41   15.99
  -6 -11   1   22.73   14.28
   5  11  -1   17.29   15.61
  -5 -11   1   18.77   11.64
  -4 -11   1   30.50   13.50
   4  11  -1   25.44   14.53
  -3 -11   1   -4.04   12.22
  -3 -11   1  -12.28    8.77
   2  11  -1   12.39   17.41
  -2 -11   1   10.37   11.12
   1  11  -1   38.46   17.43
  -1 -11   1   -8.08   12.34
   0 -11   1   -0.04   12.12
   0  11  -1   33.92   21.42
  -1  11  -1   45.34   20.67
   1 -11   1    2.11   11.30
   2 -11   1   12.51   15.04
  -2  11  -1   52.88   24.46
  -8 -10   1   13.86   13.66
   8  10  -1   13.82   16.69
  -7 -10   1    2.67   12.67
   7  10  -1    8.14   14.09
  -6 -10   1   20.15   11.83
   6  10  -1    2.84   13.45
  -5 -10   1   74.43   17.88
   5  10  -1   54.96   18.08
  -4 -10   1   15.15   10.75
   4  10  -1   26.28   14.65
   3  10  -1   23.72   15.76
  -3 -10   1   28.10   11.68
  -3 -10   1   42.98   14.58
  -2 -10   1   -0.99    8.34
   2  10  -1   17.64   15.03
  -2 -10   1    0.65   10.80
  -1 -10   1   -4.53    9.47
   1  10  -1  -10.74   14.65
   0 -10   1   -1.14   10.39
   0  10  -1   23.58   17.37
   1 -10   1   27.94   14.53
  -1  10  -1   43.73   19.39
  -2  10  -1   24.72   16.97
   2 -10   1    1.10   11.10
   3 -10   1   -2.51   13.47
  -8  -9   1   14.79   11.93
   8   9  -1   21.17   17.18
  -7  -9   1    8.32   10.81
   7   9  -1    8.29   13.23
  -6  -9   1   11.47   10.24
   6   9  -1   21.07   12.49
   5   9  -1   41.25   15.73
  -5  -9   1   45.22   13.97
   4   9  -1   36.05   14.05
  -4  -9   1   12.50    9.44
   3   9  -1    0.36   11.89
  -3  -9   1   -1.02    6.93
  -3  -9   1    2.52    9.02
   2   9  -1   96.14   19.09
  -2  -9   1   65.36   17.29
  -2  -9   1   63.06   14.85
  -1  -9   1   30.84   13.40
  -1  -9   1   21.16    9.78
   1   9  -1   47.37   16.23
   0   9  -1   33.52   15.51
   0  -9   1    1.16    8.33
   0   9  -1   49.49   14.93
   1  -9   1   21.06   11.46
  -1   9  -1   65.46   17.95
   2  -9   1   20.79   15.22
  -2   9  -1   25.18   14.03
   2  -9   1   20.44   11.39
  -3   9  -1    6.86   14.42
   3  -9   1   -5.68    9.10
   3  -9   1   20.12   15.42
  -4   9  -1   51.93   19.89
   4  -9   1   49.27   16.43
   4  -9   1   66.73   22.51
  -5   9  -1   44.05   19.88
   5  -9   1   28.03   15.38
   5  -9   1   12.69   19.86
   9   8  -1   45.35   22.08
  -9  -8   1   35.02   17.77
   8   8  -1   30.80   16.20
  -8  -8   1   16.22   13.83
   7   8  -1   10.95   13.09
  -7  -8   1   30.02   12.21
  -6  -8   1   -0.63    8.63
   6   8  -1    2.43   11.86
   5   8  -1   -4.21    9.65
  -5  -8   1   -1.49    7.86
   4   8  -1  -10.14    8.08
   4   8  -1    0.05    9.01
  -4  -8   1    3.98    7.39
  -3  -8   1    4.14    6.61
  -3  -8   1   10.26    6.28
  -3  -8   1   17.23   10.35
   3   8  -1   -6.33    9.57
  -2  -8   1   65.26   15.16
   2   8  -1   45.95   12.93
  -2  -8   1   34.60   10.50
   2   8  -1   64.50   15.00
   1   8  -1  222.69   29.94
   1   8  -1  236.37   26.86
  -1  -8   1  171.84   26.38
  -1  -8   1  205.84   24.17
   0   8  -1    6.44   11.33
   0  -8   1    7.66    8.70
  -1   8  -1  138.25   23.46
   1  -8   1  127.36   23.42
   1  -8   1  110.94   20.45
   2  -8   1    9.43    8.46
  -2   8  -1  -16.71    9.56
   2  -8   1    9.42   11.43
   3  -8   1    6.09    9.67
  -3   8  -1   -3.21   12.91
   3  -8   1   -0.16   13.49
   4  -8   1    7.88   14.77
   4  -8   1   -0.17    9.81
  -4   8  -1   13.37   14.79
  -5   8  -1   76.24   21.09
   5  -8   1    9.30   17.50
   5  -8   1   21.17   12.65
  -6   8  -1    3.62   17.98
   6  -8   1   17.03   21.21
   6  -8   1    8.07   12.94
  10   7  -1   36.86   17.04
 -10  -7   1   40.39   17.85
   9   7  -1    9.55   16.15
  -9  -7   1    1.41   11.05
   8   7  -1   33.39   16.22
  -8  -7   1   12.58   13.22
   7   7  -1   14.67   12.92
  -7  -7   1   -8.30   10.48
   6   7  -1   39.54   13.26
  -6  -7   1   44.80   13.57
  -5  -7   1   -1.72    7.95
   5   7  -1    7.22   10.24
  -5  -7   1    2.43    6.33
  -4  -7   1  183.61   21.10
   4   7  -1  213.57   23.97
   4   7  -1  173.77   25.84
  -4  -7   1  181.72   25.27
   3   7  -1  133.33   19.33
  -3  -7   1  107.42   18.94
  -3  -7   1  116.59   18.38
  -3  -7   1  112.97   16.10
  -2  -7   1   15.87    7.67
  -2  -7   1   26.42    7.84
  -2  -7   1   24.01   10.27
   2   7  -1   28.22   10.33
   1   7  -1  160.04   19.95
  -1  -7   1  126.67   19.23
  -1  -7   1  108.40   16.67
   1   7  -1  133.65   21.93
   0  -7   1  143.78   21.95
   0  -7   1  159.79   24.15
   0  -7   1  173.61   19.24
   0   7  -1  174.51   22.89
   1  -7   1   26.27   11.32
  -1   7  -1   35.01   13.63
   1  -7   1   19.13    9.85
   2  -7   1  136.53   23.18
   2  -7   1  127.68   20.95
  -2   7  -1  143.11   22.63
   3  -7   1   12.96    9.00
   3  -7   1    4.93   11.52
  -3   7  -1   14.14   12.31
  -4   7  -1   -1.58   12.45
   4  -7   1   -3.20   12.79
   4  -7   1    4.40    9.18
   5  -7   1   41.63   17.48
   5  -7   1   -2.16    8.22
  -5   7  -1   13.17   15.00
   6  -7   1   18.41   18.53
  -6   7  -1    4.94   16.48
   6  -7   1   11.49   11.62
  -7   7  -1   67.51   23.74
   7  -7   1   25.38   21.93
   7  -7   1   33.61   15.15
 -10  -6   1   -1.85   13.81
  10   6  -1   18.60   17.12
   9   6  -1   -2.06   13.02
  -9  -6   1   -7.09   11.31
  -8  -6   1   29.75   13.57
   8   6  -1   33.64   15.27
  -8  -6   1   44.55   14.66
  -7  -6   1    7.10   12.15
  -7  -6   1   -5.09    8.63
   7   6  -1    5.69   12.10
  -6  -6   1   24.37   12.99
  -6  -6   1   15.98    8.07
   6   6  -1    9.86   10.54
  -5  -6   1   49.18   13.35
   5   6  -1   39.87   12.47
  -5  -6   1   80.51   12.89
  -4  -6   1    6.00    6.44
   4   6  -1    3.78    8.61
   4   6  -1   -1.02    7.62
  -4  -6   1    7.94    5.51
  -3  -6   1  112.86   14.82
   3   6  -1  117.55   16.79
  -3  -6   1  120.86   18.46
  -2  -6   1    0.27    4.56
  -2  -6   1   -2.25    5.63
   2   6  -1   10.72    8.05
  -2  -6   1   12.32    5.91
   1   6  -1   16.67    8.51
  -1  -6   1   29.16    7.81
   1   6  -1   16.90   10.33
  -1  -6   1   26.80    7.61
   0  -6   1    9.59    6.18
   0  -6   1   17.05    5.80
   0   6  -1   30.35   10.35
   0  -6   1   15.64    7.37
   1  -6   1    6.13    5.05
   1  -6   1    5.68    5.42
   1  -6   1   -2.42    7.05
  -1   6  -1   10.03    8.96
   2  -6   1   16.98    9.75
   2  -6   1   19.10    8.67
  -2   6  -1    7.80   10.79
   3  -6   1    9.57    6.99
  -3   6  -1   16.27   11.68
   3  -6   1  -12.47    8.72
   4  -6   1   21.05   13.34
  -4   6  -1   48.16   15.49
   4  -6   1   30.66   10.78
   5  -6   1   29.58   15.97
   5  -6   1   38.07   12.21
  -5   6  -1    9.87   13.25
  -6   6  -1   -5.51   14.16
   6  -6   1   -0.18    9.44
   6  -6   1    2.39   13.82
  -7   6  -1   20.32   19.05
   7  -6   1   33.09   13.71
   7  -6   1   33.64   19.38
  10   5  -1   -0.28   13.19
 -10  -5   1   24.97   13.81
  -9  -5   1   10.77   11.46
   9   5  -1   21.01   13.29
  -9  -5   1  -15.96   10.64
   8   5  -1   34.60   14.88
  -8  -5   1   16.71   10.04
  -8  -5   1   19.91   13.69
  -7  -5   1   60.39   15.94
   7   5  -1   62.67   18.55
  -7  -5   1   85.89   15.71
  -6  -5   1   28.70    9.09
  -6  -5   1   36.69   13.75
   6   5  -1   23.25   10.50
  -5  -5   1  109.10   19.02
   5   5  -1  104.42   17.37
  -5  -5   1  104.94   15.15
   5   5  -1  108.09   13.54
   4   5  -1   88.33   16.14
  -4  -5   1  111.63   14.91
   4   5  -1   95.38   13.66
  -4  -5   1  123.24   17.63
  -3  -5   1   49.63   11.04
   3   5  -1   49.13    9.65
  -3  -5   1   57.04    9.05
   3   5  -1   45.62   10.68
  -2  -5   1   54.28   10.22
  -2  -5   1   44.05    8.62
  -2  -5   1   70.24   11.57
   2   5  -1   55.30   11.21
  -1  -5   1   14.18    5.13
   1   5  -1    1.68    6.77
  -1  -5   1    9.76    5.10
  -1  -5   1    8.28    5.11
   0  -5   1  307.59   29.82
   0  -5   1  299.90   26.41
   0  -5   1  281.08   28.17
   0   5  -1  282.56   28.71
   1  -5   1  557.49   47.22
  -1   5  -1  527.54   47.00
   1  -5   1  505.20   48.07
   1  -5   1  514.07   42.17
  -2   5  -1  549.29   42.79
   2  -5   1  545.56   49.38
  -2   5  -1  585.57   50.69
   2  -5   1  524.84   51.09
  -3   5  -1    2.44   10.27
   3  -5   1    2.75    6.67
   3  -5   1   -1.32    7.70
  -4   5  -1    2.57   11.13
   4  -5   1   -1.79    6.13
   4  -5   1   -0.46   10.61
   5  -5   1   56.55   17.18
  -5   5  -1   90.49   19.56
   5  -5   1   37.45   12.97
  -6   5  -1   13.47   14.47
   6  -5   1    6.54   13.85
   6  -5   1  -10.25    8.58
   7  -5   1   18.01   11.99
   7  -5   1   12.21   18.08
  -7   5  -1   30.22   16.77
  -8   5  -1    5.14   16.12
   8  -5   1    0.38   10.90
   8  -5   1   24.58   20.12
  10   4  -1   25.03   15.64
 -10  -4   1   23.53   16.31
 -10  -4   1   57.89   17.49
   9   4  -1   37.42   15.91
  -9  -4   1   27.82   13.64
  -9  -4   1   28.76   14.17
  -8  -4   1   11.42   10.60
   8   4  -1    3.84   11.51
  -8  -4   1   -2.37   10.65
   7   4  -1   28.88   12.27
  -7  -4   1   33.24   12.73
  -7  -4   1   19.00   10.79
  -6  -4   1  304.26   32.44
  -6  -4   1  262.46   29.88
   6   4  -1  272.80   33.10
  -5  -4   1  242.77   28.04
  -5  -4   1  246.55   25.41
   5   4  -1  254.30   23.09
   5   4  -1  220.70   27.40
   4   4  -1    1.81    5.23
  -4  -4   1    7.83    7.32
   4   4  -1    5.08    5.51
  -4  -4   1   -7.76    3.96
   3   4  -1  437.46   42.79
  -3  -4   1  512.11   42.44
  -3  -4   1  531.02   43.48
   3   4  -1  547.15   44.50
  -2  -4   1  673.28   53.29
   2   4  -1  629.80   54.94
  -2  -4   1  623.85   52.90
  -2  -4   1  658.35   54.49
  -1  -4   1  433.93   37.09
  -1  -4   1  439.39   38.01
   1   4  -1  440.40   39.36
  -1  -4   1  427.41   36.57
   0  -4   1  551.38   43.01
   0  -4   1  487.41   39.88
   0   4  -1  476.85   41.77
   0  -4   1  441.45   43.49
   1  -4   1   61.14    7.59
   1  -4   1   48.66    9.74
   1  -4   1   40.90    9.89
  -1   4  -1   67.88   11.84
   2  -4   1    9.75    6.47
  -2   4  -1    4.48    7.50
   2  -4   1    0.89    4.11
   3  -4   1  578.83   57.14
  -3   4  -1  617.07   57.16
   3  -4   1  736.33   57.31
   4  -4   1   63.99   14.75
   4  -4   1   91.70   16.20
  -4   4  -1   92.32   18.46
   5  -4   1  185.46   27.78
   5  -4   1  190.81   26.96
  -5   4  -1  232.95   30.44
   6  -4   1  160.46   27.49
  -6   4  -1  172.20   28.76
   6  -4   1  177.92   26.48
  -7   4  -1   22.52   14.70
   7  -4   1   12.46   15.62
   7  -4   1   25.78   11.70
  -8   4  -1   27.61   16.11
   8  -4   1   18.45   20.11
   8  -4   1   12.96   11.64
  -9   4  -1   44.42   21.49
   9  -4   1    0.46   12.73
 -10  -3   1   -8.89   13.50
  10   3  -1    3.17   14.89
   9   3  -1   48.63   15.64
  -9  -3   1   47.32   14.73
  -9  -3   1   25.38   13.98
   8   3  -1   -0.43    9.84
  -8  -3   1   10.75   11.36
  -8  -3   1   25.26   12.59
   7   3  -1  252.35   30.85
  -7  -3   1  221.68   28.27
  -7  -3   1  190.07   27.32
  -6  -3   1   14.17    8.74
   6   3  -1    0.19    8.93
  -6  -3   1   -8.96    6.46
   5   3  -1  129.79   19.59
  -5  -3   1  124.09   18.67
   5   3  -1  151.52   15.06
  -5  -3   1  134.59   17.90
  -4  -3   1  116.50   14.48
   4   3  -1  107.78   15.67
  -4  -3   1  106.24   15.52
  -3  -3   1  288.27   26.47
   3   3  -1  321.16   27.59
   3   3  -1  260.22   25.57
  -3  -3   1  295.63   25.49
   2   3  -1  512.28   51.93
  -2  -3   1  684.69   51.08
  -2  -3   1  686.50   52.15
  -2  -3   1  654.00   51.19
  -1  -3   1  485.33   41.56
  -1  -3   1  539.76   40.56
  -1  -3   1  521.23   40.20
   1   3  -1  413.03   41.92
   0  -3   1  212.44   17.66
   0   3  -1  181.72   18.71
   0  -3   1  218.24   21.26
   0  -3   1  177.32   19.31
   1  -3   1  476.07   32.88
  -1   3  -1  409.27   36.16
   1  -3   1  360.32   35.58
   1  -3   1  361.91   36.91
  -2   3  -1  511.12   46.99
   2  -3   1  606.67   48.51
   2  -3   1  505.37   46.57
   3  -3   1   60.60   11.75
  -3   3  -1   66.25   12.87
   3  -3   1   41.73   10.15
  -4   3  -1    5.04    9.69
   4  -3   1    0.05    6.43
   4  -3   1    3.72    6.55
  -5   3  -1   13.53   11.56
   5  -3   1   18.36    7.26
   5  -3   1   -0.30    6.25
   6  -3   1  636.06   56.80
  -6   3  -1  534.92   55.32
   6  -3   1  573.52   54.99
  -7   3  -1   38.14   15.21
   7  -3   1   31.76   12.19
   7  -3   1   30.93   15.33
   8  -3   1   40.67   14.65
   8  -3   1   24.71   17.02
  -8   3  -1   53.56   17.63
   9  -3   1   22.74   11.96
  -9   3  -1    8.24   16.71
 -10  -2   1   13.38   18.97
  10   2  -1  -10.45   13.22
  -9  -2   1    0.12   13.91
   9   2  -1   21.34   12.97
  -8  -2   1   28.80   14.83
   8   2  -1   19.25   12.95
  -8  -2   1   11.45   10.93
  -7  -2   1  221.82   27.49
  -7  -2   1  239.46   30.31
   7   2  -1  233.33   29.76
   6   2  -1  144.40   15.97
   6   2  -1   89.21   18.74
  -6  -2   1  129.47   18.84
  -6  -2   1  119.70   20.13
  -5  -2   1  147.07   20.21
   5   2  -1  129.64   19.76
  -5  -2   1  158.17   19.20
   5   2  -1  155.60   16.21
   4   2  -1   37.24    9.54
  -4  -2   1   39.93    9.09
  -4  -2   1   55.48   10.75
   4   2  -1   41.74    7.41
   3   2  -1  493.00   40.10
  -3  -2   1  437.28   39.09
  -3  -2   1  447.46   39.61
   3   2  -1  480.30   39.64
   2   2  -1   29.49    6.09
  -2  -2   1   29.62    7.20
  -2  -2   1   13.20    4.51
   2   2  -1   14.80    5.02
  -1  -2   1 3461.60  271.98
  -1  -2   1 3685.38  273.08
   1   2  -1 3460.51  279.32
  -1  -2   1 3391.67  263.01
   0   2  -1  442.46   37.27
   0  -2   1  472.76   37.91
  -1   2  -1  405.09   33.12
   1  -2   1  359.03   29.56
   1  -2   1  413.56   34.22
   1  -2   1  374.90   32.56
   2  -2   1  188.63   19.64
   2  -2   1  173.14   19.69
  -2   2  -1  210.51   20.25
   3  -2   1   -3.21    4.19
   3  -2   1    7.15    5.48
  -3   2  -1    8.97    7.64
   4  -2   1   27.54    8.21
  -4   2  -1   23.15   11.03
   4  -2   1   41.75    9.63
  -5   2  -1  -11.28    8.85
   5  -2   1   21.51    7.52
   5  -2   1    6.30    7.72
  -6   2  -1    3.85   11.12
   6  -2   1   17.57    8.51
   6  -2   1   19.46    9.25
   7  -2   1  135.16   22.18
  -7   2  -1  134.83   23.10
   7  -2   1  104.62   20.07
  -8   2  -1   47.13   17.08
   8  -2   1   17.79   12.89
  -9   2  -1   17.02   17.04
   9  -2   1   12.13   13.34
  10  -2   1   -0.81   14.39
 -10   2  -1   26.83   18.97
 -10  -1   1   44.61   19.95
  10   1  -1   17.69   15.70
   9   1  -1   11.77   12.40
  -9  -1   1   10.76   15.87
  -8  -1   1  -15.22    8.66
   8   1  -1   -9.76    9.13
  -8  -1   1   15.16   12.17
  -7  -1   1   54.85   13.02
  -7  -1   1   58.72   15.80
   7   1  -1   73.73   16.23
   6   1  -1   79.28   13.08
  -6  -1   1   75.03   13.77
   6   1  -1   65.95   14.00
  -6  -1   1   78.59   15.46
  -5  -1   1  221.50   26.08
   5   1  -1  226.87   26.25
   5   1  -1  244.16   23.36
  -5  -1   1  264.14   24.86
   4   1  -1  426.95   40.65
  -4  -1   1  522.86   40.58
   4   1  -1  512.42   42.32
  -4  -1   1  473.14   42.24
  -3  -1   1    1.74    5.25
  -3  -1   1    1.85    4.32
   3   1  -1   -3.98    3.64
   3   1  -1   -0.72    3.74
  -2  -1   1  259.26   22.53
   2   1  -1  236.42   22.45
   2   1  -1  237.14   22.37
  -2  -1   1  290.86   22.30
   1   1  -1  214.18   18.82
  -1  -1   1  203.10   18.20
  -1  -1   1  223.04   18.18
  -1  -1   1  212.30   17.72
   0   1  -1  164.70   16.97
   0  -1   1  247.16   17.36
   0   1  -1  224.27   18.77
   0  -1   1  245.54   18.24
   1  -1   1  411.36   36.63
   1  -1   1  482.25   32.82
  -1   1  -1  365.37   35.25
   2  -1   1  585.29   44.26
  -3   1  -1  410.14   40.16
   3  -1   1  562.99   40.80
   3  -1   1  426.48   39.84
   4  -1   1 1035.47   80.58
   4  -1   1  962.49   81.10
  -4   1  -1  931.94   74.02
   5  -1   1  104.61   17.75
  -5   1  -1  129.07   13.48
  -5   1  -1  136.78   20.03
   5  -1   1  158.61   18.10
   6  -1   1   78.45   16.63
  -6   1  -1  101.06   18.97
   6  -1   1  128.13   17.02
   7  -1   1   57.20   12.78
  -7   1  -1   45.77   13.85
   7  -1   1   46.77   14.75
   8  -1   1    0.88    9.81
  -8   1  -1    6.82   11.02
   9  -1   1   -3.02   11.67
  -9   1  -1   38.92   15.79
 -10   1  -1    5.05   19.47
  10  -1   1   33.60   15.45
 -10   0   1   35.41   19.49
  10   0  -1    6.52   16.21
   9   0  -1   36.01   16.22
  -9   0   1   49.87   16.74
  -8   0   1   22.73   13.04
   8   0  -1   42.72   13.88
  -7   0   1   10.56   11.66
  -7   0   1    7.49    7.24
   7   0  -1   -7.79    7.95
   7   0  -1    9.22    9.07
  -6   0   1   19.39    8.12
   6   0  -1   23.18    8.88
  -6   0   1    0.88    9.83
   6   0  -1   23.75   10.60
  -5   0   1  169.26   22.25
   5   0  -1  157.15   22.11
   5   0  -1  211.26   21.02
  -5   0   1  157.20   18.56
   4   0  -1  278.54   28.26
   4   0  -1  325.39   29.35
  -4   0   1  297.24   29.32
  -4   0   1  337.67   27.67
   3   0  -1  585.74   45.22
  -3   0   1  498.13   42.50
   3   0  -1  507.05   45.33
  -3   0   1  545.05   45.73
  -2   0   1   54.08    7.64
  -2   0   1   59.80    9.17
   2   0  -1   50.15    7.69
   2   0  -1   52.45    7.63
  -1   0   1  164.13   14.08
  -1   0   1  145.46   13.76
   1   0  -1  152.32   13.59
   1   0  -1  161.17   14.43
  -1   0  -1  664.14   55.71
  -1   0  -1  637.64   55.03
   1   0   1  751.79   52.23
   2   0   1   54.41    8.66
   2   0   1   65.63    8.14
  -2   0  -1   70.93    9.90
  -2   0  -1   71.01    7.35
   3   0   1  295.40   28.95
  -3   0  -1  290.97   26.21
   3   0   1  349.24   28.33
  -3   0  -1  365.75   29.75
   4   0   1  239.79   23.06
  -4   0  -1  233.72   25.54
   4   0   1  261.31   24.76
  -4   0  -1  254.35   21.58
   5   0   1  182.75   23.40
  -5   0  -1  221.71   24.32
  -5   0  -1  186.78   18.68
   5   0   1  195.98   20.46
  -6   0  -1   44.78   11.99
   6   0   1   34.08   11.99
  -6   0  -1   42.11    8.93
   6   0   1   56.35   10.60
  -7   0  -1    5.04    8.53
   7   0   1   -3.42    6.87
   7   0   1   -1.40    6.70
  -8   0  -1   73.67   18.87
   8   0   1   68.05   17.07
  -9   0  -1   44.07   18.24
   9   0   1   25.18   13.86
  10   0   1   13.96   15.15
 -10   0  -1    7.55   18.02
  10  -1  -1    1.23   13.28
 -10   1   1   34.99   18.77
   9  -1  -1   14.47   14.40
  -9   1   1   16.36   14.36
   8  -1  -1   42.49   15.60
  -8   1   1   44.17   16.78
   7  -1  -1   42.30   12.25
  -7   1   1   48.07   14.66
   7  -1  -1   39.97   12.94
   6  -1  -1   75.18   16.30
  -6   1   1   75.86   16.92
  -6   1   1   83.38   12.84
   6  -1  -1   74.44   14.64
   5  -1  -1   76.47   14.30
  -5   1   1   99.54   17.51
  -5   1   1   68.26   11.05
   5  -1  -1   87.56   14.27
   4  -1  -1    6.35    5.72
   4  -1  -1   -1.30    5.80
  -4   1   1    5.26    7.73
  -4   1   1   -7.55    4.11
  -3   1   1  991.94   86.51
  -3   1   1 1178.93   80.97
   3  -1  -1  954.73   87.20
  -2   1   1  415.25   36.03
   2  -1  -1  480.83   38.22
   2  -1  -1  431.92   39.17
  -2   1   1  514.12   39.64
  -1   1   1 4559.36  338.56
  -1   1   1 4470.62  354.29
   1  -1  -1 4643.77  350.17
   1  -1  -1 4481.54  361.32
   0  -1  -1 1717.62  128.02
   0   1   1 1574.86  120.05
   0  -1  -1 1666.24  123.93
   0  -1  -1 1440.72  125.50
  -1  -1  -1  181.67   13.24
  -1  -1  -1  143.84   12.94
   1   1   1  143.41   13.02
  -1  -1  -1  152.52   13.67
  -2  -1  -1  149.44   13.79
   2   1   1  226.17   16.27
   3   1   1   12.33    3.48
  -3  -1  -1   14.76    6.75
  -3  -1  -1   17.33    4.92
   3   1   1    4.63    4.86
  -4  -1  -1   78.84   12.84
   4   1   1   59.76    7.16
  -4  -1  -1   37.62    7.85
   4   1   1   51.55   10.40
  -5  -1  -1  541.70   41.14
   5   1   1  465.78   44.23
   5   1   1  469.42   41.44
  -5  -1  -1  481.92   45.29
   6   1   1   27.35    6.60
   6   1   1   17.88    9.51
  -6  -1  -1   16.77   10.83
  -6  -1  -1   23.97    7.35
  -7  -1  -1  261.55   32.90
  -7  -1  -1  261.00   26.09
   7   1   1  227.85   30.58
   8   1   1  365.59   40.39
  -8  -1  -1  300.09   39.72
   9   1   1   32.62   13.99
  -9  -1  -1   30.24   16.59
  10   1   1   91.05   20.42
 -10  -1  -1   33.73   20.88
 -11  -1  -1   22.70   20.49
  11   1   1   23.59   15.33
   9  -2  -1   18.40   13.58
  -9   2   1   14.21   17.07
   8  -2  -1   41.70   14.89
  -8   2   1   49.77   17.27
   7  -2  -1   -8.54   12.71
  -7   2   1   29.20   14.09
   7  -2  -1   12.33   10.63
   6  -2  -1    9.32    9.00
   6  -2  -1   18.48   10.61
  -6   2   1   30.90   13.94
   5  -2  -1  255.29   30.42
   5  -2  -1  317.15   31.26
  -5   2   1  232.19   31.83
  -5   2   1  291.58   24.63
  -4   2   1  603.18   46.43
   4  -2  -1  623.17   51.42
   4  -2  -1  509.92   51.60
  -4   2   1  593.31   52.77
  -3   2   1  164.39   14.60
   3  -2  -1  146.92   17.81
   3  -2  -1  179.92   19.62
  -3   2   1  162.36   20.18
   2  -2  -1   30.17    7.22
  -2   2   1   50.66    5.82
  -2   2   1   54.49   10.58
   2  -2  -1   39.17    8.65
  -1   2   1    4.54    3.41
   1  -2  -1    4.10    3.71
  -1   2   1   -1.39    5.67
   1  -2  -1    2.66    5.00
   0   2   1  259.95   20.51
   0  -2  -1  312.44   23.84
   0   2   1  303.51   22.19
   0  -2  -1  254.15   22.28
   0  -2  -1  230.73   23.82
  -1  -2  -1 1811.43  150.92
   1   2   1 2088.47  155.45
  -1  -2  -1 2087.24  159.92
  -2  -2  -1  350.67   29.85
  -2  -2  -1  315.07   28.13
   2   2   1  398.32   29.34
  -2  -2  -1  361.60   29.11
  -3  -2  -1  556.39   46.36
   3   2   1  535.34   45.74
  -4  -2  -1  117.90   15.81
  -4  -2  -1  124.32   14.42
   4   2   1  120.79   15.85
   5   2   1  500.54   43.26
  -5  -2  -1  498.73   40.65
   5   2   1  469.61   38.95
  -5  -2  -1  438.35   43.10
   6   2   1  183.02   23.88
  -6  -2  -1  166.38   20.29
  -6  -2  -1  206.51   25.35
  -7  -2  -1   41.77   14.54
  -7  -2  -1   39.25    9.31
   7   2   1    3.69    9.42
   8   2   1   81.88   17.33
  -8  -2  -1   56.76   13.49
  -8  -2  -1   78.34   18.66
  -9  -2  -1  152.01   27.02
   9   2   1  125.90   24.30
 -10  -2  -1   12.65   15.94
  10   2   1   19.46   13.39
  11   2   1  -19.32   13.45
 -11  -2  -1    0.51   15.35
  -9   3   1   24.42   17.75
   9  -3  -1   14.10   15.19
   8  -3  -1    7.36   17.63
  -8   3   1   23.75   15.56
   8  -3  -1    3.84   11.86
  -7   3   1   16.45   13.68
   7  -3  -1   -3.72    8.52
   7  -3  -1    7.77   12.62
  -6   3   1    3.45   12.08
   6  -3  -1    7.36    8.57
   6  -3  -1   11.93   11.21
   5  -3  -1  160.47   23.41
   5  -3  -1  178.47   23.40
  -5   3   1  174.86   26.07
   4  -3  -1  113.92   16.00
  -4   3   1   83.63   18.00
  -4   3   1   97.79   10.41
   4  -3  -1  115.18   17.20
   3  -3  -1  170.95   21.11
  -3   3   1  196.32   22.96
   3  -3  -1  159.36   19.40
  -3   3   1  173.10   14.95
   2  -3  -1    2.36    4.61
  -2   3   1   14.34    3.65
   2  -3  -1    6.25    5.29
  -2   3   1    9.24    7.47
  -1   3   1   10.85    6.83
   1  -3  -1    8.25    5.06
  -1   3   1    1.58    3.36
   1  -3  -1    1.88    3.86
   0   3   1  379.67   29.43
   0  -3  -1  446.97   35.03
   0  -3  -1  398.15   32.85
   0  -3  -1  368.52   33.97
   0   3   1  387.18   31.58
  -1  -3  -1   11.03    5.19
  -1  -3  -1    0.40    4.32
  -1  -3  -1    6.62    4.13
  -1  -3  -1    7.13    3.38
  -2  -3  -1  189.25   16.99
  -2  -3  -1  188.71   18.43
  -2  -3  -1  187.09   18.54
   2   3   1  185.36   17.83
   3   3   1 1214.80   81.50
   3   3   1 1070.58   82.26
  -3  -3  -1  802.97   79.31
  -3  -3  -1  839.76   82.31
  -4  -3  -1   36.85    8.34
  -4  -3  -1   39.53    8.46
   4   3   1   45.27    9.90
   5   3   1   39.36    9.99
  -5  -3  -1   27.20    8.17
  -5  -3  -1   51.75   11.30
  -6  -3  -1  -10.92    6.69
  -6  -3  -1   12.81    7.23
   6   3   1   10.13    8.60
  -7  -3  -1  137.32   22.05
  -7  -3  -1  136.01   19.62
   7   3   1  156.29   22.54
   8   3   1   43.18   14.47
  -8  -3  -1   37.66   13.30
  -8  -3  -1   20.98   10.51
  -9  -3  -1   39.49   13.47
  -9  -3  -1   41.14   14.69
   9   3   1   28.47   14.19
 -10  -3  -1   28.22   14.53
  10   3   1    6.85   12.89
  11   3   1   19.53   16.49
 -11  -3  -1   -7.45   14.66
  -9   4   1   20.25   20.18
   9  -4  -1   23.96   14.81
  -8   4   1   17.70   16.28
   8  -4  -1   10.05   10.91
   8  -4  -1   -0.04   16.66
   7  -4  -1   29.46   16.20
  -7   4   1   10.89   13.87
   7  -4  -1   13.81   10.59
   6  -4  -1   22.67    9.69
  -6   4   1   36.18   17.16
   6  -4  -1   50.66   16.54
   5  -4  -1  232.30   28.68
   5  -4  -1  257.96   31.86
  -5   4   1  229.81   32.70
   4  -4  -1  329.66   34.87
   4  -4  -1  292.07   31.89
  -4   4   1  304.55   35.63
  -3   4   1  122.74   19.47
  -3   4   1  115.63   10.61
   3  -4  -1  112.12   16.46
   3  -4  -1  116.35   17.95
   2  -4  -1  507.68   39.32
  -2   4   1  471.85   40.58
   2  -4  -1  446.62   40.79
  -2   4   1  384.07   34.03
  -1   4   1   -0.70    5.74
   1  -4  -1    0.64    3.92
   1  -4  -1    2.19    4.91
  -1   4   1    4.31    3.68
   0  -4  -1  259.98   24.68
   0  -4  -1  264.71   25.07
   0   4   1  233.73   20.59
   0   4   1  262.74   22.39
   0  -4  -1  276.64   23.48
  -1  -4  -1  116.83   13.88
  -1  -4  -1  116.94   13.62
  -1  -4  -1  117.44   13.27
  -1  -4  -1  125.38   14.77
  -2  -4  -1  568.15   48.87
  -2  -4  -1  574.39   47.68
   2   4   1  593.41   48.71
  -2  -4  -1  580.47   48.81
   3   4   1  492.37   40.06
  -3  -4  -1  403.58   39.89
  -3  -4  -1  490.52   39.49
   4   4   1  416.13   34.05
   4   4   1  331.36   30.02
  -4  -4  -1  398.86   33.29
  -4  -4  -1  399.22   33.59
  -5  -4  -1   78.26   12.83
  -5  -4  -1   51.01   11.32
   5   4   1   88.07   15.22
  -6  -4  -1   85.34   14.88
   6   4   1   92.34   16.87
  -6  -4  -1   70.52   14.17
   7   4   1   53.43   14.04
  -7  -4  -1   55.47   13.76
  -7  -4  -1   28.45   10.84
  -8  -4  -1    9.49    9.28
   8   4   1   -3.20    8.97
  -8  -4  -1   -1.07   10.15
   9   4   1    6.40   10.11
  -9  -4  -1    0.99   11.75
  -9  -4  -1  -14.73    9.05
 -10  -4  -1   -0.83   11.88
 -10  -4  -1   16.52   13.61
  10   4   1   21.76   14.63
  11   4   1   44.92   18.92
 -11  -4  -1    8.97   14.95
  -8   5   1   50.28   20.93
   8  -5  -1   12.72   11.91
   8  -5  -1   24.87   20.80
   7  -5  -1    5.40   15.36
  -7   5   1   44.24   17.55
   7  -5  -1  -10.85    8.80
  -6   5   1   87.94   22.85
   6  -5  -1   87.16   20.88
   6  -5  -1   26.58   12.01
  -5   5   1   63.24   18.90
   5  -5  -1  127.38   23.28
   5  -5  -1   93.31   17.55
   4  -5  -1   45.79   12.18
  -4   5   1   74.24   17.48
   4  -5  -1   70.84   17.20
  -3   5   1  219.02   28.72
   3  -5  -1  185.36   24.41
   3  -5  -1  259.85   29.22
   2  -5  -1  406.17   36.72
  -2   5   1  415.11   39.31
   2  -5  -1  385.42   38.92
  -2   5   1  399.60   32.37
   1  -5  -1  159.73   18.16
  -1   5   1  149.11   20.16
  -1   5   1  155.03   15.46
   1  -5  -1  154.88   20.13
   0  -5  -1  297.46   28.69
   0   5   1  314.92   27.36
   0   5   1  318.55   30.51
   0  -5  -1  338.55   31.25
  -1  -5  -1    7.79    3.82
  -1  -5  -1   -6.13    3.91
  -1  -5  -1    3.19    4.22
  -1  -5  -1    0.79    3.94
  -2  -5  -1   68.41   10.83
  -2  -5  -1   76.39   11.46
  -2  -5  -1   74.09   12.25
  -2  -5  -1   75.95   11.96
   3   5   1  411.42   36.10
  -3  -5  -1  379.95   35.12
  -3  -5  -1  389.18   34.88
  -3  -5  -1  398.19   35.74
   4   5   1  408.49   35.94
  -4  -5  -1  469.53   36.58
   4   5   1  340.11   33.06
  -4  -5  -1  433.68   36.86
  -5  -5  -1  154.47   20.20
  -5  -5  -1  160.47   19.67
   5   5   1  144.69   20.32
  -6  -5  -1   82.87   14.96
  -6  -5  -1   53.74   13.11
   6   5   1   54.78   14.70
   7   5   1   -1.29    9.08
  -7  -5  -1   -6.63    7.18
  -7  -5  -1   11.23    9.82
  -8  -5  -1   -3.15    8.22
  -8  -5  -1   -0.18    9.33
   8   5   1    5.42   11.44
   9   5   1   -2.79    9.56
  -9  -5  -1    8.16   11.81
  -9  -5  -1    8.74   11.77
 -10  -5  -1    6.37   14.45
  10   5   1  -13.09   11.52
 -10  -5  -1    3.10   12.26
  11   5   1   30.16   18.67
 -11  -5  -1  -19.74   13.04
 -11  -5  -1   13.00   15.67
   7  -6  -1   16.04   17.77
   7  -6  -1   22.90   13.55
  -7   6   1   39.17   19.84
   6  -6  -1   28.17   16.33
   6  -6  -1   11.17   11.05
  -6   6   1   32.69   18.82
  -5   6   1   27.66   15.86
   5  -6  -1   32.50   15.28
   5  -6  -1   33.70   11.80
  -4   6   1   56.04   15.61
   4  -6  -1   39.03   15.90
   4  -6  -1   21.10    9.19
   3  -6  -1    3.01    7.07
   3  -6  -1   -4.06   10.44
  -3   6   1   13.15   11.69
   2  -6  -1   18.42    9.97
  -2   6   1   12.33   10.31
   2  -6  -1    9.10    6.21
   1  -6  -1   95.51   14.30
  -1   6   1   87.72   11.53
  -1   6   1   79.94   15.85
   1  -6  -1   63.97   14.08
   0   6   1  153.75   15.81
   0   6   1  167.23   17.42
   0  -6  -1  148.59   20.67
   0   6   1  160.96   20.87
   0  -6  -1  156.52   18.75
  -1  -6  -1  121.18   15.75
  -1  -6  -1  127.10   16.93
  -1  -6  -1  132.54   16.58
  -1  -6  -1   99.11   14.60
  -2  -6  -1   98.57   14.75
  -2  -6  -1   88.84   12.96
  -2  -6  -1   88.85   13.30
  -2  -6  -1   86.42   13.81
  -3  -6  -1    8.10    5.46
  -3  -6  -1   -2.78    5.49
   3   6   1   -2.30    5.44
  -3  -6  -1   12.98    6.54
   4   6   1  320.13   32.62
   4   6   1  306.73   28.78
  -4  -6  -1  330.63   32.81
  -4  -6  -1  308.09   31.65
   5   6   1   -6.71    6.52
  -5  -6  -1    8.89    6.63
  -5  -6  -1   20.64    8.78
   6   6   1   -0.48    9.85
  -6  -6  -1  -22.51    7.10
  -6  -6  -1   -4.16    6.82
  -7  -6  -1   94.95   17.80
  -7  -6  -1  109.57   19.25
   7   6   1   90.42   20.04
  -8  -6  -1   37.20   14.22
  -8  -6  -1   36.10   13.58
   8   6   1   54.01   16.91
   9   6   1    5.62   12.61
  -9  -6  -1   30.49   13.72
  -9  -6  -1    6.95   13.05
  10   6   1    7.66   14.21
 -10  -6  -1   16.97   14.51
 -10  -6  -1    3.74   12.15
  -7   7   1   39.35   21.09
   7  -7  -1   13.52   20.75
   7  -7  -1   -6.13   10.66
  -6   7   1   77.20   23.33
   6  -7  -1    8.80   10.69
   6  -7  -1    1.34   17.24
   5  -7  -1   22.05   14.90
  -5   7   1   34.92   16.66
   5  -7  -1   13.07    8.75
   4  -7  -1  124.57   21.05
   4  -7  -1  136.68   26.45
  -4   7   1  134.21   25.29
  -3   7   1   -9.37   10.69
   3  -7  -1    6.93   12.08
   3  -7  -1   19.30    8.79
   2  -7  -1   -2.24    5.42
  -2   7   1    0.91   10.07
   2  -7  -1    7.41   10.19
  -1   7   1    3.65    9.99
   1  -7  -1   21.52    8.09
   1  -7  -1   -1.20    8.79
   0   7   1   40.06    8.80
   0   7   1   23.45   10.66
   0  -7  -1   42.46   12.42
   0   7   1   54.56   10.61
   0  -7  -1   30.08    8.65
  -1  -7  -1  143.57   19.49
  -1  -7  -1  118.45   17.95
  -1  -7  -1  125.22   16.30
  -1  -7  -1  131.51   17.59
  -2  -7  -1  618.38   51.18
  -2  -7  -1  575.38   51.53
  -2  -7  -1  623.40   53.04
  -2  -7  -1  523.58   50.61
  -3  -7  -1   74.86   13.82
   3   7   1   74.38   14.65
  -3  -7  -1   74.14   15.12
  -3  -7  -1  111.05   14.77
  -4  -7  -1   16.20    7.73
  -4  -7  -1    7.81    6.67
   4   7   1   18.31    8.74
   4   7   1   13.98    7.96
  -5  -7  -1   25.84    9.45
  -5  -7  -1   51.07   11.44
   5   7   1   49.99   12.60
   6   7   1   97.27   18.07
  -6  -7  -1   60.98   14.98
  -6  -7  -1   79.25   15.88
  -7  -7  -1    1.13    9.50
   7   7   1    6.53   11.56
  -7  -7  -1   12.53   10.67
   8   7   1   39.49   17.09
  -8  -7  -1   22.32   12.34
  -8  -7  -1   16.77   12.61
  -9  -7  -1   11.17   14.50
   9   7   1   35.81   15.18
  -9  -7  -1   -1.57   11.19
 -10  -7  -1   13.93   14.68
  10   7   1  -17.92   12.20
 -10  -7  -1   18.28   15.18
  -6   8   1   41.45   20.85
   6  -8  -1   14.23   20.58
  -5   8   1   62.82   20.37
   5  -8  -1   17.41   19.22
   5  -8  -1   40.33   13.25
   4  -8  -1    8.07   15.32
  -4   8   1   28.94   15.31
   4  -8  -1    9.94   10.20
   3  -8  -1   70.17   20.85
   3  -8  -1   83.77   16.99
  -3   8   1   84.10   21.08
   2  -8  -1   83.09   16.62
   2  -8  -1   87.85   19.64
  -2   8   1   77.15   18.52
  -1   8   1    7.56   11.98
   1  -8  -1    6.93   10.83
   1  -8  -1   -1.41    6.85
   0  -8  -1   -2.46    9.08
   0   8   1   14.66   10.81
   0  -8  -1    3.70    5.84
   0   8   1   16.63    8.00
   0   8   1   -3.54    7.23
  -1  -8  -1   17.08    6.68
  -1  -8  -1   11.58    6.99
  -1  -8  -1   20.24   10.43
   1   8   1    9.91   10.54
  -2  -8  -1  111.69   17.92
  -2  -8  -1  136.37   19.39
  -2  -8  -1  128.68   19.29
  -2  -8  -1  156.64   21.03
  -3  -8  -1    6.26    6.25
   3   8   1    2.32    9.01
  -3  -8  -1   -5.20    6.38
  -3  -8  -1   15.47    7.33
   4   8   1   29.52   11.17
  -4  -8  -1   37.96    9.96
   4   8   1   51.52   13.93
  -4  -8  -1   42.14   12.42
  -5  -8  -1    8.56    8.41
  -5  -8  -1   13.19    8.88
   5   8   1    6.85    9.79
  -6  -8  -1    1.92    9.10
   6   8   1  -10.16    8.10
  -6  -8  -1   -5.92    7.09
  -7  -8  -1   18.01   13.20
  -7  -8  -1   14.66   10.51
   7   8   1   -2.35   14.35
   8   8   1   20.15   15.30
  -8  -8  -1    1.27   13.27
  -8  -8  -1   21.50   14.65
  -9  -8  -1   -1.14   12.92
  -9  -8  -1   -0.44   12.93
   9   8   1   -1.51   14.55
 -10  -8  -1    9.82   17.55
  10   8   1   11.12   16.84
   5  -9  -1   39.25   19.92
  -5   9   1   30.93   19.95
   4  -9  -1    4.64   18.05
  -4   9   1   41.96   18.88
  -3   9   1   42.92   15.50
   3  -9  -1   29.32   16.64
   3  -9  -1   10.00   10.70
  -2   9   1   22.37   14.49
   2  -9  -1   14.80   14.71
   2  -9  -1    6.47   10.57
   1  -9  -1   30.06   15.45
   1  -9  -1    9.02    9.12
  -1   9   1   16.41   13.31
   0   9   1    1.11   10.60
   0  -9  -1   13.55    9.01
   0  -9  -1   16.22   12.28
  -1  -9  -1  188.97   26.65
   1   9   1  210.50   27.10
   1   9   1  225.04   25.17
  -1  -9  -1  154.56   27.00
   1   9   1  239.68   23.39
  -2  -9  -1   12.17   11.38
  -2  -9  -1   20.35   10.52
  -2  -9  -1   22.37   10.30
  -2  -9  -1   16.21    8.11
   3   9   1   45.19   14.68
  -3  -9  -1   46.16   12.90
  -3  -9  -1   73.11   15.50
  -4  -9  -1   -3.52    7.53
   4   9   1    1.07   10.04
  -4  -9  -1   11.73   10.69
   5   9   1   21.25   12.27
  -5  -9  -1   32.10   12.81
  -5  -9  -1   19.14   10.87
  -6  -9  -1   -7.62    8.45
   6   9   1   23.55   12.02
  -6  -9  -1   32.78   13.00
  -7  -9  -1    0.23   10.27
  -7  -9  -1   10.89   10.04
   7   9   1   -4.73   11.68
   8   9   1   -2.18   15.81
  -8  -9  -1   22.09   16.28
  -9  -9  -1   23.44   16.80
   9   9   1   28.02   19.58
  -4  10   1   36.35   18.00
   4 -10  -1   -4.04   19.13
   3 -10  -1   -3.47   17.26
  -3  10   1   28.68   16.24
  -2  10   1   50.36   18.13
   2 -10  -1   -7.96   15.12
  -1  10   1   43.56   15.33
   1 -10  -1   20.75   16.70
   1 -10  -1    7.51   11.52
   0  10   1    9.15   12.39
   0 -10  -1  -21.81   11.54
   0 -10  -1   25.11   10.74
   1  10   1   32.86   12.94
  -1 -10  -1   25.12   13.77
  -1 -10  -1   45.67   13.40
  -2 -10  -1  111.37   20.19
  -2 -10  -1   81.16   20.72
  -2 -10  -1   98.07   17.03
   2  10   1  136.10   21.39
  -3 -10  -1    3.97    9.64
  -3 -10  -1   12.30    8.66
   3  10   1    5.92   14.59
   3  10   1   12.05   11.88
   4  10   1    9.91   11.56
  -4 -10  -1   -9.20    9.81
  -4 -10  -1    1.99    9.64
   5  10   1   18.35   13.45
  -5 -10  -1   -6.90    9.74
   6  10   1   16.59   12.62
  -6 -10  -1    1.84   10.91
   7  10   1  -11.55   12.26
  -7 -10  -1    6.97   12.60
  -8 -10  -1  -11.60   11.94
   8  10   1  -11.16   15.51
   2 -11  -1   18.40   19.86
  -2  11   1   29.37   17.32
  -1  11   1   31.87   16.40
   1 -11  -1   -0.12   15.44
   0  11   1   16.56   12.88
   0 -11  -1   -9.58   13.38
  -1 -11  -1    3.32   11.74
   1  11   1    3.58   12.88
  -1 -11  -1    6.80   13.70
  -2 -11  -1   -7.90    9.68
   2  11   1   14.50   18.01
  -3 -11  -1   -8.82    7.77
   3  11   1    7.86   12.98
   4  11   1   56.45   17.03
  -4 -11  -1   41.61   14.03
  -5 -11  -1   60.56   18.26
   5  11   1   53.32   17.92
   6  11   1    7.16   13.18
  -6 -11  -1    9.00   13.18
   7  11   1   15.48   16.18
  -7 -11  -1    9.04   13.59
   0 -12  -1   26.45   18.33
   1  12   1   49.36   24.26
   2  12   1   32.50   22.40
   4  12   1   25.95   16.31
  -4 -12  -1   11.82   11.30
  -5 -12  -1   12.86   13.09
   5  12   1   15.70   16.20
   6  12   1   23.84   17.33
  -6 -12  -1    3.52   13.21
   5  11  -2   40.01   17.02
  -5 -11   2   14.66   13.17
  -4 -11   2    7.46   10.84
   4  11  -2   -1.68   14.09
  -3 -11   2   43.35   17.98
  -2 -11   2    4.60   13.36
   2  11  -2  -14.37   17.18
   1  11  -2   21.27   18.65
  -1 -11   2   23.23   16.01
   0 -11   2   13.21   14.67
   0  11  -2   23.98   19.74
  -1  11  -2   60.67   21.88
   1 -11   2   15.70   14.56
  -7 -10   2    2.44   11.39
   7  10  -2    9.76   15.49
  -6 -10   2   11.39   11.49
   6  10  -2   27.76   16.96
   5  10  -2   16.78   13.44
  -5 -10   2   -1.64    9.19
   4  10  -2    6.88   12.48
  -4 -10   2   10.06   10.08
  -3 -10   2   13.89   10.75
  -3 -10   2   30.10   14.00
   3  10  -2   35.37   15.73
   2  10  -2   29.14   17.10
  -2 -10   2   15.21   11.49
  -1 -10   2   13.10   12.81
   1  10  -2   15.73   15.18
   0  10  -2   53.64   21.10
   0 -10   2   34.74   14.78
   1 -10   2   -0.01   11.07
  -1  10  -2   42.17   18.03
  -2  10  -2   50.13   20.26
   2 -10   2   16.00   13.96
  -3  10  -2   21.87   19.98
   3 -10   2   15.00   14.44
  -8  -9   2    5.21   12.34
   8   9  -2    8.54   16.94
  -7  -9   2    3.02   10.37
   7   9  -2  -10.92   12.72
  -6  -9   2   13.57   10.82
   6   9  -2   -0.16   11.26
  -5  -9   2    5.85    9.54
   5   9  -2   14.66   14.77
  -4  -9   2    9.99    8.94
   4   9  -2   -7.84   11.72
   3   9  -2   14.99   12.69
  -3  -9   2   14.47    7.73
  -3  -9   2    1.76    9.58
   2   9  -2   28.69   14.32
  -2  -9   2   20.26   11.97
  -2  -9   2   19.83    8.76
   1   9  -2   14.33   14.67
  -1  -9   2   30.14   13.77
   0   9  -2   -6.26   12.31
   0  -9   2    0.69    8.45
   1  -9   2    4.78   11.47
  -1   9  -2    7.28   14.53
  -2   9  -2   27.11   15.86
   2  -9   2  -11.39    9.43
   3  -9   2   31.93   13.82
  -3   9  -2   58.40   20.64
   4  -9   2   23.20   13.94
  -4   9  -2   54.19   19.71
  -4   9  -2   19.18   16.66
   9   8  -2   24.52   19.27
  -9  -8   2    6.63   13.90
   8   8  -2   53.34   20.94
  -8  -8   2   63.10   19.48
   7   8  -2    4.60   13.97
  -7  -8   2   17.21   12.29
  -6  -8   2   11.09   11.13
   6   8  -2   25.53   12.51
  -5  -8   2   39.43   13.66
   5   8  -2    8.81   12.26
   4   8  -2   36.39   13.90
  -4  -8   2   58.88   14.44
   4   8  -2   54.68   15.90
   3   8  -2   -1.71   11.03
  -3  -8   2    5.60    7.96
  -3  -8   2    4.90    9.27
  -2  -8   2  328.92   38.08
   2   8  -2  311.73   37.38
  -2  -8   2  312.62   33.59
  -1  -8   2  141.71   22.92
   1   8  -2  132.89   23.01
  -1  -8   2  111.58   17.78
   0   8  -2   38.20   15.11
   0  -8   2   33.26   12.70
  -1   8  -2    2.59   11.07
   1  -8   2    2.96    8.65
  -1   8  -2    3.97   10.28
   2  -8   2   27.27   11.50
  -2   8  -2   13.30   14.34
  -2   8  -2   27.46   14.46
  -3   8  -2    2.69   12.66
   3  -8   2   25.12   11.07
  -3   8  -2   32.26   15.20
   4  -8   2   23.91   12.46
  -4   8  -2   43.24   17.25
  -4   8  -2   40.82   16.63
   5  -8   2   -1.93   10.73
  -5   8  -2   43.05   18.47
  -5   8  -2    7.73   16.54
  -6   8  -2   48.83   20.05
   6  -8   2   39.78   15.96
  -6   8  -2   64.86   21.29
  -9  -7   2   42.35   17.42
   9   7  -2   39.48   18.87
  -8  -7   2   24.63   16.48
   8   7  -2   40.58   17.20
   7   7  -2    4.69   11.87
  -7  -7   2    9.18   13.77
   6   7  -2   -5.72   10.11
  -6  -7   2   -2.80    8.34
  -5  -7   2  -13.47    6.97
   5   7  -2    3.98   10.37
   4   7  -2   86.34   19.16
   4   7  -2  121.10   19.39
  -4  -7   2  117.29   19.64
  -3  -7   2  455.24   41.94
   3   7  -2  392.67   39.95
  -3  -7   2  387.19   42.66
  -2  -7   2  222.79   27.63
  -2  -7   2  263.40   30.82
   2   7  -2  232.34   29.67
   1   7  -2   64.49   13.64
  -1  -7   2   64.79   12.45
   1   7  -2   55.11   14.79
  -1  -7   2   45.49   13.03
   0   7  -2   15.88   11.01
   0  -7   2   -5.55    7.10
   0  -7   2    7.58    5.97
   0   7  -2  -13.40    9.63
  -1   7  -2  103.00   19.57
   1  -7   2   81.91   17.23
  -1   7  -2  106.49   21.03
  -2   7  -2    1.94   10.93
  -2   7  -2   11.62   11.95
   2  -7   2    2.19    7.43
  -3   7  -2   25.17   14.00
   3  -7   2   59.35   16.23
   3  -7   2   15.74    9.71
   4  -7   2   52.59   15.85
   4  -7   2  101.88   22.03
  -4   7  -2   93.95   21.10
   5  -7   2    7.99   14.81
  -5   7  -2   19.22   15.75
   5  -7   2    4.19    8.94
  -6   7  -2   28.17   17.45
   6  -7   2    5.37   11.65
  -7   7  -2   17.52   17.59
   7  -7   2   23.71   14.67
  -7   7  -2   24.94   16.56
 -10  -6   2    3.20   15.87
  10   6  -2    6.15   16.87
  -9  -6   2   13.56   13.82
   9   6  -2    0.45   13.44
  -8  -6   2   79.18   20.11
   8   6  -2   17.00   15.55
   7   6  -2    7.29   11.45
  -7  -6   2    5.35   13.98
   6   6  -2   -1.26    8.67
  -6  -6   2   10.71   10.68
   5   6  -2    1.74    8.60
  -5  -6   2   -0.50    7.13
  -4  -6   2    2.75    5.46
   4   6  -2    2.31    8.17
   4   6  -2    0.36    8.02
  -4  -6   2    0.58    7.40
   3   6  -2   90.98   15.84
  -3  -6   2   83.66   15.68
  -3  -6   2   47.93   13.35
  -3  -6   2   89.88   11.50
  -2  -6   2   29.05    9.64
   2   6  -2   48.99   12.29
  -2  -6   2   43.03   10.95
  -2  -6   2   43.80    8.28
   1   6  -2   63.06   11.94
   1   6  -2   34.00   12.06
  -1  -6   2   48.67   10.15
  -1  -6   2   41.77   10.44
   0  -6   2   -3.16    5.42
   0  -6   2    0.79    5.62
   0   6  -2   -1.97    7.52
   0   6  -2   -6.57    8.53
  -1   6  -2   -0.95    9.90
   1  -6   2   12.57    7.36
   1  -6   2   -1.67    5.21
  -1   6  -2    6.67    8.69
   2  -6   2  180.72   25.15
   2  -6   2  140.57   21.84
  -2   6  -2  131.91   21.74
   3  -6   2   19.47    9.11
   3  -6   2   14.26   12.32
  -3   6  -2   25.83   12.62
   4  -6   2  372.40   41.79
  -4   6  -2  333.69   38.98
   4  -6   2  293.64   36.90
  -5   6  -2   -7.82   12.84
   5  -6   2   21.99   10.96
   5  -6   2   39.53   16.06
   6  -6   2   -7.52    9.61
   6  -6   2   13.34   15.34
  -6   6  -2   27.79   15.07
   7  -6   2   19.50   18.97
  -7   6  -2   35.12   18.40
   7  -6   2   35.77   15.06
 -10  -5   2   18.08   14.97
  10   5  -2   14.70   17.46
   9   5  -2    4.92   13.01
  -9  -5   2   -4.85   12.85
  -8  -5   2   12.67   13.25
   8   5  -2    9.26   11.64
  -7  -5   2   21.10   13.40
  -7  -5   2   20.42    9.84
   7   5  -2    8.37   12.99
  -6  -5   2   82.58   17.90
  -6  -5   2   73.14   13.15
   6   5  -2   38.88   14.28
   5   5  -2   30.20   10.06
  -5  -5   2   42.64   12.52
  -5  -5   2   32.93    8.73
   5   5  -2   29.99   11.49
  -4  -5   2   40.95    8.70
  -4  -5   2   40.95   10.37
   4   5  -2   43.44   12.08
   4   5  -2   33.19    9.71
   3   5  -2  201.84   24.68
  -3  -5   2  183.82   22.78
   3   5  -2  236.86   23.49
  -3  -5   2  185.58   18.92
  -2  -5   2   -2.11    4.72
  -2  -5   2    3.62    5.41
   2   5  -2    1.08    7.62
  -2  -5   2   -1.77    3.70
   1   5  -2  829.87   65.82
   1   5  -2  716.32   61.11
  -1  -5   2  779.39   60.85
  -1  -5   2  657.67   62.56
   0  -5   2   35.86    7.92
   0  -5   2   23.30    7.50
   0   5  -2   34.09    9.68
   0   5  -2   26.48   10.48
  -1   5  -2  117.21   20.56
  -1   5  -2  159.56   20.02
   1  -5   2  145.24   19.72
   1  -5   2  168.35   16.35
  -2   5  -2  334.45   32.73
   2  -5   2  284.85   33.65
   2  -5   2  288.55   32.11
   2  -5   2  301.37   25.05
   3  -5   2   87.42   16.77
  -3   5  -2  130.87   20.16
   3  -5   2  103.99   19.57
  -4   5  -2   -3.95   10.94
   4  -5   2    3.25    6.79
   4  -5   2   18.11   11.93
   5  -5   2   19.08   14.31
  -5   5  -2   53.44   16.26
   5  -5   2   43.23   12.90
   6  -5   2    0.86    9.66
  -6   5  -2   17.74   14.41
   6  -5   2   10.11   14.03
  -7   5  -2   24.85   15.89
   7  -5   2   29.49   18.41
   7  -5   2   16.72   12.76
  -8   5  -2    8.78   18.09
   8  -5   2   25.92   15.75
 -10  -4   2    3.16   13.77
  10   4  -2   -6.24   13.43
   9   4  -2   15.69   12.95
  -9  -4   2   22.05   14.94
  -9  -4   2   18.47   13.72
  -8  -4   2   46.72   13.27
  -8  -4   2   24.68   13.73
   8   4  -2   18.15   12.27
   7   4  -2   16.64   10.91
  -7  -4   2   24.55   12.44
  -7  -4   2   14.57    9.85
  -6  -4   2   -9.39    8.90
   6   4  -2   -1.74   10.00
  -6  -4   2    5.56    7.02
  -5  -4   2   80.96   15.98
   5   4  -2   74.45   14.74
  -5  -4   2   71.93   12.04
   5   4  -2   72.07   12.76
   4   4  -2  187.13   18.81
  -4  -4   2  173.64   21.42
   4   4  -2  170.60   21.56
  -4  -4   2  142.48   17.38
  -3  -4   2   38.15    8.93
  -3  -4   2   52.79    8.04
   3   4  -2   20.20    7.83
   3   4  -2   22.89    8.11
  -2  -4   2   23.73    5.06
  -2  -4   2   18.21    7.04
   2   4  -2   33.54    8.82
  -2  -4   2   21.48    6.44
   1   4  -2  736.27   70.45
   1   4  -2  824.27   66.78
  -1  -4   2  988.18   69.79
  -1  -4   2  782.69   66.20
   0   4  -2   26.62    9.36
   0  -4   2   48.63    9.62
   0  -4   2   46.42    8.21
   0   4  -2   50.88    9.12
   1  -4   2  347.97   28.95
   1  -4   2  330.83   32.35
  -1   4  -2  337.32   31.59
  -1   4  -2  366.75   34.45
   2  -4   2   80.39   14.81
  -2   4  -2  105.50   15.21
   2  -4   2   80.80   14.45
   2  -4   2   92.03    9.61
   3  -4   2   48.66   11.41
   3  -4   2   33.24    9.65
  -3   4  -2   44.06   12.44
   4  -4   2    6.70    8.46
  -4   4  -2   -6.14    9.58
   4  -4   2    6.10    8.02
   5  -4   2   15.29   11.22
  -5   4  -2  -12.41   10.63
   5  -4   2    2.51    6.95
   6  -4   2  139.28   23.71
  -6   4  -2  159.15   25.70
   6  -4   2  131.45   24.12
   7  -4   2   14.00   14.46
  -7   4  -2   65.27   17.70
   7  -4   2    6.07   10.58
   8  -4   2   72.46   24.00
  -8   4  -2   57.26   20.59
   8  -4   2   20.65   13.90
   9  -4   2   20.42   14.46
  -9   4  -2    8.20   18.14
  10   3  -2   55.31   18.97
 -10  -3   2   18.14   15.21
  -9  -3   2   23.31   13.79
   9   3  -2   -2.01   11.75
  -9  -3   2   38.94   15.00
   8   3  -2    9.06   11.36
  -8  -3   2   -4.90   10.29
  -8  -3   2    7.52   12.03
   7   3  -2   16.77   11.86
  -7  -3   2   30.18   12.72
  -7  -3   2   11.25   11.85
  -6  -3   2   62.46   13.03
  -6  -3   2   57.46   13.82
   6   3  -2   44.10   13.99
  -5  -3   2  435.44   39.31
  -5  -3   2  414.77   39.51
   5   3  -2  446.57   38.71
   5   3  -2  417.99   40.69
  -4  -3   2  107.89   17.36
   4   3  -2  181.15   17.52
  -4  -3   2  120.08   15.50
   4   3  -2  137.67   17.94
  -3  -3   2 1309.90   95.67
   3   3  -2 1085.01   97.09
   3   3  -2 1260.84   98.47
  -3  -3   2 1055.99   94.24
  -2  -3   2  737.09   50.65
  -2  -3   2  596.45   48.77
   2   3  -2  595.49   51.54
  -2  -3   2  519.28   50.64
  -1  -3   2  244.80   23.32
  -1  -3   2  266.59   24.68
   1   3  -2  249.34   25.06
  -1  -3   2  270.62   21.97
   0  -3   2  257.52   23.12
   0   3  -2  215.15   20.64
   0   3  -2  250.75   24.55
   0  -3   2  223.33   20.47
   1  -3   2   35.54    7.94
   1  -3   2   22.91    4.94
  -1   3  -2   23.36    8.40
  -1   3  -2   24.66    7.39
  -2   3  -2   20.08    7.89
   2  -3   2   10.76    6.45
   2  -3   2   22.28    3.84
   2  -3   2   17.63    7.11
   3  -3   2  666.25   64.70
  -3   3  -2  861.38   66.20
   3  -3   2  762.10   66.79
   4  -3   2   28.91    9.31
   4  -3   2   51.65   11.62
  -4   3  -2   35.98   11.71
   5  -3   2  533.18   50.36
   5  -3   2  547.24   50.73
  -5   3  -2  524.39   50.81
   6  -3   2   65.56   16.06
   6  -3   2   62.40   15.60
  -6   3  -2   56.80   15.62
   7  -3   2   -1.59   12.71
   7  -3   2   -5.05    9.55
  -7   3  -2   12.96   12.18
   8  -3   2   10.34   12.29
  -8   3  -2   45.11   17.17
   8  -3   2   13.39   17.11
   9  -3   2   37.14   16.93
  -9   3  -2   41.00   17.69
 -10  -2   2   59.23   21.02
  10   2  -2   32.56   18.28
  -9  -2   2   14.99   12.99
  -9  -2   2   12.22   14.69
   9   2  -2   23.90   14.80
   8   2  -2   71.06   17.80
  -8  -2   2   54.56   15.89
  -8  -2   2  104.44   20.73
  -7  -2   2   73.90   17.14
   7   2  -2   42.12   13.48
  -7  -2   2   62.15   15.38
   6   2  -2   27.68    8.34
   6   2  -2    8.18    8.27
  -6  -2   2    3.83    7.17
  -6  -2   2   14.22    9.56
  -5  -2   2  273.48   28.07
   5   2  -2  241.10   24.61
   5   2  -2  277.47   29.65
  -5  -2   2  251.36   28.31
   4   2  -2  639.33   56.71
  -4  -2   2  730.99   56.37
   4   2  -2  627.77   56.55
  -4  -2   2  685.66   56.96
  -3  -2   2    9.66    5.76
   3   2  -2   22.74    6.91
   3   2  -2    9.01    5.29
  -3  -2   2   11.84    6.45
   2   2  -2  206.88   20.10
  -2  -2   2  207.60   19.73
  -2  -2   2  208.69   18.26
   2   2  -2  215.47   20.65
  -1  -2   2 9373.40  702.14
   1   2  -2 8747.76  722.10
  -1  -2   2 9182.83  678.85
   0  -2   2  702.27   60.19
   0   2  -2  822.81   61.38
  -1   2  -2  277.53   26.60
   1  -2   2  291.48   25.19
  -1   2  -2  323.68   28.81
   1  -2   2  377.34   28.59
  -2   2  -2    4.69    5.96
  -2   2  -2    5.36    5.58
   2  -2   2    2.92    2.57
   2  -2   2    5.55    4.95
   3  -2   2  552.99   49.14
   3  -2   2  512.73   41.88
  -3   2  -2  561.44   48.36
   3  -2   2  678.03   49.25
  -4   2  -2  139.88   18.50
   4  -2   2  115.27   16.76
   4  -2   2  111.18   17.35
   5  -2   2  146.12   21.89
  -5   2  -2  139.72   21.78
   5  -2   2  173.47   21.15
   6  -2   2  361.61   40.70
  -6   2  -2  370.00   40.19
   6  -2   2  383.94   38.91
   7  -2   2   58.68   15.21
   7  -2   2   46.61   14.63
  -7   2  -2   53.65   15.74
  -8   2  -2   18.57   14.09
   8  -2   2   26.36   13.52
  -9   2  -2   54.47   19.33
   9  -2   2   22.89   14.26
 -10   2  -2   46.46   21.78
  10  -2   2  -13.47   13.73
  10   1  -2    9.64   15.62
 -10  -1   2    7.12   16.93
   9   1  -2   22.55   14.58
  -9  -1   2   21.60   15.53
   8   1  -2   -9.25   11.02
  -8  -1   2  -12.42   10.63
  -8  -1   2   25.81   11.29
  -7  -1   2  130.00   21.10
   7   1  -2  169.42   25.22
  -7  -1   2  186.35   24.87
   6   1  -2  345.48   39.41
   6   1  -2  406.61   37.09
  -6  -1   2  425.95   40.63
  -6  -1   2  378.81   37.17
   5   1  -2  160.35   20.39
   5   1  -2  137.04   17.17
  -5  -1   2  102.18   18.04
  -5  -1   2  149.25   18.80
  -4  -1   2  414.58   37.99
   4   1  -2  502.17   39.46
  -4  -1   2  373.02   36.71
   4   1  -2  430.05   37.80
  -3  -1   2   95.38   12.47
   3   1  -2   93.06   12.85
  -3  -1   2   80.84   11.99
   3   1  -2  115.81   13.05
  -2  -1   2  595.09   47.52
  -2  -1   2  584.46   47.09
   2   1  -2  636.59   48.39
   2   1  -2  511.05   49.16
  -1  -1   2  439.22   36.87
  -1  -1   2  454.58   35.86
   1   1  -2  445.75   38.52
   0  -1   2  520.98   41.93
   0  -1   2  450.15   43.20
   0   1  -2  571.89   41.71
   1  -1   2  367.58   29.51
  -1   1  -2  400.18   30.87
  -1   1  -2  276.29   28.43
   1  -1   2  350.78   27.36
   2  -1   2  315.58   26.89
  -2   1  -2  385.80   30.27
   3  -1   2   34.67    7.91
   3  -1   2   19.30    7.44
   3  -1   2   29.39    4.92
  -3   1  -2   37.53    8.82
   4  -1   2    1.18    3.19
   4  -1   2    5.66    5.03
   4  -1   2    4.03    5.83
  -4   1  -2    2.76    6.82
   5  -1   2   59.76   12.90
   5  -1   2   61.85    8.17
  -5   1  -2   70.93   14.52
   5  -1   2   64.99   11.65
  -6   1  -2  393.93   41.26
   6  -1   2  402.53   41.67
   6  -1   2  406.41   38.28
   7  -1   2  239.07   31.16
  -7   1  -2  228.77   30.89
   7  -1   2  233.29   27.65
  -8   1  -2   11.23   13.29
   8  -1   2   46.73   14.74
   9  -1   2   89.55   21.87
  -9   1  -2  125.05   25.10
 -10   1  -2  -12.59   17.05
  10  -1   2   11.03   13.59
  10   0  -2    3.70   15.84
 -10   0   2   32.90   19.17
  -9   0   2   36.43   17.59
   9   0  -2   14.24   13.64
   8   0  -2   -3.39   10.13
  -8   0   2   -9.26   10.71
   7   0  -2    4.32    9.17
  -7   0   2   11.50   10.24
   7   0  -2    5.32    9.42
  -7   0   2   15.28    9.03
   6   0  -2  162.07   23.25
   6   0  -2  185.79   21.86
  -6   0   2  139.61   22.31
  -6   0   2  124.86   18.45
   5   0  -2  133.77   17.88
  -5   0   2  131.34   19.69
  -5   0   2  137.79   17.78
   5   0  -2  145.76   19.64
   4   0  -2  143.63   18.34
  -4   0   2  129.02   16.54
   4   0  -2  148.04   17.71
  -4   0   2  175.94   19.86
   3   0  -2  393.92   33.08
   3   0  -2  317.17   32.72
  -3   0   2  363.47   31.72
  -3   0   2  432.54   34.19
  -2   0   2  477.11   41.44
   2   0  -2  468.93   42.21
  -2   0   2  503.58   40.52
   2   0  -2  521.87   41.21
   1   0  -2  426.36   38.60
   1   0  -2  545.45   37.01
  -1   0   2  421.14   36.21
  -1   0   2  407.73   36.75
   0   0  -2  330.45   31.66
   0   0   2  395.34   30.24
   0   0   2  392.71   30.46
  -1   0  -2 8746.99  719.33
   1   0   2 9999.37  712.99
  -1   0  -2 9056.68  733.84
   1   0   2 9245.56  689.26
  -2   0  -2 1353.05  117.85
   2   0   2 1509.14  115.30
  -2   0  -2 1562.14  116.78
   2   0   2 1445.61  110.45
  -3   0  -2  191.24   19.00
   3   0   2  183.24   18.29
   3   0   2  148.97   14.76
  -3   0  -2  159.91   16.54
   3   0   2  168.74   14.10
   4   0   2   -4.70    2.61
  -4   0  -2    4.87    6.63
   4   0   2   -0.57    4.91
   4   0   2   -3.19    3.51
  -5   0  -2  227.39   26.46
   5   0   2  229.03   22.71
   5   0   2  250.35   27.20
   6   0   2   28.19   10.08
   6   0   2   22.58    7.64
  -6   0  -2    9.21   10.71
   7   0   2    2.22    8.56
   7   0   2   12.57    7.37
  -7   0  -2   17.39   10.83
  -8   0  -2  115.84   23.15
   8   0   2   94.88   19.86
   9   0   2   14.32   11.03
  -9   0  -2   25.21   15.51
 -10   0  -2    8.52   16.00
  10   0   2   19.66   16.20
 -10   1   2   28.86   18.95
  10  -1  -2   -3.10   13.74
   9  -1  -2   18.82   15.13
  -9   1   2    2.67   15.25
   8  -1  -2   14.76   12.26
  -8   1   2   17.58   13.51
   7  -1  -2   -1.38    8.77
  -7   1   2   26.35   11.75
   7  -1  -2   11.70   11.89
   6  -1  -2   19.21    9.08
  -6   1   2    1.21    6.06
  -6   1   2    4.45   10.24
   6  -1  -2   14.30    8.37
   5  -1  -2   67.89   14.10
  -5   1   2   88.37   17.52
  -5   1   2   80.57   12.87
   5  -1  -2   78.18   13.59
   4  -1  -2  253.11   25.46
   4  -1  -2  240.70   24.95
  -4   1   2  230.15   26.57
  -4   1   2  215.48   21.92
   3  -1  -2  490.56   45.20
  -3   1   2  540.91   45.32
   3  -1  -2  475.85   43.56
  -3   1   2  531.76   41.82
   2  -1  -2  201.09   18.91
  -2   1   2  202.44   18.66
  -2   1   2  246.58   21.87
   2  -1  -2  189.19   19.79
   1  -1  -2   -4.19    3.80
  -1   1   2    3.88    4.41
  -1   1   2   11.62    5.68
   1  -1  -2    5.47    3.18
   0  -1  -2 6005.75  439.51
   0  -1  -2 5518.50  453.04
   0  -1  -2 5589.47  444.11
   0   1   2 5689.61  425.54
   1   1   2  220.71   19.56
   1   1   2  202.79   19.06
  -1  -1  -2  280.72   20.64
  -1  -1  -2  244.81   20.90
   2   1   2  287.59   23.70
   2   1   2  263.63   24.38
   2   1   2  302.49   22.22
  -2  -1  -2  289.15   24.24
  -2  -1  -2  261.16   24.95
  -3  -1  -2  403.42   36.24
  -3  -1  -2  489.52   38.62
   3   1   2  453.70   37.72
   4   1   2   92.29   14.89
  -4  -1  -2  129.09   13.56
  -4  -1  -2  121.25   12.31
  -4  -1  -2  123.19   17.07
   5   1   2   33.91   10.01
  -5  -1  -2   29.96   10.63
  -5  -1  -2   46.21    7.48
  -5  -1  -2   32.28    7.85
  -6  -1  -2  317.51   34.98
  -6  -1  -2  303.38   28.20
   6   1   2  329.22   33.91
  -6  -1  -2  301.66   28.33
  -7  -1  -2   28.16    8.86
   7   1   2    2.77    8.14
  -7  -1  -2   41.11   13.84
  -8  -1  -2   23.35   14.85
   8   1   2   33.69   12.98
   9   1   2   22.96   13.11
  -9  -1  -2   40.67   18.11
  10   1   2   41.51   17.27
 -10  -1  -2   46.26   19.85
 -11  -1  -2  -11.87   18.10
  11   1   2    9.37   15.13
  -9   2   2   14.20   17.10
   9  -2  -2   -2.42   12.48
   8  -2  -2   11.66   11.68
  -8   2   2    8.11   13.16
   7  -2  -2   32.03   12.61
   7  -2  -2   22.38   14.12
  -7   2   2   10.38   12.47
   6  -2  -2   16.32    9.93
  -6   2   2   24.25   13.19
   6  -2  -2   -8.21   10.22
   5  -2  -2   40.25   11.53
  -5   2   2   33.60    8.94
  -5   2   2   56.73   15.70
   5  -2  -2   47.67   11.61
  -4   2   2  603.54   52.25
   4  -2  -2  617.95   52.16
  -4   2   2  512.09   45.88
   4  -2  -2  577.80   50.03
  -3   2   2  640.33   55.27
  -3   2   2  749.63   60.46
   3  -2  -2  762.99   61.17
   3  -2  -2  668.83   58.13
  -2   2   2  128.26   15.92
  -2   2   2  114.39   12.35
   2  -2  -2  136.56   13.80
   2  -2  -2  120.66   15.66
  -1   2   2  223.43   18.71
   1  -2  -2  206.57   18.39
   1  -2  -2  212.21   21.23
  -1   2   2  214.39   21.29
   0  -2  -2  272.54   20.26
   0  -2  -2  195.31   16.84
   0   2   2  195.29   18.41
   0  -2  -2  210.79   19.63
   1   2   2  787.18   60.79
  -1  -2  -2  760.65   63.54
   2   2   2  321.64   23.38
  -2  -2  -2  333.34   26.22
  -2  -2  -2  262.38   24.74
   2   2   2  292.16   24.93
   2   2   2  291.51   25.33
  -3  -2  -2    6.35    4.57
  -3  -2  -2   -6.43    3.90
   3   2   2    3.33    4.05
  -3  -2  -2    0.71    2.45
  -4  -2  -2  771.04   59.14
   4   2   2  687.05   60.84
  -5  -2  -2  430.40   36.48
  -5  -2  -2  496.19   41.67
   5   2   2  429.66   40.82
  -5  -2  -2  448.40   38.39
   6   2   2  467.88   44.05
  -6  -2  -2  471.94   44.52
  -6  -2  -2  465.20   40.95
  -7  -2  -2  458.60   41.76
   7   2   2  476.90   47.22
  -7  -2  -2  469.02   45.75
  -8  -2  -2   17.40    9.96
   8   2   2   49.29   13.51
  -8  -2  -2   33.65   14.71
   9   2   2  -11.20    9.48
  -9  -2  -2   33.08   14.46
  10   2   2    5.80   12.45
 -10  -2  -2   48.40   17.73
  11   2   2    1.53   13.28
 -11  -2  -2    9.90   17.43
   9  -3  -2   12.60   16.36
  -9   3   2   29.87   19.06
   8  -3  -2    4.25   17.54
  -8   3   2   13.83   16.38
   8  -3  -2   32.56   13.92
   7  -3  -2    0.27   14.35
   7  -3  -2   -0.66    9.99
  -7   3   2   -3.34   13.38
   6  -3  -2   26.56   10.74
   6  -3  -2    6.43   12.27
  -6   3   2    5.09   11.92
  -5   3   2   85.13   20.34
   5  -3  -2  134.74   19.57
   5  -3  -2  116.42   20.18
  -4   3   2  214.25   19.87
   4  -3  -2  243.64   26.56
  -4   3   2  173.09   26.01
   4  -3  -2  195.68   23.75
   3  -3  -2  136.13   19.45
  -3   3   2  158.31   21.16
  -3   3   2  165.79   15.14
   3  -3  -2  130.91   17.10
  -2   3   2  392.71   36.97
   2  -3  -2  480.61   39.46
   2  -3  -2  505.69   42.74
  -2   3   2  535.81   42.42
   1  -3  -2  646.04   50.26
  -1   3   2  563.75   44.99
   1  -3  -2  480.68   45.86
  -1   3   2  650.78   49.27
   0  -3  -2  552.64   42.22
   0   3   2  469.08   39.46
   0  -3  -2  441.44   42.61
   0  -3  -2  505.83   39.59
   1   3   2  388.76   32.70
  -1  -3  -2  437.11   34.57
  -1  -3  -2  352.31   33.99
   1   3   2  400.71   30.59
  -2  -3  -2    8.26    4.42
  -2  -3  -2   15.64    4.41
   2   3   2    9.31    3.94
  -2  -3  -2   16.00    6.37
  -3  -3  -2  252.70   22.08
  -3  -3  -2  259.77   24.67
   3   3   2  267.52   24.47
  -3  -3  -2  315.83   25.27
  -4  -3  -2  273.77   25.47
   4   3   2  251.36   25.07
  -4  -3  -2  252.13   25.40
   5   3   2   -0.25    5.55
  -5  -3  -2    3.21    5.71
  -5  -3  -2    0.85    6.49
  -6  -3  -2  441.27   43.56
   6   3   2  437.84   42.62
  -6  -3  -2  483.61   41.03
  -7  -3  -2  200.88   24.20
  -7  -3  -2  207.42   28.04
   7   3   2  197.41   27.48
  -8  -3  -2  114.69   20.54
   8   3   2   97.14   18.88
  -8  -3  -2   62.08   14.02
  -9  -3  -2   97.95   18.48
   9   3   2   73.17   20.15
  -9  -3  -2  122.45   23.21
 -10  -3  -2   -9.91   12.35
  10   3   2    3.25   10.46
 -11  -3  -2   58.33   20.00
  11   3   2   40.00   17.51
  -8   4   2   27.47   18.97
   8  -4  -2   61.24   22.75
   8  -4  -2   46.44   15.19
  -7   4   2  101.43   24.13
   7  -4  -2  120.03   25.43
   7  -4  -2   85.61   19.07
  -6   4   2   16.33   16.32
   6  -4  -2   24.47   14.74
   6  -4  -2   22.62    9.53
  -5   4   2   -5.72    9.43
   5  -4  -2   -3.85   10.70
   5  -4  -2   14.79    7.55
  -4   4   2   30.34   12.25
   4  -4  -2   33.41    9.56
   4  -4  -2   34.24   12.33
   3  -4  -2   68.98   12.50
  -3   4   2   79.30    9.60
  -3   4   2   96.12   17.63
   3  -4  -2   88.19   15.01
   2  -4  -2   63.75   12.44
  -2   4   2   41.29   12.28
  -2   4   2   80.78    9.00
   2  -4  -2   71.88   10.84
  -1   4   2  110.93   12.95
  -1   4   2  149.98   17.60
   1  -4  -2  112.34   16.28
   1  -4  -2  128.79   13.60
   0  -4  -2   88.62   12.82
   0  -4  -2   92.42   10.12
   0  -4  -2   68.69   11.91
   0   4   2   94.89   11.11
  -1  -4  -2  796.35   68.08
  -1  -4  -2  832.19   65.45
  -2  -4  -2  645.26   50.45
   2   4   2  519.70   48.32
  -2  -4  -2  564.74   49.40
  -2  -4  -2  658.47   48.35
  -3  -4  -2    9.88    6.00
  -3  -4  -2    8.34    3.40
  -3  -4  -2    7.47    6.29
   3   4   2    5.40    4.81
  -4  -4  -2   92.56   14.86
   4   4   2  137.29   16.87
  -4  -4  -2  141.91   16.81
  -5  -4  -2  460.32   44.82
  -5  -4  -2  552.40   44.46
   5   4   2  492.79   44.95
   6   4   2   28.44   10.61
  -6  -4  -2   26.03    8.71
  -6  -4  -2   23.48    9.39
   7   4   2  118.48   18.90
  -7  -4  -2   75.86   17.04
  -7  -4  -2   85.50   15.92
  -8  -4  -2  497.01   49.54
  -8  -4  -2  430.63   44.44
  -9  -4  -2    6.18   10.43
  -9  -4  -2   20.42   13.88
   9   4   2   11.07   11.94
  10   4   2    3.91   11.54
 -10  -4  -2   24.35   13.27
 -10  -4  -2   34.13   15.34
 -11  -4  -2  -14.35   13.33
  11   4   2   29.52   15.36
   8  -5  -2   20.73   21.79
  -8   5   2  -20.61   15.56
   8  -5  -2   -3.50   11.26
  -7   5   2   78.82   22.17
   7  -5  -2   30.97   13.38
   7  -5  -2   71.77   21.74
  -6   5   2   17.07   14.66
   6  -5  -2   15.79    9.98
   6  -5  -2    2.74   14.63
   5  -5  -2  178.35   28.46
  -5   5   2  179.31   28.56
   5  -5  -2  162.79   23.54
   4  -5  -2   14.20   11.11
  -4   5   2   11.24    9.79
   4  -5  -2    9.65    7.40
  -3   5   2   10.17    9.92
   3  -5  -2    7.74    6.40
   3  -5  -2    4.02    9.20
  -2   5   2   21.25    5.69
  -2   5   2   14.78   10.61
   2  -5  -2    9.68    5.85
   2  -5  -2   14.94    7.19
   1  -5  -2  265.43   23.53
  -1   5   2  244.64   22.10
  -1   5   2  241.20   27.05
   1  -5  -2  206.25   26.31
   0  -5  -2  331.91   28.62
   0  -5  -2  303.48   30.92
   0  -5  -2  304.91   30.52
   0   5   2  339.45   28.53
  -1  -5  -2  247.31   24.98
   1   5   2  245.04   22.40
  -1  -5  -2  220.66   21.58
   1   5   2  248.64   20.90
  -1  -5  -2  226.33   24.27
  -2  -5  -2   27.90    7.94
   2   5   2   43.70    8.32
  -2  -5  -2   25.06    6.69
  -2  -5  -2   25.64    6.68
  -3  -5  -2  673.61   49.86
  -3  -5  -2  675.42   50.58
  -3  -5  -2  575.87   50.66
   3   5   2  440.73   48.73
  -4  -5  -2  279.10   27.82
  -4  -5  -2  273.06   27.87
   4   5   2  222.68   25.68
  -4  -5  -2  258.29   22.90
   5   5   2  157.33   20.11
  -5  -5  -2  115.00   18.30
  -5  -5  -2  121.25   17.57
  -6  -5  -2   63.10   13.37
   6   5   2   39.83   11.59
  -6  -5  -2   36.06   11.47
  -7  -5  -2  265.28   31.99
   7   5   2  279.87   34.19
  -7  -5  -2  291.33   33.25
   8   5   2   80.03   18.24
  -8  -5  -2   77.31   17.65
  -8  -5  -2  108.75   20.30
  -9  -5  -2    6.54    9.28
  -9  -5  -2   10.60   12.14
   9   5   2   23.02   12.73
  10   5   2   -1.43   11.46
 -10  -5  -2   32.88   14.28
 -10  -5  -2   24.45   13.89
  11   5   2   21.55   18.00
 -11  -5  -2   12.56   14.88
   7  -6  -2    6.94   17.69
  -7   6   2   18.63   18.75
   7  -6  -2   -4.93   10.28
  -6   6   2   25.48   17.88
   6  -6  -2   57.20   20.28
   6  -6  -2   21.33   12.69
   5  -6  -2    7.76    8.16
  -5   6   2   -1.36   11.27
   5  -6  -2  -11.87   13.38
   4  -6  -2   51.81   13.32
   4  -6  -2   65.21   17.03
  -4   6   2   90.67   19.29
  -3   6   2  314.75   36.52
   3  -6  -2  295.11   36.55
   3  -6  -2  302.92   31.47
  -2   6   2   47.46   13.08
   2  -6  -2   28.39   10.94
   2  -6  -2   36.97    9.73
   1  -6  -2  134.35   21.10
  -1   6   2  147.85   21.91
  -1   6   2  178.53   17.79
   1  -6  -2  165.56   19.04
   0  -6  -2  190.38   23.07
   0   6   2  169.44   22.99
   0   6   2  204.94   20.57
   0  -6  -2  176.25   19.70
   1   6   2  131.22   16.02
  -1  -6  -2  141.02   17.65
  -1  -6  -2   99.55   15.74
  -1  -6  -2  113.96   14.94
   1   6   2  137.92   14.72
  -2  -6  -2   70.31   11.81
  -2  -6  -2   83.22   13.55
  -2  -6  -2   64.48   11.08
  -2  -6  -2   60.00   10.50
  -3  -6  -2   37.34    9.90
  -3  -6  -2   67.45   10.15
  -3  -6  -2   43.89   10.91
   3   6   2   57.45   11.36
  -4  -6  -2  272.25   25.06
  -4  -6  -2  267.39   28.88
  -4  -6  -2  267.12   29.49
   4   6   2  260.78   27.76
  -5  -6  -2  145.91   21.33
  -5  -6  -2  159.84   21.87
   5   6   2  153.90   21.34
  -6  -6  -2   13.26    9.25
   6   6   2   13.66   10.89
  -6  -6  -2   11.60    8.48
   7   6   2  171.62   25.81
  -7  -6  -2  123.64   22.41
  -7  -6  -2  183.35   25.33
  -8  -6  -2   21.23   12.83
  -8  -6  -2   53.70   14.37
   8   6   2   34.40   14.99
  -9  -6  -2   13.06   11.58
  -9  -6  -2    2.76   11.24
   9   6   2    6.48   12.00
  10   6   2   -6.71   13.57
 -10  -6  -2   16.95   13.18
 -10  -6  -2   29.55   13.53
  11   6   2  -19.48   14.95
 -11  -6  -2  -11.67   14.24
 -11  -6  -2  -10.69   13.14
   7  -7  -2   13.89   18.89
  -7   7   2   30.37   21.49
   6  -7  -2   25.00   18.22
  -6   7   2    9.23   17.36
   5  -7  -2   -5.93    7.98
  -5   7   2    1.08   14.03
   5  -7  -2   29.36   16.52
   4  -7  -2   13.75    8.57
  -4   7   2   29.40   14.11
   4  -7  -2   13.56   15.71
   3  -7  -2    1.34    7.56
   3  -7  -2   18.72   12.87
  -3   7   2    4.53    9.63
   2  -7  -2   38.44   15.09
  -2   7   2   43.06   14.35
   2  -7  -2   36.67    9.30
  -1   7   2  136.48   15.39
  -1   7   2   88.02   17.65
   1  -7  -2  131.20   21.67
   1  -7  -2   79.98   14.39
   0   7   2    2.29    8.90
   0  -7  -2   15.70    6.13
   0   7   2    3.82    7.06
   0  -7  -2   14.99    9.69
  -1  -7  -2  163.53   21.26
   1   7   2  158.27   18.01
   1   7   2  165.06   20.01
  -1  -7  -2  174.86   22.44
  -1  -7  -2  148.75   19.11
  -2  -7  -2  245.07   26.47
  -2  -7  -2  202.06   24.12
  -2  -7  -2  251.59   25.31
  -2  -7  -2  241.86   27.06
  -3  -7  -2   26.50    9.07
  -3  -7  -2   30.37    7.94
  -3  -7  -2   27.26    9.03
   3   7   2   12.61    7.77
  -4  -7  -2   37.93    7.87
   4   7   2   11.96    7.84
  -4  -7  -2   -1.21    6.98
  -4  -7  -2   15.94    7.06
   5   7   2   63.56   13.80
  -5  -7  -2   49.12   13.23
  -5  -7  -2   59.24   13.70
   6   7   2   -6.47    9.80
  -6  -7  -2    6.69    7.96
  -6  -7  -2  -15.80    7.97
   7   7   2   11.38   12.89
  -7  -7  -2    9.67    9.54
  -7  -7  -2  -18.57    7.69
   8   7   2   45.29   16.47
  -8  -7  -2   31.91   12.87
  -8  -7  -2   33.30   14.31
   9   7   2   10.27   14.39
  -9  -7  -2   13.08   12.34
  -9  -7  -2   23.22   13.02
 -10  -7  -2   -7.35   13.31
  10   7   2    7.58   15.66
 -10  -7  -2   23.96   15.29
   6  -8  -2   30.20   20.69
  -6   8   2   51.34   21.68
   5  -8  -2   44.18   20.22
  -5   8   2    7.24   14.93
  -4   8   2   32.32   15.03
   4  -8  -2   26.40   16.15
   3  -8  -2   14.98    8.94
   3  -8  -2   20.28   16.17
  -3   8   2   37.28   15.43
  -2   8   2   12.93   11.41
   2  -8  -2   -4.44    7.05
   2  -8  -2    8.63   11.67
   1  -8  -2  181.02   22.91
  -1   8   2  164.03   25.20
   1  -8  -2  196.07   29.34
   0   8   2  157.99   19.87
   0  -8  -2  136.08   23.52
   0   8   2  152.08   22.20
   0  -8  -2  118.19   17.98
  -1  -8  -2   43.01    9.80
   1   8   2   38.83   11.42
  -1  -8  -2   25.93   11.93
  -1  -8  -2   43.69   13.15
   1   8   2   52.73   10.78
  -2  -8  -2   -1.00    5.95
  -2  -8  -2    8.84    8.30
  -2  -8  -2    0.34    5.60
  -3  -8  -2  258.61   29.37
   3   8   2  230.09   27.33
  -3  -8  -2  213.95   25.75
  -3  -8  -2  212.72   26.43
  -4  -8  -2   34.54   11.31
  -4  -8  -2   17.87   10.24
   4   8   2   24.31   10.55
  -4  -8  -2    7.18    6.64
  -5  -8  -2   27.65   10.01
  -5  -8  -2   19.33    9.61
   5   8   2   -1.39    8.45
  -6  -8  -2   16.27   10.23
  -6  -8  -2   34.24   11.94
   6   8   2   21.99   11.53
   7   8   2    6.98   13.06
  -7  -8  -2   -0.05   10.99
  -7  -8  -2   11.01   10.36
  -8  -8  -2   17.64   13.96
   8   8   2   27.30   15.51
  -8  -8  -2    6.61   12.46
  -9  -8  -2   16.47   14.98
  -9  -8  -2   -4.03   13.83
   9   8   2   -1.98   14.58
 -10  -8  -2    6.02   15.13
 -10  -8  -2   -1.66   14.52
  10   8   2   -2.46   14.94
   5  -9  -2   31.32   19.35
  -5   9   2   42.16   18.92
  -4   9   2   36.69   18.51
   4  -9  -2    6.68   18.19
   3  -9  -2   13.36   13.35
  -3   9   2   20.43   15.32
  -2   9   2   67.43   18.76
   2  -9  -2   57.81   19.28
  -1   9   2  -10.37   11.16
   1  -9  -2   -0.93    8.00
   1  -9  -2    0.94   12.19
   0   9   2  149.09   23.16
   0  -9  -2   97.36   22.22
   0  -9  -2  132.06   19.88
   1   9   2   38.84   12.13
   1   9   2   65.83   13.12
  -1  -9  -2    8.07   11.68
  -1  -9  -2   48.25   13.05
   1   9   2   48.86   13.33
  -2  -9  -2   53.46   14.38
  -2  -9  -2   52.96   13.11
   2   9   2   49.72   14.10
   2   9   2   64.62   14.75
  -2  -9  -2   38.15   13.16
  -3  -9  -2   28.27    9.49
  -3  -9  -2    0.74    8.41
   3   9   2   12.22   11.12
  -3  -9  -2    7.58    9.26
   4   9   2   -3.94    9.35
  -4  -9  -2   11.81    9.68
  -4  -9  -2   11.90    8.09
   5   9   2    0.86    9.53
  -5  -9  -2   34.54   13.16
  -5  -9  -2   12.89   11.20
  -6  -9  -2   14.51   10.55
   6   9   2    9.23   10.84
  -6  -9  -2   17.91   10.85
  -7  -9  -2   20.26   12.36
  -7  -9  -2   14.12   11.30
   7   9   2   46.33   17.85
   8   9   2   -0.37   15.42
  -8  -9  -2    6.29   14.21
  -8  -9  -2   33.43   13.92
  -9  -9  -2    3.58   14.71
   9   9   2   23.45   16.72
  -9  -9  -2   26.60   16.50
   4 -10  -2  -10.20   17.29
   3 -10  -2   25.66   19.35
  -3  10   2   37.31   17.92
  -2  10   2    6.88   14.35
   2 -10  -2   12.10   16.47
   1 -10  -2   34.15   16.28
  -1  10   2   39.42   15.94
   0 -10  -2   12.23   14.21
   0  10   2   36.29   13.87
  -1 -10  -2    7.15    9.15
  -1 -10  -2   -1.84   10.67
   1  10   2   17.81   12.11
  -2 -10  -2   30.83   15.09
   2  10   2   60.35   16.34
   2  10   2   84.25   17.77
  -2 -10  -2   74.67   16.17
  -3 -10  -2   15.07   10.78
  -3 -10  -2    9.33   11.33
   3  10   2   29.20   12.34
   4  10   2   26.66   13.81
  -4 -10  -2   27.57    9.18
  -4 -10  -2    1.91    9.73
   5  10   2   68.69   18.70
  -5 -10  -2  120.03   21.37
  -5 -10  -2   61.94   17.30
   6  10   2   24.44   14.49
  -6 -10  -2   22.88   13.34
  -6 -10  -2   20.63   13.18
  -7 -10  -2    4.98   11.20
   7  10   2   10.50   13.08
  -7 -10  -2   -5.00   11.01
   8  10   2   27.72   16.81
  -8 -10  -2    3.19   13.87
   9  10   2   42.90   20.53
  -9 -10  -2   15.57   17.65
   2 -11  -2   -9.49   17.26
  -2  11   2   53.15   19.57
   1 -11  -2   -1.35   15.05
  -1  11   2   21.35   15.76
   0 -11  -2   20.58   15.73
   0  11   2   27.83   13.88
   1  11   2   36.78   14.78
  -1 -11  -2   12.64   13.94
  -2 -11  -2   -0.65   12.45
   2  11   2    6.78   11.62
  -3 -11  -2   -9.98   11.04
   3  11   2   -8.19    9.72
   3  11   2    9.86   13.47
  -3 -11  -2   15.58   13.86
  -4 -11  -2  117.58   20.18
   4  11   2  169.13   27.06
  -4 -11  -2   97.24   20.45
   5  11   2    0.28   12.86
  -5 -11  -2    0.81   11.81
  -5 -11  -2    4.12    9.48
   6  11   2   31.87   16.23
  -6 -11  -2   10.36   13.03
  -7 -11  -2    8.60   12.61
   7  11   2   -1.74   15.73
   8  11   2   11.92   19.97
  -8 -11  -2   35.44   16.76
   0 -12  -2  -13.18   15.56
   0  12   2    1.25   15.30
   1  12   2   13.97   14.19
  -1 -12  -2  -14.98   14.31
  -2 -12  -2   30.56   17.48
   2  12   2   36.51   15.91
   4  12   2   11.69   11.32
   4  12   2   30.16   15.39
  -5 -12  -2   29.89   12.59
  -6 -12  -2   11.71   12.75
  -4 -11   3    9.76   13.33
   4  11  -3   30.81   18.24
  -3 -11   3   -8.56   13.69
   2  11  -3   59.93   21.26
  -2 -11   3   28.83   16.99
   1  11  -3   18.93   20.14
  -1 -11   3   -3.55   14.16
   0  11  -3   -1.36   22.02
   0 -11   3   22.63   17.27
   6  10  -3    3.21   16.74
  -6 -10   3    8.81   11.48
  -5 -10   3   12.11   12.47
   5  10  -3    6.39   13.96
  -4 -10   3    3.60    9.87
   4  10  -3   28.94   16.24
  -3 -10   3   29.21   16.00
   3  10  -3   39.67   18.17
  -3 -10   3   21.52   11.01
  -2 -10   3    7.67   11.74
   2  10  -3   19.51   15.39
   1  10  -3   10.39   15.05
  -1 -10   3   -4.10   12.46
   0 -10   3   14.51   11.87
   0  10  -3   15.71   18.93
   1 -10   3   21.54   14.09
  -1  10  -3   14.45   16.62
  -2  10  -3   17.71   17.75
   2 -10   3    3.83   12.27
   3 -10   3    7.08   13.50
  -3  10  -3   12.00   20.06
   7   9  -3   37.13   16.57
  -7  -9   3    6.07   13.46
   6   9  -3   15.18   14.01
  -6  -9   3   -0.92   11.04
  -5  -9   3   73.96   18.20
   5   9  -3   49.23   17.05
  -4  -9   3   10.31   10.53
   4   9  -3   10.43   12.62
  -3  -9   3    2.84   13.28
   3   9  -3   26.77   15.69
  -3  -9   3   27.67   11.04
   2   9  -3   39.76   15.97
  -2  -9   3   15.41    9.51
  -2  -9   3    2.19   12.33
  -1  -9   3   -7.80    9.91
   1   9  -3    0.12   13.78
   0   9  -3   19.23   16.97
   0  -9   3    2.74    9.99
   1  -9   3    4.85   11.51
  -1   9  -3   -1.17   13.96
  -2   9  -3   23.02   14.41
   2  -9   3   29.60   13.74
   3  -9   3    1.00   11.22
  -3   9  -3   14.73   16.24
   4  -9   3   34.88   14.45
  -4   9  -3   17.62   18.12
  -8  -8   3  -12.36   16.94
   8   8  -3    6.34   16.34
   7   8  -3   13.55   13.89
  -7  -8   3  -16.75   10.53
  -6  -8   3    5.77   10.88
   6   8  -3    7.39   12.23
   5   8  -3    2.91   11.25
  -5  -8   3   -5.14    9.30
  -4  -8   3    4.75    8.25
   4   8  -3    8.81   12.03
   4   8  -3    5.74   11.21
  -3  -8   3   -1.49    9.53
   3   8  -3   29.44   13.49
  -3  -8   3    1.72    7.53
  -2  -8   3   39.02   11.99
  -2  -8   3   45.23   14.55
   2   8  -3   48.04   16.01
  -1  -8   3    8.89    6.98
   1   8  -3   -8.79   10.92
  -1  -8   3   -3.30    8.89
   0   8  -3   -4.78   11.60
   0  -8   3    6.29    9.52
   1  -8   3   23.40   12.34
  -1   8  -3   39.51   14.79
   2  -8   3   71.54   16.30
  -2   8  -3   45.98   16.93
  -3   8  -3   19.93   15.05
   3  -8   3   -4.33    8.41
   4  -8   3   24.18   14.11
  -4   8  -3   -9.16   13.73
  -5   8  -3   66.62   19.90
   5  -8   3   12.19   13.76
  -5   8  -3    5.13   15.65
  -9  -7   3   18.83   18.46
   9   7  -3   -0.53   18.31
   8   7  -3   68.87   20.61
  -8  -7   3   63.96   21.18
   7   7  -3    7.84   13.12
  -7  -7   3   -4.42   14.60
  -6  -7   3   -5.59    9.01
   6   7  -3   15.13   11.89
   5   7  -3   -1.10   11.37
  -5  -7   3    1.05    9.20
   4   7  -3   10.07   11.10
  -4  -7   3    6.54    9.01
   4   7  -3   -3.01    9.77
   3   7  -3  185.31   27.07
  -3  -7   3  176.76   25.83
  -3  -7   3  225.42   29.70
  -2  -7   3   -2.89    8.43
   2   7  -3    3.36   10.31
  -2  -7   3    0.12    7.11
  -1  -7   3   15.67    8.26
   1   7  -3   17.72   11.68
  -1  -7   3    7.05    8.97
   0   7  -3   65.08   16.58
   0  -7   3   64.25   15.16
   0  -7   3   66.52   12.76
   1  -7   3  179.28   25.17
  -1   7  -3  125.79   23.62
  -2   7  -3   51.59   16.14
  -2   7  -3   55.66   14.92
   2  -7   3   29.63   11.36
  -3   7  -3  112.14   22.40
   3  -7   3  107.14   21.27
  -3   7  -3  113.72   21.67
  -4   7  -3   16.18   15.18
  -4   7  -3    4.90   12.90
   4  -7   3   21.16   12.50
  -5   7  -3   13.95   14.94
  -5   7  -3   22.05   14.62
   5  -7   3    2.14   11.01
  -6   7  -3   28.81   14.55
   6  -7   3   35.77   15.07
  -6   7  -3   39.27   18.14
   9   6  -3   -6.71   12.41
  -9  -6   3   25.97   16.78
  -8  -6   3   16.32   14.58
   8   6  -3    5.62   14.92
  -7  -6   3   59.16   18.49
   7   6  -3   52.52   16.46
   6   6  -3   46.08   15.48
  -6  -6   3   58.25   18.16
  -5  -6   3   43.07   13.80
   5   6  -3   32.67   12.33
   4   6  -3  403.38   37.40
  -4  -6   3  386.06   38.88
   4   6  -3  302.75   38.57
   3   6  -3   15.66   10.72
  -3  -6   3    7.11    9.62
  -3  -6   3   10.09    7.17
  -2  -6   3  462.57   44.83
  -2  -6   3  421.18   39.76
   2   6  -3  420.62   43.68
   1   6  -3   -9.63    7.67
  -1  -6   3   10.63    6.27
  -1  -6   3   12.46    7.51
   0   6  -3   41.68   10.57
   0  -6   3   35.87    9.00
   0   6  -3   18.38   12.60
   0  -6   3   47.92   12.27
   1  -6   3  101.24   18.49
  -1   6  -3  109.65   17.10
   1  -6   3  132.91   15.80
  -1   6  -3   85.60   18.94
  -2   6  -3   66.77   16.59
  -2   6  -3  117.24   18.36
   2  -6   3   82.52   16.47
   3  -6   3  176.26   27.23
  -3   6  -3  188.46   26.88
  -3   6  -3  266.98   31.50
  -4   6  -3   49.96   15.81
   4  -6   3   33.54   11.84
  -4   6  -3   32.37   13.26
  -5   6  -3   19.55   14.29
   5  -6   3   -1.81    8.34
  -5   6  -3    3.01   11.70
  -6   6  -3   10.35   13.65
   6  -6   3   10.27   11.79
  -6   6  -3   37.25   15.61
  -7   6  -3   13.88   14.78
   7  -6   3   16.81   13.94
  -7   6  -3   24.76   17.85
   9   5  -3   24.63   16.71
  -9  -5   3    4.37   15.39
   8   5  -3   27.12   15.07
  -8  -5   3   78.92   19.89
   7   5  -3    2.97   11.12
  -7  -5   3   -3.78   11.37
  -6  -5   3   12.66   11.39
   6   5  -3   -8.73    7.72
   5   5  -3    4.01    9.34
  -5  -5   3    7.66    9.94
   5   5  -3    5.51    8.52
   4   5  -3   70.98   15.36
  -4  -5   3   65.87   14.19
   4   5  -3   75.02   14.46
   3   5  -3  328.09   33.07
  -3  -5   3  336.69   34.10
   2   5  -3   -2.05    8.10
  -2  -5   3   -2.50    5.80
  -2  -5   3    9.95    5.81
  -1  -5   3   26.94    7.50
   1   5  -3   25.51    7.56
   1   5  -3   13.62    9.54
  -1  -5   3   29.75    8.30
   0  -5   3   33.22    9.82
   0   5  -3   52.01   12.62
   0  -5   3   42.37    8.90
   0   5  -3   58.37   10.00
  -1   5  -3   71.53   14.69
  -1   5  -3   61.28   11.99
   1  -5   3   49.96   10.78
   1  -5   3   57.42    9.58
  -2   5  -3  213.57   23.94
   2  -5   3  186.16   25.12
  -2   5  -3  137.91   23.98
   2  -5   3  214.97   18.63
  -3   5  -3   76.49   17.24
   3  -5   3  101.38   17.53
  -3   5  -3  113.22   18.55
  -4   5  -3   29.34   12.73
   4  -5   3   33.85   11.54
  -4   5  -3   38.32   13.85
   5  -5   3   95.32   17.92
  -5   5  -3   66.03   17.12
  -5   5  -3   89.74   19.26
   6  -5   3    1.63    7.81
  -6   5  -3   -7.15   10.20
  -6   5  -3   20.17   13.56
  -7   5  -3   37.62   17.40
  -7   5  -3   18.37   14.80
   7  -5   3   30.09   14.78
   8  -5   3   21.54   15.17
  -8   5  -3   29.49   19.22
  -8   5  -3   24.18   14.71
 -10  -4   3    6.39   16.39
  10   4  -3   -0.53   14.97
   9   4  -3   12.37   14.91
  -9  -4   3    7.19   15.50
  -8  -4   3   53.47   16.92
   8   4  -3   28.32   14.97
   7   4  -3    1.78   10.72
  -7  -4   3   -3.36   10.78
   6   4  -3    0.16    8.44
  -6  -4   3    3.61   10.39
  -6  -4   3   14.90    7.98
  -5  -4   3   38.50    8.93
   5   4  -3   49.72   13.14
   5   4  -3   75.50   13.74
  -5  -4   3   46.22   14.27
   4   4  -3   40.92   11.84
   4   4  -3   36.97   10.26
  -4  -4   3   29.55   11.34
  -4  -4   3   40.65    7.67
   3   4  -3   -5.95    4.96
  -3  -4   3   10.95    4.54
  -3  -4   3   11.45    6.42
   3   4  -3   10.38    8.14
  -2  -4   3  487.44   46.19
  -2  -4   3  584.57   45.56
  -2  -4   3  516.16   41.95
   2   4  -3  514.01   47.63
  -1  -4   3  721.31   53.71
   1   4  -3  551.03   56.11
  -1  -4   3  633.09   55.42
   1   4  -3  651.42   51.55
   0   4  -3  251.83   23.30
   0  -4   3  246.77   23.51
   0  -4   3  264.35   27.61
   0   4  -3  270.54   28.61
  -1   4  -3  375.73   35.38
   1  -4   3  309.92   28.23
   1  -4   3  321.02   33.05
  -1   4  -3  329.82   30.00
  -2   4  -3  235.46   27.68
   2  -4   3  231.99   26.90
  -2   4  -3  221.94   24.90
   2  -4   3  248.47   21.06
   3  -4   3   13.35    7.69
  -3   4  -3    7.18    8.78
  -3   4  -3   20.50   10.27
   4  -4   3   -0.84    6.47
  -4   4  -3    7.49    9.14
  -4   4  -3  -17.01    9.31
   5  -4   3  -12.39    7.29
  -5   4  -3   14.01   10.44
  -5   4  -3   13.64   10.10
  -6   4  -3   26.25   12.32
  -6   4  -3   22.32   13.58
   6  -4   3   38.22   13.14
  -7   4  -3   85.25   18.88
  -7   4  -3   69.84   19.42
   7  -4   3   82.92   19.47
  -8   4  -3    2.78   11.71
  -8   4  -3   37.40   16.51
   8  -4   3   26.58   13.36
   9  -4   3   16.55   14.51
  -9   4  -3   46.27   20.50
  10   3  -3  -15.13   14.96
   9   3  -3    9.71   13.33
  -9  -3   3   -2.65   14.30
  -8  -3   3   -6.60   10.19
  -8  -3   3    3.41   12.38
   8   3  -3  -16.21    9.69
  -7  -3   3    7.04    9.90
  -7  -3   3   -0.88    9.86
   7   3  -3   20.14   13.08
  -6  -3   3  155.08   21.13
   6   3  -3  172.17   25.05
  -6  -3   3  126.00   21.22
   5   3  -3  214.33   22.77
  -5  -3   3  191.09   21.86
   5   3  -3  185.19   24.45
  -5  -3   3  165.98   24.36
  -4  -3   3  251.00   28.17
   4   3  -3  273.62   27.58
  -4  -3   3  242.53   23.77
   4   3  -3  258.88   27.70
   3   3  -3  195.00   23.05
  -3  -3   3  193.29   18.12
  -3  -3   3  208.02   23.08
   3   3  -3  214.05   21.99
  -2  -3   3  345.60   29.93
  -2  -3   3  328.61   26.75
  -2  -3   3  328.48   30.95
   2   3  -3  318.49   31.24
  -1  -3   3   62.28   10.48
   1   3  -3   92.68   13.54
  -1  -3   3   64.15   11.69
   0  -3   3  160.25   17.17
   0  -3   3  171.59   19.74
   0   3  -3  166.79   15.13
   0   3  -3  166.60   20.31
  -1   3  -3  498.57   47.96
   1  -3   3  527.23   42.77
   1  -3   3  559.91   47.01
  -1   3  -3  527.81   44.35
   2  -3   3    4.49    6.62
   2  -3   3   20.52    4.63
  -2   3  -3    7.68    6.26
  -2   3  -3   23.17    7.66
  -3   3  -3  120.98   16.99
  -3   3  -3   97.56   17.30
   3  -3   3  117.64   11.06
   3  -3   3  137.07   18.18
   4  -3   3   17.09    8.76
  -4   3  -3    2.71    8.76
  -4   3  -3   34.68   10.46
   5  -3   3  124.59   19.03
  -5   3  -3   55.24   14.10
  -5   3  -3   46.65   14.34
  -6   3  -3   15.55    9.44
  -6   3  -3    1.81   10.51
   6  -3   3   16.50    9.14
   7  -3   3  101.30   20.67
  -7   3  -3   70.26   19.48
  -7   3  -3   72.83   16.82
  -8   3  -3   42.49   14.62
   8  -3   3   50.55   16.90
  -8   3  -3   63.01   19.34
   9  -3   3    7.33   13.74
  -9   3  -3  -11.17   15.47
  10   2  -3   51.68   19.26
 -10  -2   3   15.72   18.86
  -9  -2   3    9.07   13.42
   9   2  -3  -13.40   11.62
  -9  -2   3   11.11   16.10
  -8  -2   3   36.14   14.58
   8   2  -3   33.10   13.22
  -8  -2   3   67.45   18.29
  -7  -2   3   21.06   11.74
   7   2  -3    5.78   10.44
  -7  -2   3   -7.61    8.40
  -6  -2   3  150.10   21.07
   6   2  -3  103.15   16.77
   6   2  -3  154.88   22.32
  -6  -2   3  130.79   20.74
  -5  -2   3  335.17   31.83
   5   2  -3  307.88   31.27
   5   2  -3  355.52   35.28
  -5  -2   3  297.40   33.37
   4   2  -3    0.17    5.67
  -4  -2   3    7.57    6.73
   4   2  -3   18.15    7.53
  -4  -2   3   18.70    7.57
   3   2  -3   74.81   12.20
  -3  -2   3   73.36   10.06
  -3  -2   3   56.12   10.46
   3   2  -3   43.02    9.83
  -2  -2   3   39.99    5.62
   2   2  -3   49.97    9.33
   2   2  -3   46.12    9.15
  -2  -2   3   39.33    8.98
   1   2  -3  107.15   13.77
  -1  -2   3   94.36   12.91
  -1  -2   3  108.28   13.79
   0   2  -3  409.08   39.32
   0  -2   3  510.44   39.02
   0  -2   3  407.11   36.59
   1  -2   3  306.83   27.02
   1  -2   3  321.26   29.67
  -1   2  -3  333.47   30.42
  -1   2  -3  321.55   27.58
   2  -2   3  535.21   39.97
  -2   2  -3  453.45   42.40
   2  -2   3  500.44   43.60
  -2   2  -3  506.67   45.28
   3  -2   3    7.09    6.36
  -3   2  -3   -5.47    5.53
  -3   2  -3    3.22    6.01
   3  -2   3   11.00    2.92
   4  -2   3  200.56   25.36
   4  -2   3  209.35   17.86
  -4   2  -3  225.46   24.59
  -4   2  -3  218.67   24.59
  -5   2  -3  283.86   32.77
   5  -2   3  375.09   36.27
  -5   2  -3  315.28   34.53
   6  -2   3   21.63   10.92
  -6   2  -3   28.04   10.92
  -6   2  -3   47.22   14.11
  -7   2  -3   13.89   12.77
   7  -2   3   16.25   11.07
  -7   2  -3   13.15    9.69
   8  -2   3   93.19   19.42
  -8   2  -3   38.52   17.70
  -9   2  -3   36.96   19.02
   9  -2   3   -0.46   12.96
 -10   2  -3   22.86   20.60
  10  -2   3   17.51   15.60
 -10  -1   3   52.47   20.29
  10   1  -3    6.97   15.52
  -9  -1   3   10.17   17.16
   9   1  -3   22.36   14.27
   8   1  -3   18.65   13.26
  -8  -1   3   15.49   12.23
  -8  -1   3    9.13   11.96
  -7  -1   3   26.01   11.27
   7   1  -3   22.54   11.37
  -7  -1   3   34.50   12.73
  -6  -1   3   44.49   13.01
   6   1  -3   77.88   13.77
   6   1  -3   62.48   15.23
  -6  -1   3   44.81   14.51
  -5  -1   3   12.10    8.29
   5   1  -3   27.97    8.93
   5   1  -3   18.18    8.61
  -5  -1   3   26.49   10.69
   4   1  -3  186.58   21.43
  -4  -1   3  151.48   19.33
  -4  -1   3  153.54   19.15
   4   1  -3  175.30   19.88
   3   1  -3   18.44    6.22
   3   1  -3   19.99    7.31
  -3  -1   3   14.80    6.90
  -3  -1   3   15.20    6.82
  -2  -1   3  697.45   59.16
   2   1  -3  727.49   62.46
   2   1  -3  779.94   60.51
  -1  -1   3  417.64   36.12
  -1  -1   3  469.09   37.99
   1   1  -3  504.24   39.81
   0  -1   3  550.17   49.79
   0   1  -3  626.60   47.65
   0  -1   3  604.72   48.35
   1  -1   3   12.75    4.47
  -1   1  -3    4.14    5.46
  -1   1  -3    9.19    3.97
   1  -1   3    7.44    4.92
  -2   1  -3 1236.50  110.05
   2  -1   3 1462.35  102.22
   2  -1   3 1299.01  107.65
   3  -1   3  575.65   47.23
  -3   1  -3  570.71   51.45
   3  -1   3  721.30   52.69
  -3   1  -3  583.98   52.50
   4  -1   3  593.26   47.28
   4  -1   3  571.54   52.93
  -4   1  -3  666.86   53.22
  -4   1  -3  586.91   52.62
   5  -1   3  183.08   17.81
  -5   1  -3  206.81   24.47
  -5   1  -3  194.66   22.36
   5  -1   3  214.25   25.19
  -6   1  -3  303.81   33.40
   6  -1   3  282.28   32.78
  -6   1  -3  273.34   29.64
   7  -1   3  193.98   29.12
  -7   1  -3  204.53   30.64
  -7   1  -3  252.04   26.44
  -8   1  -3    9.63   14.09
   8  -1   3   -8.78    8.53
   9  -1   3   12.01   11.50
  -9   1  -3   15.61   16.99
 -10   1  -3    6.14   18.24
  10  -1   3   -2.53   12.01
  -9   0   3    3.91   14.39
   9   0  -3   -8.75   11.97
  -8   0   3   39.21   16.69
   8   0  -3    2.27   12.09
   7   0  -3   30.95   13.72
   7   0  -3   63.49   15.38
  -7   0   3   49.53   16.00
  -7   0   3   48.48   12.87
  -6   0   3   66.22   16.52
   6   0  -3   73.79   13.74
  -6   0   3   66.08   14.15
   6   0  -3   80.08   16.19
   5   0  -3   -8.24    6.43
  -5   0   3   -0.41    9.19
   5   0  -3   16.24    6.95
  -5   0   3    7.31    6.40
   4   0  -3   11.55    6.42
  -4   0   3   14.42    7.14
  -4   0   3   26.35    8.97
   4   0  -3    8.25    6.33
   3   0  -3  417.97   39.61
  -3   0   3  502.81   40.60
   3   0  -3  411.03   40.69
  -3   0   3  499.81   39.44
  -2   0   3   25.70    6.83
   2   0  -3   40.14    8.59
   2   0  -3   15.75    5.05
  -2   0   3   32.46    8.08
  -1   0   3  558.56   44.38
   1   0  -3  489.46   46.74
   1   0  -3  560.71   44.29
   0   0  -3   10.66    5.36
   0   0   3    7.39    4.07
   0   0   3   14.96    5.37
   0   0  -3   12.25    4.29
  -1   0  -3  349.30   28.88
  -1   0  -3  301.15   26.87
   1   0   3  296.74   27.13
   1   0   3  337.63   26.68
  -2   0  -3  515.30   43.03
   2   0   3  496.55   40.82
  -2   0  -3  526.74   44.20
   2   0   3  509.51   42.98
   3   0   3   69.56   10.75
  -3   0  -3   60.89   11.44
  -3   0  -3   70.50   10.06
   3   0   3   58.33    8.65
  -4   0  -3  820.17   66.26
   4   0   3  777.82   66.17
  -4   0  -3  825.56   67.59
   4   0   3  727.29   61.14
  -5   0  -3   95.47   13.54
  -5   0  -3  123.49   19.57
   5   0   3  108.87   12.46
   5   0   3   84.45   15.98
   6   0   3  397.52   36.29
  -6   0  -3  292.88   29.30
  -6   0  -3  370.84   37.54
   6   0   3  275.60   27.25
  -7   0  -3   -2.47   11.14
   7   0   3   19.49   10.50
  -7   0  -3   21.59    7.64
   8   0   3    9.47   10.48
  -8   0  -3   20.79   14.10
   9   0   3   -9.77    9.92
  -9   0  -3   23.81   15.08
  10   0   3    8.98   13.14
 -10   0  -3   24.55   18.30
   9  -1  -3    7.19   14.90
  -9   1   3   34.16   16.60
   8  -1  -3   31.35   13.91
  -8   1   3   36.79   16.56
  -7   1   3   68.93   17.09
   7  -1  -3   49.57   15.63
   7  -1  -3   73.62   18.35
  -6   1   3  133.05   19.25
   6  -1  -3  135.04   21.06
  -6   1   3  127.80   22.71
   6  -1  -3  150.97   22.06
   5  -1  -3   16.57    8.76
   5  -1  -3   24.93    9.12
  -5   1   3   33.90   11.71
  -5   1   3    8.09    6.29
   4  -1  -3   14.66    6.80
  -4   1   3   37.95   11.01
   4  -1  -3   21.75    7.81
  -4   1   3    5.75    6.08
   3  -1  -3    8.53    5.90
   3  -1  -3    7.81    5.42
  -3   1   3    3.52    6.65
  -3   1   3    2.16    5.83
   2  -1  -3  379.09   36.74
  -2   1   3  400.88   34.72
  -2   1   3  462.71   36.83
   2  -1  -3  402.13   34.76
   1  -1  -3 1898.16  146.40
   1  -1  -3 1839.30  152.73
  -1   1   3 1902.22  149.06
   0  -1  -3  580.69   48.59
   0  -1  -3  484.38   46.64
   0   1   3  613.77   44.72
   1   1   3  402.41   29.40
  -1  -1  -3  380.21   31.07
  -1  -1  -3  312.62   29.71
   1   1   3  319.16   28.45
   2   1   3  529.30   36.58
  -2  -1  -3  416.99   37.95
   2   1   3  451.57   36.95
  -2  -1  -3  392.44   37.46
   3   1   3  519.12   40.64
  -3  -1  -3  476.31   42.27
   3   1   3  457.69   42.30
  -3  -1  -3  560.40   43.74
   4   1   3  469.64   39.59
   4   1   3  482.49   37.09
  -4  -1  -3  478.66   42.93
   4   1   3  422.00   42.09
  -4  -1  -3  524.94   41.32
   5   1   3  276.00   26.07
  -5  -1  -3  309.73   31.66
   5   1   3  303.14   30.77
  -5  -1  -3  287.17   26.55
   5   1   3  292.76   24.56
  -6  -1  -3  228.63   22.93
  -6  -1  -3  232.63   29.87
   6   1   3  250.10   23.81
   6   1   3  234.08   21.49
   6   1   3  253.02   28.93
   7   1   3   40.39    8.85
  -7  -1  -3   37.99   13.86
   7   1   3   24.40    7.01
   7   1   3   33.46   12.45
   8   1   3    8.74    9.66
  -8  -1  -3    4.49   10.02
  -9  -1  -3   59.28   19.17
   9   1   3   31.74   14.31
  10   1   3   84.12   20.76
 -10  -1  -3   36.18   20.53
  11   1   3   28.11   15.91
 -11  -1  -3   21.62   19.92
  -9   2   3   38.15   19.81
   9  -2  -3   11.37   15.89
  -8   2   3   46.57   17.15
   8  -2  -3   22.14   14.43
  -7   2   3   11.90   13.67
   7  -2  -3   23.42   15.11
   7  -2  -3   10.89   11.68
   6  -2  -3  152.92   24.49
   6  -2  -3  136.13   22.23
  -6   2   3  132.28   24.24
  -5   2   3   -5.33    9.86
   5  -2  -3    6.62    8.09
  -5   2   3    4.23    6.55
   5  -2  -3    0.54    7.50
   4  -2  -3  282.28   29.65
  -4   2   3  249.90   30.21
   4  -2  -3  263.72   27.90
  -4   2   3  275.54   26.27
   3  -2  -3  461.46   39.96
  -3   2   3  451.67   42.40
   3  -2  -3  435.53   42.50
  -3   2   3  481.56   39.14
   2  -2  -3  494.88   44.84
   2  -2  -3  465.19   41.65
  -2   2   3  549.67   41.35
  -2   2   3  505.55   44.25
   1  -2  -3  129.82   11.94
   1  -2  -3  118.06   15.34
  -1   2   3  116.19   13.39
  -1   2   3  149.47   15.95
   0  -2  -3  476.99   39.44
   0   2   3  428.05   37.69
   0  -2  -3  478.00   40.42
  -1  -2  -3  468.59   36.49
   1   2   3  418.52   34.51
  -1  -2  -3  490.50   36.31
   1   2   3  366.14   32.73
  -2  -2  -3  189.10   18.27
   2   2   3  171.74   17.70
  -2  -2  -3  173.69   17.42
   2   2   3  198.03   16.85
   3   2   3  217.70   20.61
  -3  -2  -3  249.01   22.46
   3   2   3  221.75   18.91
  -3  -2  -3  192.15   19.36
   3   2   3  212.49   20.43
   4   2   3  359.47   36.98
   4   2   3  439.47   33.16
   4   2   3  465.90   35.86
  -4  -2  -3  443.93   38.42
  -4  -2  -3  402.18   35.27
   5   2   3   73.24   11.38
  -5  -2  -3   76.66   14.85
   5   2   3  104.75   15.11
   5   2   3   72.46   10.30
  -5  -2  -3   74.46    9.37
  -6  -2  -3   16.15    5.43
  -6  -2  -3    9.47    9.93
   6   2   3   11.80    8.88
  -7  -2  -3   95.45   20.25
   7   2   3  117.60   19.93
  -8  -2  -3   42.55   14.48
   8   2   3   -4.83    7.48
  -9  -2  -3   15.41   15.03
   9   2   3   -2.04   10.90
  10   2   3   10.56   11.25
 -10  -2  -3   19.13   15.61
 -11  -2  -3   16.17   19.48
  11   2   3   21.40   15.41
   9  -3  -3   15.99   15.39
  -9   3   3   33.65   18.11
   8  -3  -3   -3.11   12.67
  -8   3   3    0.99   14.92
   8  -3  -3    2.43   17.74
   7  -3  -3   34.39   16.83
  -7   3   3   11.35   14.83
   7  -3  -3   15.76   12.50
   6  -3  -3    7.64    9.90
   6  -3  -3   -1.10   11.54
  -6   3   3   28.64   13.25
  -5   3   3   -0.58   10.59
   5  -3  -3   -1.51    7.85
   5  -3  -3    1.90    9.26
  -4   3   3   10.82   10.13
   4  -3  -3   22.00    8.88
  -4   3   3   29.75    8.02
   4  -3  -3   24.13    9.70
   3  -3  -3  387.34   36.83
  -3   3   3  376.28   32.33
   3  -3  -3  369.02   33.92
  -3   3   3  367.32   37.94
  -2   3   3  151.46   18.53
   2  -3  -3  123.47   14.19
   2  -3  -3  130.60   17.83
  -2   3   3  136.51   14.86
   1  -3  -3  521.85   43.54
  -1   3   3  540.30   43.84
  -1   3   3  496.39   46.91
   1  -3  -3  620.32   48.84
   0  -3  -3   75.72    6.93
   0  -3  -3   74.77   11.27
   0  -3  -3   85.31   11.94
   0   3   3   76.74   10.50
  -1  -3  -3  477.73   35.47
  -1  -3  -3  382.47   35.16
   1   3   3  417.72   33.40
   1   3   3  361.67   31.52
   2   3   3   25.41    6.37
   2   3   3   34.56    7.74
  -2  -3  -3   34.38    8.11
  -2  -3  -3   30.07    6.32
   2   3   3   27.72    5.42
   3   3   3  498.22   40.89
  -3  -3  -3  443.91   40.28
  -3  -3  -3  518.51   42.29
   3   3   3  528.39   37.95
   3   3   3  469.63   40.40
  -4  -3  -3  698.78   59.97
  -4  -3  -3  855.61   63.81
  -5  -3  -3  714.75   56.10
  -5  -3  -3  694.85   59.41
   5   3   3  625.46   58.51
   6   3   3    8.75    7.78
  -6  -3  -3    4.54    5.79
  -6  -3  -3   -7.25    8.16
  -7  -3  -3    6.11    6.33
  -7  -3  -3  -15.01    9.64
   7   3   3    4.00    9.40
  -8  -3  -3   55.15   12.56
  -8  -3  -3  101.44   20.27
   8   3   3   90.64   18.04
  -9  -3  -3    8.91   12.16
   9   3   3    9.05   11.54
  -9  -3  -3    8.26    8.63
  10   3   3    7.45   12.86
 -10  -3  -3   -7.12   14.35
  11   3   3    7.21   15.26
 -11  -3  -3   16.38   17.51
   8  -4  -3    1.35   11.01
   8  -4  -3   42.78   20.92
  -8   4   3   38.12   19.89
  -7   4   3   10.88   13.79
   7  -4  -3    3.71   15.49
   7  -4  -3   -4.21   10.42
   6  -4  -3   -2.49   11.50
  -6   4   3   12.86   13.72
   6  -4  -3    3.88    9.35
  -5   4   3   -1.74   10.59
   5  -4  -3   11.18    7.85
   5  -4  -3   -5.01    9.40
  -4   4   3   53.99   14.43
   4  -4  -3   26.78   12.75
   4  -4  -3   51.97   10.88
  -3   4   3  347.03   35.46
  -3   4   3  310.25   28.03
   3  -4  -3  347.67   35.36
   3  -4  -3  299.25   29.76
   2  -4  -3    4.30    5.96
  -2   4   3   -5.13    6.63
   2  -4  -3   -6.16    3.63
  -2   4   3   -0.52    4.13
   1  -4  -3  440.80   41.04
  -1   4   3  512.04   41.67
  -1   4   3  501.66   45.15
   1  -4  -3  625.95   46.96
   0  -4  -3  301.86   28.62
   0   4   3  300.21   26.26
   0  -4  -3  299.12   24.64
   0  -4  -3  269.73   27.82
   1   4   3    6.92    3.44
  -1  -4  -3   -2.29    3.73
  -1  -4  -3    7.87    5.58
   1   4   3    8.80    5.42
  -2  -4  -3  422.65   34.21
  -2  -4  -3  399.17   35.02
   2   4   3  392.98   31.21
   2   4   3  354.53   31.88
   2   4   3  360.36   33.31
  -3  -4  -3  468.79   41.66
   3   4   3  521.78   39.86
  -3  -4  -3  421.17   39.14
   3   4   3  484.55   39.72
   3   4   3  449.43   36.53
  -4  -4  -3   26.38    8.22
  -4  -4  -3   41.26    5.14
  -4  -4  -3   21.11    7.89
   4   4   3   42.08    8.89
  -5  -4  -3  238.17   25.08
  -5  -4  -3  244.41   27.21
   5   4   3  227.58   25.83
  -6  -4  -3  271.89   31.68
   6   4   3  283.70   31.01
  -6  -4  -3  289.82   29.87
  -7  -4  -3   59.05   13.27
  -7  -4  -3   51.48   14.35
   7   4   3   60.31   15.06
  -8  -4  -3   10.20    7.90
  -8  -4  -3   11.08   11.52
   8   4   3   10.89   11.56
   9   4   3   -2.17    9.51
  -9  -4  -3   28.78   11.03
  -9  -4  -3   51.55   16.82
 -10  -4  -3   25.17   15.73
  10   4   3   35.88   16.23
 -10  -4  -3   16.49   10.41
 -11  -4  -3   18.83   17.33
  11   4   3   50.64   19.49
  -8   5   3   49.75   22.80
   8  -5  -3   59.11   23.81
  -7   5   3   11.33   16.87
   7  -5  -3   21.44   17.29
  -6   5   3   68.00   19.49
   6  -5  -3   39.23   13.72
   6  -5  -3   71.29   18.91
  -5   5   3   67.30   18.61
   5  -5  -3   75.96   18.95
   5  -5  -3   61.40   14.19
   4  -5  -3   -3.25   10.09
   4  -5  -3    5.02    6.16
  -4   5   3   10.93   10.90
  -3   5   3   15.90    9.99
   3  -5  -3   22.91    7.78
   3  -5  -3    6.92   10.60
  -2   5   3   85.08   16.75
   2  -5  -3   88.17   15.66
   2  -5  -3   92.26   12.55
  -2   5   3   62.85   10.82
   1  -5  -3  119.69   14.18
   1  -5  -3  141.02   19.11
  -1   5   3  152.03   15.80
  -1   5   3  105.00   17.37
   0  -5  -3  326.43   33.50
   0  -5  -3  369.88   29.80
   0  -5  -3  322.16   32.49
   0   5   3  348.86   30.67
   1   5   3  547.70   47.56
  -1  -5  -3  578.98   46.71
  -1  -5  -3  523.68   50.53
  -1  -5  -3  653.38   51.44
  -2  -5  -3   33.57    7.82
  -2  -5  -3   52.90   10.25
   2   5   3   50.82    8.19
   2   5   3   39.20    9.11
   2   5   3   56.66    9.47
  -3  -5  -3  295.30   30.23
   3   5   3  316.98   28.76
   3   5   3  332.29   27.67
  -3  -5  -3  343.07   29.03
   3   5   3  298.58   29.44
  -4  -5  -3   29.44    5.15
  -4  -5  -3   30.68    8.59
  -4  -5  -3   12.97    6.64
   4   5   3   21.00    7.54
   5   5   3    1.14    5.94
  -5  -5  -3    1.53    5.93
  -5  -5  -3   18.73    7.52
  -6  -5  -3   30.73   10.82
   6   5   3   50.27   12.60
  -6  -5  -3   23.31   10.23
  -7  -5  -3   86.32   16.14
   7   5   3   66.68   15.87
  -7  -5  -3  104.14   19.20
   8   5   3   40.35   14.24
  -8  -5  -3   53.05   15.48
  -8  -5  -3   31.38   11.72
   9   5   3   78.91   20.65
  -9  -5  -3  116.03   19.28
  -9  -5  -3   57.49   18.88
 -10  -5  -3  -15.36   13.25
 -10  -5  -3   -1.69    9.35
  10   5   3   16.56   14.03
 -11  -5  -3   21.99   16.75
  11   5   3   -5.39   13.10
  -7   6   3   39.62   20.82
   7  -6  -3   16.55   20.65
  -6   6   3   -4.23   14.48
   6  -6  -3   11.21   16.07
   5  -6  -3    2.14   13.01
  -5   6   3    7.75   14.24
   5  -6  -3    6.83    8.18
   4  -6  -3   45.87   11.26
  -4   6   3   26.34   15.30
   4  -6  -3   47.61   16.75
  -3   6   3   19.50   12.40
   3  -6  -3   28.97   13.04
   3  -6  -3   23.72    8.61
   2  -6  -3  320.33   32.42
  -2   6   3  361.24   38.39
   2  -6  -3  339.76   38.54
  -2   6   3  376.47   31.07
  -1   6   3   15.34    8.75
  -1   6   3   12.74    7.09
   1  -6  -3   12.90    8.37
   1  -6  -3   19.85    5.91
   0  -6  -3   28.02    9.14
   0  -6  -3   45.31   10.20
   0  -6  -3   38.51    7.48
   0   6   3   36.44    9.10
  -1  -6  -3   33.99    9.13
  -1  -6  -3   39.51    6.91
   1   6   3   36.34    9.28
  -1  -6  -3   35.29    9.02
  -2  -6  -3  118.28   15.88
   2   6   3  125.10   16.71
  -2  -6  -3  130.03   18.12
   2   6   3  123.96   15.12
   2   6   3   98.90   14.35
  -3  -6  -3  110.64   14.12
   3   6   3  126.21   15.31
  -3  -6  -3  109.99   16.78
   3   6   3   89.47   15.45
   4   6   3  248.67   25.52
  -4  -6  -3  222.64   22.47
  -4  -6  -3  251.87   26.29
  -4  -6  -3  258.60   27.45
   5   6   3  231.29   26.71
  -5  -6  -3  224.65   27.68
  -5  -6  -3  212.56   26.33
  -6  -6  -3  104.50   18.46
   6   6   3  132.62   20.30
  -6  -6  -3  115.33   19.00
  -7  -6  -3    1.04    9.37
   7   6   3   30.79   12.11
  -7  -6  -3    9.83    9.92
  -8  -6  -3    5.36   10.55
   8   6   3   -3.02    8.41
  -8  -6  -3   -3.20    9.76
  -9  -6  -3  -14.17    8.94
  -9  -6  -3   -3.83   11.71
   9   6   3   21.00   14.56
  10   6   3   50.91   17.52
 -10  -6  -3   14.24   15.03
 -10  -6  -3   19.68   11.14
 -11  -6  -3   12.04   16.54
  11   6   3   21.39   17.87
 -11  -6  -3   23.08   13.37
   6  -7  -3   23.47   19.04
  -6   7   3   -1.63   16.17
  -5   7   3   33.86   16.89
   5  -7  -3   16.92   16.05
   4  -7  -3   45.85   18.04
  -4   7   3   37.11   16.47
  -3   7   3   16.48   12.37
   3  -7  -3   22.62   13.76
  -2   7   3   32.20   13.78
   2  -7  -3   34.20   13.48
   2  -7  -3   41.05    9.67
   1  -7  -3  193.19   27.19
  -1   7   3  137.22   24.26
   1  -7  -3  204.84   21.67
  -1   7   3  229.89   22.36
   0  -7  -3   47.79    9.30
   0   7   3   55.01   13.81
   0   7   3   51.13   11.18
   0  -7  -3   49.10   12.84
   1   7   3   25.22    8.98
  -1  -7  -3   12.58    8.68
  -1  -7  -3   15.40    5.94
  -1  -7  -3   28.57    9.06
   2   7   3   68.18   11.98
  -2  -7  -3   44.48   10.05
   2   7   3   39.59   11.29
  -2  -7  -3   47.27   11.69
   3   7   3  121.88   18.96
  -3  -7  -3  156.84   20.85
  -3  -7  -3  104.85   16.75
   3   7   3  164.53   19.22
   3   7   3  126.01   17.10
  -4  -7  -3  670.14   57.51
   4   7   3  767.33   58.76
  -4  -7  -3  548.36   59.03
  -4  -7  -3  685.45   57.35
  -5  -7  -3   44.09   12.77
   5   7   3  103.29   16.46
  -5  -7  -3   89.81   16.27
  -6  -7  -3   26.45   11.57
  -6  -7  -3   27.11   11.28
   6   7   3   28.39   12.29
  -7  -7  -3   99.76   20.08
   7   7   3  132.04   21.90
  -7  -7  -3   84.70   18.17
   8   7   3   -8.09   11.54
  -8  -7  -3   -5.04   10.69
  -8  -7  -3    1.72    9.06
  -9  -7  -3    9.78   11.69
   9   7   3   39.85   14.24
  -9  -7  -3   17.49   13.02
 -10  -7  -3   13.56   12.44
 -10  -7  -3   15.76   14.81
  10   7   3    5.16   15.40
  -5   8   3   -8.43   14.95
   5  -8  -3   15.28   17.85
  -4   8   3   36.41   16.58
   4  -8  -3   -2.24   16.80
   3  -8  -3   10.71   14.17
  -3   8   3   11.40   13.17
   2  -8  -3   24.80   12.38
  -2   8   3   13.07   11.52
  -1   8   3    0.14    9.52
   1  -8  -3   -0.58   10.30
   0  -8  -3   11.30   11.26
   0  -8  -3   27.24    7.31
   0   8   3   18.59   10.52
   0   8   3   28.54   10.36
   1   8   3  121.41   18.22
  -1  -8  -3  118.09   20.13
  -1  -8  -3   80.28   17.76
  -1  -8  -3  108.94   15.17
   2   8   3  229.66   24.68
  -2  -8  -3  235.77   23.87
  -2  -8  -3  171.51   25.43
  -2  -8  -3  191.35   26.36
   2   8   3  218.51   26.71
   3   8   3   62.30   15.20
   3   8   3   53.34   13.65
  -3  -8  -3   73.94   13.16
   3   8   3   79.79   14.28
  -3  -8  -3   75.74   16.20
   4   8   3   65.15   13.38
  -4  -8  -3   51.97   10.26
  -4  -8  -3   33.93   12.91
  -4  -8  -3   57.39   12.98
  -5  -8  -3   14.88    8.08
   5   8   3    4.06    8.54
  -5  -8  -3    6.75    8.44
  -6  -8  -3   42.78   12.50
  -6  -8  -3   42.04   13.00
   6   8   3   44.04   13.84
   7   8   3   17.19   13.20
  -7  -8  -3   29.75   12.88
  -7  -8  -3   27.57   12.06
  -8  -8  -3    5.49   12.39
   8   8   3    2.09   12.40
  -8  -8  -3    8.35   12.38
  -9  -8  -3  -14.59   12.45
   9   8   3    4.53   14.78
  -9  -8  -3   12.63   12.06
  10   8   3   20.69   18.05
 -10  -8  -3   31.31   17.78
 -10  -8  -3   66.39   17.56
  -5   9   3   12.14   18.33
   5  -9  -3  -16.95   18.22
  -4   9   3   26.38   16.35
   4  -9  -3   10.88   17.48
  -3   9   3   70.77   18.96
   3  -9  -3   27.80   17.27
   2  -9  -3   14.55   14.61
  -2   9   3   10.89   13.07
  -1   9   3   32.48   13.37
   1  -9  -3   35.52   16.69
   0  -9  -3   68.32   18.48
   0   9   3   46.14   14.33
   1   9   3    9.41   10.59
  -1  -9  -3   12.52   11.50
   1   9   3   17.66   10.65
   2   9   3    5.37   10.34
  -2  -9  -3    4.77    9.89
  -2  -9  -3   -0.84    6.09
  -2  -9  -3   21.94   10.22
   2   9   3   32.08   13.31
   3   9   3   38.73   11.23
  -3  -9  -3   17.20   11.06
  -3  -9  -3   26.13   11.32
   3   9   3   32.28   11.10
   3   9   3   43.53   12.50
   4   9   3   70.24   16.13
  -4  -9  -3   52.07   14.91
  -5  -9  -3   17.52    9.22
  -5  -9  -3    0.87    9.37
   5   9   3   21.55   11.03
  -6  -9  -3   77.63   18.70
  -6  -9  -3  103.34   18.89
   6   9   3  117.14   21.56
   7   9   3   -8.54   13.00
  -7  -9  -3    6.85   11.79
  -7  -9  -3    5.90   10.28
  -8  -9  -3   36.63   14.34
   8   9   3   16.76   14.76
  -8  -9  -3   19.64   13.58
  -9  -9  -3    6.17   15.23
  -9  -9  -3   22.18   13.54
   9   9   3   32.21   17.75
 -10  -9  -3   31.34   15.19
  10   9   3   -9.83   16.90
 -10  -9  -3    8.81   17.46
   3 -10  -3   20.38   18.79
  -3  10   3   22.05   17.03
   2 -10  -3    6.49   16.65
  -2  10   3   23.11   15.08
  -1  10   3   22.99   13.48
   1 -10  -3    4.23   12.30
   0  10   3   17.74   12.47
   0 -10  -3   15.89   15.04
  -1 -10  -3   -1.33   11.21
   1  10   3    7.85   11.34
  -2 -10  -3   23.82   12.27
  -2 -10  -3    4.04   11.60
   2  10   3   24.31   13.19
   2  10   3   21.26   14.45
  -3 -10  -3    2.66   11.50
   3  10   3   -6.06    9.05
   3  10   3   11.98   12.41
  -3 -10  -3    2.63    9.61
  -4 -10  -3   15.61   10.37
   4  10   3   16.14   11.16
   4  10   3   18.95   11.72
   4  10   3    7.08   11.16
  -5 -10  -3   23.70   12.52
   5  10   3   31.73   13.64
  -5 -10  -3   23.15   10.84
   6  10   3   44.12   15.74
  -6 -10  -3   33.48   13.15
  -6 -10  -3   23.10   14.35
  -7 -10  -3   18.48   10.86
  -7 -10  -3   14.94   11.77
   7  10   3   17.99   16.90
  -8 -10  -3   16.18   14.42
  -8 -10  -3   35.96   14.93
   8  10   3   21.84   17.24
  -9 -10  -3   22.55   15.38
  -9 -10  -3   19.06   11.88
   9  10   3   30.43   20.76
  -2  11   3   30.70   18.08
   2 -11  -3  -23.98   17.13
  -1  11   3   10.07   13.64
   1 -11  -3    9.93   17.01
   0  11   3   18.26   12.41
   0 -11  -3   30.67   16.57
  -1 -11  -3   19.34   15.21
   1  11   3   13.80   13.44
  -2 -11  -3   18.72   13.91
   2  11   3   14.62   12.00
  -3 -11  -3   59.09   17.79
   3  11   3   72.30   18.49
  -3 -11  -3   45.85   17.19
   3  11   3   34.03   17.51
   4  11   3   37.67   14.57
  -4 -11  -3   27.84   13.83
   4  11   3   29.98   14.98
   5  11   3   27.84   13.88
   5  11   3   43.58   15.42
  -5 -11  -3   27.64   15.49
  -6 -11  -3   24.50   15.00
   7  11   3   -8.30   18.75
  -7 -11  -3   25.39   15.90
  -7 -11  -3   -3.07    9.63
   8  11   3    5.35   19.84
  -8 -11  -3   16.18   12.00
   0  12   3   17.93   14.93
   0 -12  -3   14.52   17.88
  -1 -12  -3  -13.61   15.57
   1  12   3   53.89   17.04
   2  12   3   18.78   14.25
  -2 -12  -3   26.17   16.43
   3  12   3   75.66   17.44
  -4 -12  -3    0.94   14.82
   4  12   3    0.91   12.51
   4  12   3   -0.50   14.54
   5  12   3    4.61   14.33
  -5 -12  -3   16.40   14.63
   5  12   3   20.00   14.38
   6  12   3   13.95   14.69
   6  12   3   17.07   13.51
   5  10  -4   18.29   16.85
  -5 -10   4   15.09   12.54
   4  10  -4   50.24   18.93
  -4 -10   4   16.41   11.13
  -3 -10   4   -0.22   15.54
   3  10  -4   -6.88   16.25
  -3 -10   4   15.90   12.15
   2  10  -4   52.65   21.27
  -2 -10   4   34.99   17.04
   1  10  -4   30.08   17.14
  -1 -10   4    9.56   15.37
   0  10  -4   27.51   18.48
   0 -10   4    0.16   14.28
   1 -10   4   22.09   16.83
  -1  10  -4   71.26   22.15
  -2  10  -4   26.80   19.78
   2 -10   4   14.97   16.09
   7   9  -4    8.90   14.38
  -7  -9   4    2.46   15.59
   6   9  -4   12.86   15.71
  -6  -9   4   29.38   15.54
  -5  -9   4   19.25   12.19
   5   9  -4   -2.61   13.67
   4   9  -4    3.55   13.01
  -4  -9   4    1.27   10.39
  -3  -9   4   34.81   12.73
  -3  -9   4   31.37   14.91
   3   9  -4   32.98   19.22
   2   9  -4    3.41   14.05
  -2  -9   4   -2.10    8.91
  -2  -9   4   -7.14   10.59
  -1  -9   4   26.91   14.79
   1   9  -4   18.22   15.40
   0   9  -4   56.70   18.95
   0  -9   4   32.89   14.83
  -1   9  -4   27.99   18.22
   1  -9   4    4.47   13.72
  -2   9  -4   30.32   16.60
   2  -9   4   31.14   14.73
   3  -9   4    2.93   12.20
  -3   9  -4   31.33   18.07
  -4   9  -4   24.49   19.17
   4  -9   4   33.95   16.66
   7   8  -4    9.34   14.76
  -7  -8   4    6.83   15.55
   6   8  -4    1.38   12.31
  -6  -8   4    5.84   12.19
  -5  -8   4   15.55   11.82
   5   8  -4   24.49   14.87
   4   8  -4   44.85   15.39
  -4  -8   4   28.18   12.91
   4   8  -4   43.84   16.68
  -3  -8   4   57.60   18.13
  -3  -8   4   69.77   16.20
   3   8  -4   78.36   21.03
  -2  -8   4   20.91   12.70
   2   8  -4   18.14   15.00
  -2  -8   4   29.97   11.84
  -1  -8   4   -0.48   10.30
   1   8  -4   12.52   12.43
  -1  -8   4    5.59    7.59
   0   8  -4   35.35   13.51
   0  -8   4   11.47   10.06
   1  -8   4   22.10   12.48
  -1   8  -4   -2.66   11.77
   2  -8   4    3.82   11.32
  -2   8  -4   14.88   14.85
  -3   8  -4   56.45   19.30
   3  -8   4   69.72   18.13
  -4   8  -4   -0.25   15.46
   4  -8   4   -5.94   11.80
   5  -8   4   26.80   15.18
  -5   8  -4   14.49   16.66
   8   7  -4   -3.32   16.87
  -8  -7   4  -21.32   16.14
  -7  -7   4    5.61   16.20
   7   7  -4  -18.35   11.04
   6   7  -4    2.46   11.48
  -6  -7   4   10.68   11.56
   5   7  -4   18.66   11.44
  -5  -7   4    0.39    9.74
   4   7  -4    0.62   11.37
  -4  -7   4   -7.56    7.89
   4   7  -4   15.53   10.99
  -3  -7   4   18.25   10.15
   3   7  -4   42.43   13.79
  -3  -7   4   17.24   11.29
   2   7  -4  267.59   34.13
  -2  -7   4  278.50   34.50
  -2  -7   4  219.86   28.44
  -1  -7   4   12.87    7.91
  -1  -7   4    1.20    8.59
   1   7  -4    2.72   11.24
   0   7  -4   -8.93    9.13
   0  -7   4   11.07    9.03
   0  -7   4    7.89    7.09
   1  -7   4   15.35    9.60
  -1   7  -4    2.32   12.73
  -2   7  -4   11.29   12.52
   2  -7   4    5.18    9.73
   3  -7   4   26.33   12.46
  -3   7  -4   17.43   13.70
  -4   7  -4   15.22   14.64
   4  -7   4   22.00   12.58
  -5   7  -4   -3.94   12.56
  -5   7  -4    9.99   13.59
   5  -7   4   31.12   12.62
  -6   7  -4   46.62   17.51
   6  -7   4   34.14   15.19
  -6   7  -4   22.95   16.92
   9   6  -4   16.20   18.85
  -9  -6   4   23.27   18.04
  -8  -6   4   10.36   16.81
   8   6  -4  -13.08   15.70
   7   6  -4  -13.81   10.99
  -7  -6   4   32.27   16.90
  -6  -6   4   12.54   12.51
   6   6  -4   21.05   12.42
  -5  -6   4   53.42   14.56
   5   6  -4   39.19   14.11
  -4  -6   4   11.23    9.17
   4   6  -4   23.10   11.47
   4   6  -4    2.89    9.15
   3   6  -4  142.99   23.13
  -3  -6   4  153.86   22.49
  -3  -6   4  157.00   24.69
   2   6  -4   56.50   15.46
  -2  -6   4   33.02   14.07
  -2  -6   4   26.45    9.30
  -1  -6   4   59.56   12.91
   1   6  -4   80.45   18.34
  -1  -6   4  104.42   18.49
   0  -6   4  135.23   21.95
   0  -6   4  133.78   18.12
   0   6  -4  147.43   23.97
  -1   6  -4    4.57   11.31
   1  -6   4   12.14    6.47
   1  -6   4   17.73    9.05
  -2   6  -4  167.05   25.57
   2  -6   4  138.94   22.72
   3  -6   4   17.03   10.53
  -3   6  -4   25.05   12.46
  -3   6  -4   -5.03   10.07
   4  -6   4   12.83   10.19
  -4   6  -4   15.47   11.92
  -4   6  -4   13.40   11.00
   5  -6   4   42.42   15.37
  -5   6  -4   60.35   16.52
  -5   6  -4   63.26   16.77
   6  -6   4   23.77   12.83
  -6   6  -4   18.87   13.49
  -6   6  -4   13.16   13.83
  -7   6  -4   29.16   14.74
  -7   6  -4   51.35   20.38
   7  -6   4   -0.35   13.47
  -9  -5   4   24.70   17.31
   9   5  -4  -24.62   12.25
   8   5  -4   10.43   15.83
  -8  -5   4   10.79   14.86
  -7  -5   4   58.47   19.02
   7   5  -4   55.06   20.24
  -6  -5   4   87.18   19.21
   6   5  -4   40.07   15.49
  -5  -5   4  185.83   26.47
   5   5  -4  178.02   23.26
   5   5  -4  120.90   22.59
   4   5  -4   14.21   10.16
   4   5  -4   36.73   12.19
  -4  -5   4   24.78   10.01
   3   5  -4   72.63   14.97
  -3  -5   4   72.98   15.06
  -2  -5   4   -1.81    7.76
  -2  -5   4   -4.70    6.17
   2   5  -4   -0.33    9.12
   1   5  -4   37.95   12.77
  -1  -5   4   42.52   10.08
  -1  -5   4   26.78   10.49
   0  -5   4  190.10   20.18
   0   5  -4  122.15   22.55
   0  -5   4  168.11   23.26
  -1   5  -4  229.24   25.15
  -1   5  -4  272.65   32.11
   1  -5   4  266.41   30.24
   1  -5   4  276.60   25.66
  -2   5  -4   69.83   13.98
   2  -5   4   58.08   10.41
  -2   5  -4   75.68   16.36
   2  -5   4   63.37   14.17
  -3   5  -4  160.41   25.00
   3  -5   4  163.53   24.46
  -3   5  -4  165.86   22.14
   4  -5   4  297.89   35.28
  -4   5  -4  286.98   32.76
  -4   5  -4  283.98   35.19
  -5   5  -4   90.90   18.66
  -5   5  -4   74.94   17.18
   5  -5   4   51.03   15.53
  -6   5  -4   23.46   13.46
  -6   5  -4   47.80   17.99
   6  -5   4   43.39   14.83
  -7   5  -4   20.25   13.24
  -7   5  -4   10.96   16.19
   7  -5   4   -0.73   11.56
  -8   5  -4   23.58   17.66
  -8   5  -4   25.78   16.13
   8  -5   4    6.40   13.06
  -9  -4   4   35.90   17.29
   9   4  -4   -4.72   15.13
  -8  -4   4   14.56   14.68
   8   4  -4   20.82   14.77
   7   4  -4   23.47   13.73
  -7  -4   4   18.59   12.71
   6   4  -4    5.47   10.36
  -6  -4   4   11.37   11.40
   5   4  -4   27.84   10.84
  -5  -4   4   34.00   13.54
   5   4  -4   19.63   11.59
  -4  -4   4   15.84    8.75
   4   4  -4    9.08    9.13
   4   4  -4   27.71   11.37
   3   4  -4   -1.48    7.60
  -3  -4   4    1.77    6.40
   3   4  -4    4.28    7.89
  -2  -4   4   67.39   13.11
  -2  -4   4   62.57   12.03
   2   4  -4   62.08   13.76
  -1  -4   4  681.65   56.55
   1   4  -4  675.87   61.75
   0  -4   4  365.06   35.09
   0   4  -4  379.39   30.10
   0   4  -4  340.12   36.79
   0  -4   4  320.02   31.25
   1  -4   4    9.44    6.70
  -1   4  -4   21.09    7.33
   1  -4   4   12.62    5.02
  -1   4  -4   10.17    8.54
   2  -4   4   49.20   12.43
  -2   4  -4   46.86   12.74
  -2   4  -4   80.77   12.39
   2  -4   4   47.59    8.28
  -3   4  -4    3.04    8.42
   3  -4   4   13.38    8.04
  -3   4  -4    9.02    8.64
   4  -4   4  346.89   35.06
  -4   4  -4  244.58   33.00
  -4   4  -4  299.11   32.34
  -5   4  -4  199.37   27.64
   5  -4   4  214.67   29.29
  -5   4  -4  209.21   27.59
  -6   4  -4   43.15   14.26
   6  -4   4    0.45    9.63
  -6   4  -4    5.87    9.55
   7  -4   4   14.38   12.09
  -7   4  -4    5.33   14.34
  -7   4  -4   10.86    9.83
   8  -4   4  -14.66   11.72
  -8   4  -4   46.63   17.85
  -8   4  -4    6.55   12.85
   9  -4   4    0.83   14.36
   9   3  -4    1.19   12.94
  -9  -3   4    6.70   15.10
   8   3  -4    6.24   13.34
  -8  -3   4   14.02   13.99
  -7  -3   4   11.33   11.29
   7   3  -4  -16.54   10.85
   6   3  -4   62.10   14.17
  -6  -3   4   88.61   19.35
   6   3  -4   86.13   18.51
   5   3  -4    6.93    8.95
  -5  -3   4   17.24   11.20
  -5  -3   4   15.20    7.87
   5   3  -4    0.00    8.84
  -4  -3   4  254.05   28.18
   4   3  -4  239.48   27.27
   4   3  -4  193.60   26.02
  -4  -3   4  230.59   21.81
  -3  -3   4  106.74   16.30
   3   3  -4  123.22   17.18
  -3  -3   4  118.68   11.64
   3   3  -4  108.92   16.99
   2   3  -4   42.58   10.47
  -2  -3   4   29.23    8.17
  -2  -3   4   38.88    9.44
  -1  -3   4  976.95   76.39
  -1  -3   4  906.26   79.36
   1   3  -4  950.17   80.96
   0  -3   4  121.77   15.21
   0  -3   4  130.78   17.55
   0   3  -4   89.60   16.83
  -1   3  -4    2.24    7.89
  -1   3  -4   -0.85    4.62
   1  -3   4   -0.98    5.02
   1  -3   4    7.99    4.91
  -2   3  -4    3.33    6.30
  -2   3  -4    7.01    6.82
   2  -3   4    2.43    4.56
   2  -3   4    2.88    6.65
  -3   3  -4    8.64    8.35
   3  -3   4   11.83    5.08
  -3   3  -4   15.75    8.91
   3  -3   4    3.85    7.08
   4  -3   4   -2.57    5.53
  -4   3  -4   10.38    8.57
  -4   3  -4   17.07    9.54
  -5   3  -4  292.28   34.87
  -5   3  -4  315.98   35.25
   5  -3   4  387.96   39.21
   6  -3   4   26.73   10.74
  -6   3  -4   24.72   12.08
  -6   3  -4   13.80    9.30
  -7   3  -4   12.65   12.95
   7  -3   4    6.02   10.49
  -7   3  -4   11.61    8.92
  -8   3  -4   32.56   16.20
  -8   3  -4   15.41   13.07
   8  -3   4    9.25   11.46
  -9   3  -4  -21.43   17.78
   9  -3   4    3.12   14.66
   9   2  -4   14.30   15.07
  -9  -2   4    0.43   13.98
   8   2  -4   12.77   12.11
  -8  -2   4    4.71   12.90
   7   2  -4   50.65   16.32
  -7  -2   4   20.70   12.76
  -7  -2   4   35.87   14.05
   6   2  -4   92.27   18.25
   6   2  -4  104.71   16.67
  -6  -2   4   97.93   18.25
  -6  -2   4   88.76   17.83
  -5  -2   4   51.91   13.81
  -5  -2   4   27.80   10.16
   5   2  -4   34.02   11.06
   5   2  -4   21.36   12.34
   4   2  -4  108.23   17.04
  -4  -2   4  104.23   17.75
  -4  -2   4  121.44   15.39
   4   2  -4  152.65   18.76
   3   2  -4  304.31   31.59
   3   2  -4  306.74   31.41
  -3  -2   4  317.03   27.95
  -3  -2   4  343.95   32.18
   2   2  -4  175.08   19.66
  -2  -2   4  159.72   19.54
  -2  -2   4  157.73   14.34
   1   2  -4  149.51   18.93
  -1  -2   4  176.22   19.14
  -1  -2   4  145.30   18.42
   0  -2   4  581.95   49.41
   0  -2   4  586.75   51.27
   0   2  -4  614.59   52.75
   1  -2   4  151.53   18.05
  -1   2  -4  127.49   13.64
  -1   2  -4  134.12   18.42
   1  -2   4  148.90   15.83
  -2   2  -4    8.88    6.53
   2  -2   4   14.19    4.63
  -2   2  -4   -4.30    5.59
   2  -2   4   -0.08    5.63
  -3   2  -4  392.66   35.52
   3  -2   4  384.37   36.34
   3  -2   4  364.62   31.65
  -3   2  -4  423.06   37.97
  -4   2  -4   39.44   10.77
   4  -2   4   53.29    7.19
   4  -2   4   33.24   10.98
  -4   2  -4   26.34   10.37
  -5   2  -4  183.63   25.17
  -5   2  -4  239.73   27.34
   5  -2   4  241.87   28.91
  -6   2  -4  325.58   34.41
   6  -2   4  306.76   35.23
  -6   2  -4  228.24   30.18
  -7   2  -4    7.14    8.95
   7  -2   4   17.27   11.50
  -7   2  -4   -0.20   11.52
   8  -2   4   22.10   12.98
  -8   2  -4    8.60   15.27
   9  -2   4    7.16   12.09
  -9   2  -4   38.62   19.63
  10  -2   4   -1.87   15.32
 -10   2  -4   57.43   22.56
  -9  -1   4   -1.35   16.35
   9   1  -4   20.25   14.38
  -8  -1   4    7.40   12.65
   8   1  -4   24.05   13.20
  -8  -1   4   25.73   13.51
  -7  -1   4   25.76   12.36
   7   1  -4   15.37   10.82
  -7  -1   4   12.10   11.43
   6   1  -4   98.95   18.76
   6   1  -4  102.78   16.76
  -6  -1   4   80.82   16.86
  -6  -1   4   92.48   18.15
   5   1  -4  237.26   27.61
   5   1  -4  170.95   23.62
  -5  -1   4  222.05   24.76
  -5  -1   4  200.35   25.14
  -4  -1   4  369.97   35.48
  -4  -1   4  410.23   36.66
   4   1  -4  365.31   36.46
   4   1  -4  411.77   37.78
   3   1  -4   69.56   11.04
  -3  -1   4   58.80   10.52
  -3  -1   4   75.15   13.51
   3   1  -4   60.34   12.00
  -2  -1   4    8.18    5.05
  -2  -1   4    5.39    6.81
   2   1  -4    4.68    5.07
   2   1  -4   -1.96    6.57
  -1  -1   4   14.69    5.31
  -1  -1   4   19.11    6.97
   1   1  -4   13.79    6.48
  -1  -1   4   20.38    4.43
   0  -1   4    7.81    4.95
   0   1  -4   -1.45    4.92
   0  -1   4    9.27    5.22
   0   1  -4   10.12    3.33
  -1   1  -4  357.89   31.12
   1  -1   4  348.95   31.28
  -1   1  -4  431.35   35.18
   2  -1   4  224.15   22.29
  -2   1  -4  266.43   23.78
  -2   1  -4  287.08   26.49
   2  -1   4  256.00   24.44
  -3   1  -4    9.68    7.60
   3  -1   4   10.82    4.10
   3  -1   4   21.92    7.59
  -3   1  -4   20.34    7.83
  -4   1  -4    3.05    5.77
   4  -1   4    1.35    6.54
   4  -1   4   -3.43    3.71
  -4   1  -4   -3.36    7.22
   5  -1   4    5.98    4.68
  -5   1  -4   10.50    9.66
  -5   1  -4   12.94    7.09
   5  -1   4    6.26    8.11
  -6   1  -4   -2.69    6.68
  -6   1  -4  -14.43    9.80
   6  -1   4   10.20    9.64
  -7   1  -4  127.24   18.93
  -7   1  -4  152.37   25.24
   7  -1   4  124.52   22.19
   8  -1   4  131.97   23.67
  -8   1  -4   84.58   21.46
   9  -1   4   32.64   14.72
  -9   1  -4    4.96   15.88
  10  -1   4   11.09   16.05
 -10   1  -4    6.98   18.34
   9   0  -4   11.95   14.23
  -9   0   4    5.48   16.18
   8   0  -4    0.15   11.53
  -8   0   4   19.86   13.52
  -7   0   4    9.01   10.84
   7   0  -4   17.03   14.28
   7   0  -4   25.11   12.93
  -7   0   4   17.35   13.01
  -6   0   4    7.86   10.58
   6   0  -4   -3.79    7.96
  -6   0   4    6.59    8.26
   6   0  -4   15.12    9.81
   5   0  -4   63.03   14.41
  -5   0   4   63.97   12.82
   5   0  -4   48.64   11.66
  -5   0   4   80.18   15.33
   4   0  -4   90.32   15.87
  -4   0   4  111.23   17.34
   4   0  -4  114.88   16.87
  -4   0   4  133.30   17.88
  -3   0   4  125.03   16.89
   3   0  -4  146.08   17.52
  -3   0   4  131.85   18.46
   3   0  -4  177.79   20.17
   2   0  -4   -4.04    5.47
  -2   0   4   10.15    6.20
   2   0  -4    0.67    3.30
  -2   0   4   -5.34    5.21
   1   0  -4   60.85   11.99
  -1   0   4   74.18    8.98
   1   0  -4   57.43    9.01
  -1   0   4   68.21   11.29
   0   0  -4   21.41    7.02
   0   0   4   20.51    5.76
   0   0   4   20.11    6.40
   0   0  -4   28.61    5.71
   1   0   4   89.17   11.34
  -1   0  -4   95.88   10.96
  -1   0  -4   88.29   13.25
   1   0   4  110.02   12.50
  -2   0  -4  337.91   34.51
  -2   0  -4  459.59   37.03
   2   0   4  470.21   34.39
   2   0   4  383.67   35.35
  -3   0  -4  733.21   65.76
   3   0   4  749.28   64.34
   3   0   4  823.47   61.28
   4   0   4   27.51    8.85
   4   0   4   16.13    6.17
  -4   0  -4   10.48    8.11
  -4   0  -4   25.95    7.72
  -5   0  -4    4.52    8.38
  -5   0  -4   34.58    8.26
   5   0   4   14.54    6.48
   5   0   4    9.96    7.68
   6   0   4  530.16   43.49
  -6   0  -4  518.00   46.52
   6   0   4  530.77   48.98
  -6   0  -4  475.54   50.51
   7   0   4   32.00   11.22
  -7   0  -4   10.89    7.17
  -7   0  -4   22.35   13.27
   8   0   4    2.85    9.39
  -8   0  -4    5.29   13.31
  -9   0  -4   73.16   20.33
   9   0   4   56.27   17.54
 -10   0  -4   14.89   18.55
  10   0   4   47.89   17.16
  -9   1   4   25.34   18.77
   9  -1  -4    9.53   15.36
   8  -1  -4   15.60   13.24
  -8   1   4   -0.77   13.72
   7  -1  -4    3.56   11.22
  -7   1   4   12.72   12.45
   7  -1  -4   17.83   15.75
  -6   1   4    9.43   10.36
   6  -1  -4    5.12   11.31
  -6   1   4   17.14    8.41
   6  -1  -4   12.51    9.66
   5  -1  -4   39.82   11.34
   5  -1  -4   24.25   10.83
  -5   1   4   44.62   10.72
  -5   1   4   39.56   14.23
   4  -1  -4   90.54   14.57
   4  -1  -4   89.27   14.55
  -4   1   4   75.75   15.37
  -4   1   4   95.16   14.94
  -3   1   4   93.03   14.87
   3  -1  -4   96.11   15.09
  -3   1   4  107.24   15.51
   3  -1  -4   91.25   13.80
  -2   1   4  761.45   59.03
   2  -1  -4  648.84   58.75
  -2   1   4  720.92   60.52
   2  -1  -4  779.53   63.01
  -1   1   4   30.57    7.74
  -1   1   4   38.07    7.86
   1  -1  -4   34.51    5.66
   1  -1  -4   30.27    8.49
   0  -1  -4    2.73    5.02
   0   1   4    4.95    4.58
   0  -1  -4   -1.49    4.93
   0   1   4   -1.06    2.22
  -1  -1  -4    5.43    5.99
   1   1   4    5.00    3.99
  -1  -1  -4   -3.99    4.57
   1   1   4   -4.84    3.65
  -2  -1  -4  550.91   46.63
   2   1   4  537.96   46.01
  -2  -1  -4  580.38   48.01
   3   1   4  588.28   48.90
   3   1   4  607.69   50.60
  -3  -1  -4  577.56   51.08
  -3  -1  -4  629.38   51.78
   4   1   4  187.75   20.24
  -4  -1  -4  197.05   20.85
  -4  -1  -4  225.69   24.06
   4   1   4  225.27   23.09
   5   1   4  265.86   26.45
  -5  -1  -4  313.25   32.54
   5   1   4  336.60   31.94
  -5  -1  -4  288.53   27.99
   6   1   4  318.86   34.01
  -6  -1  -4  281.66   28.94
  -6  -1  -4  318.78   34.68
   6   1   4  326.63   28.85
  -7  -1  -4   -0.19   10.16
   7   1   4    9.77    6.01
   7   1   4   14.67    9.64
   8   1   4  196.20   28.85
  -8  -1  -4  168.07   28.20
   9   1   4   22.94   12.55
  -9  -1  -4   29.77   13.58
  10   1   4   29.73   15.02
 -10  -1  -4   29.46   18.06
 -11  -1  -4   37.25   22.05
  11   1   4   60.84   19.19
   9  -2  -4   -4.40   13.91
  -9   2   4   42.50   19.68
  -8   2   4   22.56   16.43
   8  -2  -4   -2.70   11.95
   7  -2  -4   82.06   19.30
  -7   2   4   72.14   20.27
   7  -2  -4   90.47   21.80
  -6   2   4    6.32   11.84
   6  -2  -4   34.97   12.14
   6  -2  -4   35.68   15.29
  -5   2   4   -7.46    6.11
   5  -2  -4    3.90    8.79
  -5   2   4   13.99   11.00
   5  -2  -4   -3.56    9.67
  -4   2   4   24.89   11.22
   4  -2  -4   46.86   10.70
   4  -2  -4   48.58   11.81
  -4   2   4   31.17    9.79
   3  -2  -4    6.32    6.87
   3  -2  -4   13.70    6.50
  -3   2   4    1.42    7.94
  -3   2   4    6.53    6.64
  -2   2   4  430.94   40.57
   2  -2  -4  474.99   44.49
  -2   2   4  589.01   44.74
   2  -2  -4  488.51   41.08
   1  -2  -4   36.28    5.58
  -1   2   4   38.25    8.40
  -1   2   4   22.80    7.85
   1  -2  -4   35.86    8.86
   0  -2  -4   92.03    8.33
   0  -2  -4   99.98   12.73
   0   2   4   89.82   12.40
   0  -2  -4  108.29   14.07
  -1  -2  -4  463.26   38.86
   1   2   4  419.82   36.46
  -1  -2  -4  435.93   38.20
   1   2   4  430.96   34.94
  -2  -2  -4  154.18   16.40
  -2  -2  -4  133.67   16.55
   2   2   4  136.28   13.55
   2   2   4  141.90   16.00
   3   2   4   95.23   11.84
  -3  -2  -4   75.09   12.44
  -3  -2  -4   93.96   11.86
   3   2   4   80.73   12.02
   4   2   4  167.27   18.92
  -4  -2  -4  151.62   19.22
  -4  -2  -4  163.58   16.65
   4   2   4  139.05   17.18
   5   2   4   36.68    8.40
  -5  -2  -4   28.50   10.46
   5   2   4   49.77   11.43
   5   2   4   32.12    8.61
  -5  -2  -4   64.73    9.31
   6   2   4   22.36    9.59
  -6  -2  -4   30.99    7.45
   6   2   4   24.43    7.47
   6   2   4   15.64    6.69
  -6  -2  -4   22.84   10.06
   7   2   4  418.39   36.94
  -7  -2  -4  463.38   46.80
   7   2   4  467.37   45.75
   7   2   4  428.25   39.66
  -8  -2  -4   10.91   11.97
   8   2   4    8.70   10.47
   8   2   4    9.00    7.90
   8   2   4   23.01    7.95
  -9  -2  -4   28.46   13.40
   9   2   4    5.64   12.28
 -10  -2  -4   29.05   17.68
  10   2   4   39.93   15.81
  11   2   4   28.88   18.55
 -11  -2  -4    6.51   16.68
  -8   3   4   29.27   18.26
   7  -3  -4  127.30   25.49
  -7   3   4  114.59   24.90
   7  -3  -4  100.59   22.36
  -6   3   4  216.84   31.86
   6  -3  -4  186.42   27.29
   6  -3  -4  169.70   29.54
  -5   3   4   28.10    8.70
  -5   3   4   31.66   12.03
   5  -3  -4   19.59   12.02
   5  -3  -4   13.65   10.20
   4  -3  -4    9.69    8.94
  -4   3   4   14.42    7.73
   4  -3  -4   23.47    8.79
  -4   3   4   19.64   11.25
  -3   3   4   55.40   13.16
   3  -3  -4   46.76    9.74
  -3   3   4   36.85    8.92
   3  -3  -4   39.51   10.88
   2  -3  -4  162.98   20.86
  -2   3   4  157.04   20.35
   2  -3  -4  149.66   15.97
  -2   3   4  153.63   17.57
   1  -3  -4  233.55   24.92
  -1   3   4  227.54   25.00
   1  -3  -4  224.80   19.61
  -1   3   4  247.28   22.29
   0  -3  -4  104.84   14.52
   0   3   4  111.02   13.90
   0  -3  -4   84.22   13.15
   1   3   4  556.63   45.05
  -1  -3  -4  577.43   47.35
  -1  -3  -4  483.22   46.46
   2   3   4  723.22   57.07
  -2  -3  -4  702.38   60.49
   3   3   4  263.30   24.81
   3   3   4  273.55   24.46
  -3  -3  -4  259.38   24.63
  -3  -3  -4  280.41   27.16
   4   3   4  451.74   41.93
   4   3   4  510.18   39.71
   4   3   4  531.43   43.42
  -4  -3  -4  549.74   44.67
  -4  -3  -4  458.77   41.55
  -5  -3  -4   38.83    6.40
   5   3   4   13.83    6.35
   5   3   4   22.16    8.64
  -5  -3  -4   35.63   10.75
   5   3   4   33.48    9.12
   6   3   4  330.13   32.77
   6   3   4  302.93   30.15
  -6  -3  -4  295.06   33.63
   6   3   4  279.36   27.06
   7   3   4  149.39   22.44
  -7  -3  -4  137.73   23.30
   7   3   4  139.59   17.30
   7   3   4  138.14   19.14
   8   3   4    1.50    8.60
   8   3   4    2.73    7.61
  -8  -3  -4   25.02   13.16
   8   3   4    0.48    7.45
  -9  -3  -4   17.56   14.90
   9   3   4    3.23    9.57
   9   3   4    7.44   11.48
   9   3   4   23.91   10.38
 -10  -3  -4   21.25   14.33
  10   3   4   20.95   12.94
 -11  -3  -4   25.51   20.64
  11   3   4   30.80   17.08
   8  -4  -4   38.13   21.53
  -8   4   4   -1.03   17.66
  -7   4   4   43.08   19.20
   7  -4  -4   53.51   18.09
   6  -4  -4    5.80   14.19
   6  -4  -4   37.99   11.92
  -6   4   4   18.37   14.24
   5  -4  -4   26.08   13.72
  -5   4   4   27.92   13.72
   5  -4  -4   28.22   10.08
   4  -4  -4    6.73    6.72
  -4   4   4   -0.21    6.09
  -4   4   4   -4.48   10.17
   4  -4  -4    4.69    9.73
  -3   4   4  544.92   52.67
   3  -4  -4  498.56   52.55
   3  -4  -4  587.95   48.72
  -3   4   4  604.06   47.77
   2  -4  -4    9.05    4.94
  -2   4   4    7.61    8.12
  -2   4   4   10.58    6.33
   2  -4  -4    7.73    6.96
  -1   4   4  388.20   37.42
  -1   4   4  396.01   34.66
   1  -4  -4  392.73   32.81
   1  -4  -4  409.61   38.32
   0  -4  -4   69.04   12.17
   0  -4  -4   63.02   11.39
   0   4   4   35.38    9.14
   1   4   4  527.44   46.76
  -1  -4  -4  555.76   49.91
  -1  -4  -4  630.29   50.46
   2   4   4  367.51   33.60
   2   4   4  464.08   36.21
  -2  -4  -4  417.05   36.69
  -2  -4  -4  454.26   38.43
   3   4   4  305.02   26.29
  -3  -4  -4  310.03   30.17
   3   4   4  282.56   26.14
  -3  -4  -4  274.58   26.31
   3   4   4  302.11   27.80
   4   4   4   35.30    8.18
  -4  -4  -4   33.89    6.09
   4   4   4   31.20    8.23
   4   4   4   36.01    7.63
  -4  -4  -4   35.85    9.21
   5   4   4   38.08    9.53
   5   4   4   23.57    7.23
   5   4   4   53.18   11.83
  -5  -4  -4   48.07   10.87
  -5  -4  -4   44.66    5.82
   6   4   4  132.00   19.09
  -6  -4  -4  107.06   18.55
   6   4   4   79.85   13.44
   6   4   4   83.52   14.95
   7   4   4   68.13   15.79
   7   4   4   35.66   11.18
  -7  -4  -4   86.78   17.17
   7   4   4   66.39   12.98
   8   4   4    9.61    7.74
   8   4   4   13.40   10.20
   8   4   4    4.44    8.12
  -8  -4  -4    3.76   10.72
   9   4   4   29.62   12.53
   9   4   4   41.50   13.52
   9   4   4   66.03   15.95
  -9  -4  -4   30.35   14.57
 -10  -4  -4   29.47   16.90
  10   4   4   18.52   13.34
  10   4   4   25.67   13.92
  10   4   4   28.09   12.87
 -11  -4  -4   17.05   16.79
  11   4   4    4.21   14.38
   7  -5  -4   37.51   19.95
  -7   5   4    8.96   18.17
  -6   5   4   14.28   14.87
   6  -5  -4  -11.55   13.31
   5  -5  -4   11.52   13.11
  -5   5   4    5.21   12.04
   4  -5  -4   95.86   16.09
  -4   5   4  102.80   21.21
   4  -5  -4  110.08   20.94
   3  -5  -4   32.72   13.31
   3  -5  -4   26.72    8.14
  -3   5   4   19.31   11.47
  -3   5   4   50.66    9.44
  -2   5   4  273.82   26.24
   2  -5  -4  275.96   25.86
   2  -5  -4  247.39   31.85
  -2   5   4  300.22   32.31
  -1   5   4  124.18   16.28
   1  -5  -4  136.04   13.70
  -1   5   4  133.64   19.79
   1  -5  -4  109.27   18.22
   0   5   4    8.75    6.25
   0  -5  -4   12.54    3.41
   0  -5  -4   10.38    7.80
   0  -5  -4   18.77    7.32
  -1  -5  -4  535.08   48.21
  -1  -5  -4  583.85   48.11
   1   5   4  517.67   45.04
   1   5   4  508.82   42.73
  -2  -5  -4    6.89    5.43
   2   5   4    5.20    3.48
   2   5   4    0.89    5.46
  -2  -5  -4    3.16    4.50
   3   5   4   10.43    4.88
   3   5   4   -0.91    5.17
   3   5   4   -4.99    5.00
  -3  -5  -4    1.27    5.20
  -3  -5  -4    8.36    4.54
  -4  -5  -4  267.78   28.68
   4   5   4  261.12   24.95
   4   5   4  258.21   24.47
   4   5   4  231.11   26.51
  -4  -5  -4  247.50   23.42
   5   5   4    6.29    6.07
   5   5   4    8.57    6.87
   5   5   4    3.73    6.49
  -5  -5  -4    0.24    6.73
  -6  -5  -4   18.35    9.49
   6   5   4   29.17   10.30
   6   5   4   46.99   11.68
   6   5   4   31.51    9.51
  -7  -5  -4   45.34   14.38
   7   5   4   38.20   13.08
  -8  -5  -4  221.01   31.90
   8   5   4  201.81   30.20
  -9  -5  -4   15.94   12.71
   9   5   4   -6.94   10.56
   9   5   4   14.43   10.55
   9   5   4   -0.54    9.68
 -10  -5  -4   51.84   18.53
  10   5   4   25.79   14.77
  10   5   4   43.98   14.14
  10   5   4   24.90   14.23
 -11  -5  -4   -1.14   16.62
  11   5   4   35.53   16.51
  -7   6   4   15.84   19.37
   7  -6  -4    9.38   19.67
   6  -6  -4   21.52   16.62
  -6   6   4   18.05   17.18
   5  -6  -4   47.41   17.25
  -5   6   4   48.58   17.18
   4  -6  -4   19.45   13.26
  -4   6   4   -5.39   11.14
  -3   6   4   -2.13   10.17
   3  -6  -4    4.88   11.87
  -2   6   4   32.95    8.65
   2  -6  -4   26.07   10.80
  -2   6   4   32.62   11.61
   1  -6  -4    2.83    8.14
   1  -6  -4    7.29    4.84
  -1   6   4    8.15    9.47
  -1   6   4   17.91    7.73
   0  -6  -4   28.74    9.92
   0  -6  -4   54.13    7.37
   0  -6  -4   52.62   12.29
   0   6   4   71.88   12.75
  -1  -6  -4   39.87    6.05
  -1  -6  -4   26.46    8.65
  -1  -6  -4    1.12    5.94
   1   6   4   27.70    8.23
  -2  -6  -4   74.46   13.63
  -2  -6  -4   78.29   12.95
   2   6   4   80.88   10.42
   2   6   4   72.39   13.52
  -3  -6  -4  224.46   22.63
   3   6   4  216.86   21.16
   3   6   4  174.47   23.69
   3   6   4  203.02   22.04
  -3  -6  -4  209.61   25.18
  -4  -6  -4  131.99   20.14
   4   6   4  218.30   20.87
   4   6   4  136.99   18.13
   4   6   4  146.28   20.74
  -4  -6  -4  159.60   17.33
   5   6   4  167.42   20.44
  -5  -6  -4  223.15   26.40
   5   6   4  177.57   22.24
   5   6   4  155.39   22.38
   6   6   4   22.52   10.01
  -6  -6  -4   18.34   10.00
  -7  -6  -4   14.70    9.11
   7   6   4    8.83    9.11
  -7  -6  -4    7.32   10.52
  -8  -6  -4   70.65   16.02
  -8  -6  -4   71.00   17.88
   8   6   4  109.92   19.92
   9   6   4   87.03   20.41
  -9  -6  -4   50.07   16.31
  10   6   4   -5.90   14.26
 -10  -6  -4   17.84   15.33
  10   6   4   -5.66   11.98
  10   6   4   11.46   14.47
  11   6   4    9.46   16.36
 -11  -6  -4   44.63   19.01
  11   6   4    9.94   15.87
  11   6   4   31.96   16.86
   6  -7  -4   17.47   18.25
  -6   7   4   -6.24   16.22
  -5   7   4   43.43   18.72
   5  -7  -4   10.76   16.14
  -4   7   4   52.95   16.92
   4  -7  -4   51.62   17.79
  -3   7   4   -1.51   11.97
   3  -7  -4   12.22   13.38
  -2   7   4   -5.20    9.60
   2  -7  -4  -11.74    7.77
  -1   7   4   80.12   17.01
   1  -7  -4   68.36   17.35
  -1   7   4  118.78   16.15
   0   7   4  410.15   43.49
   0  -7  -4  423.06   43.91
   0   7   4  422.58   38.65
   1   7   4   20.48    8.30
  -1  -7  -4   22.51   10.01
  -1  -7  -4   22.51    6.16
  -1  -7  -4   24.52    9.09
   2   7   4  104.06   14.24
   2   7   4  113.38   17.62
  -2  -7  -4  111.43   16.56
  -2  -7  -4   92.85   18.55
   3   7   4   80.21   12.60
   3   7   4   91.73   15.62
  -3  -7  -4   76.88   16.84
  -3  -7  -4   99.74   14.20
   3   7   4   73.45   15.77
   4   7   4   92.97   14.41
   4   7   4   66.85   15.04
  -4  -7  -4   71.42   15.66
   4   7   4   59.79   13.47
  -4  -7  -4   68.30   11.55
  -5  -7  -4    7.04    8.61
   5   7   4   -5.94    7.53
   5   7   4   12.21    8.45
   5   7   4   -4.06    8.29
   6   7   4   89.93   17.41
  -6  -7  -4   78.11   17.40
  -7  -7  -4   -3.21    7.98
  -7  -7  -4   17.04   12.23
   7   7   4   14.05   12.03
  -8  -7  -4   28.64   13.21
  -8  -7  -4   14.57   11.59
   8   7   4   46.48   15.29
   9   7   4   26.04   14.53
  -9  -7  -4    6.93   10.14
  -9  -7  -4   15.51   13.27
 -10  -7  -4    2.45   14.26
  10   7   4   -4.51   13.58
   5  -8  -4   14.48   16.96
  -5   8   4   23.04   18.66
  -4   8   4   15.66   13.77
   4  -8  -4   15.56   14.01
  -3   8   4  -10.14   11.92
   3  -8  -4   -9.49   12.43
  -2   8   4    5.91   12.57
   2  -8  -4   -9.44    8.64
   1  -8  -4  123.05   23.19
  -1   8   4  146.67   23.62
   0  -8  -4   56.05   15.43
   0   8   4   61.22   15.90
   0   8   4   50.50   12.27
  -1  -8  -4  746.45   69.42
   1   8   4  762.83   64.47
  -1  -8  -4  755.26   68.72
  -2  -8  -4   -7.92    6.92
  -2  -8  -4    0.96    8.36
   2   8   4    5.97    9.15
   3   8   4   80.43   13.57
  -3  -8  -4   71.06   16.42
  -3  -8  -4   38.54   10.80
   3   8   4   72.85   16.38
   3   8   4   60.38   15.21
  -4  -8  -4  146.28   18.35
   4   8   4  143.22   22.45
   4   8   4  118.10   19.20
   4   8   4  131.61   19.13
  -4  -8  -4  103.30   20.32
   5   8   4   22.07   10.13
   5   8   4    8.55    9.72
   5   8   4    8.95   10.33
  -5  -8  -4   25.17   10.78
  -6  -8  -4   -2.71    8.47
   6   8   4    7.15   10.74
   7   8   4   91.99   19.12
  -7  -8  -4   50.78   15.01
  -7  -8  -4  110.29   21.21
  -8  -8  -4   26.86   12.20
   8   8   4   37.36   16.06
  -8  -8  -4   35.21   14.76
   9   8   4    5.87   15.97
  -9  -8  -4   43.10   17.06
  -9  -8  -4   22.09   12.73
 -10  -8  -4   -8.38   14.54
  10   8   4   42.03   19.33
  -4   9   4   32.96   18.71
   4  -9  -4   45.61   20.65
  -3   9   4   56.34   17.90
   3  -9  -4   -1.60   15.41
  -2   9   4   10.60   12.59
   2  -9  -4   13.06   14.08
  -1   9   4    7.26   11.87
   1  -9  -4    3.47   12.15
   0  -9  -4  240.49   32.91
   0   9   4  209.97   30.25
   1   9   4   34.24   12.27
  -1  -9  -4   10.79   10.92
  -2  -9  -4   82.89   17.21
  -2  -9  -4   51.79   15.85
   2   9   4   69.97   15.28
  -3  -9  -4   27.99   12.77
   3   9   4   41.93   13.34
  -3  -9  -4    6.77   10.13
   3   9   4   14.75   11.85
   4   9   4    2.93   10.01
  -4  -9  -4    2.68   10.35
   4   9   4   21.54   11.91
   5   9   4   38.00   13.76
   5   9   4   35.39   12.26
  -5  -9  -4   18.78   10.42
   5   9   4   23.38   12.43
  -6  -9  -4   30.99   12.87
   6   9   4   18.71   12.82
   6   9   4   17.40   13.31
   6   9   4   19.33   12.27
   7   9   4   14.21   15.56
  -7  -9  -4   10.93   11.54
   8   9   4   51.25   18.11
  -8  -9  -4   51.85   16.64
  -9  -9  -4   26.35   16.56
   9   9   4   34.26   17.33
 -10  -9  -4   10.93   15.89
  10   9   4   24.66   17.71
   3 -10  -4   10.63   17.20
  -3  10   4   39.74   18.46
  -2  10   4   30.84   16.26
   2 -10  -4   -3.57   16.95
  -1  10   4    1.90   13.26
   1 -10  -4   10.17   14.90
   0 -10  -4   -8.21   13.08
   0  10   4    0.17   11.00
   1  10   4   43.23   14.55
  -1 -10  -4   14.28   13.80
  -2 -10  -4   24.86   12.67
   2  10   4   32.18   13.49
  -2 -10  -4    8.75   13.10
  -3 -10  -4    1.10   10.41
  -3 -10  -4   21.08   12.70
   3  10   4    7.72   11.07
   3  10   4    3.02   12.64
   4  10   4   58.52   17.19
  -4 -10  -4   69.79   18.18
   4  10   4   27.73   14.37
  -5 -10  -4   15.35   12.72
   5  10   4   38.37   14.61
   5  10   4   27.77   14.65
   6  10   4   10.00   11.21
  -6 -10  -4   12.58   12.06
   6  10   4   17.09   13.46
  -7 -10  -4    6.69   12.54
   7  10   4    5.76   15.17
   7  10   4  -10.96   12.13
   7  10   4    3.62   12.25
  -8 -10  -4    6.03   13.42
   8  10   4   -7.00   13.31
   8  10   4    0.07   16.50
  -9 -10  -4   18.73   15.62
   9  10   4   13.95   18.89
  -2  11   4   26.52   17.20
   2 -11  -4    2.14   18.33
   1 -11  -4    1.95   16.98
  -1  11   4   33.43   15.04
   0 -11  -4   12.21   15.55
   0  11   4    3.45   13.13
   1  11   4   21.25   13.08
  -1 -11  -4    3.61   14.12
  -2 -11  -4   31.70   16.13
   2  11   4   65.36   15.84
  -3 -11  -4   22.27   14.15
   3  11   4   36.98   15.01
  -3 -11  -4   10.36   13.80
   4  11   4   24.95   15.44
   4  11   4   33.16   15.32
  -4 -11  -4   22.57   12.90
   5  11   4  -18.40   13.38
   5  11   4   15.36   13.86
  -5 -11  -4   -3.79   12.24
  -6 -11  -4    8.21   12.67
   6  11   4   -3.60   12.75
   6  11   4   -7.06   12.68
  -7 -11  -4   35.07   17.03
   7  11   4    8.72   14.40
   7  11   4   21.24   14.68
   8  11   4   12.29   14.98
  -8 -11  -4    4.35   16.09
   8  11   4   -1.29   14.27
   0 -12  -4   -4.86   17.08
   0  12   4   -4.72   14.75
  -1 -12  -4   12.81   17.00
   1  12   4   29.80   15.13
  -2 -12  -4    3.11   15.87
   2  12   4   33.22   15.26
  -3 -12  -4    4.61   14.47
  -4 -12  -4   -4.75   13.08
   4  12   4   -6.24   13.73
   4  12   4   15.65   17.23
   5  12   4  -24.25   14.69
  -5 -12  -4  -23.42   11.64
   5  12   4    9.96   14.89
   6  12   4   -5.63   14.53
   6  12   4   11.82   15.03
  -6 -12  -4    6.16   14.85
   4  10  -5   30.91   17.78
  -4 -10   5    8.81   12.80
  -3 -10   5   23.88   14.29
   3  10  -5   27.33   21.02
  -3 -10   5   21.32   17.99
   2  10  -5    1.95   18.35
  -2 -10   5   -4.30   16.50
   1  10  -5   13.22   20.32
  -1 -10   5   10.17   16.98
   0  10  -5   68.36   23.59
   0 -10   5    0.19   15.91
  -1  10  -5    8.31   19.04
   1 -10   5   -9.88   13.72
   6   9  -5    6.29   16.30
  -6  -9   5   19.88   13.83
   5   9  -5   25.04   16.99
  -5  -9   5   23.41   13.91
   4   9  -5   38.54   17.84
  -4  -9   5   22.08   12.09
  -3  -9   5   10.55   14.74
   3   9  -5    7.22   16.11
  -3  -9   5   26.45   12.81
   2   9  -5   55.26   20.49
  -2  -9   5   41.83   13.45
  -2  -9   5   20.69   17.50
   1   9  -5   13.38   16.80
  -1  -9   5    7.56   14.98
   0   9  -5   16.53   16.36
   0  -9   5   27.89   14.46
   1  -9   5   16.16   14.45
  -1   9  -5   13.57   17.48
   2  -9   5  -18.53   10.25
  -2   9  -5   15.60   18.14
   3  -9   5   20.10   15.49
  -3   9  -5   14.37   17.25
   7   8  -5  -10.55   14.85
  -7  -8   5   13.89   15.99
   6   8  -5   17.32   16.05
  -6  -8   5   34.95   16.60
  -5  -8   5   15.71   13.73
   5   8  -5   30.86   15.67
   4   8  -5   14.59   12.24
   4   8  -5   23.23   17.75
  -4  -8   5    5.08   10.99
  -3  -8   5   61.27   15.45
   3   8  -5   53.05   17.30
  -3  -8   5   49.64   19.14
   2   8  -5   40.17   18.77
  -2  -8   5   41.95   13.47
  -2  -8   5   48.93   17.11
  -1  -8   5   18.53   12.39
   1   8  -5   -1.24   13.57
  -1  -8   5    7.00    9.31
   0  -8   5    0.57   11.25
   0   8  -5   32.42   15.33
   1  -8   5   14.73   12.06
  -1   8  -5    0.51   14.06
   2  -8   5   50.95   17.78
  -2   8  -5   71.81   20.18
   3  -8   5   37.70   13.41
  -3   8  -5   -8.51   14.60
  -4   8  -5    3.98   16.56
   4  -8   5   12.06   12.03
   7   7  -5    0.20   15.71
  -7  -7   5   -9.61   16.53
  -6  -7   5   16.09   12.28
   6   7  -5   -1.96   12.35
  -5  -7   5   10.51   10.30
   5   7  -5    1.34   11.93
   4   7  -5    5.11    9.97
   4   7  -5   27.24   15.58
  -4  -7   5   11.89    9.71
  -3  -7   5   29.36   14.92
   3   7  -5   48.37   17.38
  -3  -7   5   22.02    9.92
   2   7  -5   20.11   15.46
  -2  -7   5   12.00   12.06
  -2  -7   5   21.69   10.05
  -1  -7   5   15.38    8.06
  -1  -7   5   25.49   13.36
   1   7  -5    9.20   13.97
   0   7  -5   26.36   13.65
   0  -7   5   -4.94   10.33
   0  -7   5   -0.76    6.36
   1  -7   5   77.40   18.18
  -1   7  -5   41.65   17.90
   2  -7   5   69.62   18.76
  -2   7  -5  100.57   20.79
  -3   7  -5   13.93   13.16
   3  -7   5   35.97   12.49
  -4   7  -5   38.51   17.71
   4  -7   5   67.46   18.74
  -5   7  -5   19.72   17.68
   5  -7   5   30.94   14.83
   6  -7   5   21.82   15.40
  -6   7  -5    2.01   16.96
   8   6  -5   14.99   17.05
  -8  -6   5   -4.91   16.73
  -7  -6   5    5.09   14.52
   7   6  -5  -14.54   11.67
  -6  -6   5    4.48   14.43
   6   6  -5  -15.70    8.29
   5   6  -5   -2.22   12.37
  -5  -6   5    6.58    9.97
   4   6  -5   20.97   13.06
   4   6  -5   33.45   13.68
  -4  -6   5   13.37    9.34
  -3  -6   5   88.21   19.64
   3   6  -5   81.59   18.20
  -3  -6   5   82.08   16.83
   2   6  -5  283.34   34.89
  -2  -6   5  246.97   31.09
  -2  -6   5  284.31   35.19
  -1  -6   5   73.52   18.20
  -1  -6   5   62.07   13.16
   1   6  -5   70.25   17.90
   0  -6   5    9.93    8.51
   0  -6   5    1.27    6.41
   0   6  -5    2.51   12.06
  -1   6  -5    9.74   11.32
   1  -6   5   20.97   11.33
   1  -6   5    5.76    6.47
  -2   6  -5   24.99   13.17
   2  -6   5    3.06    7.33
  -3   6  -5  111.31   21.61
   3  -6   5   75.97   18.19
  -4   6  -5   14.17   12.74
   4  -6   5    8.79   10.02
  -5   6  -5    3.85   12.99
   5  -6   5   16.78   12.48
   6  -6   5   59.44   18.73
  -6   6  -5   58.79   18.68
  -6   6  -5   45.20   17.76
  -7   6  -5   42.01   19.52
  -7   6  -5    7.12   15.71
   7  -6   5    3.26   15.39
  -8  -5   5   -5.44   16.07
   8   5  -5    6.70   18.22
  -7  -5   5   -3.01   13.87
   7   5  -5    6.85   13.43
  -6  -5   5   15.00   13.24
   6   5  -5    6.89   11.28
   5   5  -5   -9.02   13.42
  -5  -5   5   18.96   11.66
   5   5  -5   21.14   12.24
  -4  -5   5   11.79    9.08
   4   5  -5   11.93   10.27
   4   5  -5    1.96   11.28
   3   5  -5   13.77   12.50
  -3  -5   5   14.12    8.31
   2   5  -5  100.71   20.00
  -2  -5   5  108.88   17.90
  -2  -5   5  130.61   21.35
  -1  -5   5   52.42   11.95
   1   5  -5   64.56   17.04
  -1  -5   5   40.98   14.90
   0   5  -5   17.75   11.31
   0  -5   5   -4.02    4.77
   0  -5   5   11.32    9.55
   1  -5   5   14.78   10.01
  -1   5  -5   29.56   13.50
   1  -5   5   20.49    7.18
   2  -5   5    8.97    8.39
   2  -5   5    7.78    5.68
  -2   5  -5   -7.03    7.86
  -3   5  -5  119.74   22.73
   3  -5   5  123.63   20.97
  -3   5  -5  126.34   19.20
  -4   5  -5   28.09   11.60
  -4   5  -5   -5.11   10.33
   4  -5   5   -1.59    8.49
   5  -5   5    1.15    9.18
  -5   5  -5   -7.97    8.62
  -5   5  -5   16.93   12.31
  -6   5  -5   19.53   14.21
   6  -5   5   11.96   12.67
  -6   5  -5   -7.38   10.71
  -7   5  -5   42.36   18.04
   7  -5   5   17.97   13.78
  -7   5  -5    9.15   13.28
  -8   5  -5   20.97   18.85
  -8   5  -5   16.20   15.17
   8  -5   5   10.25   15.18
  -9  -4   5   10.65   17.20
   9   4  -5    5.90   16.42
   8   4  -5   21.23   16.08
  -8  -4   5    4.62   13.97
   7   4  -5   24.27   15.26
  -7  -4   5   26.00   14.06
  -6  -4   5    9.51   12.09
   6   4  -5    1.25   10.24
   5   4  -5   50.25   15.87
  -5  -4   5   76.05   18.50
   5   4  -5   22.87   13.05
   4   4  -5   -8.90    9.08
   4   4  -5    4.73    8.17
  -4  -4   5    9.56    7.96
   3   4  -5   -3.09    8.60
  -3  -4   5   -1.11    6.61
   3   4  -5   -1.54    8.41
  -2  -4   5   14.43   10.47
  -2  -4   5   15.87    7.80
   2   4  -5    8.59    9.99
  -1  -4   5   11.36    8.45
   1   4  -5   -3.50    8.91
  -1  -4   5    8.06    6.53
   0  -4   5  339.22   36.25
   0  -4   5  325.81   31.34
   0   4  -5  344.27   37.76
   1  -4   5  523.70   44.10
   1  -4   5  482.74   47.66
  -1   4  -5  525.91   50.88
  -2   4  -5   65.75   12.08
  -2   4  -5   73.20   16.17
   2  -4   5   61.34   14.72
   2  -4   5   56.81   10.61
  -3   4  -5  224.83   25.39
  -3   4  -5  229.04   29.70
   3  -4   5  236.06   29.32
  -4   4  -5   37.81   13.36
  -4   4  -5   40.76   12.52
   4  -4   5   25.44   11.25
  -5   4  -5  109.54   19.11
   5  -4   5  100.46   20.05
  -5   4  -5  115.63   21.05
   6  -4   5   -0.06   10.12
  -6   4  -5   16.72   12.43
  -6   4  -5   14.26   12.82
   7  -4   5    2.36   10.51
  -7   4  -5    5.37   11.52
  -7   4  -5   24.47   15.32
  -8   4  -5   45.74   16.67
   8  -4   5   12.74   13.03
  -8   4  -5   68.39   21.34
  -9  -3   5  -21.19   13.86
   9   3  -5    6.11   15.23
  -8  -3   5    5.69   13.24
   8   3  -5  -14.36   12.44
   7   3  -5   -8.51   11.84
  -7  -3   5    8.06   13.27
  -6  -3   5   18.32   12.69
   6   3  -5   11.88   14.70
   6   3  -5   10.45   12.55
  -5  -3   5    7.93   11.63
   5   3  -5   11.43    9.33
   5   3  -5   27.08   11.44
   4   3  -5  135.91   21.00
  -4  -3   5   97.84   19.38
   4   3  -5  155.21   22.04
   3   3  -5   -1.84    6.34
  -3  -3   5   26.40    9.30
   3   3  -5   23.06   10.04
  -2  -3   5   10.29    6.99
  -2  -3   5   23.08    8.14
   2   3  -5  -11.96    7.08
  -1  -3   5  133.95   19.49
  -1  -3   5  180.57   22.27
   1   3  -5  158.08   21.63
   0   3  -5    0.42    8.64
   0  -3   5   21.56    6.89
   0  -3   5   11.64    7.35
  -1   3  -5  406.72   34.42
  -1   3  -5  382.59   41.46
   1  -3   5  465.37   36.81
   1  -3   5  348.25   37.25
   2  -3   5  282.02   26.24
  -2   3  -5  244.41   31.33
   2  -3   5  260.31   30.36
  -2   3  -5  299.17   27.17
  -3   3  -5   39.60   12.17
   3  -3   5   42.78   11.17
   3  -3   5   48.87    8.99
  -3   3  -5   40.24   12.38
  -4   3  -5   98.28   17.88
  -4   3  -5  121.26   18.35
   4  -3   5   71.95   15.85
  -5   3  -5   40.11   13.93
   5  -3   5   75.10   15.90
  -5   3  -5   53.80   14.72
  -6   3  -5   10.78   10.10
   6  -3   5   15.27    9.36
  -6   3  -5    5.52   12.06
   7  -3   5  116.34   23.61
  -7   3  -5   73.55   17.01
  -7   3  -5   41.28   18.63
  -8   3  -5  -22.54   10.00
   8  -3   5   -9.19   12.40
  -8   3  -5   19.29   17.61
  -9   3  -5   97.55   24.86
   9  -3   5   77.42   23.77
   9   2  -5   27.28   17.04
  -9  -2   5   11.92   16.76
  -8  -2   5   -5.28   12.76
   8   2  -5   22.47   14.22
  -7  -2   5    7.00   12.17
   7   2  -5   26.79   12.31
   6   2  -5  -15.21    9.71
   6   2  -5   13.35   13.15
  -6  -2   5    9.16   11.62
   5   2  -5   28.10   11.45
  -5  -2   5   28.95   11.36
   5   2  -5   37.08   12.29
  -4  -2   5  377.44   33.51
   4   2  -5  333.63   36.41
   4   2  -5  379.41   36.96
  -4  -2   5  381.99   38.05
  -3  -2   5    1.65    6.76
  -3  -2   5    9.51    5.88
   3   2  -5  -10.51    4.54
   3   2  -5    2.67    8.73
  -2  -2   5    7.12    6.04
   2   2  -5    3.46    6.84
   1   2  -5   46.28   11.25
  -1  -2   5   78.46   12.47
  -1  -2   5   56.04   11.95
   0  -2   5   94.68   15.37
   0  -2   5  110.75   15.57
   0   2  -5  104.79   16.73
  -1   2  -5  289.00   31.99
   1  -2   5  302.64   27.57
  -1   2  -5  296.38   25.79
   1  -2   5  297.32   28.88
  -2   2  -5   -4.19    5.38
   2  -2   5    9.29    7.28
   2  -2   5    4.03    3.98
  -2   2  -5    6.56    8.03
  -3   2  -5   46.95   11.31
  -3   2  -5   39.11   10.92
   3  -2   5   25.18    9.16
   3  -2   5   37.84    7.74
   4  -2   5  438.84   37.03
  -4   2  -5  472.40   43.04
   4  -2   5  425.60   42.38
  -4   2  -5  448.73   43.51
  -5   2  -5   26.82   10.76
  -5   2  -5   22.78   12.27
   5  -2   5   22.72   11.04
  -6   2  -5   87.75   18.61
  -6   2  -5   49.52   14.33
   6  -2   5   85.82   17.89
  -7   2  -5    7.00   13.48
  -7   2  -5   26.46   11.77
   7  -2   5   50.72   15.51
  -8   2  -5   56.52   18.10
   8  -2   5   42.41   17.32
  -9   2  -5   22.97   17.76
   9  -2   5   36.18   16.36
   9   1  -5   33.77   19.60
   8   1  -5    6.75   12.73
  -8  -1   5   22.31   13.95
   7   1  -5    4.15   10.05
  -7  -1   5    6.90   10.94
  -6  -1   5   45.83   13.51
  -6  -1   5   17.35   11.69
   6   1  -5   39.82   13.09
   6   1  -5   27.05   13.37
   5   1  -5   64.83   16.45
   5   1  -5   85.04   16.17
  -5  -1   5  110.24   16.78
  -5  -1   5   68.93   14.98
   4   1  -5   44.55   11.11
   4   1  -5   48.47   12.38
  -4  -1   5   53.47   11.31
  -4  -1   5   69.52   14.42
   3   1  -5  260.07   26.22
   3   1  -5  218.32   27.57
  -3  -1   5  244.87   24.15
  -3  -1   5  286.14   28.69
   2   1  -5    1.73    7.67
  -2  -1   5    6.13    5.35
   2   1  -5   15.09    5.77
  -2  -1   5   12.28    8.93
  -1  -1   5  517.40   44.56
  -1  -1   5  525.83   45.07
  -1  -1   5  490.33   41.86
   1   1  -5  571.26   47.18
   0  -1   5   21.07    7.48
   0   1  -5   23.46    4.91
   0   1  -5   14.55    8.39
   0  -1   5   14.79    5.95
  -1   1  -5   30.34    9.19
   1  -1   5   14.96    5.91
   1  -1   5   31.94    7.88
  -1   1  -5    7.94    4.90
  -2   1  -5  183.72   19.96
   2  -1   5  195.53   20.63
   2  -1   5  230.05   23.26
  -2   1  -5  230.55   24.64
   3  -1   5  229.89   22.99
  -3   1  -5  245.35   27.77
  -3   1  -5  265.28   25.85
   3  -1   5  249.81   26.54
  -4   1  -5  223.92   27.16
   4  -1   5  212.57   26.87
   4  -1   5  228.72   21.95
  -4   1  -5  257.64   26.95
  -5   1  -5  472.95   49.11
   5  -1   5  532.04   49.49
   5  -1   5  531.00   43.55
  -5   1  -5  560.01   49.30
   6  -1   5   -1.07    8.18
  -6   1  -5   20.46   11.96
  -6   1  -5    0.85    7.55
   7  -1   5   27.23   12.03
  -7   1  -5   15.30    9.74
  -7   1  -5   17.70   12.74
   8  -1   5   88.65   20.35
  -8   1  -5   98.58   23.27
  -9   1  -5   12.35   17.09
   9  -1   5   18.33   12.90
 -10   1  -5   97.04   25.11
  10  -1   5   49.47   18.99
   9   0  -5   53.30   19.00
  -8   0   5   23.48   15.78
   8   0  -5   30.57   15.43
  -7   0   5   -0.47   12.41
   7   0  -5    0.00    9.93
  -7   0   5    0.24   11.54
   7   0  -5    5.60   14.51
   6   0  -5   53.70   17.56
  -6   0   5   51.55   13.55
  -6   0   5   69.37   16.52
   6   0  -5   56.82   15.18
  -5   0   5  137.52   21.12
   5   0  -5  162.60   24.36
   5   0  -5  136.54   22.18
  -5   0   5  171.80   23.03
   4   0  -5   35.96   10.42
   4   0  -5   36.35   10.57
  -4   0   5   17.02    8.99
  -4   0   5   61.11   12.47
  -3   0   5  121.88   16.55
   3   0  -5  110.13   18.50
   3   0  -5  123.67   16.29
  -3   0   5  147.80   20.23
   2   0  -5   50.07   11.27
  -2   0   5   39.74    8.70
  -2   0   5   47.17   10.62
   2   0  -5   21.64    7.03
   1   0  -5    3.63    7.29
  -1   0   5   11.04    5.05
  -1   0   5    1.02    5.40
   0   0   5  705.05   56.14
   0   0  -5  680.43   55.63
   0   0  -5  644.04   59.19
  -1   0  -5   12.84    6.53
  -1   0  -5    5.01    4.91
   1   0   5    3.90    4.84
   1   0   5    5.29    4.86
   2   0   5  610.10   52.75
  -2   0  -5  600.96   56.97
   2   0   5  689.26   55.04
  -2   0  -5  697.66   54.66
   3   0   5    4.73    5.20
  -3   0  -5    1.59    6.49
   3   0   5   10.62    6.35
  -3   0  -5   16.37    7.81
   4   0   5  389.85   35.73
  -4   0  -5  485.05   40.33
  -4   0  -5  416.73   39.64
   4   0   5  390.00   38.64
   5   0   5   10.85    8.58
  -5   0  -5   14.43    7.78
  -5   0  -5   14.89   10.27
   5   0   5   12.74    5.65
  -6   0  -5   71.78   16.28
   6   0   5   58.80   14.96
   6   0   5   60.22   10.94
  -6   0  -5   45.61   11.47
  -7   0  -5   12.20   11.94
   7   0   5   14.06    9.45
  -7   0  -5   32.75    9.42
  -8   0  -5   40.25   15.56
   8   0   5   43.86   15.68
   9   0   5   -4.06   11.78
  -9   0  -5   29.00   14.56
  10   0   5   20.90   15.43
 -10   0  -5   13.98   18.57
  -8   1   5   32.77   17.04
   8  -1  -5   13.18   13.49
   7  -1  -5  -12.55   14.56
  -7   1   5   29.26   15.27
   7  -1  -5    3.35   12.27
   6  -1  -5   -2.86   11.80
  -6   1   5    6.33    9.15
   6  -1  -5    2.36    9.66
  -6   1   5   17.56   14.05
   5  -1  -5   40.06   14.42
  -5   1   5   52.60   13.34
  -5   1   5   59.76   15.04
   5  -1  -5   46.22   13.40
  -4   1   5   -7.26    6.30
   4  -1  -5    3.71    7.10
   4  -1  -5    8.49    7.76
  -4   1   5   -6.26    8.70
   3  -1  -5   93.03   16.31
  -3   1   5   99.62   16.29
  -3   1   5   90.84   16.14
   3  -1  -5  119.54   15.33
  -2   1   5  162.79   18.62
   2  -1  -5  138.29   20.59
   2  -1  -5  184.23   17.61
  -2   1   5  134.96   18.93
  -1   1   5  346.08   31.33
   1  -1  -5  343.33   33.43
   1  -1  -5  328.44   29.42
  -1   1   5  368.49   31.33
   0   1   5  363.40   32.67
   0  -1  -5  423.02   34.64
   0   1   5  369.40   34.48
   0  -1  -5  469.77   38.35
   1   1   5  307.91   27.71
  -1  -1  -5  274.32   27.31
  -1  -1  -5  329.87   30.27
   1   1   5  320.97   26.81
   2   1   5   44.21   10.11
   2   1   5   75.89   10.18
  -2  -1  -5   66.55   10.64
  -2  -1  -5   73.15   11.90
   3   1   5  602.58   54.50
  -3  -1  -5  724.90   57.19
  -3  -1  -5  638.44   55.49
   3   1   5  641.95   53.25
  -4  -1  -5   62.94   12.54
   4   1   5   69.86   12.79
  -4  -1  -5   63.37   11.87
   4   1   5   70.78   11.92
  -5  -1  -5   42.39    9.96
  -5  -1  -5   65.44   14.47
   5   1   5   55.23   11.92
   5   1   5   36.54    9.63
  -6  -1  -5   53.53   10.97
  -6  -1  -5   39.94   13.78
   6   1   5   35.17   11.58
   6   1   5   42.63   10.48
  -7  -1  -5  120.36   21.14
   7   1   5   80.71   16.90
   7   1   5   97.80   15.24
  -8  -1  -5  128.79   23.92
   8   1   5  110.99   20.99
  -9  -1  -5    0.49   14.14
   9   1   5    8.72   10.08
  10   1   5    7.81   12.51
 -10  -1  -5  -12.29   15.87
  -8   2   5    9.47   15.60
  -7   2   5  -18.26   12.29
   7  -2  -5   10.67   15.54
   7  -2  -5    3.77   12.53
   6  -2  -5   20.74   13.13
  -6   2   5   24.15   14.32
   6  -2  -5   11.93   11.75
  -6   2   5   18.10    9.91
   5  -2  -5   -6.20    7.81
  -5   2   5    5.84    8.69
  -5   2   5    6.12    9.86
   5  -2  -5    8.18   10.96
  -4   2   5  209.89   27.12
  -4   2   5  185.43   24.50
   4  -2  -5  208.41   24.31
   4  -2  -5  205.35   27.47
  -3   2   5  470.31   44.31
   3  -2  -5  464.10   47.00
  -3   2   5  533.68   47.38
   3  -2  -5  549.51   44.65
  -2   2   5  364.27   35.75
   2  -2  -5  415.36   37.40
  -2   2   5  349.22   33.79
   2  -2  -5  389.65   32.95
  -1   2   5  232.30   25.73
   1  -2  -5  254.50   22.11
  -1   2   5  244.16   25.63
   1  -2  -5  290.56   28.53
   0  -2  -5  389.28   32.70
   0  -2  -5  349.96   29.19
   0  -2  -5  394.93   35.44
   0   2   5  335.19   31.98
  -1  -2  -5  131.53   16.14
   1   2   5  136.70   12.83
   1   2   5  151.46   17.07
  -1  -2  -5  131.99   17.50
  -2  -2  -5   91.13   13.55
  -2  -2  -5   75.08   12.25
   2   2   5   82.45   10.03
   2   2   5   59.20   11.20
  -3  -2  -5  251.88   25.76
  -3  -2  -5  256.48   26.10
   3   2   5  282.39   25.13
   3   2   5  280.24   25.72
   4   2   5  112.08   14.51
   4   2   5   89.33   13.69
  -4  -2  -5   80.72   12.80
  -4  -2  -5  103.13   16.01
   5   2   5  182.16   23.29
  -5  -2  -5  189.14   24.35
  -5  -2  -5  212.90   21.19
   5   2   5  190.75   21.65
   6   2   5  323.08   33.35
  -6  -2  -5  298.25   34.37
   6   2   5  285.49   28.94
  -6  -2  -5  277.99   28.41
  -7  -2  -5   81.16   20.08
   7   2   5   93.92   17.94
   7   2   5   94.68   15.08
  -8  -2  -5   -4.04   12.97
   8   2   5   23.65    9.93
   8   2   5   36.70   13.29
  -9  -2  -5   47.59   17.61
   9   2   5   30.97   12.98
  10   2   5   27.77   15.64
 -10  -2  -5    8.07   16.89
 -11  -2  -5   44.95   21.88
  11   2   5    5.97   14.82
  -8   3   5   10.12   17.93
  -7   3   5    6.96   16.51
   7  -3  -5   31.88   18.61
   6  -3  -5   -2.89   13.67
  -6   3   5   16.47   13.95
  -5   3   5   -0.58    7.86
  -5   3   5    4.04   11.00
   5  -3  -5    9.61    9.51
   5  -3  -5   31.67   14.05
  -4   3   5   -5.35    6.09
  -4   3   5    1.74   10.30
   4  -3  -5    6.30    7.17
   4  -3  -5   17.94   11.91
  -3   3   5   -5.93    8.17
  -3   3   5    0.83    5.70
   3  -3  -5   12.35   10.63
   3  -3  -5   -0.15    6.17
   2  -3  -5   22.50    8.73
   2  -3  -5   30.16    6.96
  -2   3   5   18.13    9.36
  -2   3   5   24.21    8.36
   1  -3  -5   56.02   11.19
   1  -3  -5   32.62    5.54
  -1   3   5   29.78    9.95
  -1   3   5   38.68    8.73
   0  -3  -5  174.53   20.74
   0   3   5  173.34   19.39
   0  -3  -5  147.30   18.61
   1   3   5  448.81   42.70
  -1  -3  -5  500.88   44.99
  -1  -3  -5  573.68   46.17
   2   3   5  437.03   36.94
  -2  -3  -5  519.13   41.81
   2   3   5  427.09   39.34
  -2  -3  -5  455.42   40.62
   3   3   5  478.37   40.84
  -3  -3  -5  372.61   42.77
  -3  -3  -5  596.53   43.75
   3   3   5  500.17   42.00
   4   3   5   32.99    9.03
  -4  -3  -5   37.53    8.51
  -4  -3  -5   38.28   10.26
   4   3   5   54.29   10.06
  -5  -3  -5   14.42    6.10
  -5  -3  -5   20.26    9.21
   5   3   5    5.77    7.32
   5   3   5    4.84    5.55
   6   3   5  188.77   25.27
   6   3   5  208.77   23.84
  -6  -3  -5  199.51   26.48
   7   3   5   25.36   10.44
  -7  -3  -5   31.84   12.94
   7   3   5   40.67   11.39
   7   3   5   52.33   13.52
  -8  -3  -5   27.04   14.31
   8   3   5   21.60    9.89
   8   3   5   17.86    9.97
   8   3   5   27.85   11.66
   9   3   5   -2.51    9.25
  -9  -3  -5   -2.73   14.02
   9   3   5   16.51   11.60
   9   3   5   -3.01   10.28
  10   3   5    7.16   12.69
 -10  -3  -5   34.93   18.23
 -11  -3  -5  -20.75   15.95
  11   3   5   36.91   18.51
   7  -4  -5   43.53   19.46
  -7   4   5   16.85   19.67
  -6   4   5   45.07   16.54
   6  -4  -5   11.42   16.07
  -5   4   5   18.63   13.21
   5  -4  -5    3.53   12.63
   4  -4  -5   16.23   12.69
  -4   4   5   12.47    7.73
  -4   4   5    0.34   10.90
   3  -4  -5  110.13   14.17
   3  -4  -5   76.74   17.95
  -3   4   5   75.39   16.82
  -3   4   5  108.11   15.67
  -2   4   5  259.84   30.64
   2  -4  -5  269.96   24.35
  -2   4   5  288.43   27.89
   2  -4  -5  258.43   32.03
  -1   4   5    4.20    7.45
  -1   4   5   -2.78    5.80
   1  -4  -5   -1.56    6.07
   1  -4  -5    6.14    3.61
   0  -4  -5   73.48   13.54
   0   4   5  131.16   16.01
   0  -4  -5  111.23   15.87
  -1  -4  -5  726.02   64.69
   1   4   5  736.51   61.31
  -1  -4  -5  781.23   64.93
   2   4   5  670.73   55.25
  -2  -4  -5  743.23   57.87
   2   4   5  620.92   52.17
  -2  -4  -5  660.58   57.80
   3   4   5  123.51   16.22
  -3  -4  -5  136.04   18.02
  -3  -4  -5  113.65   14.62
   3   4   5  108.20   12.88
   4   4   5  107.11   16.19
  -4  -4  -5  114.71   13.95
   4   4   5  115.71   15.07
  -4  -4  -5  129.63   18.98
   5   4   5   48.75   11.76
   5   4   5   48.41   10.46
  -5  -4  -5   65.20    8.95
  -5  -4  -5   57.11   12.84
   5   4   5   56.08   11.61
  -6  -4  -5   78.64   16.80
   6   4   5   91.01   16.30
   6   4   5  101.97   16.64
   6   4   5   92.10   15.73
   7   4   5  114.36   19.58
  -7  -4  -5  131.02   22.45
   7   4   5   93.75   17.97
   7   4   5  119.84   17.97
   8   4   5  144.92   21.79
   8   4   5  127.86   22.42
   8   4   5  131.32   20.20
  -8  -4  -5  129.91   24.22
  -9  -4  -5   11.95   13.32
   9   4   5   14.94   11.54
   9   4   5   20.89   11.98
   9   4   5   16.55   10.86
  10   4   5   27.51   13.17
 -10  -4  -5    4.52   14.55
 -11  -4  -5   37.99   20.03
  11   4   5   81.11   21.08
  -7   5   5   40.40   19.32
   7  -5  -5   20.51   20.27
   6  -5  -5   35.11   18.67
  -6   5   5   47.64   19.66
   5  -5  -5    6.32   13.09
  -5   5   5   28.46   14.32
  -4   5   5   16.41   12.89
   4  -5  -5   16.60   12.55
  -3   5   5  116.64   16.10
   3  -5  -5   93.05   19.77
  -3   5   5  107.33   19.95
   2  -5  -5   19.07   10.28
  -2   5   5   32.50    9.70
  -2   5   5   32.42   11.71
   1  -5  -5  276.83   33.76
  -1   5   5  343.78   30.47
  -1   5   5  302.19   34.12
   0   5   5  103.29   15.95
   0  -5  -5  126.34   18.52
   0  -5  -5  111.13   17.82
   1   5   5   45.61   10.94
  -1  -5  -5   56.04   12.66
  -1  -5  -5   30.18    9.64
   2   5   5  152.92   19.11
   2   5   5  138.63   13.27
  -2  -5  -5  152.03   20.31
  -2  -5  -5  144.34   18.61
   3   5   5  398.96   40.51
   3   5   5  494.92   39.47
  -3  -5  -5  544.86   42.83
  -3  -5  -5  407.56   42.71
   4   5   5  251.59   24.23
  -4  -5  -5  222.11   22.71
  -4  -5  -5  261.57   28.38
   4   5   5  207.69   25.85
  -5  -5  -5   29.18    5.88
   5   5   5    6.00    8.15
  -5  -5  -5   12.20    9.21
   5   5   5    7.01    7.70
   5   5   5    2.08    7.25
  -6  -5  -5  142.43   21.58
   6   5   5  110.56   17.66
   6   5   5  132.19   20.35
   6   5   5  146.62   20.68
  -7  -5  -5  532.71   50.82
   7   5   5  463.79   47.15
   7   5   5  456.80   43.25
   7   5   5  509.45   47.49
   8   5   5   70.38   14.72
   8   5   5   18.06   11.05
  -8  -5  -5   -0.04   11.06
   8   5   5   15.76   10.73
   9   5   5   -2.25    9.61
  -9  -5  -5    2.96   10.95
   9   5   5    4.23   11.06
   9   5   5   14.93   11.46
  10   5   5   34.90   14.59
 -10  -5  -5   24.80   18.29
  10   5   5   55.24   17.31
  10   5   5   40.21   16.34
  11   5   5   60.91   20.91
 -11  -5  -5   68.54   22.22
   6  -6  -5   12.99   17.14
  -6   6   5   24.31   18.02
  -5   6   5  -11.01   13.27
   5  -6  -5   -3.57   15.13
  -4   6   5   -7.01   10.58
   4  -6  -5   12.63   12.86
   3  -6  -5   -3.23   10.66
  -3   6   5    3.33   10.46
   2  -6  -5  222.49   30.23
  -2   6   5  205.79   23.78
  -2   6   5  233.49   29.93
  -1   6   5    7.02    7.21
   1  -6  -5   -3.13    7.72
  -1   6   5   10.65    9.16
   0   6   5  182.50   21.11
   0  -6  -5  137.24   21.95
   0  -6  -5  139.62   21.94
   1   6   5  104.25   16.47
  -1  -6  -5  122.98   17.14
  -1  -6  -5   70.58   15.65
   2   6   5    0.62    6.23
  -2  -6  -5    4.47    7.65
  -2  -6  -5    3.27    5.37
   3   6   5  142.10   19.63
   3   6   5  161.75   15.49
  -3  -6  -5  122.84   17.23
  -3  -6  -5  100.37   17.96
   4   6   5  274.20   27.44
  -4  -6  -5  284.76   30.30
   4   6   5  252.39   29.26
  -4  -6  -5  234.45   25.02
   4   6   5  273.22   26.40
   5   6   5    9.41    9.73
  -5  -6  -5    0.55    8.00
   5   6   5    3.82    7.77
   5   6   5   -2.39    7.19
   6   6   5  309.14   31.92
   6   6   5  302.93   33.01
   6   6   5  241.58   28.56
  -6  -6  -5  265.11   33.88
   7   6   5    1.69    9.59
   7   6   5   -7.79    7.69
  -7  -6  -5   -2.98    8.57
   7   6   5    4.19    9.41
  -8  -6  -5   74.27   17.52
   8   6   5   65.45   15.21
   8   6   5   64.07   16.87
   8   6   5   58.04   15.77
   9   6   5   34.46   14.92
  -9  -6  -5   32.85   15.39
   9   6   5   29.39   13.94
   9   6   5   16.14   12.81
  10   6   5    0.37   12.85
  10   6   5   -7.70   11.17
 -10  -6  -5   10.03   14.99
  10   6   5   -1.75   12.89
  11   6   5    8.85   17.00
  11   6   5   17.56   14.98
  11   6   5   14.08   16.02
 -11  -6  -5    6.95   17.30
  -6   7   5   24.25   19.74
   6  -7  -5   33.46   20.49
   5  -7  -5   17.05   16.48
  -5   7   5    0.97   16.35
  -4   7   5   -4.87   13.51
   4  -7  -5   -3.60   13.64
  -3   7   5   32.38   14.25
   3  -7  -5   11.22   11.54
  -2   7   5   18.08   12.25
   2  -7  -5   -6.55   10.28
  -1   7   5    2.66    9.72
   1  -7  -5   12.68   10.78
  -1   7   5   -3.89    7.24
   0   7   5   11.38    8.79
   0  -7  -5    4.87    9.53
  -1  -7  -5   15.07    9.24
   1   7   5   17.57    9.06
  -1  -7  -5   20.75   10.46
   2   7   5   -3.14    8.06
  -2  -7  -5    9.33    9.00
  -2  -7  -5   10.45    6.35
  -3  -7  -5    2.47    8.09
  -3  -7  -5    7.68    6.18
   3   7   5   25.20   10.67
  -4  -7  -5    3.06    9.09
   4   7   5   -0.39    9.47
   4   7   5    9.63    7.38
  -4  -7  -5    4.98    5.54
   4   7   5   -3.41    8.75
   5   7   5  258.16   27.93
  -5  -7  -5  240.12   30.22
   5   7   5  272.56   31.47
   5   7   5  216.24   27.09
   6   7   5   28.68   12.73
   6   7   5   39.25   12.45
  -6  -7  -5   37.86   13.66
   6   7   5   44.57   11.95
   7   7   5  119.40   21.78
  -7  -7  -5  138.59   24.41
   7   7   5  113.17   19.78
   8   7   5   -5.35    9.61
  -8  -7  -5   11.62   12.45
   8   7   5   -5.64    9.04
   8   7   5    9.48   12.32
  -9  -7  -5   22.65   13.99
   9   7   5   24.17   12.23
   9   7   5    1.90   10.71
   9   7   5  -11.36   10.95
 -10  -7  -5   22.56   17.20
  10   7   5   60.71   20.81
  10   7   5   23.64   15.73
  10   7   5   37.72   16.89
   5  -8  -5    1.91   18.31
  -5   8   5   13.20   18.48
   4  -8  -5    1.00   14.18
  -4   8   5   -0.70   14.32
  -3   8   5   30.97   15.02
   3  -8  -5   -4.52   13.61
   2  -8  -5   26.98   14.52
  -2   8   5    7.32   12.99
  -1   8   5   26.75   12.85
   1  -8  -5    5.60    9.75
   0   8   5   68.59   17.50
   0  -8  -5   89.64   18.88
   0   8   5  101.20   17.20
  -1  -8  -5   21.59   11.86
  -1  -8  -5   11.91   11.03
   1   8   5    6.39   10.16
   2   8   5  -13.73    7.26
  -2  -8  -5   13.44    9.27
  -2  -8  -5    3.35    8.49
  -3  -8  -5    7.76   10.20
   3   8   5   12.13    9.55
  -3  -8  -5   12.16    6.68
  -4  -8  -5  313.55   36.00
   4   8   5  277.77   31.76
   4   8   5  343.57   36.20
  -4  -8  -5  279.93   30.51
   5   8   5   17.30   11.17
   5   8   5   44.30   11.23
   5   8   5   18.56   11.02
  -5  -8  -5   14.29   10.49
   6   8   5   34.46   12.47
  -6  -8  -5   14.77   11.10
   6   8   5   41.21   13.56
   6   8   5   13.68   10.79
   7   8   5   28.08   12.22
   7   8   5   41.39   15.31
  -7  -8  -5   34.09   13.87
   7   8   5   23.85   12.28
   8   8   5   51.76   15.76
   8   8   5   56.55   14.78
   8   8   5   39.56   16.31
  -8  -8  -5   40.16   16.09
  -9  -8  -5   94.60   24.41
   9   8   5   72.82   19.45
   9   8   5   64.98   17.60
   9   8   5   87.98   22.08
  10   8   5   -7.79   12.70
  10   8   5    8.65   14.50
  10   8   5  -16.00   15.42
 -10  -8  -5    1.15   15.40
  -4   9   5   11.63   16.26
   4  -9  -5   40.87   20.32
   3  -9  -5    7.18   15.85
  -3   9   5   -2.09   13.84
  -2   9   5   43.24   15.64
   2  -9  -5   34.45   17.44
  -1   9   5    7.40   11.36
   1  -9  -5    4.11   12.35
   0   9   5   65.28   17.44
   0  -9  -5   50.50   16.29
  -1  -9  -5   27.98   14.02
   1   9   5   43.58   14.61
  -1  -9  -5   27.18   14.04
   2   9   5    5.62   10.71
  -2  -9  -5    2.86   10.47
  -2  -9  -5    6.87   10.20
   3   9   5   24.95   12.23
  -3  -9  -5   27.27   11.39
  -3  -9  -5   12.65   11.54
   4   9   5   23.40   12.64
   4   9   5   26.72   13.85
  -4  -9  -5   24.91   12.87
   5   9   5    1.25   11.27
   5   9   5    2.45   10.82
  -5  -9  -5  -10.15    8.55
   6   9   5   33.01   16.03
  -6  -9  -5    3.53   11.40
   6   9   5   30.44   13.78
  -7  -9  -5   22.42   12.10
   7   9   5    0.40   12.52
   7   9   5    4.38   11.96
   8   9   5   67.22   18.73
   8   9   5  107.59   21.74
  -8  -9  -5   55.69   17.09
   8   9   5   35.35   14.65
   9   9   5   39.07   18.11
  -9  -9  -5   17.96   16.90
   9   9   5   12.20   15.77
   9   9   5   43.38   16.30
  10   9   5   35.21   20.04
 -10  -9  -5  -15.22   14.82
  10   9   5   10.02   16.33
  10   9   5  -14.69   14.36
   3 -10  -5   15.68   20.28
  -3  10   5    8.93   17.19
  -2  10   5   16.94   15.36
   2 -10  -5  -13.33   13.89
  -1  10   5   36.82   16.24
   1 -10  -5   24.23   16.94
   0 -10  -5  -12.49   11.55
   0  10   5   21.28   14.05
  -1 -10  -5   11.68   12.34
   1  10   5   21.69   11.85
  -2 -10  -5   55.51   16.87
   2  10   5   37.16   14.74
  -2 -10  -5   17.22   12.38
   3  10   5   17.70   12.51
  -3 -10  -5   -3.46   10.65
  -3 -10  -5    8.79   12.10
   4  10   5   21.09   13.41
  -4 -10  -5    7.65   13.00
   4  10   5   -2.47   13.70
   5  10   5   65.35   19.22
  -5 -10  -5   52.81   17.10
   5  10   5   75.44   19.29
  -6 -10  -5   44.11   15.97
   6  10   5   75.66   19.36
   6  10   5   65.94   19.30
   7  10   5    9.28   13.91
  -7 -10  -5   18.07   14.16
   7  10   5   -8.42   12.00
   8  10   5   -5.97   13.67
  -8 -10  -5    7.08   13.73
   8  10   5   24.43   15.06
  -9 -10  -5    7.95   15.26
   9  10   5   -6.36   13.58
   9  10   5    5.56   14.23
  -1  11   5    0.34   14.79
   1 -11  -5   27.29   18.86
   0 -11  -5   20.82   17.26
   0  11   5  -13.86   11.71
  -1 -11  -5    9.93   13.81
   1  11   5    4.62   12.99
  -2 -11  -5    3.30   13.01
  -3 -11  -5  -12.91   13.23
  -3 -11  -5    6.29   12.74
   3  11   5    5.06   13.68
   4  11   5   13.08   13.44
  -4 -11  -5    7.95   12.04
  -5 -11  -5    9.48   14.01
   5  11   5   -5.67   13.95
   5  11   5   10.29   14.44
   6  11   5   21.05   16.05
  -6 -11  -5   15.01   14.88
   6  11   5   -8.08   14.23
   7  11   5   -3.80   13.31
   7  11   5   38.12   16.33
  -7 -11  -5   15.68   14.58
  -8 -11  -5   32.48   16.59
   8  11   5   19.52   16.44
   8  11   5    5.00   14.94
  -1 -12  -5    0.39   15.31
   1  12   5   19.60   15.45
  -2 -12  -5   -3.16   15.04
   2  12   5   36.96   15.50
  -3 -12  -5   25.31   17.90
   4  12   5   25.00   16.86
  -4 -12  -5    8.30   14.47
   5  12   5   45.68   19.70
   5  12   5   12.16   17.26
  -5 -12  -5   19.75   14.87
   6  12   5   29.12   17.84
  -6 -12  -5   19.78   17.90
   6  12   5   -4.14   15.34
  -4  -9   6    9.23   12.26
   4   9  -6   -9.05   15.21
  -3  -9   6   11.77   12.68
  -3  -9   6    5.92   17.59
   3   9  -6   49.71   20.37
   2   9  -6   14.70   18.62
  -2  -9   6   -4.73   16.39
  -2  -9   6    5.78   11.74
   1   9  -6    8.14   18.54
  -1  -9   6    6.39   16.42
   0  -9   6    2.65   15.07
   0   9  -6   35.48   20.33
   1  -9   6   -3.33   13.18
  -1   9  -6   25.31   20.58
   2  -9   6    6.90   15.44
  -2   9  -6   22.58   18.33
  -6  -8   6   -0.41   14.50
   6   8  -6    0.87   15.69
  -5  -8   6   10.72   13.57
   5   8  -6   27.58   16.35
  -4  -8   6   17.97   11.92
   4   8  -6   -1.38   13.07
  -3  -8   6   21.78   16.86
   3   8  -6    5.09   15.87
  -3  -8   6   19.01   11.34
  -2  -8   6   42.38   13.05
   2   8  -6   71.44   20.17
  -2  -8   6   18.83   16.27
   1   8  -6   32.77   18.72
  -1  -8   6   -0.81    8.56
  -1  -8   6   34.89   17.27
   0   8  -6   -0.83   15.42
   0  -8   6   14.69   13.18
   1  -8   6   47.05   16.88
  -1   8  -6   27.51   18.02
  -2   8  -6   19.89   16.79
   2  -8   6   10.65   13.77
  -3   8  -6    7.62   15.86
   3  -8   6   10.50   12.61
  -4   8  -6   12.33   19.37
   4  -8   6   26.13   16.19
   7   7  -6   13.69   15.97
  -7  -7   6   30.60   18.29
  -6  -7   6   -5.71   10.64
   6   7  -6   15.17   14.23
  -5  -7   6    6.56   12.51
   5   7  -6   17.49   15.91
   4   7  -6   54.64   18.00
  -4  -7   6   69.60   17.21
   4   7  -6   93.62   21.77
  -3  -7   6   25.33   15.37
   3   7  -6   26.19   16.03
  -3  -7   6    3.17    8.68
   2   7  -6   19.97   16.03
  -2  -7   6    6.68    8.59
  -2  -7   6    8.24   14.57
  -1  -7   6    8.93    8.53
   1   7  -6   24.32   16.07
  -1  -7   6   12.57   13.92
   0   7  -6   19.67   15.69
   0  -7   6   22.41   12.80
   0  -7   6   33.10   11.04
  -1   7  -6   55.12   19.05
   1  -7   6   42.10   15.61
  -2   7  -6   36.33   15.33
   2  -7   6   51.61   15.75
  -3   7  -6   -4.04   13.71
   3  -7   6    2.48   10.39
   4  -7   6   16.26   14.39
  -4   7  -6  -13.98   15.36
  -5   7  -6  -17.75   15.49
   5  -7   6   14.16   13.88
  -7  -6   6  -10.52   13.77
   7   6  -6  -20.59   14.28
   6   6  -6   -8.62   12.34
  -6  -6   6   45.05   14.83
   5   6  -6    7.69   12.86
  -5  -6   6   17.15   12.38
  -4  -6   6  -10.25    7.48
   4   6  -6   15.91   12.47
   4   6  -6   53.76   15.48
  -3  -6   6    6.01    9.51
   3   6  -6    8.24   12.80
  -2  -6   6   46.58   12.94
  -2  -6   6   20.55   14.89
   2   6  -6   55.58   16.69
   1   6  -6   34.25   14.58
  -1  -6   6   11.13    8.54
  -1  -6   6   31.47   14.96
   0  -6   6    3.99    7.73
   0   6  -6   47.07   15.87
   0  -6   6   47.41   15.15
   1  -6   6   31.78    9.95
  -1   6  -6   25.71   15.23
   1  -6   6   24.83   11.74
   2  -6   6  141.55   24.64
  -2   6  -6   90.97   21.17
  -3   6  -6    9.05   12.44
   3  -6   6    6.80   10.87
   4  -6   6   29.63   13.35
  -4   6  -6   13.36   13.95
   5  -6   6   17.27   12.03
  -5   6  -6    9.91   13.59
   6  -6   6   13.16   14.01
  -6   6  -6   11.79   15.39
   8   5  -6  -11.28   17.44
  -8  -5   6   13.26   16.94
   7   5  -6   11.73   16.23
  -7  -5   6   12.86   15.46
   6   5  -6    9.22   12.96
  -6  -5   6   29.54   16.75
  -5  -5   6  105.64   21.29
   5   5  -6   88.76   23.15
   5   5  -6   66.91   19.47
  -4  -5   6    0.14    9.57
   4   5  -6   16.61   13.09
   4   5  -6  -13.50    8.31
   3   5  -6    3.47   11.34
  -3  -5   6    2.72    8.67
   3   5  -6    8.31   10.77
   2   5  -6   39.91   15.21
  -2  -5   6   17.97   12.77
  -2  -5   6   10.40    8.16
  -1  -5   6    2.55    6.88
   1   5  -6    3.42   11.24
  -1  -5   6   27.61   12.65
   0  -5   6   20.42    8.40
   0   5  -6   41.41   15.96
   0  -5   6   39.38   13.35
   1  -5   6   18.76    7.84
  -1   5  -6   31.06   14.67
   1  -5   6   11.60   10.43
  -2   5  -6   93.56   20.75
   2  -5   6   52.61   14.73
  -3   5  -6    2.67   10.30
   3  -5   6    4.38   10.10
   4  -5   6   11.61   11.01
  -4   5  -6   -5.33    9.45
   5  -5   6  123.83   24.30
  -5   5  -6   99.46   22.88
  -6   5  -6   22.75   14.77
   6  -5   6   11.41   14.12
   7  -5   6  -10.45   12.38
  -7   5  -6  -13.79   12.84
  -8  -4   6   23.90   16.57
   8   4  -6   22.52   19.69
   7   4  -6   42.19   18.31
  -7  -4   6   40.07   17.85
  -6  -4   6   13.78   13.42
   6   4  -6   12.24   11.09
   5   4  -6   20.56   16.46
   5   4  -6   24.85   12.02
  -5  -4   6    7.01   13.47
  -4  -4   6   12.45    9.09
   4   4  -6   10.58   12.73
   4   4  -6    4.06   10.25
  -3  -4   6   10.89    9.03
   3   4  -6   15.17    9.83
   3   4  -6    2.23    9.67
  -2  -4   6   -5.68    9.72
  -2  -4   6   -2.68    6.38
   2   4  -6   -9.30   10.17
  -1  -4   6   -3.14    9.63
   1   4  -6   -6.33    9.71
  -1  -4   6    3.75    6.38
   0  -4   6    7.13    9.22
   0  -4   6    7.50    7.29
   0   4  -6    0.47   10.45
   1  -4   6   13.61    7.48
   1  -4   6   21.16    9.88
  -1   4  -6   16.48   13.10
   2  -4   6    1.91    6.95
  -2   4  -6   -4.21    8.51
   2  -4   6    2.34    5.61
   3  -4   6   19.32    9.48
  -3   4  -6   17.96   12.07
  -4   4  -6   35.16   14.31
  -4   4  -6   25.19   12.60
   4  -4   6   33.78   12.69
  -5   4  -6  143.71   23.34
   5  -4   6  112.17   22.01
  -5   4  -6   86.21   19.50
  -6   4  -6   44.86   16.57
   6  -4   6   41.89   13.82
  -6   4  -6   23.48   13.71
   7  -4   6   16.41   13.64
  -7   4  -6   -6.27   12.93
  -7   4  -6   22.35   12.91
  -8   4  -6   14.62   16.22
  -8   4  -6   -3.78   14.12
   8  -4   6   17.91   14.89
  -8  -3   6    5.53   14.54
   8   3  -6   25.52   15.74
  -7  -3   6   32.99   17.25
   7   3  -6   11.79   14.71
  -6  -3   6   11.41   12.45
   6   3  -6   -1.18   12.73
   5   3  -6   15.24   14.27
  -5  -3   6    9.45   11.07
   5   3  -6   24.57   11.29
  -4  -3   6    0.43    9.62
   4   3  -6    0.57   12.74
   4   3  -6    5.53    9.52
  -3  -3   6   72.26   14.58
   3   3  -6   55.34   13.94
   3   3  -6   48.83   15.13
   2   3  -6  117.14   19.19
  -2  -3   6  123.31   18.65
  -2  -3   6   79.40   17.30
  -1  -3   6   13.25    7.98
  -1  -3   6    9.96    7.64
   1   3  -6    8.87    9.24
   0  -3   6  456.28   43.42
   0   3  -6  420.21   46.41
   0  -3   6  478.73   41.71
   1  -3   6  118.96   19.22
   1  -3   6  116.75   16.98
  -1   3  -6   98.40   19.69
  -2   3  -6  172.34   19.61
  -2   3  -6  186.80   27.65
   2  -3   6  207.40   21.91
   2  -3   6  144.45   23.06
   3  -3   6    5.48    5.45
  -3   3  -6   -1.49    8.37
  -3   3  -6   10.42   10.68
   3  -3   6    3.53    8.40
   4  -3   6    1.18    7.50
  -4   3  -6   -1.77    9.39
  -4   3  -6   10.09   11.12
  -5   3  -6   45.84   13.67
   5  -3   6   25.28   11.01
  -5   3  -6   38.99   12.86
  -6   3  -6   26.78   13.34
   6  -3   6  104.67   18.46
  -6   3  -6   44.13   15.89
   7  -3   6    0.85   12.07
  -7   3  -6   -3.77   11.60
  -7   3  -6   17.12   13.57
   8  -3   6   16.36   15.12
  -8   3  -6   68.51   20.26
  -8   3  -6   21.31   14.16
   9  -3   6   43.39   18.46
  -9   3  -6   21.62   18.47
   8   2  -6  -21.76   12.44
  -8  -2   6   10.06   14.21
   7   2  -6    1.31   13.75
  -7  -2   6    0.58   13.31
  -6  -2   6    8.99   10.71
   6   2  -6    6.06   13.24
   6   2  -6    1.80   14.58
   5   2  -6   27.46   14.49
  -5  -2   6   18.75   12.41
   5   2  -6   -1.21    8.90
  -4  -2   6    7.41   10.24
   4   2  -6   12.55   12.13
   4   2  -6    0.95    7.84
   3   2  -6  -13.79    5.45
  -3  -2   6    8.12   10.28
   3   2  -6   11.16   11.65
  -2  -2   6   -8.01    6.05
   2   2  -6   -3.22    7.34
   1   2  -6  357.64   38.78
  -1  -2   6  367.55   36.79
  -1  -2   6  457.46   38.59
   0  -2   6   10.01    7.19
   0   2  -6    8.60    8.24
   0  -2   6    3.92    6.54
   1  -2   6  751.08   55.74
  -1   2  -6  611.75   53.04
   1  -2   6  574.82   56.93
  -1   2  -6  720.01   60.75
   2  -2   6   24.72    9.48
  -2   2  -6   16.97   10.01
  -2   2  -6   33.28    7.77
   2  -2   6   29.99    8.20
  -3   2  -6   78.87   14.40
   3  -2   6   67.44   14.70
  -3   2  -6   82.42   17.69
   3  -2   6   71.07   11.78
   4  -2   6    0.59    7.56
  -4   2  -6   14.26    9.01
  -4   2  -6    4.57    9.76
   4  -2   6   16.64    5.83
   5  -2   6  188.08   27.03
  -5   2  -6  194.26   27.14
  -5   2  -6  197.99   26.23
  -6   2  -6  109.40   20.97
  -6   2  -6   85.32   17.93
   6  -2   6  120.03   21.59
  -7   2  -6   16.54   12.52
  -7   2  -6   -9.44    9.57
   7  -2   6    7.69   11.47
  -8   2  -6   57.14   17.99
   8  -2   6   58.41   19.63
  -9   2  -6   66.44   22.67
   9  -2   6   70.31   21.35
  -8  -1   6   47.39   17.19
   8   1  -6   18.23   14.51
   7   1  -6    6.59   11.84
  -7  -1   6   -1.56   13.05
  -6  -1   6   16.43   11.37
   6   1  -6  -13.63   10.43
   6   1  -6   12.08   14.65
   5   1  -6   16.91   12.58
  -5  -1   6   12.01   10.02
   5   1  -6   19.23   14.13
  -4  -1   6  142.13   22.06
   4   1  -6   94.52   19.57
   4   1  -6  103.33   17.29
   3   1  -6    5.49    8.62
  -3  -1   6    7.61    7.62
  -3  -1   6    5.89    7.42
   3   1  -6   23.31    7.20
   2   1  -6   17.00    6.83
  -2  -1   6    3.91    8.35
   2   1  -6   -2.98    8.23
  -2  -1   6    5.41    6.10
  -1  -1   6   -7.65    3.47
  -1  -1   6    3.20    6.42
  -1  -1   6    3.47    4.55
   1   1  -6   -9.28    6.47
   0   1  -6   14.71    4.49
   0  -1   6    4.51    5.53
   0   1  -6    4.57    7.48
   0  -1   6    1.71    5.16
   1  -1   6   34.44    8.05
  -1   1  -6   25.29    9.18
   1  -1   6   25.12    8.21
  -1   1  -6   19.72    6.47
   2  -1   6  279.90   26.63
  -2   1  -6  284.20   31.77
  -2   1  -6  276.40   26.34
   2  -1   6  297.00   29.83
  -3   1  -6   36.95   11.58
   3  -1   6   70.16   11.34
   3  -1   6   36.41   10.62
  -3   1  -6   53.94   11.47
  -4   1  -6  130.28   19.53
  -4   1  -6  127.49   20.46
   4  -1   6  119.57   15.26
   4  -1   6  112.12   18.88
   5  -1   6   76.72   16.22
  -5   1  -6   99.54   17.47
  -5   1  -6   51.26   15.87
   5  -1   6   58.46   10.05
  -6   1  -6   75.24   15.76
  -6   1  -6   66.76   15.93
   6  -1   6   78.67   16.20
  -7   1  -6   14.63   11.48
   7  -1   6   16.90   12.30
  -7   1  -6    6.30    9.90
  -8   1  -6   21.65   13.03
   8  -1   6    2.27   12.99
   9  -1   6    6.79   13.90
  -9   1  -6    3.70   13.64
 -10   1  -6   19.92   19.49
  10  -1   6    9.53   16.09
   8   0  -6   -2.24   15.12
  -7   0   6    7.23   12.00
   7   0  -6   34.02   18.19
   7   0  -6   -4.22   10.91
   6   0  -6   -6.78   12.68
  -6   0   6   12.87   12.29
  -6   0   6    5.39    9.32
   6   0  -6   -0.40    9.65
  -5   0   6    3.49    9.00
   5   0  -6   -1.10   10.28
   5   0  -6    7.25   12.07
  -5   0   6    1.01   10.02
  -4   0   6  281.45   33.58
  -4   0   6  300.73   31.93
   4   0  -6  307.98   33.18
   4   0  -6  314.31   36.23
  -3   0   6  246.31   24.44
   3   0  -6  232.40   24.19
   3   0  -6  178.29   27.46
  -3   0   6  208.09   27.56
  -2   0   6  141.77   16.00
  -2   0   6  113.78   18.66
   2   0  -6  127.40   16.20
   2   0  -6  115.26   19.07
   1   0  -6  317.10   33.20
  -1   0   6  267.32   30.05
  -1   0   6  303.76   27.04
   0   0  -6    8.46    6.98
   0   0   6   -5.73    3.96
   0   0  -6    0.00    5.03
   0   0   6    1.75    4.25
   1   0   6  136.03   15.80
  -1   0  -6   87.56   15.53
  -1   0  -6  116.57   13.14
   1   0   6   91.91   14.79
  -2   0  -6   10.68    5.90
  -2   0  -6    5.28    7.03
   2   0   6   -3.26    4.49
   2   0   6    4.51    5.43
   3   0   6    3.12    5.78
  -3   0  -6    8.99    7.10
   3   0   6    5.19    4.83
  -3   0  -6    2.44    6.98
  -4   0  -6   73.70   15.26
  -4   0  -6   87.67   15.35
   4   0   6   89.73   13.17
   4   0   6   74.88   14.83
   5   0   6   98.55   19.07
   5   0   6  168.42   18.02
  -5   0  -6  140.33   22.09
  -5   0  -6  141.83   20.51
   6   0   6   51.27   10.82
  -6   0  -6   51.30   14.71
  -6   0  -6   61.46   13.89
   6   0   6   36.91   12.14
  -7   0  -6  224.21   30.87
   7   0   6  224.23   31.33
  -7   0  -6  189.79   26.10
   8   0   6   30.99   14.01
  -8   0  -6   24.41   14.18
   9   0   6   35.99   15.05
  -9   0  -6   19.38   15.29
  10   0   6   17.54   14.49
 -10   0  -6   56.61   21.13
   7  -1  -6   23.46   17.10
  -7   1   6   -2.88   12.78
  -6   1   6   39.82   13.42
  -6   1   6   54.52   16.74
   6  -1  -6   47.03   15.03
   6  -1  -6   41.46   18.55
  -5   1   6   11.81   11.83
   5  -1  -6    0.87   11.18
  -5   1   6   -0.46    9.39
   5  -1  -6   -9.48    7.93
   4  -1  -6   15.51   12.66
  -4   1   6   23.25   11.39
  -4   1   6   12.41   10.10
   4  -1  -6   50.88   11.89
  -3   1   6  105.70   20.34
   3  -1  -6  185.98   20.29
  -3   1   6  161.26   21.33
   3  -1  -6  161.05   24.30
   2  -1  -6  276.13   26.81
   2  -1  -6  315.03   33.54
  -2   1   6  318.78   29.05
  -2   1   6  292.61   31.05
  -1   1   6  112.95   14.70
   1  -1  -6   92.43   16.42
   1  -1  -6  115.00   13.18
  -1   1   6  109.33   15.86
   0  -1  -6  573.49   54.51
   0  -1  -6  589.81   50.48
   0   1   6  680.27   51.82
   0   1   6  583.46   49.03
   1   1   6   19.19    6.30
  -1  -1  -6   25.11    9.13
  -1  -1  -6   21.34    7.34
   1   1   6   22.30    6.49
  -2  -1  -6    2.63    6.21
  -2  -1  -6   11.74    6.85
   2   1   6    7.07    5.12
   2   1   6   -4.49    5.24
   3   1   6  162.07   18.83
   3   1   6  161.49   19.22
  -3  -1  -6  140.16   18.32
  -3  -1  -6  160.72   19.85
  -4  -1  -6   10.11    8.20
   4   1   6   12.46    6.58
  -4  -1  -6   24.21    9.46
   4   1   6   10.46    7.53
  -5  -1  -6    2.95    8.89
   5   1   6    5.59    6.96
  -5  -1  -6    7.04    7.51
   5   1   6   24.61    9.92
  -6  -1  -6   28.48   10.44
   6   1   6   30.13   11.68
  -6  -1  -6   60.31   15.50
   6   1   6   29.07    9.79
  -7  -1  -6  159.84   27.00
   7   1   6  179.40   26.16
   7   1   6  144.34   20.25
   8   1   6   25.13   13.02
  -8  -1  -6    3.39   12.52
   9   1   6   27.14   13.90
  -9  -1  -6   43.53   16.29
 -10  -1  -6   -6.24   16.55
  10   1   6   12.79   14.67
  -8   2   6   40.37   19.63
  -7   2   6   10.49   15.24
   7  -2  -6   25.69   17.09
  -6   2   6   16.30   10.87
   6  -2  -6   25.06   15.61
  -6   2   6   35.00   17.08
  -5   2   6   46.49   13.57
   5  -2  -6   36.64   12.42
  -5   2   6   48.49   16.29
   5  -2  -6   42.25   16.30
   4  -2  -6  331.81   32.93
  -4   2   6  310.12   35.07
  -4   2   6  321.98   34.35
   4  -2  -6  261.78   35.12
   3  -2  -6    5.80    7.04
  -3   2   6   -7.18    7.92
   3  -2  -6    4.99    9.56
  -3   2   6    9.31    8.35
  -2   2   6   13.70    8.41
  -2   2   6   22.31    8.61
   2  -2  -6   26.96    7.27
   2  -2  -6   28.38    9.85
  -1   2   6   21.29    8.73
   1  -2  -6    6.99    7.94
  -1   2   6   25.25    8.71
   1  -2  -6   23.53    5.42
   0   2   6   16.61    7.24
   0  -2  -6    9.99    6.56
   0  -2  -6    4.65    6.36
   0  -2  -6   14.71    4.04
   1   2   6   49.99   10.44
  -1  -2  -6   64.68   11.53
   1   2   6   57.92    7.86
  -1  -2  -6   60.09   12.32
  -2  -2  -6    4.25    6.18
   2   2   6   -2.16    4.70
   2   2   6   12.32    5.28
  -2  -2  -6    1.99    6.05
   3   2   6  228.44   22.63
  -3  -2  -6  224.77   24.90
  -3  -2  -6  213.63   24.41
   3   2   6  220.80   24.13
   4   2   6   34.09    9.40
   4   2   6   41.36   10.41
  -4  -2  -6   34.25    9.65
  -4  -2  -6   26.35    9.99
   5   2   6  194.87   23.81
  -5  -2  -6  211.05   23.08
  -5  -2  -6  204.38   26.10
   5   2   6  205.62   24.61
   6   2   6    0.49    7.58
  -6  -2  -6    5.53    7.29
  -6  -2  -6   14.39   10.49
   6   2   6   17.35    8.30
  -7  -2  -6   80.30   18.20
   7   2   6   95.75   17.55
   7   2   6   66.81   14.37
   8   2   6   45.48   14.16
   8   2   6   13.40    9.27
  -8  -2  -6   49.77   17.95
   9   2   6   37.24   12.89
  -9  -2  -6   40.69   16.29
  10   2   6    4.61   13.00
 -10  -2  -6   57.16   19.75
  -7   3   6   15.36   17.15
   7  -3  -6   30.15   18.98
   6  -3  -6    6.35   14.25
  -6   3   6   16.05   14.99
   5  -3  -6   18.84   15.44
  -5   3   6   35.12   15.52
  -5   3   6   36.27   11.80
  -4   3   6    5.32   10.25
  -4   3   6   -3.57    7.85
   4  -3  -6    6.50   12.30
  -3   3   6   45.03   14.09
   3  -3  -6   38.13   13.21
  -3   3   6   58.65   13.30
  -2   3   6    0.55    6.37
   2  -3  -6    0.28    8.93
  -2   3   6   -7.12    6.82
   1  -3  -6   40.83    5.92
   1  -3  -6   35.23   10.06
  -1   3   6   29.68   11.10
  -1   3   6   34.77   10.01
   0  -3  -6   17.62    8.02
   0   3   6   23.79    8.41
   0  -3  -6   24.46    8.30
   1   3   6   16.79    7.36
  -1  -3  -6   16.05    7.94
  -1  -3  -6   10.52    6.56
   2   3   6   61.80    7.85
  -2  -3  -6   51.17   11.28
   2   3   6   38.90   10.12
  -2  -3  -6   55.79   11.87
  -3  -3  -6  163.51   19.97
   3   3   6  111.01   17.92
   3   3   6  140.71   15.55
  -3  -3  -6  171.69   19.24
   4   3   6  514.57   40.30
  -4  -3  -6  469.24   41.54
   4   3   6  404.78   40.08
  -4  -3  -6  397.63   41.26
   5   3   6   14.98    7.51
  -5  -3  -6    7.34    7.99
  -5  -3  -6   14.66    8.03
   5   3   6    6.96    7.36
  -6  -3  -6  132.94   21.38
   6   3   6  108.13   18.38
   6   3   6  102.52   17.33
   7   3   6  222.74   26.74
  -7  -3  -6  230.00   29.40
   7   3   6  129.54   20.93
   8   3   6   15.60   10.95
  -8  -3  -6   13.95   12.86
   8   3   6    5.89    8.39
   9   3   6   -2.77    8.33
   9   3   6    4.32   11.69
  -9  -3  -6   30.73   14.43
  10   3   6   30.41   15.17
 -10  -3  -6   32.60   16.34
 -11  -3  -6   41.43   19.46
  11   3   6    9.79   15.05
  -7   4   6   35.66   19.55
   7  -4  -6    9.55   18.22
  -6   4   6   26.26   17.50
   6  -4  -6   11.40   16.69
   5  -4  -6   10.21   12.76
  -5   4   6   16.27   12.80
   4  -4  -6   51.08   16.71
  -4   4   6   70.11   15.00
  -4   4   6   65.32   17.53
  -3   4   6   13.10    9.09
  -3   4   6   24.78   12.19
   3  -4  -6   47.98   15.57
  -2   4   6  179.69   22.98
  -2   4   6  192.81   25.68
   2  -4  -6  207.76   27.88
   1  -4  -6   48.23   12.66
  -1   4   6   67.98   12.61
  -1   4   6   72.62   15.08
   0   4   6   59.68   13.27
   0  -4  -6   66.12   13.06
   0  -4  -6   63.12   13.10
   1   4   6   -2.88    6.58
  -1  -4  -6    5.87    5.80
  -1  -4  -6   -2.38    7.23
   2   4   6   34.09    9.45
  -2  -4  -6   55.22   10.91
  -2  -4  -6   32.34    9.65
   3   4   6  215.07   23.96
  -3  -4  -6  197.80   23.53
   3   4   6  187.05   18.35
  -3  -4  -6  204.26   22.68
  -4  -4  -6   47.32   10.03
  -4  -4  -6   52.93   13.13
   4   4   6   76.76   13.38
   4   4   6   65.22   10.78
   5   4   6    1.81    7.19
   5   4   6    5.94    6.69
  -5  -4  -6    7.54    7.23
  -5  -4  -6    0.59    5.39
  -6  -4  -6   62.45   15.67
   6   4   6   67.04   14.47
   6   4   6  117.75   17.52
  -7  -4  -6   10.87   11.90
   7   4   6   10.38    9.51
   7   4   6   11.15    8.38
  -8  -4  -6   86.21   19.38
   8   4   6   88.26   17.43
   8   4   6   51.77   14.02
   9   4   6   12.56   11.18
   9   4   6    5.38    9.60
  -9  -4  -6    7.11   14.58
 -10  -4  -6   52.14   19.28
  10   4   6   72.90   18.47
  11   4   6   64.36   20.88
 -11  -4  -6   34.39   20.36
  -7   5   6   20.32   19.80
   7  -5  -6   -8.76   20.28
   6  -5  -6   25.14   17.98
  -6   5   6    5.13   17.25
  -5   5   6    3.12   14.55
   5  -5  -6   12.51   15.63
   4  -5  -6   40.14   17.35
  -4   5   6   48.03   17.27
  -3   5   6  -12.03    8.85
  -3   5   6   27.04    9.61
   3  -5  -6   30.78   13.34
  -2   5   6  319.49   36.58
   2  -5  -6  329.19   37.96
  -2   5   6  306.91   32.61
   1  -5  -6  265.08   33.27
  -1   5   6  283.73   28.88
  -1   5   6  244.48   31.27
   0  -5  -6   11.70    8.18
   0  -5  -6    7.78    8.74
   0   5   6   23.29   10.09
   1   5   6   14.28    7.56
  -1  -5  -6    1.64    5.96
  -1  -5  -6    0.35    7.95
  -2  -5  -6   79.18   13.70
   2   5   6  100.37   16.32
  -2  -5  -6  102.34   17.34
   3   5   6  138.10   18.96
  -3  -5  -6  116.97   17.01
  -3  -5  -6  142.56   20.66
   3   5   6  137.22   13.59
   4   5   6  184.72   24.33
  -4  -5  -6  195.16   25.77
   4   5   6  218.20   21.12
  -4  -5  -6  195.40   21.80
   5   5   6   46.55   12.31
  -5  -5  -6   53.28    9.43
   5   5   6   60.96   12.43
  -5  -5  -6   43.05   13.84
   6   5   6  232.33   28.16
  -6  -5  -6  234.00   30.03
   6   5   6  226.33   27.15
  -7  -5  -6   75.09   17.38
   7   5   6   62.32   15.77
   7   5   6   84.06   15.86
   8   5   6   29.38   12.01
   8   5   6   21.35   11.14
  -8  -5  -6    9.13   10.90
   8   5   6   13.63   11.05
   9   5   6   39.72   14.27
  -9  -5  -6   -3.33   13.33
   9   5   6   16.58   12.85
   9   5   6   68.87   17.08
 -10  -5  -6   87.59   23.50
  10   5   6   62.01   17.38
  10   5   6   39.77   15.02
  11   5   6   41.09   17.05
 -11  -5  -6    8.15   19.25
   6  -6  -6   -3.45   18.00
  -6   6   6   37.30   19.95
   5  -6  -6   -0.07   15.25
  -5   6   6   -7.58   14.45
  -4   6   6   46.28   16.86
   4  -6  -6   33.81   16.88
  -3   6   6   79.43   19.16
   3  -6  -6   67.79   19.30
   2  -6  -6   67.38   17.17
  -2   6   6   56.39   13.82
  -2   6   6   97.84   19.12
   1  -6  -6  144.04   23.65
  -1   6   6  138.99   20.08
  -1   6   6  146.72   23.53
   0  -6  -6   53.48   14.09
   0   6   6   63.42   13.75
   0  -6  -6   72.27   15.51
   1   6   6   58.56   12.74
  -1  -6  -6   20.87   11.57
  -1  -6  -6   31.79   11.50
  -2  -6  -6    7.24    6.78
  -2  -6  -6    9.33    8.70
   2   6   6    3.90    8.23
  -3  -6  -6  341.27   33.54
   3   6   6  334.93   35.08
  -3  -6  -6  326.82   35.82
   4   6   6   72.43   15.11
  -4  -6  -6   75.39   15.98
  -4  -6  -6   81.56   13.26
   5   6   6    2.77    7.49
  -5  -6  -6    9.98    8.80
   5   6   6    2.78    8.17
   6   6   6  153.72   24.37
  -6  -6  -6  164.71   26.47
   6   6   6  182.62   23.02
  -7  -6  -6   37.98   14.18
   7   6   6   61.39   14.04
   7   6   6   59.02   15.21
   7   6   6   38.19   13.83
   8   6   6   34.81   12.46
  -8  -6  -6   39.56   14.54
   8   6   6   24.60   13.69
   8   6   6   11.89   11.51
   9   6   6   28.25   14.13
   9   6   6   19.63   12.61
  -9  -6  -6   25.80   16.01
   9   6   6   23.13   13.54
  10   6   6   89.90   20.48
 -10  -6  -6   48.36   20.71
  10   6   6   79.63   19.96
  10   6   6   45.60   17.22
  11   6   6   22.73   16.42
 -11  -6  -6   12.51   17.97
  11   6   6   16.88   16.92
  11   6   6   25.22   15.96
  -5   7   6   29.66   17.79
   5  -7  -6   30.64   18.56
  -4   7   6   -6.68   14.72
   4  -7  -6   28.39   17.40
  -3   7   6   22.21   14.00
   3  -7  -6   -4.42   13.45
  -2   7   6   51.81   16.36
   2  -7  -6   51.76   17.29
   1  -7  -6  101.92   20.79
  -1   7   6   89.04   20.11
  -1   7   6   99.83   17.23
   0   7   6   25.54   10.17
   0  -7  -6   21.31   11.37
   1   7   6   27.17   11.07
  -1  -7  -6    2.37    8.51
  -1  -7  -6    0.79    8.56
   2   7   6   15.27    9.73
  -2  -7  -6    7.62    9.14
  -2  -7  -6   20.29   10.88
   3   7   6   34.00   12.79
  -3  -7  -6   20.06   11.43
  -3  -7  -6   28.33    8.55
   4   7   6   15.98    9.58
  -4  -7  -6    5.74    8.85
  -4  -7  -6    9.80    6.35
  -5  -7  -6   30.04   11.49
   5   7   6   51.71   13.73
   6   7   6    3.69    9.66
  -6  -7  -6   12.64    9.84
   6   7   6   13.31   11.94
   6   7   6   15.00    9.49
   7   7   6    2.47    9.08
  -7  -7  -6   10.13   12.58
   7   7   6    4.35   10.89
   7   7   6    3.18    9.94
   8   7   6   88.26   20.11
  -8  -7  -6  142.13   25.95
   8   7   6   93.17   21.09
   8   7   6  122.77   21.40
   9   7   6   45.62   16.67
  -9  -7  -6   38.33   16.83
   9   7   6   16.52   13.64
   9   7   6   41.44   15.66
  10   7   6   36.64   15.80
  10   7   6   -3.64   14.14
  10   7   6   -9.79   14.98
 -10  -7  -6   26.95   16.51
  -4   8   6   14.63   17.10
   4  -8  -6   24.17   17.35
  -3   8   6   -4.98   13.50
   3  -8  -6    5.98   14.97
   2  -8  -6    2.89   12.10
  -2   8   6   -2.99   11.79
   1  -8  -6   25.96   12.83
  -1   8   6   -7.86    8.75
   0  -8  -6    4.75   10.27
   0   8   6   -5.12    9.68
   0   8   6   -2.81   10.97
  -1  -8  -6   -0.70    9.32
  -1  -8  -6   -4.89    8.58
   1   8   6   13.39   10.56
   2   8   6   20.09   11.55
  -2  -8  -6   14.64   10.61
  -2  -8  -6   19.30   11.05
   3   8   6    1.87    9.06
  -3  -8  -6    1.03   11.16
  -3  -8  -6    7.61    9.16
  -4  -8  -6   15.71   10.76
  -4  -8  -6    9.47    6.82
   4   8   6   23.19   12.06
   5   8   6   85.43   19.07
  -5  -8  -6   57.08   16.29
   6   8   6   16.97   13.20
  -6  -8  -6   -0.32   10.73
   6   8   6   29.98   14.50
   7   8   6   37.08   15.39
   7   8   6   39.67   14.71
  -7  -8  -6   11.79   12.40
   8   8   6   37.00   17.31
   8   8   6   28.10   13.77
  -8  -8  -6    8.60   14.42
   9   8   6   84.50   21.60
  -9  -8  -6   35.03   19.50
   9   8   6   44.29   16.74
   9   8   6  100.44   20.50
  10   8   6   49.30   17.94
 -10  -8  -6   24.50   18.58
  10   8   6    3.68   14.42
  10   8   6    9.13   16.59
   3  -9  -6    8.21   17.04
  -3   9   6   13.05   15.93
   2  -9  -6   21.44   15.70
  -2   9   6   14.18   14.71
  -1   9   6   17.62   14.73
   1  -9  -6   -7.96   11.83
   0  -9  -6   -2.45   10.68
   0   9   6    6.67   13.04
  -1  -9  -6   74.20   18.91
  -1  -9  -6   71.16   18.40
   1   9   6  104.44   20.08
  -2  -9  -6    9.59   11.30
  -2  -9  -6    7.74   10.42
   2   9   6   25.91   12.62
  -3  -9  -6    4.18    9.90
   3   9   6   -1.20   10.73
  -3  -9  -6    8.90   11.12
  -4  -9  -6   11.24   12.17
   4   9   6    5.30   11.23
  -5  -9  -6    9.67   10.80
   5   9   6   10.03   13.58
   6   9   6  -14.65   11.29
  -6  -9  -6   -5.84   10.86
   6   9   6   -7.40   10.67
  -7  -9  -6   17.22   11.66
   7   9   6    4.43   13.36
   7   9   6    5.25   12.22
   8   9   6   65.58   18.55
   8   9   6   35.62   17.10
  -8  -9  -6   43.56   17.50
  -9  -9  -6   -5.07   14.75
   9   9   6   23.18   15.79
   9   9   6   -1.06   15.21
  -2  10   6   -0.51   14.80
   2 -10  -6    9.87   16.43
   1 -10  -6   -1.45   14.12
  -1  10   6   35.76   16.67
   0 -10  -6  -15.67   11.89
   0  10   6   21.38   13.89
  -1 -10  -6    7.68   12.18
   1  10   6   25.23   15.10
   2  10   6   39.99   14.73
  -2 -10  -6   21.50   14.73
  -2 -10  -6   14.43   12.08
  -3 -10  -6   15.08   12.60
   3  10   6   33.46   15.23
  -3 -10  -6    0.17   11.94
   4  10   6    3.93   11.71
  -4 -10  -6   19.24   12.97
   5  10   6   17.74   13.27
  -5 -10  -6   35.68   15.13
   6  10   6    8.86   14.29
  -6 -10  -6    2.09   12.82
   6  10   6   19.13   15.08
  -7 -10  -6   11.51   13.22
   7  10   6    9.16   16.55
   7  10   6   23.80   15.70
   8  10   6   40.56   17.92
  -8 -10  -6   17.82   13.95
   8  10   6    4.73   14.43
   9  10   6   35.43   17.18
   9  10   6   13.83   17.61
  -9 -10  -6    0.93   15.44
   1 -11  -6    1.01   16.03
  -1  11   6   27.36   17.26
   0 -11  -6   27.56   16.81
   0  11   6   35.57   16.27
  -1 -11  -6   -8.00   12.56
   1  11   6    2.13   13.34
  -2 -11  -6    8.50   15.13
   2  11   6   13.09   16.89
  -3 -11  -6    6.58   14.98
  -3 -11  -6   -0.72   12.43
   3  11   6   17.06   13.32
  -4 -11  -6   -8.05   12.42
   4  11   6   14.88   13.55
  -5 -11  -6   27.38   16.56
   5  11   6   29.53   16.36
  -6 -11  -6    0.09   13.67
   6  11   6   11.35   14.23
   7  11   6   58.67   19.56
  -7 -11  -6   30.19   18.62
   7  11   6   58.53   20.89
  -8 -11  -6   11.63   16.39
   8  11   6   14.69   17.42
   8  11   6   26.87   16.76
   1  12   6   39.19   16.77
  -1 -12  -6    8.47   17.59
   2  12   6   51.86   16.73
  -2 -12  -6   30.17   19.46
  -3 -12  -6   19.06   17.90
  -4 -12  -6    3.85   14.82
   4  12   6   15.58   16.92
  -5 -12  -6    2.59   14.68
   5  12   6   25.69   17.27
   6  12   6   54.43   20.07
  -6 -12  -6   32.78   18.91
  -2  -9   7   15.38   22.15
   1   9  -7   49.47   23.32
  -1  -9   7    2.12   20.04
   0  -9   7   19.31   20.01
  -4  -8   7   21.95   13.15
   4   8  -7    5.77   15.83
  -3  -8   7    6.20   11.17
   3   8  -7   36.65   20.07
   2   8  -7   74.39   21.44
  -2  -8   7   37.04   18.32
  -2  -8   7   29.16   14.23
  -1  -8   7   29.56   17.60
   1   8  -7   23.32   19.53
   0  -8   7    8.48   16.94
   0   8  -7    2.63   19.27
  -1   8  -7   24.36   19.38
   1  -8   7   -0.61   13.90
  -2   8  -7   15.51   19.86
   2  -8   7   13.56   17.07
   3  -8   7  -20.08   13.83
  -3   8  -7   -6.95   17.81
   5   7  -7   19.89   16.07
  -5  -7   7   -9.41   11.07
  -4  -7   7   -0.07   10.04
   4   7  -7   17.01   16.18
   4   7  -7   46.97   17.98
  -3  -7   7    8.15   11.12
   3   7  -7   20.79   16.72
  -2  -7   7   33.53   13.30
   2   7  -7   59.21   19.07
  -2  -7   7   45.63   19.07
  -1  -7   7    3.60   14.29
  -1  -7   7    4.62   10.17
   1   7  -7   14.47   16.06
   0  -7   7   13.95   14.50
   0   7  -7   40.69   18.60
   1  -7   7   30.61   14.29
  -1   7  -7   14.85   15.86
   2  -7   7    1.34   11.13
  -2   7  -7  -15.16   16.43
   3  -7   7   11.34   14.84
  -3   7  -7   -5.43   14.18
  -4   7  -7    4.47   17.15
   4  -7   7   25.41   16.48
   6   6  -7   -7.84   12.89
  -6  -6   7   12.59   14.08
  -5  -6   7   31.81   14.87
   5   6  -7   55.25   18.79
  -4  -6   7   -6.35    9.32
   4   6  -7   11.79   16.00
   4   6  -7   11.58   14.09
  -3  -6   7    3.65   10.09
   3   6  -7   21.98   13.27
   3   6  -7    8.38   15.27
  -2  -6   7    1.94   12.24
  -2  -6   7   13.40    8.87
   2   6  -7   -2.02   13.99
  -1  -6   7   56.57   15.30
  -1  -6   7   87.94   21.54
   1   6  -7  103.03   22.80
   0   6  -7   32.84   16.17
   0  -6   7   -1.45    6.76
   0  -6   7   15.91   12.63
  -1   6  -7   -9.62   14.24
   1  -6   7   -3.99    9.49
   2  -6   7    8.34   13.05
  -2   6  -7   -1.65   15.39
  -3   6  -7    1.39   12.49
   3  -6   7   12.31   11.82
  -4   6  -7   70.40   22.77
   4  -6   7   79.63   20.64
   5  -6   7   16.11   14.40
  -5   6  -7    4.38   14.75
  -6   6  -7   16.88   15.73
   6  -6   7   37.35   16.29
  -7  -5   7   15.46   16.31
   7   5  -7   19.73   17.99
   6   5  -7    6.95   14.05
  -6  -5   7   17.41   15.59
  -5  -5   7   28.43   14.06
   5   5  -7  -16.84   11.22
   5   5  -7   16.73   17.22
  -4  -5   7    6.77   11.61
   4   5  -7   21.28   15.88
   4   5  -7   20.59   12.55
  -3  -5   7    9.35    9.63
   3   5  -7    4.27   11.68
   3   5  -7    7.13   12.74
   2   5  -7   16.61   14.94
  -2  -5   7    9.79   13.28
  -2  -5   7   16.66   10.36
  -1  -5   7   80.53   18.92
   1   5  -7   33.42   16.44
  -1  -5   7   49.19   12.51
   0  -5   7    6.47   11.04
   0  -5   7    8.47    7.66
   0   5  -7    8.92   13.59
   1  -5   7   75.41   15.24
  -1   5  -7   70.65   21.21
   1  -5   7  118.31   21.92
   2  -5   7   17.29   11.43
  -2   5  -7    2.75   13.23
   3  -5   7   16.95   11.06
  -3   5  -7   18.41   14.19
   4  -5   7   23.94   14.50
  -4   5  -7    1.90   13.34
   5  -5   7   24.06   13.49
  -5   5  -7   28.77   14.40
  -6   5  -7    3.77   13.77
   6  -5   7    5.21   13.84
  -7   5  -7   40.41   16.23
   7  -5   7   49.75   18.49
  -7  -4   7   44.90   18.97
   7   4  -7  -23.80   13.88
  -6  -4   7   19.49   16.69
   6   4  -7  -22.43   11.51
   5   4  -7   20.71   17.00
   5   4  -7  -14.02   10.49
  -5  -4   7    7.96   14.46
  -4  -4   7   29.89   12.36
   4   4  -7   -6.46   13.74
   4   4  -7   30.66   13.68
   3   4  -7   12.04   10.03
  -3  -4   7    8.13    8.01
   3   4  -7   -4.45   11.07
  -2  -4   7   10.39   12.45
   2   4  -7    4.09   11.57
  -2  -4   7    0.69    6.77
  -1  -4   7   77.81   18.24
  -1  -4   7   50.16   12.67
   1   4  -7   65.85   18.04
   0  -4   7   27.59   11.60
   0   4  -7   44.26   14.34
   0  -4   7   12.76    8.47
   1  -4   7  106.99   17.31
   1  -4   7   92.13   19.17
  -1   4  -7  111.07   22.90
  -2   4  -7  129.76   25.64
   2  -4   7  146.13   23.08
   2  -4   7  137.11   19.42
   3  -4   7  219.21   29.11
  -3   4  -7  133.67   27.98
   4  -4   7   27.73   12.06
  -4   4  -7   -3.42   11.07
  -5   4  -7    9.62   14.46
   5  -4   7   82.32   19.14
   6  -4   7    0.46   12.13
  -6   4  -7   12.40   12.54
   7  -4   7   26.49   14.86
  -7   4  -7    5.77   14.02
  -7  -3   7   31.22   18.18
   7   3  -7   -9.34   14.99
  -6  -3   7    6.29   14.41
   6   3  -7    6.38   13.95
   5   3  -7   26.27   13.14
   5   3  -7   44.02   17.20
  -5  -3   7   -0.87   12.83
   4   3  -7   10.09   11.25
   4   3  -7   33.30   14.86
  -4  -3   7   33.51   13.45
  -3  -3   7   85.18   18.04
   3   3  -7  114.82   20.55
   3   3  -7   87.63   17.74
  -2  -3   7  126.13   19.96
   2   3  -7   91.51   19.00
  -2  -3   7   81.47   17.66
   1   3  -7   11.65   10.86
  -1  -3   7   18.11   11.15
  -1  -3   7   25.39    9.72
   0   3  -7   32.42   13.19
   0  -3   7   37.06   12.77
   0  -3   7   54.64   12.86
   1  -3   7  128.67   21.09
  -1   3  -7  115.04   21.54
   1  -3   7  100.40   17.67
  -2   3  -7    8.39   10.85
   2  -3   7    0.67    7.82
   2  -3   7   15.92    7.76
   3  -3   7  123.46   21.07
  -3   3  -7  147.09   25.59
   3  -3   7  125.24   17.83
  -4   3  -7   60.78   17.68
   4  -3   7   79.93   16.89
   5  -3   7  204.05   29.52
  -5   3  -7  197.99   30.33
  -5   3  -7  182.96   25.67
  -6   3  -7   17.81   13.37
  -6   3  -7   25.18   13.41
   6  -3   7   49.42   15.05
  -7   3  -7   11.37   13.73
  -7   3  -7   -1.02   12.66
   7  -3   7   10.20   11.75
  -8   3  -7   -8.44   13.58
   8  -3   7   50.05   17.30
  -8   3  -7   31.29   15.57
   8   2  -7    2.08   14.30
  -8  -2   7    8.57   17.18
   7   2  -7    3.38   14.79
  -7  -2   7    3.88   14.28
  -6  -2   7   21.63   15.06
   6   2  -7   -2.09   13.81
   6   2  -7   17.88   17.43
  -5  -2   7   26.85   13.45
   5   2  -7   18.86   12.43
   5   2  -7    0.09   16.18
   4   2  -7   -7.64    8.33
  -4  -2   7   24.25   12.39
   4   2  -7   10.14   13.23
   3   2  -7   16.65   10.48
  -3  -2   7   58.07   15.46
   3   2  -7   31.31   15.15
   2   2  -7  128.71   21.22
  -2  -2   7  114.00   19.30
   2   2  -7   95.04   17.59
  -1  -2   7   84.65   15.17
   1   2  -7   63.62   16.54
  -1  -2   7  118.15   18.83
   0  -2   7   86.75   15.06
   0  -2   7   81.63   16.10
   0   2  -7   45.80   15.17
   1  -2   7   -1.04    6.63
   1  -2   7    7.07    7.83
  -1   2  -7   35.51   11.99
   2  -2   7    7.17    7.59
  -2   2  -7    9.73   10.56
   2  -2   7    8.08    6.77
  -3   2  -7  158.81   19.42
   3  -2   7  130.50   18.68
  -3   2  -7  188.43   26.54
   3  -2   7  148.50   22.33
  -4   2  -7  125.38   23.01
   4  -2   7   69.48   16.22
   4  -2   7   99.55   14.68
  -4   2  -7  117.44   18.67
  -5   2  -7  105.79   20.15
   5  -2   7  106.43   20.60
  -5   2  -7  120.64   22.54
   6  -2   7   55.75   15.44
  -6   2  -7   54.11   17.26
  -6   2  -7   85.78   19.04
  -7   2  -7    5.69   12.39
   7  -2   7   18.72   13.88
  -7   2  -7   22.49   15.26
  -8   2  -7    2.61   15.64
   8  -2   7   29.57   15.19
  -9   2  -7   35.46   19.07
   9  -2   7   20.31   17.23
  -8  -1   7    4.51   16.01
  -7  -1   7   16.64   13.96
   7   1  -7   11.67   14.26
   6   1  -7   11.74   13.42
  -6  -1   7   -1.03   11.11
   6   1  -7   -3.05   16.37
  -5  -1   7  -15.44    9.87
   5   1  -7   -1.55   13.81
   5   1  -7    1.73   10.74
   4   1  -7  104.34   21.41
  -4  -1   7  106.83   19.73
   4   1  -7   62.42   15.93
   3   1  -7   40.05   13.72
  -3  -1   7   12.26   10.97
   3   1  -7   44.51    9.75
   2   1  -7   32.46    8.99
   2   1  -7   43.74   15.18
  -2  -1   7   16.97   11.51
  -1  -1   7  121.27   17.34
  -1  -1   7  124.97   19.97
   1   1  -7  121.30   20.94
   0  -1   7  127.48   17.02
   0  -1   7   59.62   13.61
   0   1  -7   70.95   16.02
   1  -1   7   76.23   14.25
  -1   1  -7   95.07   11.56
   1  -1   7   66.91   13.70
  -1   1  -7  101.44   17.42
   2  -1   7   28.99   10.29
  -2   1  -7   39.37   12.31
   2  -1   7   20.66    7.93
  -2   1  -7   21.83    8.39
   3  -1   7    8.49    7.86
  -3   1  -7   11.89    9.04
  -3   1  -7    6.06    9.93
   3  -1   7   21.18    7.03
   4  -1   7   14.33    6.98
  -4   1  -7   20.36   10.76
  -4   1  -7   19.59   11.23
   4  -1   7   35.34   10.56
   5  -1   7   -5.53    7.76
  -5   1  -7  -11.73    7.62
   5  -1   7   13.30    6.65
  -5   1  -7   13.18   10.42
   6  -1   7  103.75   20.20
  -6   1  -7  113.27   20.36
  -6   1  -7   63.29   17.54
  -7   1  -7   13.43   12.22
  -7   1  -7    9.06   10.76
   7  -1   7   10.41   10.87
  -8   1  -7   28.16   15.27
   8  -1   7    6.80   11.15
   9  -1   7   36.37   17.67
  -9   1  -7   33.81   17.09
  -7   0   7   17.37   14.11
   6   0  -7    1.94   13.77
  -6   0   7    0.37    9.98
   6   0  -7   32.63   13.31
   5   0  -7   28.11   15.44
   5   0  -7   38.64   14.37
  -5   0   7   52.48   14.68
  -4   0   7   87.74   17.88
   4   0  -7   77.01   19.37
   4   0  -7   85.17   16.33
  -3   0   7    3.67    9.56
   3   0  -7   -5.33   11.48
   3   0  -7   14.97    7.10
  -2   0   7   16.12   10.06
   2   0  -7    0.37    5.38
  -2   0   7   13.16    8.01
   2   0  -7   -5.82    9.51
   1   0  -7  118.98   16.48
  -1   0   7  138.30   20.74
   1   0  -7  124.57   21.17
  -1   0   7  135.14   15.24
   0   0   7   22.97    7.67
   0   0  -7   27.86   10.94
   0   0   7   35.62    9.85
   0   0  -7   22.67    7.38
   1   0   7   70.78   12.58
  -1   0  -7   64.74   10.35
   1   0   7   55.40   11.50
  -1   0  -7   44.05   12.86
   2   0   7  120.09   18.57
   2   0   7  146.11   19.36
  -2   0  -7  135.77   20.55
  -2   0  -7  155.70   17.74
   3   0   7  139.26   17.02
   3   0   7  129.09   18.11
  -3   0  -7  114.36   16.54
  -3   0  -7  105.99   19.25
   4   0   7    9.13    6.22
  -4   0  -7   12.45    9.13
  -4   0  -7    8.49    8.90
   4   0   7    9.31    8.01
   5   0   7   73.52   15.67
   5   0   7   75.26   12.32
  -5   0  -7   76.19   16.13
  -5   0  -7   63.70   15.70
  -6   0  -7   44.02   13.24
  -6   0  -7   15.86   10.21
   6   0   7   35.37   11.92
   6   0   7   26.74    8.32
   7   0   7   51.28   14.55
  -7   0  -7   37.75   16.18
  -7   0  -7   40.47   12.73
   8   0   7    8.37   12.07
  -8   0  -7  -15.10   13.18
   9   0   7   14.23   14.42
  -9   0  -7   15.54   16.33
  10   0   7   54.92   19.31
 -10   0  -7   63.44   22.72
   7  -1  -7   17.68   20.28
   6  -1  -7    5.01   15.84
  -6   1   7   13.13   11.28
  -5   1   7   35.26   14.03
  -5   1   7   10.49   11.73
   5  -1  -7   20.29   13.86
  -4   1   7   27.21   12.03
   4  -1  -7    3.74   12.41
   4  -1  -7   17.74    8.84
  -4   1   7   12.07   10.68
  -3   1   7    8.17    9.99
   3  -1  -7   20.20    8.65
  -3   1   7   27.71   10.54
   3  -1  -7  -10.57   10.86
  -2   1   7  234.60   25.23
   2  -1  -7  231.46   23.54
  -2   1   7  243.02   28.52
   2  -1  -7  224.11   30.37
   1  -1  -7   25.93    7.36
   1  -1  -7    7.27   10.94
  -1   1   7   42.02    9.28
  -1   1   7   25.82    9.73
   0   1   7  156.73   20.36
   0  -1  -7  166.58   22.60
   0   1   7  135.40   15.52
   0  -1  -7  156.88   17.24
  -1  -1  -7   -7.02    6.70
   1   1   7   13.37    7.23
  -1  -1  -7   15.99    7.53
   1   1   7   25.40    6.96
   2   1   7  112.55   15.89
   2   1   7  100.54   15.48
  -2  -1  -7  103.53   17.48
  -2  -1  -7  123.37   15.90
  -3  -1  -7  231.91   25.75
   3   1   7  251.19   26.00
   3   1   7  206.79   24.43
  -3  -1  -7  254.32   27.65
  -4  -1  -7  106.68   18.38
  -4  -1  -7  146.21   19.25
   4   1   7  113.94   17.54
   4   1   7  134.53   18.31
   5   1   7   95.56   15.63
  -5  -1  -7  106.11   17.76
  -5  -1  -7  100.66   18.35
   5   1   7   80.70   15.94
  -6  -1  -7   21.88   10.53
   6   1   7   19.11    8.33
   6   1   7   28.87    9.43
  -6  -1  -7   22.38   11.64
  -7  -1  -7   28.48   13.55
   7   1   7   26.17   11.90
   7   1   7   21.03   10.30
  -8  -1  -7   26.00   14.92
   8   1   7   27.56   12.98
  -9  -1  -7   71.25   20.17
   9   1   7   65.63   19.30
  10   1   7   23.34   16.28
 -10  -1  -7   20.61   16.83
   7  -2  -7   20.75   17.94
  -6   2   7   -3.97   15.12
   6  -2  -7    6.51   16.46
  -6   2   7   13.82   10.77
  -5   2   7   -0.27   10.27
  -5   2   7   17.92   12.37
   5  -2  -7   -4.73   13.01
  -4   2   7    3.83   11.22
   4  -2  -7   13.07   11.99
  -4   2   7   24.41   11.82
   3  -2  -7  401.66   45.94
  -3   2   7  409.45   43.24
  -3   2   7  485.18   43.54
  -2   2   7   47.56   13.12
   2  -2  -7   49.19   14.93
  -2   2   7   35.70   12.31
  -1   2   7  167.40   21.69
   1  -2  -7  178.80   25.70
   1  -2  -7  174.72   17.67
  -1   2   7  226.54   24.47
   0  -2  -7  229.76   27.21
   0   2   7  220.84   25.33
   0  -2  -7  227.72   22.74
   0  -2  -7  184.24   18.60
   1   2   7  248.92   27.89
  -1  -2  -7  280.12   30.83
  -1  -2  -7  285.03   28.25
   1   2   7  265.42   23.79
  -2  -2  -7  102.00   17.81
   2   2   7  121.39   17.45
   2   2   7  132.07   15.21
  -2  -2  -7  114.14   16.63
   3   2   7   -0.66    5.51
   3   2   7  -11.82    6.05
  -3  -2  -7    7.72    8.50
  -3  -2  -7    4.91    8.01
   4   2   7  403.61   35.63
   4   2   7  356.10   34.43
  -4  -2  -7  350.86   36.22
  -4  -2  -7  369.39   36.81
  -5  -2  -7   92.80   17.51
  -5  -2  -7  124.60   18.06
   5   2   7   99.22   17.23
   5   2   7  144.04   19.07
  -6  -2  -7   27.88   12.96
  -6  -2  -7   35.34   10.31
   6   2   7   56.49   13.40
   6   2   7   55.15   13.22
   7   2   7   54.56   15.01
  -7  -2  -7   24.38   13.25
   7   2   7   26.40   10.92
  -8  -2  -7  137.25   24.24
   8   2   7   65.13   16.68
   8   2   7  109.85   21.43
  -9  -2  -7   35.59   17.69
   9   2   7   47.34   16.60
 -10  -2  -7   21.07   16.51
  10   2   7    6.94   13.23
   7  -3  -7   -9.63   18.57
  -7   3   7    3.05   19.21
  -6   3   7   11.52   15.44
   6  -3  -7   27.55   16.33
  -5   3   7   13.63   11.17
   5  -3  -7   13.52   16.04
  -5   3   7   20.83   14.68
  -4   3   7   34.45   13.87
   4  -3  -7   22.95   14.54
  -4   3   7   30.12   11.89
  -3   3   7   50.86   15.60
  -3   3   7   98.70   16.08
   3  -3  -7   71.00   17.21
  -2   3   7  130.41   20.17
   2  -3  -7  103.37   21.14
  -2   3   7  118.04   18.67
  -1   3   7   27.73   10.75
   1  -3  -7   18.54   12.33
  -1   3   7   13.07    9.03
   0  -3  -7    8.61    8.91
   0  -3  -7    9.47    7.32
   0   3   7    6.69    6.96
   1   3   7    7.81    7.74
  -1  -3  -7   -1.48    7.80
  -1  -3  -7   -9.93    5.30
   2   3   7   27.17    6.24
   2   3   7   21.16    8.85
  -2  -3  -7   26.13    9.70
  -2  -3  -7   17.51    9.06
   3   3   7  499.47   40.93
  -3  -3  -7  425.15   43.60
   3   3   7  454.03   42.91
  -3  -3  -7  525.55   45.53
  -4  -3  -7   -0.83    8.14
   4   3   7    7.41    8.12
  -4  -3  -7   -2.93    6.77
   4   3   7   -6.00    5.52
   5   3   7    7.66    9.12
   5   3   7    1.77    7.45
  -5  -3  -7    5.05    7.59
  -5  -3  -7   -2.90    8.40
  -6  -3  -7  173.25   25.89
   6   3   7  187.52   24.56
   6   3   7  192.87   24.94
  -6  -3  -7  187.18   23.26
  -7  -3  -7   18.02   13.92
   7   3   7   56.71   13.61
   7   3   7   37.81   11.99
  -8  -3  -7   12.55   12.61
   8   3   7    1.38    9.20
   8   3   7    1.34    8.25
  -9  -3  -7   97.50   22.79
   9   3   7   79.01   20.50
  10   3   7   17.05   13.68
 -10  -3  -7  -25.20   13.35
  -6   4   7   -3.95   16.91
   6  -4  -7    5.01   17.61
  -5   4   7   27.76   16.09
   5  -4  -7   12.21   13.92
   4  -4  -7  -11.52   13.52
  -4   4   7    0.17    8.84
  -4   4   7    7.30   11.97
  -3   4   7   86.05   18.23
  -3   4   7  104.16   17.12
   3  -4  -7   72.52   20.46
  -2   4   7   12.59    8.70
  -2   4   7   13.93   10.55
   2  -4  -7   30.52   13.37
   1  -4  -7   11.91    9.76
  -1   4   7    0.91    8.79
  -1   4   7    8.52    6.85
   0   4   7   40.49   11.91
   0  -4  -7   36.03   11.44
   0  -4  -7   44.31   12.80
   1   4   7   38.57   11.86
  -1  -4  -7   47.91   12.98
  -1  -4  -7   55.10   13.69
  -2  -4  -7   53.14   12.37
   2   4   7   36.69   11.34
  -2  -4  -7   55.87   13.25
  -3  -4  -7  619.28   59.87
  -3  -4  -7  660.41   59.57
   3   4   7  751.38   58.65
   4   4   7   20.74    7.89
  -4  -4  -7   30.74   11.75
   4   4   7   26.34   10.46
  -4  -4  -7   28.93    8.95
   5   4   7  481.84   42.21
   5   4   7  413.57   39.52
  -5  -4  -7  443.83   40.79
  -5  -4  -7  413.18   44.68
   6   4   7   -3.71    7.20
  -6  -4  -7  -15.17    8.64
   6   4   7    3.28    8.53
   7   4   7   34.99   11.18
   7   4   7    8.69    9.77
  -7  -4  -7    6.34   11.74
  -8  -4  -7   20.44   13.07
   8   4   7   14.29   10.77
   8   4   7    4.06    9.64
   9   4   7   29.20   11.90
  -9  -4  -7   36.26   16.42
   9   4   7   -5.55   10.23
  10   4   7   30.91   14.51
 -10  -4  -7   38.08   18.07
  -6   5   7   18.83   18.54
   6  -5  -7   -9.15   17.65
  -5   5   7   46.99   18.65
   5  -5  -7   28.00   18.61
  -4   5   7    8.00   13.43
   4  -5  -7   17.59   14.36
   3  -5  -7    2.65   13.37
  -3   5   7   32.31   13.37
  -3   5   7   21.46   11.13
  -2   5   7   -4.56    9.11
   2  -5  -7   -7.69   10.22
  -2   5   7    3.50    8.95
   1  -5  -7    8.49   10.43
  -1   5   7   12.14    7.52
  -1   5   7    3.65   10.15
   0  -5  -7    8.94    9.52
   0  -5  -7   16.23    9.84
   0   5   7   -6.20    7.67
  -1  -5  -7   61.36   13.96
  -1  -5  -7   90.16   16.12
   1   5   7   73.95   14.83
  -2  -5  -7  112.09   19.82
   2   5   7  135.29   20.59
  -2  -5  -7  130.04   19.55
  -3  -5  -7    0.08    5.94
  -3  -5  -7    2.23    8.13
   3   5   7  -10.32    8.34
  -4  -5  -7   18.79    7.19
  -4  -5  -7    6.36    8.66
   4   5   7    9.43    9.70
   5   5   7   -8.80    7.55
  -5  -5  -7    2.46   10.15
   5   5   7  -10.13    6.23
  -5  -5  -7    4.37    6.61
  -6  -5  -7  120.54   22.38
   6   5   7  119.37   18.75
   6   5   7  113.75   19.41
   7   5   7   69.04   15.45
   7   5   7   61.65   15.31
  -7  -5  -7   63.51   17.77
  -8  -5  -7   53.68   17.59
   8   5   7   29.91   12.60
   8   5   7   99.53   18.30
  -9  -5  -7   16.59   15.32
   9   5   7    9.43   10.65
   9   5   7    1.83   10.24
  10   5   7   49.21   16.58
 -10  -5  -7   65.12   18.92
  10   5   7   50.70   16.17
  -5   6   7    7.34   15.96
   5  -6  -7   12.64   18.37
   4  -6  -7   10.34   16.05
  -4   6   7   13.47   16.14
   3  -6  -7   -5.40   11.58
  -3   6   7    6.68   12.09
   2  -6  -7   65.77   17.99
  -2   6   7   73.26   17.76
  -2   6   7   65.70   14.84
  -1   6   7   33.36   12.45
   1  -6  -7   16.52   12.73
  -1   6   7   41.21   11.42
   0  -6  -7   18.52   10.46
   0   6   7    9.93    8.73
   0  -6  -7    0.85   10.24
  -1  -6  -7    5.80    9.71
   1   6   7   20.65   10.90
  -1  -6  -7    7.58    8.82
   2   6   7   -1.63    9.72
  -2  -6  -7   27.59   12.45
  -2  -6  -7   11.40   10.60
  -3  -6  -7   10.91   10.19
   3   6   7   12.76   11.34
  -3  -6  -7    8.86    7.24
  -4  -6  -7   15.96   10.19
  -4  -6  -7   20.40    7.63
   4   6   7   -5.69    8.73
   5   6   7  435.93   44.09
  -5  -6  -7  437.79   45.64
  -6  -6  -7   35.42   13.06
   6   6   7   24.84   10.73
   7   6   7  184.22   24.94
   7   6   7  184.82   26.92
  -7  -6  -7  193.12   31.04
  -8  -6  -7   23.65   13.92
   8   6   7   29.00   12.03
   8   6   7    4.02    9.69
   9   6   7   25.21   13.83
  -9  -6  -7   12.97   14.98
   9   6   7   14.10   12.35
  10   6   7  -12.07   10.93
 -10  -6  -7    3.61   16.38
  10   6   7   26.57   14.80
   5  -7  -7   13.46   19.44
  -5   7   7   16.84   17.69
   4  -7  -7   16.03   17.58
  -4   7   7   11.05   15.98
  -3   7   7   23.15   15.24
   3  -7  -7   23.41   15.51
  -2   7   7   -2.77   11.54
   2  -7  -7   25.93   15.42
  -1   7   7   22.83   13.53
  -1   7   7   35.65   12.69
   1  -7  -7   18.43   14.16
   0   7   7   12.85    9.63
   0   7   7   24.85   12.50
   0  -7  -7   11.84   11.35
  -1  -7  -7   67.97   16.32
   1   7   7   51.35   14.50
  -1  -7  -7   80.31   17.55
  -2  -7  -7   45.29   14.48
  -2  -7  -7   55.30   13.74
   2   7   7   53.93   14.56
  -3  -7  -7   32.30   12.23
  -3  -7  -7   74.07   17.08
   3   7   7   34.46   13.46
   4   7   7  140.43   24.08
  -4  -7  -7  131.25   23.78
  -4  -7  -7  213.74   22.82
   5   7   7    6.95    8.84
  -5  -7  -7    5.06    9.94
  -6  -7  -7   -1.84    9.81
   6   7   7   -2.90    8.31
   7   7   7   30.05   12.51
  -7  -7  -7   50.51   17.15
  -8  -7  -7   57.35   20.80
   8   7   7   54.12   16.54
   9   7   7   21.89   14.50
  -9  -7  -7   14.15   17.39
  10   7   7   47.39   16.86
 -10  -7  -7   42.22   21.96
  10   7   7   25.78   15.48
   4  -8  -7   33.21   20.63
  -4   8   7   -5.50   19.16
  -3   8   7   -9.96   14.77
   3  -8  -7   10.36   16.44
  -2   8   7    7.99   14.45
   2  -8  -7   11.05   14.47
  -1   8   7    0.90   12.02
   1  -8  -7    7.69   12.11
   0   8   7  -11.84    8.59
   0  -8  -7  -18.61   10.27
   0   8   7   13.57   12.41
  -1  -8  -7    3.71   10.41
   1   8   7    5.96   10.03
  -1  -8  -7   -1.06   11.05
  -2  -8  -7   40.02   13.91
   2   8   7   40.89   15.01
  -2  -8  -7   40.26   14.18
  -3  -8  -7   92.11   20.08
   3   8   7   71.58   17.72
  -3  -8  -7   52.58   14.68
  -4  -8  -7   -8.84    9.93
   4   8   7    2.45   10.68
  -4  -8  -7   13.96   10.11
   5   8   7  174.22   26.82
  -5  -8  -7  184.20   28.44
  -6  -8  -7   10.90   11.66
   6   8   7    3.72   10.34
  -7  -8  -7   20.81   11.86
   7   8   7   31.56   13.97
  -8  -8  -7   16.33   15.05
   8   8   7   27.68   14.23
   9   8   7   14.14   15.59
  -9  -8  -7   17.26   17.51
  10   8   7   16.66   15.76
 -10  -8  -7   25.28   20.21
  -3   9   7  -10.83   16.73
   3  -9  -7    3.26   15.67
   2  -9  -7   40.34   19.13
  -2   9   7   10.31   16.83
  -1   9   7   42.89   17.54
   1  -9  -7    4.59   14.76
   0  -9  -7   14.60   12.98
   0   9   7   13.38   12.22
   0   9   7   29.26   15.10
  -1  -9  -7    3.84   11.78
   1   9   7   -0.37   10.65
  -1  -9  -7   24.79   15.12
   2   9   7   16.61   12.67
  -2  -9  -7    2.66   10.33
  -2  -9  -7    7.49   11.76
  -3  -9  -7   -4.58   10.54
  -3  -9  -7   -1.18    9.29
   3   9   7    0.55   11.44
   4   9   7   72.86   18.35
  -4  -9  -7   25.98   15.17
  -5  -9  -7   -4.67   10.25
   5   9   7   -4.29   10.37
  -6  -9  -7    8.95   11.78
   6   9   7   15.89   11.86
  -7  -9  -7   -5.60   11.68
   7   9   7   31.04   15.36
   8   9   7    1.00   14.03
  -8  -9  -7   36.39   16.38
   9   9   7   -4.20   16.03
  -9  -9  -7   13.94   17.40
   2 -10  -7   -6.93   17.94
  -2  10   7   -6.94   15.96
  -1  10   7   17.92   16.45
   1 -10  -7   26.04   17.60
   0 -10  -7   39.88   17.15
   0  10   7    2.55   14.06
   1  10   7   17.95   14.12
   1  10   7   12.32   13.55
  -1 -10  -7   16.67   14.46
  -2 -10  -7    7.07   12.53
  -2 -10  -7    1.59   14.16
   2  10   7   17.26   14.89
  -3 -10  -7    8.06   11.46
   3  10   7    7.48   13.39
  -3 -10  -7   22.51   13.84
  -4 -10  -7   37.64   17.51
   4  10   7   29.83   14.81
  -5 -10  -7   -2.88   12.29
   5  10   7    0.39   11.94
   6  10   7   15.37   14.40
  -6 -10  -7   27.53   14.79
  -7 -10  -7    6.20   14.01
   7  10   7   21.48   16.54
   8  10   7    1.41   14.67
  -8 -10  -7   18.72   15.65
   0 -11  -7  -20.31   14.33
   0  11   7   14.75   14.87
   1  11   7    8.60   14.22
  -1 -11  -7    6.48   14.78
  -2 -11  -7   -0.29   13.94
  -2 -11  -7    3.57   15.56
   2  11   7    2.57   15.24
  -3 -11  -7    5.36   12.85
  -3 -11  -7    0.58   15.14
   3  11   7    1.62   15.79
   4  11   7   10.03   15.83
  -4 -11  -7   11.98   15.66
  -5 -11  -7   -4.17   16.80
   5  11   7   18.73   16.41
  -6 -11  -7    5.50   16.25
   6  11   7  -15.31   13.61
   7  11   7   21.15   18.28
  -7 -11  -7   10.72   15.76
  -3 -12  -7   12.64   16.76
   3  12   7   23.01   20.41
  -4 -12  -7   -3.05   14.76
   4  12   7   -6.95   14.72
   5  12   7   10.90   17.08
  -5 -12  -7   -9.97   15.19
  -2  -8   8  -25.19   17.51
   2   8  -8   29.73   21.42
  -2  -8   8    8.49   12.80
  -1  -8   8    5.34   16.14
   1   8  -8   39.66   20.66
   0  -8   8   -1.85   16.02
   0   8  -8   14.68   20.93
  -1   8  -8   54.28   23.63
   1  -8   8   23.45   16.37
  -4  -7   8   -9.65   11.51
   4   7  -8   11.97   20.63
   4   7  -8   40.36   17.29
   3   7  -8   23.37   18.07
  -3  -7   8   19.59   13.49
   3   7  -8   28.04   19.50
  -2  -7   8    9.97   17.41
   2   7  -8   58.71   22.48
  -2  -7   8   23.73   12.65
  -1  -7   8    8.37   17.71
  -1  -7   8   27.52   12.50
   1   7  -8   15.90   18.72
   0  -7   8   24.05   17.30
   0   7  -8   27.85   19.60
   1  -7   8   21.77   15.42
  -1   7  -8   47.06   19.57
  -2   7  -8   10.00   20.26
   2  -7   8    2.87   15.30
   3  -7   8    3.10   15.74
  -3   7  -8   -0.09   17.35
   5   6  -8    6.67   16.30
  -5  -6   8   -0.29   13.58
   4   6  -8   43.22   21.28
  -4  -6   8   32.12   16.55
   4   6  -8  -10.70   13.66
  -3  -6   8  -12.20   10.39
   3   6  -8   32.62   17.48
   3   6  -8   -0.92   12.03
  -2  -6   8   24.89   12.42
   2   6  -8   48.75   18.29
  -2  -6   8   53.05   19.84
  -1  -6   8   15.63   11.15
  -1  -6   8    4.89   17.00
   1   6  -8   14.95   17.32
   0  -6   8    6.43   14.39
   0   6  -8    5.34   14.59
   0  -6   8   -3.76    8.76
   1  -6   8   18.67   15.14
  -1   6  -8   24.64   17.85
   2  -6   8   12.94   13.26
  -2   6  -8   28.23   18.77
   3  -6   8   15.39   13.56
  -3   6  -8  -10.70   15.12
   4  -6   8   18.34   15.59
  -4   6  -8    9.90   16.00
   5  -6   8    2.85   13.98
  -5   6  -8   -1.59   17.37
   6   5  -8    9.57   16.00
  -6  -5   8   25.69   19.53
   5   5  -8   57.15   21.61
  -5  -5   8   11.12   16.35
   5   5  -8    7.82   14.07
   4   5  -8    9.82   19.23
   4   5  -8    1.88   13.93
  -4  -5   8   33.12   13.98
  -3  -5   8   10.97   10.93
   3   5  -8   18.61   12.98
   3   5  -8   40.22   19.30
   2   5  -8   50.48   18.30
  -2  -5   8   19.39   11.31
  -2  -5   8   16.69   16.08
  -1  -5   8   25.61   15.53
  -1  -5   8   36.48   12.43
   1   5  -8    7.76   16.87
   0  -5   8   14.60    9.77
   0   5  -8    4.41   15.65
   0  -5   8   28.62   15.22
   1  -5   8   22.78   13.39
   1  -5   8   -0.77    7.48
  -1   5  -8   36.97   17.85
   2  -5   8   19.36   12.44
  -2   5  -8   27.81   15.14
  -3   5  -8   16.96   16.48
   3  -5   8   30.03   12.87
  -4   5  -8   18.71   16.69
   4  -5   8   38.59   14.01
   5  -5   8   24.20   14.70
  -5   5  -8   -9.59   15.64
   6  -5   8   33.64   16.25
  -6   5  -8   34.70   18.93
  -6  -4   8   12.63   18.85
   6   4  -8   36.16   16.59
  -5  -4   8   26.24   17.57
   5   4  -8   -0.20   12.38
   5   4  -8   29.13   18.93
   4   4  -8   -2.39   12.19
   4   4  -8   28.40   18.60
  -4  -4   8   16.37   12.20
   3   4  -8    7.73   12.54
  -3  -4   8   -3.16    8.70
   3   4  -8   17.04   15.04
  -2  -4   8   13.70   13.18
  -2  -4   8   24.53   10.47
   2   4  -8   13.51   12.13
   1   4  -8   14.62   13.06
  -1  -4   8   30.05   13.58
  -1  -4   8   24.14   10.14
   0   4  -8   16.01   14.55
   0  -4   8    4.06   11.71
   0  -4   8    1.62    7.84
  -1   4  -8   26.52   16.37
   1  -4   8   -4.18    6.80
   1  -4   8  -11.89    9.21
   2  -4   8   -1.59    9.82
   2  -4   8    8.77    7.11
  -2   4  -8   18.71   12.72
  -3   4  -8   14.27   15.04
   3  -4   8    8.52    9.72
  -4   4  -8   15.51   15.28
   4  -4   8   16.50   11.94
   5  -4   8   62.15   17.34
  -5   4  -8   44.97   18.61
   6  -4   8   52.57   16.87
  -6   4  -8    1.06   14.66
   7  -4   8   25.76   16.00
  -7   4  -8   47.31   19.76
  -7  -3   8   17.88   18.70
   7   3  -8    7.93   16.67
  -6  -3   8   22.54   16.52
   6   3  -8   -4.52   14.89
  -5  -3   8   18.85   14.79
   5   3  -8   21.51   13.57
   5   3  -8   12.53   17.45
   4   3  -8   12.47   16.05
   4   3  -8    6.72   11.00
  -4  -3   8    9.74   12.41
   3   3  -8  -14.63   13.05
  -3  -3   8    5.08    9.67
   3   3  -8    9.09   11.53
  -2  -3   8   19.85   10.93
   2   3  -8   37.04   14.63
   1   3  -8   19.53   12.12
  -1  -3   8   28.36   10.97
  -1  -3   8   24.09   12.64
   0   3  -8   18.20   13.74
   0  -3   8   -2.44   10.15
   0  -3   8  -12.94    6.19
  -1   3  -8   13.79   13.65
   1  -3   8   10.85    8.27
   1  -3   8   14.91   10.89
   2  -3   8  115.57   19.37
   2  -3   8  111.18   20.85
  -2   3  -8  123.93   23.65
   3  -3   8   -8.02    9.55
   3  -3   8   -0.83    7.73
  -3   3  -8   -0.56   11.95
  -4   3  -8    9.61   12.79
   4  -3   8   20.12   11.08
   5  -3   8    5.54   11.63
  -5   3  -8   35.73   16.18
   6  -3   8   27.53   14.39
  -6   3  -8   -4.26   13.19
   7  -3   8   45.07   15.79
  -7   3  -8    9.52   14.57
   8  -3   8   34.98   18.45
  -7  -2   8   34.72   18.94
  -6  -2   8  -11.39   11.78
   6   2  -8  -29.84   12.76
   6   2  -8   15.05   19.19
   5   2  -8   31.65   19.59
  -5  -2   8   58.77   17.10
   5   2  -8   59.84   16.74
  -4  -2   8  -12.47    9.54
   4   2  -8    6.78   10.98
   4   2  -8   16.25   14.59
  -3  -2   8   73.51   17.77
   3   2  -8   35.03   17.36
   3   2  -8   61.65   16.19
   2   2  -8    6.46   13.68
   2   2  -8   -2.00    9.89
  -2  -2   8   -8.73    5.82
  -1  -2   8   58.12   14.61
  -1  -2   8   40.08   13.22
   1   2  -8   36.75   13.70
   0  -2   8   64.25   16.06
   0   2  -8   46.72   14.48
   0  -2   8   70.65   15.15
   1  -2   8   -3.93    9.08
  -1   2  -8   16.05   10.84
   1  -2   8    7.43    8.13
  -2   2  -8  179.34   27.93
   2  -2   8  179.23   24.96
   2  -2   8  159.50   22.44
  -3   2  -8   67.51   17.51
   3  -2   8   70.18   15.15
   3  -2   8   45.69   11.47
   4  -2   8   35.09   12.11
  -4   2  -8   37.32   14.61
   4  -2   8   38.90   10.20
   5  -2   8    4.04    8.63
  -5   2  -8   14.30   12.07
  -6   2  -8   36.12   15.91
   6  -2   8   28.99   13.10
  -6   2  -8   23.16   15.26
   7  -2   8   12.67   13.36
  -7   2  -8   13.96   14.97
  -7   2  -8  -31.52   10.50
  -8   2  -8   62.68   18.78
   8  -2   8   15.89   14.82
  -7  -1   8   21.43   16.52
   6   1  -8   18.11   17.89
  -6  -1   8   18.72   13.83
   5   1  -8   15.29   13.56
  -5  -1   8   14.52   12.71
   5   1  -8   27.39   18.56
   4   1  -8  -11.11   13.34
  -4  -1   8   20.00   13.28
   4   1  -8    5.90   10.31
  -3  -1   8   29.74   13.04
   3   1  -8   22.86   13.93
   3   1  -8   40.88   12.31
   2   1  -8   81.50   18.54
   2   1  -8   73.16   14.09
  -2  -1   8   64.48   16.85
  -1  -1   8   96.65   18.87
   1   1  -8   97.47   20.49
  -1  -1   8   91.34   15.85
   0   1  -8   66.28   15.99
   0  -1   8   90.13   15.04
   0  -1   8   50.41   14.29
  -1   1  -8   78.75   16.40
   1  -1   8   81.46   15.21
   1  -1   8   72.13   14.76
   2  -1   8    0.67    6.96
  -2   1  -8   24.75   11.60
   2  -1   8   -1.69    8.11
  -3   1  -8  178.55   27.38
   3  -1   8  227.05   26.74
   3  -1   8  175.29   22.79
  -4   1  -8   15.59   10.68
   4  -1   8   15.10    8.38
   4  -1   8  -17.95    6.91
  -4   1  -8   -7.16    8.35
  -5   1  -8   32.65   11.66
   5  -1   8   25.83    7.98
  -5   1  -8   61.32   15.61
   5  -1   8   19.98   10.60
  -6   1  -8   82.13   18.51
  -6   1  -8   80.17   18.89
   6  -1   8   79.81   17.15
  -7   1  -8   -1.91   11.11
   7  -1   8   14.58   12.71
  -7   1  -8   40.47   14.33
   8  -1   8   21.71   14.34
  -8   1  -8    9.04   15.70
  -9   1  -8  -15.63   17.19
   9  -1   8   -3.14   14.69
  -7   0   8   10.57   15.38
  -6   0   8   27.87   12.61
   6   0  -8   -3.49   16.51
   5   0  -8   -2.39   14.02
  -5   0   8   60.63   17.05
  -4   0   8   25.11   13.96
   4   0  -8    2.78   14.80
  -3   0   8   76.06   18.31
   3   0  -8   62.48   12.52
   3   0  -8   65.73   19.37
  -2   0   8   62.75   15.84
   2   0  -8   71.19   12.24
   2   0  -8   58.02   16.01
   1   0  -8   25.68    7.26
   1   0  -8   21.70   13.89
  -1   0   8   11.62   10.07
   0   0  -8   -6.51   10.63
   0   0   8   -2.03    8.70
   0   0   8   -0.39    4.93
  -1   0  -8   60.89   14.51
   1   0   8   53.52   11.67
   1   0   8   70.80   14.11
  -2   0  -8   92.02   17.43
   2   0   8   99.47   16.42
   2   0   8   69.15   15.49
  -2   0  -8   97.62   14.11
   3   0   8   13.75    8.83
   3   0   8   14.71    9.74
  -3   0  -8   16.24   10.05
  -3   0  -8   28.92    9.75
   4   0   8   90.24   16.99
  -4   0  -8  126.78   21.14
   4   0   8   90.22   16.33
  -4   0  -8  125.30   18.46
   5   0   8   14.13    8.93
  -5   0  -8   22.84   11.05
   5   0   8   -4.40    6.27
  -5   0  -8   15.89   10.42
  -6   0  -8   46.38   14.53
   6   0   8   32.60   12.19
   6   0   8   28.91   10.69
  -6   0  -8   35.28   13.21
  -7   0  -8   23.84   12.29
  -7   0  -8   22.45   13.67
   7   0   8   32.63   13.61
  -8   0  -8   19.47   15.23
   8   0   8   23.23   12.72
  -9   0  -8   27.39   18.54
   9   0   8   27.19   15.67
   7  -1  -8   32.16   24.69
   6  -1  -8   13.25   18.10
  -6   1   8    0.54   11.26
  -5   1   8   17.45   13.03
   5  -1  -8   16.56   16.57
   4  -1  -8    6.47   14.84
  -4   1   8   52.36   16.19
  -3   1   8   31.36   13.57
   3  -1  -8   43.40   16.71
  -2   1   8   23.24   10.77
   2  -1  -8  -17.41   10.45
   1  -1  -8    5.79   10.51
  -1   1   8   30.18    9.52
  -1   1   8   19.13   11.36
   1  -1  -8   23.48    7.54
   0   1   8    8.42    8.08
   0  -1  -8    9.36    7.72
   0   1   8   11.62    5.05
   0  -1  -8   24.71   11.97
  -1  -1  -8   83.66   17.91
   1   1   8   70.81   11.75
  -1  -1  -8   68.10   13.00
   1   1   8   65.86   15.02
   2   1   8   66.60   14.15
   2   1   8   49.24   11.92
  -2  -1  -8   57.48   13.79
  -2  -1  -8   63.49   12.30
  -3  -1  -8  103.31   17.18
   3   1   8  164.44   18.92
   3   1   8   86.74   16.50
  -3  -1  -8   86.62   17.18
  -4  -1  -8   19.26    9.81
   4   1   8   27.73   10.65
  -4  -1  -8   25.79   11.01
   4   1   8   29.58    9.69
   5   1   8   56.00   12.87
  -5  -1  -8   52.74   12.81
  -5  -1  -8   44.46   13.50
   5   1   8   49.47   13.06
   6   1   8   24.23   11.65
   6   1   8    7.24    9.11
  -6  -1  -8   31.83   12.59
  -6  -1  -8   24.34   11.49
   7   1   8    8.91    9.92
  -7  -1  -8   -2.16   11.29
  -8  -1  -8   26.19   15.79
   8   1   8   23.29   13.45
  -9  -1  -8   44.62   18.38
   9   1   8   27.75   14.55
  10   1   8   29.69   16.24
 -10  -1  -8   23.16   17.99
  -6   2   8    8.72   13.15
   6  -2  -8   17.20   20.80
  -5   2   8   13.95   12.72
   5  -2  -8   51.52   18.82
  -4   2   8   -8.31   11.38
   4  -2  -8    0.36   13.84
  -4   2   8   18.10   12.12
  -3   2   8   76.92   17.32
  -3   2   8   61.01   16.22
   3  -2  -8   61.74   17.61
  -2   2   8   57.02   14.45
   2  -2  -8   60.96   17.25
  -2   2   8   73.23   14.38
  -1   2   8   10.58    8.41
   1  -2  -8   -5.58   10.89
  -1   2   8    9.30    8.81
   0  -2  -8    6.20    9.05
   0   2   8    0.39    9.01
   0  -2  -8   23.99    8.80
  -1  -2  -8   73.98   14.29
  -1  -2  -8   61.72   15.88
   1   2   8   83.02   15.23
   2   2   8   14.55    9.66
  -2  -2  -8   27.40   11.52
  -2  -2  -8   22.10    9.68
   2   2   8   35.76    8.32
   3   2   8  280.01   32.33
  -3  -2  -8  290.68   31.29
  -3  -2  -8  277.01   33.72
   3   2   8  312.78   29.90
   4   2   8   20.61   11.60
   4   2   8   13.13    8.04
  -4  -2  -8   27.29   11.50
  -4  -2  -8   25.71   11.63
  -5  -2  -8   67.02   14.98
   5   2   8   38.36   13.14
   5   2   8   52.09   12.61
  -5  -2  -8   60.63   13.85
  -6  -2  -8   -2.49    8.19
  -6  -2  -8   20.51   11.13
   6   2   8   -5.18    7.61
   6   2   8   13.50    9.13
  -7  -2  -8   58.40   16.40
   7   2   8   36.36   11.81
   7   2   8   33.28   12.81
   8   2   8    9.88   11.66
  -8  -2  -8   13.80   14.68
   9   2   8   58.52   16.96
  -9  -2  -8   53.00   17.64
  10   2   8   37.17   16.60
 -10  -2  -8   20.22   18.89
  -6   3   8   30.88   20.14
   6  -3  -8   16.67   19.05
  -5   3   8   14.63   13.60
   5  -3  -8   14.33   18.51
  -5   3   8    5.71   13.32
   4  -3  -8   22.15   16.95
  -4   3   8   16.64   14.07
  -4   3   8   40.84   14.56
  -3   3   8    2.11    9.54
   3  -3  -8   -3.50   10.48
  -3   3   8   11.93    9.33
   2  -3  -8   37.37   14.99
  -2   3   8   -1.39    8.57
  -2   3   8    0.59    9.37
   1  -3  -8   11.82   11.50
  -1   3   8   17.63    9.69
  -1   3   8   15.87    9.53
   0   3   8    2.44    8.67
   0  -3  -8    6.88   10.61
   0  -3  -8    4.55    7.80
  -1  -3  -8    0.98    8.02
   1   3   8   11.81    9.10
  -1  -3  -8   12.59   10.25
  -2  -3  -8    4.96    9.76
   2   3   8   11.52    9.61
  -2  -3  -8   -5.83    6.62
  -3  -3  -8   30.01   10.72
  -3  -3  -8   48.97   12.92
   3   3   8   33.80   11.83
   4   3   8  440.91   39.32
   4   3   8  436.41   43.34
  -4  -3  -8  425.07   43.45
  -4  -3  -8  418.88   42.66
  -5  -3  -8  317.44   34.67
   5   3   8  294.47   34.05
   5   3   8  338.85   32.75
  -5  -3  -8  284.63   35.01
   6   3   8   13.98    8.10
  -6  -3  -8    9.52    8.54
  -6  -3  -8   10.27   10.50
   6   3   8   10.13    9.33
   7   3   8  147.10   22.22
   7   3   8  146.92   22.95
  -7  -3  -8   86.10   20.84
   8   3   8   78.01   17.29
  -8  -3  -8   52.31   18.27
   8   3   8   58.26   16.35
   9   3   8    4.45   11.47
  -9  -3  -8   20.77   16.65
  10   3   8   11.07   14.47
 -10  -3  -8   55.93   19.69
   6  -4  -8  -11.64   17.36
  -6   4   8   -6.61   17.62
  -5   4   8    7.25   16.00
   5  -4  -8   34.51   19.46
  -4   4   8   18.76   12.07
   4  -4  -8   15.43   16.80
  -4   4   8   14.52   14.08
  -3   4   8   17.84   10.24
   3  -4  -8   16.38   15.66
  -3   4   8  -10.11   10.09
  -2   4   8    0.74   10.72
   2  -4  -8   -0.26   10.88
  -2   4   8   15.63    9.13
  -1   4   8   93.01   18.22
  -1   4   8   66.79   15.54
   1  -4  -8  108.92   20.47
   0   4   8   95.16   16.78
   0  -4  -8   77.82   17.51
   0  -4  -8   82.60   16.57
   1   4   8   22.80   10.12
  -1  -4  -8   25.89    9.93
  -1  -4  -8   19.25   11.99
  -2  -4  -8    4.10    9.49
   2   4   8    1.96    8.87
  -2  -4  -8    7.79    9.62
  -3  -4  -8  177.32   25.17
  -3  -4  -8  191.54   25.57
   3   4   8  215.94   26.84
  -4  -4  -8    9.68    9.61
  -4  -4  -8    4.50    7.69
   4   4   8    4.44    8.34
   5   4   8  197.10   22.92
  -5  -4  -8  211.29   28.67
  -5  -4  -8  193.03   24.58
   5   4   8  201.29   26.95
   6   4   8  225.47   27.22
   6   4   8  245.38   30.18
  -6  -4  -8  206.05   30.66
   7   4   8    6.73    9.37
  -7  -4  -8    7.51   11.12
   7   4   8   -6.13    8.58
   8   4   8   14.86   10.91
   8   4   8    1.64    9.54
  -8  -4  -8   27.47   14.74
  -9  -4  -8   32.68   15.46
   9   4   8    2.13   11.35
   9   4   8   22.40   12.98
  10   4   8   18.92   15.02
 -10  -4  -8    4.31   17.17
  -5   5   8   55.61   19.37
   5  -5  -8    4.79   16.47
  -4   5   8   26.96   14.58
   4  -5  -8   15.71   15.55
  -3   5   8   -5.84    8.23
   3  -5  -8    2.65   16.23
  -3   5   8   -7.37   11.51
   2  -5  -8    1.43   13.47
  -2   5   8    8.56    9.45
  -2   5   8    6.15   10.64
  -1   5   8   11.81    9.45
   1  -5  -8   25.49   12.59
  -1   5   8   20.92   11.60
   0  -5  -8  195.02   26.74
   0  -5  -8  166.75   26.87
   0   5   8  211.64   26.11
  -1  -5  -8   27.45   12.07
   1   5   8   59.09   15.03
  -1  -5  -8   25.57   11.95
   2   5   8   39.59   12.99
  -2  -5  -8   38.57   13.12
  -2  -5  -8   76.70   15.87
   3   5   8   23.16   11.79
  -3  -5  -8   30.08   11.33
  -3  -5  -8   52.41   13.93
  -4  -5  -8  143.43   22.24
  -4  -5  -8  137.32   20.49
   4   5   8  140.42   22.77
   5   5   8   67.73   16.60
  -5  -5  -8   77.54   17.53
  -5  -5  -8   71.38   13.65
   6   5   8    8.45    8.66
  -6  -5  -8    6.77   11.91
  -7  -5  -8   -5.99   11.61
   7   5   8   -4.20    9.20
   8   5   8   13.01   11.05
   8   5   8    8.26   10.05
  -8  -5  -8    6.02   12.81
   9   5   8    0.37    9.84
  -9  -5  -8    5.32   14.89
   9   5   8   31.37   13.12
  10   5   8   23.82   15.29
 -10  -5  -8    9.09   17.92
  10   5   8    9.09   13.07
  -5   6   8   83.35   23.57
   5  -6  -8   13.39   19.88
   4  -6  -8  -10.65   15.12
  -4   6   8    5.03   16.05
  -3   6   8   28.17   14.25
   3  -6  -8   -0.68   15.33
  -2   6   8   38.25   12.75
  -2   6   8   19.65   13.85
   2  -6  -8    5.46   14.10
   1  -6  -8   19.38   15.68
  -1   6   8   35.41   11.46
  -1   6   8   12.09   12.30
   0   6   8   13.24   10.22
   0  -6  -8    6.54   11.10
   1   6   8   20.81   10.74
  -1  -6  -8   30.61   12.68
  -1  -6  -8   29.88   13.08
   2   6   8  -14.01    7.42
  -2  -6  -8   -2.25    8.50
  -2  -6  -8   -3.82   10.21
  -3  -6  -8   36.82   12.54
   3   6   8   39.93   13.26
  -3  -6  -8   32.49   12.74
   4   6   8  113.00   21.87
  -4  -6  -8  189.05   25.74
  -4  -6  -8  148.49   20.64
  -5  -6  -8   23.36   11.21
   5   6   8   20.06   11.07
  -5  -6  -8   14.32    6.95
  -6  -6  -8   14.26   11.61
   6   6   8   -7.64    8.90
   7   6   8   64.65   17.17
  -7  -6  -8   93.95   22.00
   8   6   8   -0.69   10.90
  -8  -6  -8   -1.08   14.03
   9   6   8   -8.88   10.68
  -9  -6  -8   14.34   15.71
 -10  -6  -8   32.17   19.02
  10   6   8    4.15   13.43
   4  -7  -8   49.67   21.19
  -4   7   8   -1.27   17.52
   3  -7  -8    6.36   16.18
  -3   7   8   15.08   14.98
   2  -7  -8   43.65   18.03
  -2   7   8   38.52   17.12
  -1   7   8   30.68   11.96
  -1   7   8   39.12   15.26
   1  -7  -8   19.39   15.14
   0   7   8   38.01   12.58
   0   7   8   61.16   18.66
   0  -7  -8   30.66   15.39
   1   7   8   10.36   11.04
  -1  -7  -8   -0.69   10.54
  -1  -7  -8   14.96   12.14
  -2  -7  -8   26.12   13.48
  -2  -7  -8   23.57   12.66
   2   7   8   25.37   12.36
   3   7   8   -6.37    9.18
  -3  -7  -8    0.10    9.98
  -3  -7  -8    1.75   10.17
   4   7   8   12.11   11.02
  -4  -7  -8   10.15    9.98
  -4  -7  -8   -0.06    9.74
   5   7   8   -6.43    9.15
  -5  -7  -8    4.30   11.11
  -6  -7  -8   57.96   16.65
   6   7   8   69.91   16.86
  -7  -7  -8   19.02   13.15
   7   7   8   12.76   13.00
  -8  -7  -8   27.24   14.65
   8   7   8   -3.79   11.43
  -9  -7  -8   20.51   16.96
   9   7   8   13.52   12.64
 -10  -7  -8   36.48   21.11
  10   7   8    1.75   13.68
  -3   8   8   -8.99   14.55
   3  -8  -8   26.90   18.63
   2  -8  -8  -13.43   13.41
  -2   8   8  -29.17   12.31
   1  -8  -8    6.05   14.22
  -1   8   8    2.42   13.61
  -1   8   8    5.72   10.76
   0  -8  -8    8.06   12.35
   0   8   8   21.61   14.71
   0   8   8    0.28   11.52
   1   8   8  -16.54    8.37
  -1  -8  -8    7.35   11.90
  -1  -8  -8    9.48   12.84
  -2  -8  -8   34.46   14.11
   2   8   8    5.40   10.93
  -2  -8  -8   -2.48    9.91
  -3  -8  -8   -5.09    9.65
  -3  -8  -8   12.99   13.36
   3   8   8   24.41   13.11
   4   8   8   -6.79    9.78
  -4  -8  -8    9.40    9.15
  -4  -8  -8   -4.06   11.29
  -5  -8  -8   20.22   12.33
   5   8   8  -13.89    9.41
   6   8   8   10.45   13.16
  -6  -8  -8   17.04   13.41
   7   8   8  -23.38   10.49
  -7  -8  -8   10.95   12.86
   8   8   8   13.72   13.03
  -8  -8  -8  -17.05   12.82
   9   8   8   13.15   14.08
  -9  -8  -8    1.95   16.58
   2  -9  -8    6.07   17.03
  -2   9   8   19.54   17.12
  -1   9   8   18.02   15.94
   1  -9  -8   -0.03   14.96
   0   9   8   18.75   15.66
   0  -9  -8    9.04   13.96
   0   9   8   17.37   13.60
  -1  -9  -8   -7.24   12.15
   1   9   8   36.40   14.18
  -2  -9  -8   18.39   13.09
   2   9   8    7.51   14.53
  -2  -9  -8   14.52   13.64
  -3  -9  -8    4.61   12.58
  -3  -9  -8    0.62   10.67
   3   9   8    5.30   13.28
   4   9   8  -10.35   11.66
  -4  -9  -8    9.83   12.62
  -5  -9  -8    3.75   11.86
   5   9   8    9.94   13.04
  -6  -9  -8    9.46   12.14
   6   9   8   -6.88   13.36
  -7  -9  -8    8.60   15.11
   7   9   8   14.18   13.85
   8   9   8   27.57   16.44
  -8  -9  -8    8.55   15.18
   9   9   8   25.86   17.04
  -9  -9  -8    2.24   15.71
  -1  10   8    7.12   16.29
   1 -10  -8   -2.96   15.81
   0  10   8   23.65   18.49
   0 -10  -8   19.03   15.93
   1  10   8    5.13   14.88
  -1 -10  -8    1.33   12.93
   1  10   8   13.57   15.02
  -2 -10  -8    2.82   12.80
  -2 -10  -8    4.89   13.68
   2  10   8    0.79   14.03
  -3 -10  -8    6.30   12.53
  -3 -10  -8    6.88   12.60
   3  10   8   -4.00   13.52
  -4 -10  -8   10.10   14.68
   4  10   8    2.70   13.88
  -5 -10  -8   15.23   15.86
   5  10   8   13.57   14.63
   6  10   8    4.31   15.32
  -6 -10  -8   18.41   16.04
   7  10   8    5.38   15.95
  -7 -10  -8   18.14   15.39
   8  10   8   -1.02   15.60
  -8 -10  -8   14.58   17.36
  -1 -11  -8   -5.99   15.48
   1  11   8   11.74   15.27
  -2 -11  -8    8.72   14.93
   2  11   8  -29.32   14.84
  -3 -11  -8   26.10   17.09
   3  11   8   13.16   16.68
   4  11   8    8.05   17.11
  -4 -11  -8   19.89   15.86
   5  11   8   16.00   17.42
  -5 -11  -8  -11.15   16.25
   6  11   8   42.30   18.27
  -6 -11  -8   30.50   18.13
  -7 -11  -8    7.01   16.71
   7  11   8    2.77   17.43
   2   7  -9   -3.47   20.48
  -2  -7   9   -2.44   19.98
  -2  -7   9    1.07   12.43
  -1  -7   9   19.17   18.59
  -1  -7   9   29.34   14.07
   1   7  -9   21.65   22.33
   0  -7   9   20.62   19.77
   0   7  -9   33.78   21.31
  -1   7  -9   11.88   21.58
   1  -7   9   30.05   16.38
   4   6  -9   43.96   23.49
   4   6  -9    9.61   16.64
  -4  -6   9   25.45   15.23
   3   6  -9   -7.97   17.52
   3   6  -9    5.67   13.55
  -3  -6   9   16.89   13.24
  -2  -6   9   20.77   12.27
  -2  -6   9   21.65   19.86
   2   6  -9   20.24   19.14
  -1  -6   9   15.90   11.41
   1   6  -9   42.63   20.94
  -1  -6   9   -4.25   15.42
   0  -6   9   35.79   19.08
   0  -6   9   16.41   12.24
   0   6  -9   23.07   19.96
  -1   6  -9   36.99   17.21
   1  -6   9    1.43   13.25
   2  -6   9   -4.90   13.64
  -2   6  -9    7.68   18.64
   3  -6   9   10.30   14.68
  -3   6  -9    5.15   18.57
  -4   6  -9    3.06   18.24
   4  -6   9   15.13   16.81
   5   5  -9    9.55   16.83
  -5  -5   9    6.79   16.68
   4   5  -9   37.41   22.34
   4   5  -9   -0.08   15.55
  -4  -5   9    5.84   14.78
  -3  -5   9   25.15   11.96
   3   5  -9   31.49   20.08
   3   5  -9  -14.08   13.58
  -2  -5   9    8.72   10.13
  -2  -5   9    5.56   14.85
   2   5  -9   -3.57   15.18
  -1  -5   9   -6.77   12.68
   1   5  -9  -14.17   16.90
  -1  -5   9   16.72   10.04
   0   5  -9   38.09   18.25
   0  -5   9   31.21   14.02
   0  -5   9    4.54    9.23
   1  -5   9    1.14    8.97
  -1   5  -9   22.60   17.11
   1  -5   9   -0.35   12.87
  -2   5  -9    0.08   17.15
   2  -5   9   14.55   14.51
  -3   5  -9    6.51   16.00
   3  -5   9    3.07   12.80
   4  -5   9   48.06   17.25
  -4   5  -9   32.98   18.41
   5  -5   9   32.83   16.42
  -5   5  -9   13.79   18.41
   5   4  -9   16.44   20.23
   5   4  -9  -22.67   13.51
  -5  -4   9    6.20   18.31
   4   4  -9   40.25   20.04
   4   4  -9    1.94   14.47
  -4  -4   9   32.37   15.06
   3   4  -9    7.18   12.92
  -3  -4   9   14.77   11.45
   3   4  -9    5.63   17.90
  -2  -4   9    7.65   10.77
   2   4  -9   -1.28   13.86
  -1  -4   9    6.36   10.11
  -1  -4   9    7.75   15.03
   1   4  -9   25.84   15.59
   0  -4   9    1.57    9.28
   0   4  -9   36.36   16.80
   0  -4   9    0.49   12.17
   1  -4   9   41.72   12.11
  -1   4  -9   49.88   19.60
   1  -4   9   51.48   16.92
   2  -4   9    1.20    8.55
   2  -4   9   10.57   12.08
  -2   4  -9   14.42   14.41
  -3   4  -9   -6.64   14.00
   3  -4   9    2.07   11.57
  -4   4  -9   31.48   17.51
   4  -4   9   60.07   17.33
   5  -4   9   35.99   16.28
  -5   4  -9   19.78   17.36
  -6   4  -9   -9.94   15.27
   6  -4   9   39.82   16.11
  -6  -3   9    1.63   18.57
   6   3  -9   19.08   17.62
   5   3  -9   -2.64   13.73
  -5  -3   9    7.81   16.15
   5   3  -9   18.71   20.42
   4   3  -9    1.57   12.15
  -4  -3   9   10.13   12.61
   4   3  -9   13.97   16.35
   3   3  -9   36.21   18.09
   3   3  -9    5.80   13.47
  -3  -3   9  -15.20    8.34
   2   3  -9   19.25   12.32
  -2  -3   9    7.24   10.11
   2   3  -9   33.37   17.22
  -1  -3   9   54.30   14.25
  -1  -3   9   60.95   17.38
   1   3  -9   34.67   16.12
   0   3  -9   53.58   17.53
   0  -3   9   33.99   12.06
   0  -3   9   43.53   15.84
   1  -3   9   -2.76    9.21
   1  -3   9   30.99   13.69
  -1   3  -9   23.73   16.24
  -2   3  -9   28.61   14.98
   2  -3   9    5.88    9.24
   2  -3   9    5.21   10.49
  -3   3  -9   20.71   15.62
   3  -3   9   13.85   12.36
   3  -3   9   -8.46    8.15
   4  -3   9    7.72   11.61
  -4   3  -9   -9.17   12.07
   5  -3   9   64.20   17.38
  -5   3  -9   26.64   16.19
   6  -3   9    7.50   12.71
  -6   3  -9   19.32   14.51
  -7   3  -9   19.12   15.93
   7  -3   9   35.18   16.01
  -6  -2   9    1.05   14.10
   6   2  -9   43.94   22.88
  -5  -2   9    8.14   13.81
   5   2  -9   14.24   20.04
   4   2  -9   22.69   12.54
   4   2  -9   26.76   17.95
  -4  -2   9   42.81   16.27
   3   2  -9   22.14   16.18
   3   2  -9    1.80   12.05
  -3  -2   9   26.95   13.14
  -2  -2   9   -9.93    8.85
   2   2  -9   13.97   16.01
   2   2  -9    9.97   10.37
   1   2  -9   12.41   13.45
  -1  -2   9   -3.27   11.67
  -1  -2   9   17.75   12.16
   0   2  -9    6.77   11.57
   0  -2   9    0.44    7.50
   0  -2   9    6.43   12.33
   1  -2   9   -9.87    9.61
  -1   2  -9    0.64   10.11
   1  -2   9    8.15    8.71
   2  -2   9    8.95   10.16
   2  -2   9   22.82   10.27
  -2   2  -9   35.71   15.13
   3  -2   9   -3.84    6.96
   3  -2   9   -0.13    8.52
  -3   2  -9   13.12   12.56
   4  -2   9   11.48    9.01
  -4   2  -9   46.62   15.71
   4  -2   9   42.98   13.20
  -5   2  -9   85.38   20.40
   5  -2   9   51.69   15.29
  -6   2  -9   33.00   15.13
   6  -2   9   17.30   11.96
   7  -2   9   27.13   14.87
  -7   2  -9   -3.73   14.34
   8  -2   9   27.84   15.05
  -6  -1   9   15.98   15.13
   6   1  -9   25.67   19.38
   5   1  -9    7.43   18.20
  -5  -1   9   21.70   15.07
  -4  -1   9   32.58   15.29
   4   1  -9   13.08   16.26
  -3  -1   9   27.03   13.43
   3   1  -9   25.81   16.49
   3   1  -9   25.69   11.03
   2   1  -9   24.57   10.97
   2   1  -9   11.48   12.77
  -2  -1   9  -22.37    8.11
   1   1  -9    1.25   13.40
  -1  -1   9   28.95   11.64
   0  -1   9   24.08   10.89
   0   1  -9   39.63   15.08
   0  -1   9   13.56   10.85
   1  -1   9   37.46   13.32
   1  -1   9   39.83   12.49
  -1   1  -9   19.91   11.84
  -2   1  -9  148.68   24.89
   2  -1   9  169.65   23.16
   2  -1   9  161.30   24.14
  -3   1  -9   -3.34   10.91
   3  -1   9   11.96    8.22
   3  -1   9    0.70    8.68
  -4   1  -9   34.25   14.72
   4  -1   9   73.25   15.40
   4  -1   9   37.77   11.92
   5  -1   9   25.86   11.38
   5  -1   9    1.89    8.66
  -5   1  -9   38.12   14.48
   6  -1   9   11.23   11.29
  -6   1  -9   35.51   14.33
   7  -1   9   35.69   14.41
  -7   1  -9   20.23   14.35
  -7   1  -9   35.02   14.56
  -8   1  -9   46.80   18.14
   8  -1   9    4.83   13.56
  -6   0   9   -5.91   12.07
   6   0  -9   20.82   20.25
   5   0  -9   -9.07   15.95
  -5   0   9   -9.83   11.25
  -4   0   9   81.00   19.67
   4   0  -9   49.75   20.67
   3   0  -9   33.13   17.34
  -3   0   9   25.02   15.22
  -2   0   9   19.69   12.62
   2   0  -9    8.08   12.35
  -1   0   9   -6.82    8.11
   1   0  -9   17.09   13.33
   0   0   9   40.83   10.17
   0   0  -9   62.99   18.32
   0   0   9   48.99   14.06
  -1   0  -9   89.04   19.99
   1   0   9  128.79   21.14
   1   0   9  115.86   17.81
  -2   0  -9  116.42   20.61
   2   0   9   79.14   16.42
   2   0   9   87.83   16.59
   3   0   9   33.39   11.08
   3   0   9   22.03   10.61
  -3   0  -9   21.96   12.03
  -4   0  -9    0.82    9.07
   4   0   9   11.80    9.33
  -4   0  -9   -2.66    9.45
   4   0   9   11.71    9.48
   5   0   9   12.90    9.46
   5   0   9   11.90    9.31
  -5   0  -9    0.82    9.88
  -5   0  -9   13.70   11.14
   6   0   9   48.60   13.81
  -6   0  -9   16.91   12.51
  -6   0  -9   59.01   17.44
  -7   0  -9   12.30   12.83
  -7   0  -9   30.55   16.12
   7   0   9   16.64   11.72
   8   0   9   28.88   14.22
  -8   0  -9   24.18   16.36
  -9   0  -9   28.59   16.96
   9   0   9    4.46   14.41
   6  -1  -9    3.12   20.00
  -6   1   9  -16.22   12.07
  -5   1   9   18.72   14.15
   5  -1  -9   19.54   17.30
   4  -1  -9   19.40   16.36
  -4   1   9   14.30   12.75
  -3   1   9   35.24   14.53
   3  -1  -9   18.74   16.04
   2  -1  -9   52.20   18.19
  -2   1   9   68.51   17.84
  -1   1   9   11.34   10.89
   1  -1  -9    7.19   12.58
   0   1   9   -0.33    7.17
   0  -1  -9   -2.50    9.47
   1   1   9   29.35   11.65
  -1  -1  -9   55.56   15.43
  -2  -1  -9  192.47   28.57
   2   1   9  236.50   25.72
  -2  -1  -9  207.04   23.66
   2   1   9  181.02   26.46
  -3  -1  -9   35.21   11.22
  -3  -1  -9   17.21   11.74
   3   1   9   53.20   14.04
   3   1   9   52.93   12.11
  -4  -1  -9    1.55    8.22
   4   1   9    1.32    7.57
   4   1   9    6.43    8.83
  -4  -1  -9   -3.61   10.05
  -5  -1  -9   22.19   11.24
   5   1   9   26.64   11.63
   5   1   9   41.64   10.69
  -5  -1  -9   18.96   12.02
  -6  -1  -9  172.64   26.39
   6   1   9  129.26   22.21
   6   1   9  175.95   25.00
  -6  -1  -9  174.81   25.11
  -7  -1  -9   20.25   14.76
   7   1   9   27.51   12.20
   8   1   9   12.61   13.09
  -8  -1  -9   23.71   16.08
  -9  -1  -9   28.03   19.46
   9   1   9   32.56   16.36
  -6   2   9  -13.41   13.62
   6  -2  -9    7.20   19.83
  -5   2   9    2.95   13.52
   5  -2  -9   28.79   17.19
   4  -2  -9   -5.08   15.06
  -4   2   9   14.52   13.32
  -3   2   9   15.91   12.20
   3  -2  -9   20.75   14.35
   2  -2  -9   73.15   19.06
  -2   2   9   46.61   14.37
  -1   2   9   39.13   14.01
  -1   2   9   41.79   12.42
   1  -2  -9   29.78   15.92
   0  -2  -9   -3.31   10.09
   0  -2  -9   10.59    9.02
   0   2   9    3.44    7.80
  -1  -2  -9   24.57   10.15
  -1  -2  -9   19.23   11.05
   1   2   9   25.31   12.06
  -2  -2  -9   59.40   16.63
  -2  -2  -9  110.99   17.25
   2   2   9   85.97   17.41
  -3  -2  -9   14.55    9.16
   3   2   9   16.29    9.18
  -3  -2  -9   -1.96    9.34
   4   2   9   -1.11    8.78
  -4  -2  -9    9.87    9.33
  -4  -2  -9   18.06   10.59
   4   2   9   16.11    8.39
  -5  -2  -9   53.42   14.46
   5   2   9   39.39   11.68
   5   2   9   50.63   14.38
  -5  -2  -9   65.49   15.52
  -6  -2  -9   38.71   14.50
   6   2   9   30.00   12.75
  -6  -2  -9   59.62   14.25
   6   2   9   48.89   13.34
   7   2   9   13.55   11.46
   7   2   9    0.00   10.05
  -7  -2  -9   23.00   13.76
  -8  -2  -9   25.80   15.45
   8   2   9   -6.34   10.36
   9   2   9   30.85   15.81
  -9  -2  -9   31.52   17.48
  -5   3   9   17.31   13.84
   5  -3  -9   -8.96   17.82
  -4   3   9   15.33   13.51
   4  -3  -9   23.30   17.63
   3  -3  -9   29.46   17.73
  -3   3   9   -1.80   10.53
  -3   3   9   23.89   13.23
   2  -3  -9   30.87   15.19
  -2   3   9   14.96   10.04
  -2   3   9   -1.78   10.33
   1  -3  -9   44.00   16.38
  -1   3   9    8.20   10.59
  -1   3   9   12.59   10.01
   0   3   9   31.39   11.68
   0  -3  -9    8.78   12.08
   0  -3  -9   18.91   10.27
  -1  -3  -9    5.72    8.64
  -1  -3  -9   13.94   11.62
   1   3   9    0.54    9.18
   2   3   9    7.32    9.97
  -2  -3  -9   10.82   10.09
  -2  -3  -9   34.12   12.18
  -3  -3  -9   33.40   12.96
   3   3   9   43.31   13.32
  -3  -3  -9   37.15   12.42
   4   3   9   12.88   12.34
  -4  -3  -9   22.17   11.63
  -4  -3  -9   57.30   15.03
  -5  -3  -9   25.35   12.82
  -5  -3  -9   10.17    9.79
   5   3   9    2.53    9.12
  -6  -3  -9   55.41   15.67
  -6  -3  -9   25.03   13.75
   6   3   9   57.01   13.58
   6   3   9   70.81   15.55
   7   3   9    6.60   10.39
   7   3   9    7.52    9.33
  -7  -3  -9   24.74   14.49
  -8  -3  -9   22.23   15.48
   8   3   9    6.06   10.87
   8   3   9    0.06   10.93
   9   3   9   -8.29   11.78
  -9  -3  -9   52.58   19.03
 -10  -3  -9    2.87   18.25
  10   3   9   44.59   17.67
  -5   4   9  -16.62   14.90
   5  -4  -9   31.97   21.37
  -4   4   9    0.53   14.17
   4  -4  -9   -1.88   17.12
  -4   4   9   -1.23   11.34
   3  -4  -9    2.88   15.81
  -3   4   9   10.35   13.47
  -3   4   9   16.05   11.43
   2  -4  -9   25.93   15.02
  -2   4   9   -1.98    9.64
  -2   4   9   16.58   12.36
   1  -4  -9  -17.21   10.74
  -1   4   9   19.48   10.49
  -1   4   9   10.21   12.37
   0   4   9   17.73   10.12
   0  -4  -9   17.49   10.94
   0  -4  -9   22.80   13.73
  -1  -4  -9   60.36   14.62
  -1  -4  -9   82.13   18.08
   1   4   9   53.95   15.07
  -2  -4  -9    0.23   10.67
  -2  -4  -9   21.13   11.21
   2   4   9   19.60   11.49
   3   4   9  124.53   21.16
  -3  -4  -9  109.43   20.06
  -3  -4  -9   79.12   16.94
  -4  -4  -9  282.85   33.80
   4   4   9  322.75   36.19
  -5  -4  -9    1.03    9.29
   5   4   9   -2.08    9.82
  -5  -4  -9   21.38   12.82
  -6  -4  -9   23.44   13.36
   6   4   9   24.17   12.60
  -7  -4  -9   17.40   12.80
   7   4   9   -1.65    9.85
   8   4   9    1.22   10.83
  -8  -4  -9   10.13   14.81
   8   4   9   13.31   11.88
   9   4   9  -20.13   10.51
  -9  -4  -9   14.98   17.25
   9   4   9   25.54   14.16
  10   4   9   13.38   16.83
 -10  -4  -9   39.25   19.79
   5  -5  -9   25.65   19.72
  -5   5   9    9.25   18.68
   4  -5  -9   16.99   19.55
  -4   5   9   26.18   17.22
  -3   5   9   12.11   11.82
  -3   5   9   13.94   14.95
   3  -5  -9   25.51   19.42
   2  -5  -9   15.69   15.72
  -2   5   9   11.42   12.68
  -2   5   9   11.35    9.03
   1  -5  -9  -12.08   11.34
  -1   5   9    5.39   11.15
  -1   5   9   22.94   12.98
   0  -5  -9  101.86   21.69
   0   5   9   60.13   15.77
   1   5   9    9.76    9.93
  -1  -5  -9    7.98    9.81
  -1  -5  -9    1.54   10.20
  -2  -5  -9   -5.78    9.85
   2   5   9    5.75    8.74
  -2  -5  -9    1.62   11.05
  -3  -5  -9  140.36   22.69
   3   5   9  134.35   22.68
  -3  -5  -9  129.67   22.87
  -4  -5  -9    9.55   10.60
   4   5   9    5.73   10.60
  -4  -5  -9   -0.23   11.48
  -5  -5  -9   28.24   11.62
   5   5   9   10.25   10.65
  -5  -5  -9   -0.97    9.11
  -6  -5  -9    3.35   12.43
   6   5   9    4.35   11.09
  -7  -5  -9   31.96   16.36
   7   5   9    2.68   11.63
   8   5   9    8.80   12.33
  -8  -5  -9   30.37   17.54
  -9  -5  -9   26.54   19.40
   9   5   9   18.12   14.69
  10   5   9   12.96   15.35
 -10  -5  -9   51.13   21.69
  -4   6   9   20.05   19.03
   4  -6  -9   15.53   18.79
  -3   6   9   13.58   15.37
   3  -6  -9    4.25   16.98
   2  -6  -9   14.30   16.65
  -2   6   9    6.31   10.62
  -2   6   9   16.66   15.60
  -1   6   9   22.51   14.17
  -1   6   9   24.23   12.19
   1  -6  -9    1.29   14.62
   0   6   9    7.47   13.07
   0   6   9   12.84    9.50
   0  -6  -9   11.94   13.12
   1   6   9   27.80   11.46
  -1  -6  -9   22.23   12.14
  -1  -6  -9   -9.26   10.27
  -2  -6  -9   25.40   13.17
   2   6   9   14.18   12.38
  -2  -6  -9   44.09   14.75
   3   6   9   -4.59    9.79
  -3  -6  -9    1.01    9.92
  -3  -6  -9   -6.30    9.88
   4   6   9   16.10   12.59
  -4  -6  -9   23.20   12.28
  -4  -6  -9    6.24    9.92
  -5  -6  -9   50.74   14.72
   5   6   9   70.26   16.84
  -5  -6  -9   60.32   16.29
   6   6   9   35.63   15.30
  -6  -6  -9   70.84   17.91
  -7  -6  -9   18.80   14.14
   7   6   9   10.37   11.40
   8   6   9   26.30   14.24
  -8  -6  -9   36.13   18.46
  -9  -6  -9   68.37   22.10
   9   6   9   22.60   14.57
 -10  -6  -9   65.51   23.66
  10   6   9   20.64   16.41
   3  -7  -9   36.04   20.97
  -3   7   9    2.84   16.75
   2  -7  -9  -14.90   15.27
  -2   7   9   37.54   17.52
  -1   7   9    6.98   14.42
   1  -7  -9   16.43   16.10
  -1   7   9   26.60   12.83
   0   7   9   -0.09   13.31
   0   7   9   -2.86    9.64
   0  -7  -9   33.48   16.00
   1   7   9    8.20   11.27
  -1  -7  -9   -1.69   13.37
  -1  -7  -9    3.52   12.23
   2   7   9    4.45   10.08
  -2  -7  -9    2.67   11.62
  -2  -7  -9   -3.73   11.17
  -3  -7  -9   -8.85    9.52
  -3  -7  -9    5.34   13.23
   3   7   9    3.32   11.04
  -4  -7  -9   36.87   15.11
   4   7   9   50.25   15.36
  -4  -7  -9   33.18   13.20
   5   7   9   30.63   15.70
  -5  -7  -9   25.21   13.63
  -6  -7  -9   15.29   12.54
   6   7   9  -11.10    9.79
  -7  -7  -9   29.23   15.30
   7   7   9   -2.51   11.85
   8   7   9   14.95   12.56
  -8  -7  -9   -6.04   15.17
  -9  -7  -9   80.23   22.93
   9   7   9  -11.24   12.11
  -2   8   9   24.43   17.86
   2  -8  -9   20.33   17.44
  -1   8   9   35.03   17.95
   1  -8  -9   11.42   17.55
  -1   8   9   32.30   12.85
   0  -8  -9    9.79   13.19
   0   8   9   -2.17   14.46
   0   8   9    4.17   10.75
  -1  -8  -9   49.50   17.28
  -1  -8  -9   34.66   14.63
   1   8   9   28.76   12.91
  -2  -8  -9   18.53   12.95
   2   8   9   29.47   13.21
  -2  -8  -9   -0.22   11.77
  -3  -8  -9    5.25   10.93
  -3  -8  -9   16.59   14.33
   3   8   9  -16.42   11.07
   4   8   9   39.45   16.18
  -4  -8  -9    7.56   13.16
  -4  -8  -9   18.90   12.03
   5   8   9    8.15   14.97
  -5  -8  -9    9.55   13.21
   6   8   9    1.02   12.06
  -6  -8  -9   -3.38   12.60
   7   8   9   21.74   14.13
  -7  -8  -9  -12.61   12.14
   8   8   9   33.51   16.13
  -8  -8  -9    9.27   16.33
  -9  -8  -9   14.18   18.30
   9   8   9   -4.45   13.60
  -1   9   9   12.76   17.02
   1  -9  -9   -3.22   16.29
   0  -9  -9   17.80   16.82
   0   9   9   20.89   12.76
   0   9   9   26.86   18.61
   1   9   9   -0.41   12.16
  -1  -9  -9   -5.42   12.85
   2   9   9   34.98   15.11
  -2  -9  -9   18.88   15.15
  -2  -9  -9   12.65   14.65
  -3  -9  -9   -2.08   12.78
   3   9   9   -7.68   12.48
  -3  -9  -9    3.20   12.90
   4   9   9   10.57   14.84
  -4  -9  -9   -7.84   14.34
  -5  -9  -9   20.51   13.35
   5   9   9   -8.95   13.18
  -6  -9  -9   11.28   13.01
   6   9   9    7.94   14.58
  -7  -9  -9    3.24   14.86
   7   9   9    7.87   12.10
   8   9   9   23.35   17.91
  -8  -9  -9   21.83   16.13
   0 -10  -9   -9.82   16.37
   0  10   9   12.06   18.39
  -1 -10  -9   11.77   15.48
   1  10   9   18.04   13.92
   1  10   9  -16.09   16.19
   2  10   9   -3.10   13.90
  -2 -10  -9   18.15   15.83
  -2 -10  -9    4.34   14.92
   3  10   9  -19.74   12.48
  -3 -10  -9    4.68   13.56
  -3 -10  -9   16.55   14.83
   4  10   9   21.89   16.47
  -4 -10  -9   45.67   16.56
  -5 -10  -9   37.24   17.42
   5  10   9   11.67   15.98
   6  10   9    7.92   16.87
  -6 -10  -9   57.00   20.43
   7  10   9   15.19   17.29
  -7 -10  -9   27.92   16.56
  -2 -11  -9   24.54   17.15
   2  11   9   39.81   18.94
  -3 -11  -9   34.14   18.22
   3  11   9  -19.38   17.07
  -4 -11  -9   -7.51   14.62
   4  11   9    1.06   16.55
  -5 -11  -9   13.74   18.45
   5  11   9   38.68   21.16
   6  11   9   39.22   20.66
  -6 -11  -9    7.49   18.78
  -1  -6  10   43.71   21.32
  -1  -6  10    2.30   11.39
   1   6 -10   45.38   22.55
   0  -6  10   59.70   25.52
   0   6 -10   18.54   22.36
   0  -6  10    7.33   10.68
  -1   6 -10   27.63   22.37
   1  -6  10   25.61   19.01
   3   5 -10    9.36   20.49
   3   5 -10   23.02   18.56
  -3  -5  10   -0.65   11.94
  -2  -5  10   22.06   12.90
   2   5 -10   20.57   16.78
   2   5 -10   42.46   22.12
  -1  -5  10   29.28   12.09
   1   5 -10   42.32   20.18
  -1  -5  10   19.35   17.33
   0   5 -10   26.47   20.14
   0  -5  10  -15.87   15.10
   0  -5  10   20.60   12.18
  -1   5 -10   12.19   19.47
   1  -5  10  -18.28   13.28
   1  -5  10   17.74   11.48
   2  -5  10   18.11   15.16
  -2   5 -10   16.70   19.59
  -3   5 -10    0.38   18.94
   3  -5  10   16.58   15.67
  -4   5 -10    8.44   21.23
   4  -5  10   18.15   16.36
  -4  -4  10   20.36   13.94
   4   4 -10   36.25   22.80
   4   4 -10  -12.14   13.65
   3   4 -10   50.65   22.34
   3   4 -10   -1.94   14.90
  -3  -4  10   20.01   12.05
   2   4 -10    5.10   19.96
   2   4 -10   15.02   14.82
  -2  -4  10    9.35   12.64
  -1  -4  10   11.40   10.04
  -1  -4  10   12.99   17.10
   1   4 -10   41.13   19.33
   0  -4  10    8.13   10.35
   0   4 -10   24.23   18.55
   0  -4  10   13.14   15.99
   1  -4  10   39.56   13.43
   1  -4  10   45.18   16.51
  -1   4 -10   29.78   17.38
  -2   4 -10   22.70   19.46
   2  -4  10   -2.72    9.59
   2  -4  10   12.53   15.07
   3  -4  10   16.65   14.56
  -3   4 -10   -3.59   17.12
   4  -4  10   23.01   13.59
  -4   4 -10   18.67   19.05
  -5   4 -10   12.01   17.59
   5  -4  10   16.45   15.26
  -4  -3  10   27.77   15.74
   4   3 -10   19.96   20.42
   3   3 -10    8.69   17.88
  -3  -3  10    0.79   12.87
   3   3 -10  -23.28   13.30
   2   3 -10    0.24   17.48
  -2  -3  10    1.41   10.59
   2   3 -10    9.55   12.68
  -1  -3  10   23.74   16.99
  -1  -3  10    0.19    9.61
   1   3 -10   43.64   18.51
   0   3 -10  -14.97   12.89
   0  -3  10   14.03    9.86
   0  -3  10    6.75   13.91
   1  -3  10   19.94   13.25
  -1   3 -10   30.53   18.63
   1  -3  10    6.66    9.74
  -2   3 -10   18.84   15.56
   2  -3  10    9.07   13.02
   2  -3  10    2.16    9.58
   3  -3  10   -3.20   11.05
   3  -3  10  -10.77    9.17
  -3   3 -10    6.12   14.28
  -4   3 -10   22.89   18.27
   4  -3  10   45.09   14.87
  -5   3 -10   25.17   17.48
   5  -3  10    4.65   12.88
  -6   3 -10    6.26   16.48
   6  -3  10   48.48   19.15
   5   2 -10   37.23   22.42
  -5  -2  10   27.93   18.76
   4   2 -10    1.11   19.31
  -4  -2  10   14.84   15.99
   3   2 -10   14.87   16.96
  -3  -2  10  -11.10   11.84
   2   2 -10   -3.08   11.58
   2   2 -10    1.14   16.15
  -2  -2  10   15.19   11.03
  -1  -2  10   43.20   14.48
   1   2 -10   14.42   17.15
  -1  -2  10   38.82   15.26
   0   2 -10   10.05   13.76
   0  -2  10    0.25   12.35
   0  -2  10    9.35   11.44
   1  -2  10   11.58    9.50
  -1   2 -10   22.80   13.03
   1  -2  10    0.72   11.13
   2  -2  10   -2.74    7.81
  -2   2 -10   14.52   12.70
   2  -2  10   16.51   12.25
   3  -2  10   -9.23    7.88
  -3   2 -10    1.29   11.08
   3  -2  10    9.54   12.21
   4  -2  10   46.04   14.59
  -4   2 -10   39.34   18.14
   4  -2  10   10.83   11.29
  -5   2 -10   15.86   15.32
   5  -2  10   12.09   12.05
   6  -2  10   19.59   12.86
  -6   2 -10   12.36   15.96
  -7   2 -10    2.27   15.67
   7  -2  10   39.78   18.03
   5   1 -10   -2.46   21.95
  -5  -1  10   34.64   16.38
   4   1 -10   17.98   17.85
  -4  -1  10   19.12   14.73
  -3  -1  10    8.96   13.95
   3   1 -10   17.45   16.67
  -2  -1  10   20.15   13.61
   2   1 -10   10.34   14.53
  -1  -1  10   17.18   13.44
   1   1 -10   23.20   15.81
   0  -1  10   -9.36    9.35
   0   1 -10   -5.27   11.68
   0  -1  10   -5.45   11.55
  -1   1 -10   16.13   12.31
   1  -1  10    9.57   12.26
   1  -1  10    0.44    7.25
  -2   1 -10   29.62   12.09
   2  -1  10  -11.27    7.09
   2  -1  10   12.52   11.75
   3  -1  10   -7.38    7.79
  -3   1 -10    4.50   11.64
   3  -1  10   -4.87   10.93
   4  -1  10   22.19   12.64
  -4   1 -10   -1.54   11.66
   4  -1  10    3.00    8.54
  -5   1 -10   14.63   13.51
   5  -1  10   20.55   12.38
  -6   1 -10   11.43   13.60
   6  -1  10   27.97   14.27
   7  -1  10   20.94   14.51
  -7   1 -10   29.12   16.97
   8  -1  10   34.37   15.24
   5   0 -10    3.27   20.83
  -5   0  10   25.18   15.37
   4   0 -10   12.69   17.28
  -4   0  10   25.23   15.12
   3   0 -10   19.92   17.48
  -3   0  10   -4.16   13.02
   2   0 -10    8.43   13.73
  -2   0  10  -15.03    9.54
   1   0 -10   22.14   13.87
  -1   0  10  -11.35    9.87
   0   0  10  -15.41    7.86
   0   0 -10   -3.76   10.95
  -1   0 -10   58.04   17.11
   1   0  10   36.53   13.32
   2   0  10  119.63   20.66
  -2   0 -10  115.98   22.71
   2   0  10   89.24   18.72
   3   0  10    1.32    7.86
  -3   0 -10   20.74   12.69
   3   0  10   18.79   10.82
  -4   0 -10    1.27    9.71
   4   0  10   11.95   11.18
   4   0  10   -0.33   10.54
  -5   0 -10   29.66   13.30
   5   0  10   14.32   10.94
   5   0  10    5.15   10.78
  -6   0 -10    3.17   10.65
   6   0  10   34.10   13.06
   7   0  10   28.94   14.04
  -7   0 -10   13.20   12.90
   8   0  10    3.68   13.38
  -5   1  10    0.59   15.61
   5  -1 -10   33.38   21.54
  -4   1  10   32.92   15.34
   4  -1 -10    2.14   18.29
   3  -1 -10   33.11   19.60
  -3   1  10   30.96   15.63
  -2   1  10   11.46   12.65
   2  -1 -10   21.68   16.22
  -1   1  10   15.58   11.63
   1  -1 -10  -10.00   13.37
   0   1  10   34.22   13.45
   0  -1 -10   -4.40    9.90
   1   1  10   -3.02    8.04
  -1  -1 -10   14.56   11.82
   2   1  10   50.81   15.37
  -2  -1 -10   57.15   17.53
  -3  -1 -10  120.88   23.20
   3   1  10  136.60   22.38
   4   1  10   11.26   10.32
  -4  -1 -10   27.39   13.57
   5   1  10   12.50    9.53
  -5  -1 -10   21.83   11.69
  -5  -1 -10   -4.39   12.40
   5   1  10   12.80   10.03
   6   1  10    2.73    9.48
  -6  -1 -10   24.07   11.95
  -6  -1 -10    5.02   12.76
   6   1  10   31.03   11.50
  -7  -1 -10  -10.34   13.12
   7   1  10   11.51   11.66
  -8  -1 -10   26.01   17.81
   8   1  10   34.54   15.06
  -9  -1 -10   33.75   19.40
   9   1  10   25.98   18.96
   5  -2 -10  -17.05   19.20
  -5   2  10   12.14   14.87
  -4   2  10   10.52   14.15
   4  -2 -10   12.99   18.72
   3  -2 -10   15.33   16.97
  -3   2  10   23.91   14.25
   2  -2 -10    1.89   15.44
  -2   2  10   25.73   13.71
   1  -2 -10    1.27   13.09
  -1   2  10   22.37   11.60
   0   2  10    2.28    9.39
   0  -2 -10   15.74   12.51
  -1  -2 -10   38.40   13.38
   1   2  10   19.68   12.22
   2   2  10   83.27   18.74
  -2  -2 -10   67.72   17.16
  -3  -2 -10   45.61   15.29
  -3  -2 -10   37.10   12.81
   3   2  10   43.55   13.75
   4   2  10   -0.88    8.72
  -4  -2 -10   11.93   12.45
  -4  -2 -10   33.05   12.52
  -5  -2 -10   13.11   12.22
  -5  -2 -10   29.59   12.75
   5   2  10   10.38   11.23
  -6  -2 -10   11.85   11.33
   6   2  10    0.04   10.73
  -6  -2 -10   33.86   15.12
  -7  -2 -10   50.75   17.67
   7   2  10    8.89   11.86
   7   2  10   13.77   12.45
   8   2  10   50.29   15.59
  -8  -2 -10   41.73   18.42
  -9  -2 -10   27.02   18.28
   9   2  10   34.17   17.91
   5  -3 -10   31.89   22.17
  -5   3  10    9.19   14.85
  -4   3  10   15.09   13.90
   4  -3 -10   32.43   19.66
  -3   3  10    3.65   12.60
   3  -3 -10   16.40   16.75
  -2   3  10   18.03   11.10
   2  -3 -10   12.78   15.80
  -1   3  10   47.23   14.56
   1  -3 -10   17.84   15.60
   0   3  10   13.68   11.79
   0  -3 -10   -7.20   10.00
   0   3  10    2.10    9.33
  -1  -3 -10   20.45   10.58
   1   3  10    3.56   11.59
  -1  -3 -10   29.24   13.24
  -2  -3 -10   -3.79   10.25
   2   3  10   23.43   11.72
  -2  -3 -10   30.84   12.39
   3   3  10   10.57   10.40
  -3  -3 -10   15.72   10.15
  -3  -3 -10   15.94   10.90
   4   3  10    2.35    9.58
  -4  -3 -10   17.40   11.08
  -4  -3 -10   34.74   12.02
  -5  -3 -10   58.70   16.42
  -5  -3 -10   22.89   12.81
   5   3  10   27.75   13.48
  -6  -3 -10   34.47   13.69
   6   3  10   53.51   16.45
  -6  -3 -10   51.43   17.63
  -7  -3 -10   61.14   19.37
   7   3  10   76.74   18.10
   8   3  10   12.04   13.97
  -8  -3 -10   27.25   17.66
  -9  -3 -10   52.00   20.73
   4  -4 -10   21.69   19.71
  -4   4  10    8.64   14.99
  -3   4  10   36.65   15.05
   3  -4 -10   30.03   18.51
  -2   4  10    5.19   13.03
   2  -4 -10   12.44   16.47
  -2   4  10   30.59   13.18
  -1   4  10   23.04   12.06
   1  -4 -10   -1.78   12.86
  -1   4  10   11.59   12.73
   0  -4 -10   22.02   14.75
   0   4  10    6.01   12.74
   0   4  10    0.21    9.90
  -1  -4 -10   11.74    9.98
   1   4  10    9.98   10.67
  -1  -4 -10    7.44   12.51
   2   4  10    6.22    9.41
  -2  -4 -10   -7.61   10.92
  -2  -4 -10   10.71   11.44
   3   4  10  -11.60    9.88
  -3  -4 -10    9.46   11.94
  -3  -4 -10    1.93   10.01
   4   4  10   82.21   19.85
  -4  -4 -10   86.13   18.63
  -4  -4 -10   81.28   17.54
  -5  -4 -10   12.25   12.63
   5   4  10   35.82   14.49
  -5  -4 -10   10.98   10.74
   6   4  10    2.13   12.36
  -6  -4 -10   30.87   15.13
  -7  -4 -10   32.64   16.82
   7   4  10   15.41   13.12
  -8  -4 -10   37.67   17.55
   8   4  10   25.74   13.69
   9   4  10   22.54   15.15
  -9  -4 -10    7.09   16.88
   4  -5 -10   48.93   23.96
  -4   5  10   18.33   16.46
  -3   5  10   32.44   13.95
   3  -5 -10    1.55   18.71
  -3   5  10   38.75   18.13
  -2   5  10    4.38   10.64
   2  -5 -10    7.77   17.55
  -2   5  10   -1.50   14.10
  -1   5  10   27.97   12.89
  -1   5  10    8.27   14.42
   1  -5 -10  -19.10   11.27
   0   5  10   25.78   12.93
   0  -5 -10    9.46   13.05
   0   5  10   15.05   14.09
  -1  -5 -10   51.83   17.79
   1   5  10   45.89   14.13
  -1  -5 -10   56.87   15.30
   2   5  10    1.93    9.51
  -2  -5 -10   15.92   13.30
  -2  -5 -10   -0.20   11.63
   3   5  10   19.91   11.41
  -3  -5 -10   11.31   11.56
  -3  -5 -10   14.11   12.30
  -4  -5 -10   -0.07   10.78
   4   5  10   15.26   12.18
  -4  -5 -10   14.44   11.60
  -5  -5 -10   45.39   14.67
   5   5  10   31.14   15.40
  -5  -5 -10   23.74   12.44
   6   5  10   11.43   12.59
  -6  -5 -10   26.15   13.93
   7   5  10   -3.81    9.84
  -7  -5 -10   12.75   15.72
  -8  -5 -10    3.86   16.15
   8   5  10    4.52   11.49
   9   5  10   13.77   13.96
  -9  -5 -10   34.33   20.41
  -3   6  10   39.31   19.66
   3  -6 -10   23.61   20.11
   2  -6 -10   12.38   19.76
  -2   6  10   21.19   12.99
  -2   6  10   32.61   17.42
  -1   6  10    6.85   14.03
  -1   6  10   21.88   12.13
   1  -6 -10   17.59   16.62
   0   6  10   19.60   16.34
   0  -6 -10   29.28   17.14
   0   6  10   51.77   14.81
  -1  -6 -10   -9.42   11.11
   1   6  10    8.09   11.66
  -1  -6 -10    3.41   11.22
  -2  -6 -10   35.13   14.28
   2   6  10   27.86   13.57
  -2  -6 -10   17.95   12.39
   3   6  10   19.07   11.96
  -3  -6 -10   17.41   11.68
  -3  -6 -10   35.43   13.71
   4   6  10    8.57   11.12
  -4  -6 -10   -7.32   10.41
  -4  -6 -10   11.46   11.87
  -5  -6 -10   -2.28   10.05
   5   6  10    9.54   12.64
  -5  -6 -10   13.82   13.21
   6   6  10   21.68   13.93
  -6  -6 -10   28.62   13.61
  -7  -6 -10    9.75   16.18
   7   6  10   25.91   13.67
  -8  -6 -10   30.72   18.86
   8   6  10   12.02   14.76
   9   6  10  -11.04   12.93
  -9  -6 -10    7.25   18.34
   2  -7 -10    2.14   17.03
  -2   7  10   17.80   17.67
  -1   7  10    3.36   15.50
   1  -7 -10   10.41   18.45
  -1   7  10   21.50   14.06
   0   7  10   25.86   17.52
   0  -7 -10   23.29   16.44
   0   7  10   13.87   11.25
  -1  -7 -10   21.83   16.41
   1   7  10   32.13   13.66
  -1  -7 -10   21.27   14.59
  -2  -7 -10   -6.10   12.46
   2   7  10   19.15   12.22
  -2  -7 -10    3.75   12.01
  -3  -7 -10    3.68   14.27
  -3  -7 -10    9.79   11.69
   3   7  10    2.61   12.27
  -4  -7 -10    0.38   12.14
  -4  -7 -10   30.64   15.59
   4   7  10   -3.60   11.81
   5   7  10   20.01   13.50
  -5  -7 -10   -3.17   11.29
  -6  -7 -10   24.90   15.11
   6   7  10    5.92   12.15
  -7  -7 -10   -5.87   13.09
   7   7  10   20.82   13.71
  -8  -7 -10   32.32   17.23
   8   7  10    1.17   14.60
  -9  -7 -10   -3.18   19.85
   9   7  10    4.86   15.31
   1  -8 -10   15.34   19.03
  -1   8  10    8.03   14.42
  -1   8  10    7.82   17.78
   0   8  10    5.87   12.29
   0   8  10   30.86   18.93
   0  -8 -10   15.30   16.91
  -1  -8 -10    7.39   15.15
  -1  -8 -10   24.42   14.63
   1   8  10   24.69   13.43
   2   8  10   33.99   14.72
  -2  -8 -10    8.58   13.72
  -2  -8 -10    3.47   13.43
   3   8  10   23.47   13.75
  -3  -8 -10   17.03   14.00
  -3  -8 -10   28.11   16.58
   4   8  10   32.38   15.29
  -4  -8 -10  -11.40   12.96
  -4  -8 -10   22.84   15.28
   5   8  10   27.53   14.19
  -5  -8 -10    1.76   12.91
   6   8  10    8.87   13.39
  -6  -8 -10   11.89   12.92
   7   8  10   17.58   15.96
  -7  -8 -10   -6.09   14.81
   8   8  10   34.73   18.03
  -8  -8 -10   18.21   17.02
   0   9  10  -15.67   11.71
   0  -9 -10    6.63   17.16
   0   9  10    6.35   17.37
   1   9  10   22.18   17.98
   1   9  10   -9.53   12.85
  -1  -9 -10    1.27   14.78
  -2  -9 -10    8.23   15.99
  -2  -9 -10   -4.39   15.18
   2   9  10   -0.16   12.62
  -3  -9 -10   11.81   13.75
  -3  -9 -10   25.34   15.36
   3   9  10    5.00   14.42
  -4  -9 -10   22.91   17.40
   4   9  10  -14.42   13.01
  -5  -9 -10   29.35   15.46
   5   9  10   12.29   14.98
  -6  -9 -10    9.33   15.69
   6   9  10   30.71   19.39
  -7  -9 -10    1.85   15.94
   7   9  10   -0.88   13.84
  -8  -9 -10   36.15   18.22
   8   9  10   15.02   16.69
   1  10  10    0.38   15.80
   1  10  10   15.78   17.93
  -1 -10 -10   -3.07   16.71
  -2 -10 -10    7.32   14.90
  -2 -10 -10   17.89   17.68
   2  10  10  -29.13   14.52
  -3 -10 -10   14.35   17.01
   3  10  10    9.96   16.00
  -3 -10 -10    8.89   14.56
  -4 -10 -10    6.78   15.23
   4  10  10    1.52   15.63
  -5 -10 -10   24.82   18.81
   5  10  10  -13.15   15.33
  -6 -10 -10   39.75   19.76
   6  10  10    2.97   18.43
  -2  -4  11   12.44   12.62
   2   4 -11   44.21   25.60
   2   4 -11    6.74   16.04
  -1  -4  11   19.58   18.06
  -1  -4  11   -2.02   11.43
   1   4 -11   36.55   21.43
   0   4 -11   24.01   21.92
   0  -4  11   -4.64   16.88
   0  -4  11    7.88   11.43
   1  -4  11   14.61   18.08
   1  -4  11   -3.45    9.72
  -1   4 -11   54.28   23.15
   2  -4  11   10.08   15.76
  -2   4 -11   -7.66   16.37
   3  -4  11   18.00   16.37
  -3   4 -11    1.64   18.70
   3   3 -11   10.79   21.91
  -3  -3  11   33.67   16.05
   2   3 -11    5.49   20.22
  -2  -3  11   -7.61   11.93
  -1  -3  11   24.17   13.94
   1   3 -11   19.71   17.31
   0   3 -11   38.68   20.76
   0  -3  11   45.50   13.86
   0  -3  11   22.34   17.29
   1  -3  11   39.46   17.92
   1  -3  11   -8.52   10.07
  -1   3 -11  -22.60   15.69
   2  -3  11   26.50   16.14
  -2   3 -11   46.76   20.14
   2  -3  11   57.29   16.93
  -3   3 -11    3.18   15.16
   3  -3  11   22.08   14.86
   4  -3  11   -3.28   13.28
  -4   3 -11    1.30   16.76
   5  -3  11   -2.89   13.16
  -5   3 -11   14.87   19.22
  -3  -2  11   28.68   15.16
   3   2 -11    0.99   18.40
  -2  -2  11   -0.61   10.51
   2   2 -11   23.58   19.48
   1   2 -11   33.67   19.85
  -1  -2  11   -9.30   11.05
   0  -2  11    3.56   11.62
   0   2 -11    6.41   16.41
   1  -2  11   34.27   15.13
  -1   2 -11   42.05   17.83
   2  -2  11   14.27   12.08
   2  -2  11   13.57   14.42
  -2   2 -11   21.65   15.29
   3  -2  11   27.53   15.52
   3  -2  11   18.62   11.84
  -3   2 -11   33.56   18.01
   4  -2  11   21.03   14.85
  -4   2 -11    5.42   14.63
   5  -2  11   14.18   13.51
  -5   2 -11   30.06   17.02
  -6   2 -11   16.86   16.94
   6  -2  11   27.29   15.28
  -4  -1  11   26.66   16.27
   4   1 -11    5.93   22.99
   3   1 -11   26.40   20.48
  -3  -1  11   18.22   16.10
  -2  -1  11   14.01   13.29
   2   1 -11   26.79   17.81
   1   1 -11   12.94   16.81
  -1  -1  11    5.96   11.71
   0   1 -11   -0.18   16.52
   0  -1  11    6.77   11.71
   1  -1  11    0.54   10.39
  -1   1 -11    4.02   13.07
   2  -1  11   64.29   16.55
  -2   1 -11   37.68   16.82
  -3   1 -11   47.27   16.40
   3  -1  11   29.29   12.62
  -4   1 -11   13.32   13.75
   4  -1  11   20.95   14.02
   4  -1  11   13.70   11.66
  -5   1 -11   12.09   15.11
   5  -1  11   34.94   15.55
  -6   1 -11   -1.27   13.49
   6  -1  11   -0.99   12.84
   7  -1  11   48.34   18.54
  -7   1 -11   37.99   18.26
  -4   0  11    9.89   17.20
   4   0 -11  -10.58   18.84
  -3   0  11    1.27   14.97
   3   0 -11   30.59   20.43
  -2   0  11    9.00   15.46
   2   0 -11    1.05   14.43
  -1   0  11   15.32   13.43
   1   0 -11   17.63   15.66
   0   0  11   -2.69   10.97
   0   0 -11   19.98   16.85
   1   0  11   16.68   10.38
  -1   0 -11   -6.89   11.27
   2   0  11   76.83   17.59
  -2   0 -11   67.73   19.93
  -3   0 -11   -9.14   10.76
   3   0  11    0.75    9.13
   4   0  11   -3.93    9.76
  -4   0 -11   17.17   13.74
  -5   0 -11   13.59   12.37
   5   0  11    8.06   10.03
  -6   0 -11   16.02   13.51
   6   0  11   27.78   14.16
   7   0  11   29.02   15.81
   4  -1 -11   45.67   22.81
  -4   1  11   16.22   16.30
   3  -1 -11    6.88   17.85
  -3   1  11   27.79   16.54
   2  -1 -11   36.08   17.94
  -2   1  11   22.53   15.48
  -1   1  11   41.75   15.93
   1  -1 -11   28.75   18.13
   0  -1 -11   16.02   13.86
   0   1  11   -7.77   10.76
  -1  -1 -11   14.93   12.71
   1   1  11    6.01   10.16
  -2  -1 -11   34.46   16.05
   2   1  11   17.23   10.78
   3   1  11   17.28   11.56
  -3  -1 -11   20.22   14.18
   4   1  11   14.50   11.85
  -4  -1 -11  -19.25   12.04
   5   1  11   -4.02   10.67
  -5  -1 -11   22.89   13.90
  -6  -1 -11    4.93   11.96
   6   1  11   -0.38   11.40
   4  -2 -11  -11.49   17.98
  -4   2  11   12.02   16.58
   3  -2 -11   -1.32   18.45
  -3   2  11   26.90   16.67
   2  -2 -11   20.91   18.67
  -2   2  11   21.54   14.92
   1  -2 -11   19.97   18.35
  -1   2  11   26.11   13.27
   0  -2 -11   11.40   14.47
   0   2  11    7.41   11.34
  -1  -2 -11   22.34   13.83
   1   2  11  -15.56    9.44
   2   2  11    8.23   12.28
  -2  -2 -11   15.01   13.51
   3   2  11   44.40   17.16
  -3  -2 -11   69.56   19.14
  -4  -2 -11   16.76   13.30
   4   2  11   12.07   12.64
   5   2  11   -3.35    9.13
  -5  -2 -11   18.84   14.62
  -6  -2 -11   11.91   14.20
   6   2  11   26.71   13.88
  -6  -2 -11   34.75   14.25
   7   2  11    5.64   11.93
  -7  -2 -11   28.74   18.69
  -8  -2 -11   40.79   19.81
   3  -3 -11  -10.41   16.41
  -3   3  11   -1.23   13.33
  -2   3  11   25.46   13.81
   2  -3 -11    1.29   16.35
   1  -3 -11   13.50   17.35
  -1   3  11   29.79   13.21
   0  -3 -11   25.61   16.46
   0   3  11    1.04   10.78
  -1  -3 -11   14.55   14.16
   1   3  11   18.46   12.51
   2   3  11  -12.46   11.24
  -2  -3 -11   -3.05   10.54
  -3  -3 -11   25.55   13.13
   3   3  11    1.01   11.55
   4   3  11    3.72   11.48
  -4  -3 -11   -0.13   12.29
  -4  -3 -11   12.68   13.26
  -5  -3 -11   18.57   12.34
   5   3  11   -0.53   11.23
  -5  -3 -11   19.26   13.05
  -6  -3 -11   -4.25   11.85
   6   3  11   -1.07   12.11
  -6  -3 -11   33.42   15.72
   7   3  11    7.20   12.42
  -7  -3 -11   20.31   18.12
  -8  -3 -11   58.77   20.61
   8   3  11   18.76   15.71
   3  -4 -11   16.07   20.68
  -3   4  11   31.52   16.71
   2  -4 -11   -8.80   16.80
  -2   4  11   32.41   14.01
   1  -4 -11   11.65   15.68
  -1   4  11   10.72   12.20
   0   4  11   17.17   11.62
   0  -4 -11   12.34   15.51
  -1  -4 -11   26.51   15.21
   1   4  11   -1.89   10.39
  -1  -4 -11    8.38   12.29
  -2  -4 -11   21.11   12.58
   2   4  11   17.54   11.30
  -2  -4 -11    7.80   14.44
  -3  -4 -11   11.77   12.85
   3   4  11    2.62   12.10
  -3  -4 -11   32.04   13.17
  -4  -4 -11    3.01   12.45
  -4  -4 -11   -2.24   11.61
   4   4  11   -3.93   10.26
  -5  -4 -11   17.48   14.44
   5   4  11   13.69   12.61
  -5  -4 -11   21.65   13.63
  -6  -4 -11   30.53   16.47
   6   4  11  -10.19   10.27
  -7  -4 -11   33.45   19.26
   7   4  11    0.63   12.07
  -8  -4 -11   54.93   20.71
   8   4  11   30.15   17.14
  -3   5  11    9.00   15.10
   3  -5 -11   31.66   21.02
  -2   5  11   20.41   13.55
   2  -5 -11   22.23   18.56
   1  -5 -11    3.86   15.42
  -1   5  11   -7.46    9.54
  -1   5  11   -1.04   15.51
   0   5  11    2.44   13.78
   0  -5 -11   10.13   16.18
   0   5  11    2.00   11.41
  -1  -5 -11   28.95   16.84
   1   5  11   47.81   14.66
  -1  -5 -11   26.45   14.74
   2   5  11   18.97   13.41
  -2  -5 -11   31.70   13.50
  -2  -5 -11   27.93   16.56
   3   5  11   18.93   13.57
  -3  -5 -11   11.04   14.27
  -3  -5 -11   13.35   14.62
  -4  -5 -11   76.05   19.45
  -4  -5 -11   43.48   16.59
   4   5  11   70.15   19.21
  -5  -5 -11   -4.21   12.92
  -5  -5 -11   21.31   13.86
   5   5  11   23.29   13.82
  -6  -5 -11   50.75   16.75
   6   5  11   33.14   15.61
  -7  -5 -11   25.38   16.81
   7   5  11    7.22   12.77
   8   5  11   -3.52   13.21
  -8  -5 -11   37.62   20.78
   2  -6 -11   -3.64   19.74
  -2   6  11    8.17   17.47
  -2   6  11   30.92   16.30
   1  -6 -11   13.39   18.76
  -1   6  11   25.54   19.29
  -1   6  11   29.70   13.90
   0  -6 -11   -1.51   13.17
   0   6  11   19.07   14.23
   0   6  11   22.01   17.80
   1   6  11   18.07   13.22
  -1  -6 -11    8.92   13.80
  -1  -6 -11   23.01   15.13
  -2  -6 -11    9.27   11.82
  -2  -6 -11   -5.23   13.04
   2   6  11   10.89   12.66
  -3  -6 -11   46.10   16.42
   3   6  11   50.66   17.14
  -3  -6 -11   24.43   14.73
  -4  -6 -11   20.90   14.98
  -4  -6 -11   13.03   13.16
   4   6  11   -6.32   12.39
   5   6  11   20.95   15.49
  -5  -6 -11   16.57   13.30
   6   6  11   21.61   14.59
  -6  -6 -11   28.87   16.72
  -7  -6 -11    1.67   15.50
   7   6  11  -16.93   13.48
   8   6  11   16.71   15.15
  -8  -6 -11   19.26   18.43
  -1   7  11    3.70   12.47
   1  -7 -11   -6.72   19.87
  -1   7  11   32.34   20.37
   0   7  11   33.53   19.65
   0  -7 -11   -7.48   17.84
   0   7  11    8.52   13.32
  -1  -7 -11   24.44   15.20
   1   7  11   12.29   12.27
  -1  -7 -11   27.16   17.93
  -2  -7 -11   20.13   13.33
  -2  -7 -11   11.71   14.88
   2   7  11   17.82   13.51
  -3  -7 -11   -3.92   13.87
   3   7  11   -0.04   11.83
  -3  -7 -11    0.90   13.07
  -4  -7 -11    6.28   13.21
   4   7  11   -1.12   11.99
  -4  -7 -11   33.76   17.94
  -5  -7 -11    5.75   14.76
   5   7  11    4.88   15.68
   6   7  11   25.12   17.45
  -6  -7 -11    7.55   13.80
  -7  -7 -11   23.95   15.59
   7   7  11    6.78   15.05
  -8  -7 -11   21.04   18.42
   8   7  11   33.95   17.25
   0   8  11    6.59   17.11
   0   8  11   31.38   17.01
   0  -8 -11   10.94   18.48
  -1  -8 -11   -5.22   16.37
   1   8  11    6.06   13.06
   1   8  11    7.64   18.67
   2   8  11    4.05   12.57
  -2  -8 -11   12.87   14.99
  -2  -8 -11    3.22   15.55
   3   8  11   17.70   12.58
  -3  -8 -11   16.36   14.48
  -3  -8 -11   19.05   17.23
   4   8  11    8.34   14.13
  -4  -8 -11   -3.88   15.40
  -4  -8 -11    9.93   14.61
   5   8  11   16.49   15.96
  -5  -8 -11   31.05   17.01
   6   8  11   -1.40   12.64
  -6  -8 -11   19.57   15.61
  -7  -8 -11   25.91   16.52
   7   8  11   23.17   16.86
   1   9  11   16.85   15.80
  -1  -9 -11   11.95   17.72
   1   9  11   41.91   22.75
   2   9  11    7.11   15.84
  -2  -9 -11    5.93   17.56
  -2  -9 -11   38.56   19.71
   3   9  11  -19.58   13.85
  -3  -9 -11   15.70   15.85
  -3  -9 -11   24.52   15.72
   4   9  11   32.45   17.47
  -4  -9 -11   12.30   17.04
  -5  -9 -11   36.85   18.79
   5   9  11   24.39   16.76
  -6  -9 -11    1.44   17.48
   6   9  11   28.93   17.91
   0   3 -12   37.32   23.82
   0  -3  12  -11.48   10.16
   1  -3  12    0.44   11.48
  -1   3 -12   25.66   21.87
   2  -3  12    8.62   10.93
  -2   3 -12   68.15   22.62
  -1  -2  12    3.58   13.12
   1   2 -12   33.26   21.42
   0  -2  12    1.69   12.46
   0   2 -12   -5.72   18.50
   1  -2  12   22.38   13.80
  -1   2 -12    5.78   18.50
   2  -2  12   -5.20   11.72
  -2   2 -12   33.02   19.84
   3  -2  12   33.71   15.24
  -3   2 -12   72.94   21.96
  -4   2 -12   11.63   14.62
  -2  -1  12  -11.94   12.61
   2   1 -12    8.84   20.05
   1   1 -12   17.20   18.32
  -1  -1  12   -2.42   13.16
   0  -1  12  -12.31   12.48
   0   1 -12   17.09   20.02
  -1   1 -12   31.08   19.41
   1  -1  12   22.51   14.55
  -2   1 -12    3.20   16.87
   2  -1  12   19.15   12.89
  -3   1 -12   18.47   19.21
   3  -1  12   13.30   11.27
   4  -1  12  -14.71   10.12
  -4   1 -12   16.06   16.21
  -5   1 -12   40.07   17.17
  -2   0  12   10.29   17.67
   2   0 -12    9.98   20.07
   1   0 -12    1.74   17.40
  -1   0  12    0.62   14.33
   0   0  12  -28.56   12.46
   0   0 -12   19.88   17.68
  -1   0 -12   -9.55   14.19
   1   0  12   -1.72   12.21
  -2   0 -12   21.39   17.14
   2   0  12    6.63   11.84
   3   0  12   32.86   15.33
  -3   0 -12   68.79   20.56
  -4   0 -12   32.50   17.61
   4   0  12    8.05   12.38
  -5   0 -12    5.19   14.47
   5   0  12   30.75   14.08
  -6   0 -12    2.38   14.91
  -2   1  12   33.61   18.86
   2  -1 -12   13.86   19.55
   1  -1 -12   23.44   18.16
  -1   1  12   11.25   13.06
   0   1  12  -14.53   11.15
   0  -1 -12   -5.53   13.98
   1   1  12    9.52   14.26
  -1  -1 -12  -10.86   11.91
  -2  -1 -12   24.48   15.92
   2   1  12   -4.97   11.92
   3   1  12   13.64   12.19
  -3  -1 -12   -4.19   14.01
   4   1  12   -2.65   10.93
  -4  -1 -12   20.86   15.31
   5   1  12   22.43   15.12
  -5  -1 -12    7.19   14.39
   6   1  12   18.63   14.93
  -6  -1 -12   24.54   17.45
   2  -2 -12    5.39   19.43
  -2   2  12   12.91   17.37
   1  -2 -12   50.87   20.13
  -1   2  12   33.88   15.86
   0  -2 -12   34.08   16.99
   0   2  12   16.46   13.37
   1   2  12  -38.68    9.74
  -1  -2 -12   13.17   14.59
  -2  -2 -12   17.84   13.96
   2   2  12  -27.16    9.59
   3   2  12   16.47   14.31
  -3  -2 -12    9.42   13.05
   4   2  12   10.10   13.67
  -4  -2 -12    7.39   13.30
   5   2  12    3.78   12.97
  -5  -2 -12   17.38   15.00
  -6  -2 -12   20.72   17.81
   6   2  12   -4.08   12.07
   7   2  12   18.95   15.15
   2  -3 -12   18.03   18.46
  -2   3  12   17.14   14.47
   1  -3 -12   16.48   18.44
  -1   3  12   21.19   14.11
   0  -3 -12    8.80   16.67
   0   3  12   -8.54   10.99
  -1  -3 -12    9.01   15.27
   1   3  12   23.34   12.12
   2   3  12  -11.24   10.54
  -2  -3 -12   23.48   16.36
  -3  -3 -12   21.58   14.21
   3   3  12   15.30   15.27
  -4  -3 -12   -5.60   11.38
   4   3  12   -0.48   12.29
  -5  -3 -12   11.88   14.02
   5   3  12  -10.76   10.55
   6   3  12    8.47   13.01
   7   3  12   14.27   14.11
   2  -4 -12   14.31   21.38
  -2   4  12   20.10   15.73
   1  -4 -12   20.85   18.22
  -1   4  12   -9.34   11.44
   0  -4 -12   -0.32   15.92
   0   4  12   27.06   13.20
  -1  -4 -12   25.78   17.12
   1   4  12    2.66   12.31
   2   4  12   17.95   15.52
  -2  -4 -12   17.71   16.71
   3   4  12   -8.77   11.01
  -3  -4 -12    7.82   14.93
   4   4  12   10.56   12.33
  -4  -4 -12   20.24   15.21
  -5  -4 -12   20.60   15.19
  -5  -4 -12   11.48   14.52
   5   4  12   14.88   13.67
   6   4  12   12.26   14.41
  -6  -4 -12   37.98   17.95
   7   4  12   13.47   15.88
  -7  -4 -12   38.85   19.19
   1  -5 -12   11.34   17.92
  -1   5  12   12.64   15.07
   0   5  12    8.37   13.23
   0  -5 -12  -13.65   17.24
  -1  -5 -12   -3.49   14.42
   1   5  12   19.29   15.12
  -2  -5 -12    4.48   15.73
   2   5  12   -2.12   12.36
  -3  -5 -12   17.84   16.24
   3   5  12   20.10   15.43
  -3  -5 -12    0.27   15.65
  -4  -5 -12   35.81   16.67
   4   5  12    7.68   14.63
  -4  -5 -12   17.96   15.33
  -5  -5 -12   30.72   16.80
  -5  -5 -12   19.04   16.28
   5   5  12   -6.21   12.73
   6   5  12    3.87   13.92
  -6  -5 -12   27.59   16.80
  -7  -5 -12    2.44   17.19
   7   5  12   16.31   16.25
   1  -6 -12    9.32   20.50
  -1   6  12    4.55   13.78
   0   6  12   32.54   16.14
   0  -6 -12   -7.06   17.14
   0   6  12   11.23   17.65
  -1  -6 -12  -16.92   15.18
   1   6  12   25.19   16.25
  -2  -6 -12   21.98   15.25
   2   6  12   15.65   13.26
  -2  -6 -12    6.93   15.50
  -3  -6 -12   -8.36   14.41
   3   6  12    1.11   13.69
  -3  -6 -12   15.36   15.04
  -4  -6 -12   20.13   16.41
   4   6  12  -20.35   13.28
  -4  -6 -12   -3.48   13.33
   5   6  12   32.08   16.24
  -5  -6 -12    9.10   16.37
   6   6  12   12.42   16.74
  -6  -6 -12   32.02   16.65
   7   6  12   20.68   15.86
  -7  -6 -12   -2.68   16.88
   0   7  12   30.04   22.47
   0   7  12   37.41   16.13
   0  -7 -12   14.23   20.29
   1   7  12   45.07   22.57
  -1  -7 -12    0.80   17.71
   1   7  12   22.67   14.71
  -2  -7 -12   -9.31   16.23
  -2  -7 -12   16.79   15.16
   2   7  12   25.01   13.61
   3   7  12   21.96   16.03
  -3  -7 -12   15.37   14.62
  -3  -7 -12   10.31   16.31
   4   7  12   38.63   19.26
  -4  -7 -12   39.97   20.02
  -4  -7 -12   37.68   17.88
   5   7  12   38.53   17.20
  -5  -7 -12    3.67   16.64
   6   7  12   16.05   17.43
  -6  -7 -12   30.51   16.01
  -7  -7 -12    8.13   18.68
   7   7  12   32.96   18.28
  -2  -8 -12    2.51   16.66
  -2  -8 -12    1.51   19.13
   2   8  12   16.56   14.93
  -3  -8 -12   23.92   15.97
   3   8  12   42.30   16.84
  -3  -8 -12    7.15   18.69
  -4  -8 -12   33.75   18.69
   4   8  12   27.72   16.07
  -5  -8 -12   47.18   21.62
   5   8  12   50.82   18.90
  -6  -8 -12   33.70   18.10
   6   8  12   20.79   18.99
   2  -1  13  -13.04   13.87
  -2   1 -13   15.86   20.13
   0   0  13   -4.17   14.03
   0   0 -13   41.32   21.02
   1   0  13   21.02   15.17
  -1   0 -13   27.26   20.48
  -2   0 -13   32.99   20.15
   2   0  13   12.11   14.70
  -3   0 -13   -3.93   18.24
   3   0  13  -17.14   11.29
   4   0  13   22.05   13.62
  -4   0 -13   -0.02   17.33
   0  -1 -13   22.05   17.19
   0   1  13   20.90   15.26
  -1  -1 -13   10.45   18.08
   1   1  13   16.04   14.90
  -2  -1 -13   15.37   17.18
   2   1  13    2.86   14.05
   3   1  13   23.17   14.53
  -3  -1 -13   15.00   15.48
  -4  -1 -13   28.05   18.35
   4   1  13   15.91   13.29
   5   1  13   -6.39   12.11
  -5  -1 -13  -13.88   16.20
   0  -2 -13   10.15   16.85
   0   2  13   22.38   16.06
   1   2  13   46.76   18.85
  -1  -2 -13   14.47   18.78
   2   2  13  -21.41   13.09
  -2  -2 -13   13.74   16.23
  -3  -2 -13   28.63   15.66
   3   2  13  -23.99   11.90
  -4  -2 -13   16.79   14.87
   4   2  13    4.98   13.60
   5   2  13    9.43   14.63
  -5  -2 -13   15.07   16.55
   0   3  13   26.32   16.45
   0  -3 -13   16.42   18.74
   1   3  13    1.63   13.83
  -1  -3 -13   12.75   17.04
   2   3  13  -15.37   12.14
  -2  -3 -13   -3.83   14.13
  -3  -3 -13   24.11   17.44
   3   3  13  -20.92   11.46
   4   3  13   -4.88   15.37
  -4  -3 -13  -27.32   13.53
   5   3  13  -11.42   13.87
  -5  -3 -13   26.55   16.23
   6   3  13   12.78   16.54
   0  -4 -13    2.65   20.01
   0   4  13   30.81   17.32
  -1  -4 -13   26.44   19.56
   1   4  13   -2.96   12.17
   2   4  13    6.68   15.37
  -2  -4 -13   -9.33   16.43
  -3  -4 -13   23.72   17.79
   3   4  13    4.42   16.40
   4   4  13   14.09   16.15
  -4  -4 -13    5.99   16.13
   5   4  13   34.77   16.88
  -5  -4 -13   28.69   17.59
   6   4  13    1.19   14.98
  -1  -5 -13   28.24   18.99
   1   5  13   61.93   17.24
   2   5  13    1.65   14.62
  -2  -5 -13    4.37   16.80
   3   5  13    9.06   14.59
  -3  -5 -13   11.10   17.85
  -4  -5 -13   18.96   17.87
   4   5  13   24.05   17.64
  -5  -5 -13   -0.22   15.52
   5   5  13   -5.86   15.13
   6   5  13   -9.52   14.57
  -2  -6 -13   12.29   17.94
   2   6  13    3.75   16.14
   3   6  13   13.02   14.89
  -3  -6 -13   18.46   17.98
  -4  -6 -13  -11.92   18.50
   4   6  13    7.90   15.70
  -4  -6 -13   25.07   18.80
  -5  -6 -13   28.24   18.84
   5   6  13  -18.56   16.32
   0   0   0    0.00    0.00
;
_shelx_hkl_checksum              1022
#END Tags that were not found in dictionaries
loop_
_space_group_symop_operation_xyz
'x, y, z'
'-x, -y, -z'
loop_
_atom_site_label
_atom_site_type_symbol
_atom_site_fract_x
_atom_site_fract_y
_atom_site_fract_z
_atom_site_U_iso_or_equiv
_atom_site_adp_type
_atom_site_occupancy
_atom_site_site_symmetry_order
_atom_site_calc_flag
_atom_site_refinement_flags_posn
_atom_site_refinement_flags_adp
C1 C 0.2684(5) 0.6376(5) 0.6637(4) 0.0593(12) Uani 1 1 d . .
H1 H 0.3551 0.5814 0.7171 0.071 Uiso 1 1 calc R U
C2 C 0.3314(5) 0.7128(4) 0.5147(4) 0.0465(10) Uani 1 1 d . .
H2 H 0.4195 0.6376 0.4700 0.056 Uiso 1 1 calc R U
C3 C 0.1767(4) 0.7516(4) 0.4480(4) 0.0445(10) Uani 1 1 d . .
H3 H 0.1337 0.8600 0.4245 0.053 Uiso 1 1 calc R U
C4 C 0.0517(5) 0.6842(4) 0.5661(4) 0.0569(12) Uani 1 1 d . .
H4 H -0.0407 0.6662 0.5379 0.068 Uiso 1 1 calc DR U
C5 C 0.0012(6) 0.7814(5) 0.6705(4) 0.0627(12) Uani 1 1 d . .
H5 H -0.1022 0.8477 0.6911 0.075 Uiso 1 1 calc R U
C6 C 0.1313(6) 0.7554(5) 0.7285(5) 0.0685(13) Uani 1 1 d . .
H6 H 0.1371 0.8013 0.7965 0.082 Uiso 1 1 calc R U
C7 C 0.1668(6) 0.5460(5) 0.6336(5) 0.0668(13) Uani 1 1 d . .
H7A H 0.2314 0.4783 0.5717 0.080 Uiso 1 1 calc R U
H7B H 0.1096 0.4933 0.7152 0.080 Uiso 1 1 calc R U
C1' C 0.4001(5) 0.8411(4) 0.5082(4) 0.0500(11) Uani 1 1 d . .
O1'A O 0.5280(5) 0.8020(4) 0.5617(6) 0.1153(19) Uani 1 1 d D .
O1'B O 0.3431(4) 0.9680(3) 0.4575(4) 0.0754(11) Uani 1 1 d . .
C1'' C 0.2083(5) 0.6812(4) 0.3261(4) 0.0514(11) Uani 1 1 d . .
O1'' O 0.3081(4) 0.5642(3) 0.3096(3) 0.0726(10) Uani 1 1 d . .
C2'' C 0.1080(5) 0.7669(5) 0.2141(5) 0.0617(13) Uani 1 1 d . .
F2A F -0.0528(3) 0.8299(3) 0.2718(3) 0.0786(9) Uani 1 1 d . .
F2B F 0.0962(3) 0.6701(3) 0.1416(3) 0.0848(10) Uani 1 1 d . .
S1 S 0.18671(15) 0.91764(14) 0.10597(13) 0.0716(6) Uani 1 1 d . .
C3'' C 0.4007(5) 0.8229(4) 0.0637(4) 0.0525(11) Uani 1 1 d . .
C4'' C 0.5120(6) 0.8428(5) 0.1287(4) 0.0629(12) Uani 1 1 d . .
H4'' H 0.4756 0.9039 0.1938 0.076 Uiso 1 1 calc R U
C5'' C 0.6785(6) 0.7712(7) 0.0964(6) 0.0819(16) Uani 1 1 d . .
H5'' H 0.7547 0.7828 0.1410 0.098 Uiso 1 1 calc R U
C6'' C 0.7309(7) 0.6852(7) 0.0015(7) 0.0935(18) Uani 1 1 d . .
H6'' H 0.8438 0.6381 -0.0196 0.112 Uiso 1 1 calc R U
C7'' C 0.6235(8) 0.6651(7) -0.0646(6) 0.0954(18) Uani 1 1 d . .
H7'' H 0.6621 0.6055 -0.1310 0.114 Uiso 1 1 calc R U
C8'' C 0.4557(7) 0.7342(6) -0.0323(5) 0.0786(15) Uani 1 1 d . .
H8'' H 0.3803 0.7200 -0.0762 0.094 Uiso 1 1 calc R U
H1'A H 0.568(7) 0.858(6) 0.563(6) 0.094 Uiso 1 1 d . U
loop_
_atom_site_aniso_label
_atom_site_aniso_U_11
_atom_site_aniso_U_22
_atom_site_aniso_U_33
_atom_site_aniso_U_23
_atom_site_aniso_U_13
_atom_site_aniso_U_12
C1 0.054(3) 0.052(2) 0.070(3) 0.003(2) -0.024(2) -0.012(2)
C2 0.043(2) 0.0373(19) 0.061(2) -0.0067(18) -0.0165(18) -0.0097(16)
C3 0.043(2) 0.0352(19) 0.059(2) -0.0058(17) -0.0148(18) -0.0128(16)
C4 0.046(2) 0.057(2) 0.072(3) -0.007(2) -0.013(2) -0.022(2)
C5 0.055(3) 0.065(3) 0.061(3) -0.011(2) -0.001(2) -0.015(2)
C6 0.068(3) 0.076(3) 0.061(3) -0.015(2) -0.016(2) -0.012(3)
C7 0.065(3) 0.046(2) 0.085(3) 0.007(2) -0.016(2) -0.020(2)
C1' 0.046(2) 0.046(2) 0.063(3) -0.007(2) -0.024(2) -0.0126(19)
O1'A 0.109(3) 0.052(2) 0.217(5) 0.016(2) -0.118(3) -0.029(2)
O1'B 0.078(2) 0.0432(17) 0.122(3) 0.0020(17) -0.061(2) -0.0199(15)
C1'' 0.046(2) 0.043(2) 0.070(3) -0.013(2) -0.007(2) -0.0194(19)
O1'' 0.077(2) 0.0559(19) 0.087(2) -0.0269(17) -0.0194(18) -0.0068(17)
C2'' 0.044(2) 0.075(3) 0.075(3) -0.026(3) -0.015(2) -0.017(2)
F2A 0.0435(15) 0.112(2) 0.0864(19) -0.0313(17) -0.0176(13) -0.0134(14)
F2B 0.079(2) 0.112(2) 0.090(2) -0.0412(17) -0.0185(15) -0.0426(17)
S1 0.0575(8) 0.0670(9) 0.0807(10) -0.0023(6) -0.0187(6) -0.0059(6)
C3'' 0.051(2) 0.055(2) 0.050(2) 0.001(2) -0.0151(19) -0.016(2)
C4'' 0.067(3) 0.074(3) 0.057(3) 0.002(2) -0.023(2) -0.035(2)
C5'' 0.058(3) 0.110(4) 0.080(4) 0.016(3) -0.029(3) -0.041(3)
C6'' 0.054(3) 0.104(4) 0.096(4) 0.008(4) -0.002(3) -0.012(3)
C7'' 0.085(4) 0.096(4) 0.099(4) -0.044(4) 0.007(4) -0.012(3)
C8'' 0.077(3) 0.101(4) 0.071(3) -0.033(3) -0.014(3) -0.031(3)
loop_
_atom_type_symbol
_atom_type_description
_atom_type_scat_dispersion_real
_atom_type_scat_dispersion_imag
_atom_type_scat_source
C C 0.0033 0.0016 'International Tables Vol C Tables 4.2.6.8 and 6.1.1.4'
H H 0.0000 0.0000 'International Tables Vol C Tables 4.2.6.8 and 6.1.1.4'
O O 0.0106 0.0060 'International Tables Vol C Tables 4.2.6.8 and 6.1.1.4'
F F 0.0171 0.0103 'International Tables Vol C Tables 4.2.6.8 and 6.1.1.4'
S S 0.1246 0.1234 'International Tables Vol C Tables 4.2.6.8 and 6.1.1.4'
loop_
_geom_angle_atom_site_label_1
_geom_angle_atom_site_label_2
_geom_angle_atom_site_label_3
_geom_angle
C6 C1 C7 100.9(3)
C6 C1 C2 106.9(3)
C7 C1 C2 99.5(3)
C6 C1 H1 115.8
C7 C1 H1 115.8
C2 C1 H1 115.8
C1' C2 C3 115.4(3)
C1' C2 C1 113.4(3)
C3 C2 C1 102.7(3)
C1' C2 H2 108.3
C3 C2 H2 108.3
C1 C2 H2 108.3
C1'' C3 C2 113.4(3)
C1'' C3 C4 110.2(3)
C2 C3 C4 101.5(3)
C1'' C3 H3 110.5
C2 C3 H3 110.5
C4 C3 H3 110.5
C5 C4 C7 101.6(4)
C5 C4 C3 106.2(3)
C7 C4 C3 102.0(3)
C5 C4 H4 115.1
C7 C4 H4 115.1
C3 C4 H4 115.1
C6 C5 C4 107.0(4)
C6 C5 H5 126.5
C4 C5 H5 126.5
C5 C6 C1 107.2(4)
C5 C6 H6 126.4
C1 C6 H6 126.4
C4 C7 C1 92.5(3)
C4 C7 H7A 113.2
C1 C7 H7A 113.2
C4 C7 H7B 113.2
C1 C7 H7B 113.2
H7A C7 H7B 110.5
O1'B C1' O1'A 122.6(4)
O1'B C1' C2 124.9(3)
O1'A C1' C2 112.4(3)
C1' O1'A H1'A 119(5)
O1'' C1'' C3 124.6(4)
O1'' C1'' C2'' 118.6(4)
C3 C1'' C2'' 116.8(3)
F2B C2'' F2A 105.5(3)
F2B C2'' C1'' 109.6(4)
F2A C2'' C1'' 109.8(4)
F2B C2'' S1 111.9(3)
F2A C2'' S1 106.0(3)
C1'' C2'' S1 113.6(3)
C3'' S1 C2'' 99.82(19)
C8'' C3'' C4'' 119.9(4)
C8'' C3'' S1 121.7(3)
C4'' C3'' S1 118.4(4)
C3'' C4'' C5'' 119.2(5)
C3'' C4'' H4'' 120.4
C5'' C4'' H4'' 120.4
C6'' C5'' C4'' 120.3(5)
C6'' C5'' H5'' 119.9
C4'' C5'' H5'' 119.9
C5'' C6'' C7'' 121.4(5)
C5'' C6'' H6'' 119.3
C7'' C6'' H6'' 119.3
C6'' C7'' C8'' 119.2(5)
C6'' C7'' H7'' 120.4
C8'' C7'' H7'' 120.4
C3'' C8'' C7'' 119.9(5)
C3'' C8'' H8'' 120.0
C7'' C8'' H8'' 120.0
loop_
_geom_bond_atom_site_label_1
_geom_bond_atom_site_label_2
_geom_bond_distance
C1 C6 1.507(6)
C1 C7 1.531(6)
C1 C2 1.566(6)
C1 H1 0.9800
C2 C1' 1.494(5)
C2 C3 1.547(5)
C2 H2 0.9800
C3 C1'' 1.495(6)
C3 C4 1.560(5)
C3 H3 0.9800
C4 C5 1.489(6)
C4 C7 1.519(6)
C4 H4 0.9800
C5 C6 1.322(6)
C5 H5 0.9300
C6 H6 0.9300
C7 H7A 0.9700
C7 H7B 0.9700
C1' O1'B 1.202(5)
C1' O1'A 1.263(5)
O1'A H1'A 0.72(6)
C1'' O1'' 1.205(4)
C1'' C2'' 1.532(6)
C2'' F2B 1.361(5)
C2'' F2A 1.371(5)
C2'' S1 1.792(5)
S1 C3'' 1.779(4)
C3'' C8'' 1.362(6)
C3'' C4'' 1.371(6)
C4'' C5'' 1.378(7)
C4'' H4'' 0.9300
C5'' C6'' 1.336(8)
C5'' H5'' 0.9300
C6'' C7'' 1.351(9)
C6'' H6'' 0.9300
C7'' C8'' 1.382(7)
C7'' H7'' 0.9300
C8'' H8'' 0.9300
loop_
_geom_hbond_atom_site_label_D
_geom_hbond_atom_site_label_H
_geom_hbond_atom_site_label_A
_geom_hbond_distance_DH
_geom_hbond_distance_HA
_geom_hbond_distance_DA
_geom_hbond_angle_DHA
_geom_hbond_site_symmetry_A
O1'A H1'A O1'B 0.72(6) 1.97(6) 2.690(4) 170(6) 2_676
loop_
_geom_torsion_atom_site_label_1
_geom_torsion_atom_site_label_2
_geom_torsion_atom_site_label_3
_geom_torsion_atom_site_label_4
_geom_torsion
C6 C1 C2 C1' 60.7(4)
C7 C1 C2 C1' 165.2(3)
C6 C1 C2 C3 -64.5(4)
C7 C1 C2 C3 40.0(4)
C1' C2 C3 C1'' 114.6(4)
C1 C2 C3 C1'' -121.5(3)
C1' C2 C3 C4 -127.2(4)
C1 C2 C3 C4 -3.3(4)
C1'' C3 C4 C5 -168.6(3)
C2 C3 C4 C5 71.0(4)
C1'' C3 C4 C7 85.4(4)
C2 C3 C4 C7 -35.0(4)
C7 C4 C5 C6 34.8(4)
C3 C4 C5 C6 -71.5(4)
C4 C5 C6 C1 -1.1(5)
C7 C1 C6 C5 -32.5(5)
C2 C1 C6 C5 71.0(5)
C5 C4 C7 C1 -50.6(4)
C3 C4 C7 C1 58.9(4)
C6 C1 C7 C4 49.4(4)
C2 C1 C7 C4 -60.0(4)
C3 C2 C1' O1'B 0.9(6)
C1 C2 C1' O1'B -117.2(5)
C3 C2 C1' O1'A -178.6(4)
C1 C2 C1' O1'A 63.3(5)
C2 C3 C1'' O1'' 29.5(5)
C4 C3 C1'' O1'' -83.6(5)
C2 C3 C1'' C2'' -149.3(3)
C4 C3 C1'' C2'' 97.7(4)
O1'' C1'' C2'' F2B 25.8(5)
C3 C1'' C2'' F2B -155.3(3)
O1'' C1'' C2'' F2A 141.3(4)
C3 C1'' C2'' F2A -39.9(5)
O1'' C1'' C2'' S1 -100.3(4)
C3 C1'' C2'' S1 78.6(4)
F2B C2'' S1 C3'' -74.7(3)
F2A C2'' S1 C3'' 170.7(3)
C1'' C2'' S1 C3'' 50.1(3)
C2'' S1 C3'' C8'' 78.7(4)
C2'' S1 C3'' C4'' -102.4(3)
C8'' C3'' C4'' C5'' -0.6(7)
S1 C3'' C4'' C5'' -179.5(3)
C3'' C4'' C5'' C6'' 1.0(7)
C4'' C5'' C6'' C7'' -0.4(9)
C5'' C6'' C7'' C8'' -0.5(9)
C4'' C3'' C8'' C7'' -0.4(7)
S1 C3'' C8'' C7'' 178.5(4)
C6'' C7'' C8'' C3'' 0.9(9)
