#------------------------------------------------------------------------------
#$Date: 2016-03-21 05:34:46 +0200 (Mon, 21 Mar 2016) $
#$Revision: 178485 $
#$URL: svn://www.crystallography.net/cod/cif/4/03/06/4030692.cif $
#------------------------------------------------------------------------------
#
# This file is available in the Crystallography Open Database (COD),
# http://www.crystallography.net/
#
# All data on this site have been placed in the public domain by the
# contributors.
#
data_4030692
loop_
_publ_author_name
'Yu, Wesley Zongrong'
'Chen, Feng'
'Cheng, Yi An'
'Yeung, Ying-Yeung'
_publ_section_title
;
 Catalyst-free and metal-free electrophilic bromoamidation of unactivated
 olefins using the N-bromosuccinimide/sulfonamide protocol.
;
_journal_issue                   5
_journal_name_full               'The Journal of organic chemistry'
_journal_page_first              2815
_journal_page_last               2821
_journal_paper_doi               10.1021/jo502416r
_journal_volume                  80
_journal_year                    2015
_chemical_formula_sum            'C16 H15 Br F3 N O2 S'
_chemical_formula_weight         422.26
_chemical_name_systematic
; 
 ? 
;
_space_group_crystal_system      triclinic
_space_group_IT_number           2
_space_group_name_Hall           '-P 1'
_space_group_name_H-M_alt        'P -1'
_symmetry_space_group_name_Hall  '-P 1'
_symmetry_space_group_name_H-M   'P -1'
_atom_sites_solution_hydrogens   mixed
_audit_creation_method           SHELXL-2013
_cell_angle_alpha                74.591(7)
_cell_angle_beta                 89.569(8)
_cell_angle_gamma                87.535(7)
_cell_formula_units_Z            2
_cell_length_a                   6.805(2)
_cell_length_b                   8.529(3)
_cell_length_c                   15.363(5)
_cell_measurement_reflns_used    1567
_cell_measurement_temperature    100(2)
_cell_measurement_theta_max      28.49
_cell_measurement_theta_min      2.50
_cell_volume                     858.8(5)
_computing_cell_refinement       'Bruker SAINT'
_computing_data_collection       'Bruker APEX2'
_computing_data_reduction        'Bruker SAINT'
_computing_molecular_graphics    'Bruker SHELXTL'
_computing_publication_material  'Bruker SHELXTL'
_computing_structure_refinement  'SHELXL-2013 (Sheldrick, 2013)'
_computing_structure_solution    'SHELXS-97 (Sheldrick 2008)'
_diffrn_ambient_temperature      100(2)
_diffrn_measured_fraction_theta_full 0.999
_diffrn_measured_fraction_theta_max 0.999
_diffrn_measurement_device_type  'Bruker APEX-II CCD'
_diffrn_measurement_method       '\f and \w scans'
_diffrn_radiation_type           MoK\a
_diffrn_radiation_wavelength     0.71073
_diffrn_reflns_av_R_equivalents  0.0428
_diffrn_reflns_av_unetI/netI     0.0581
_diffrn_reflns_Laue_measured_fraction_full 0.999
_diffrn_reflns_Laue_measured_fraction_max 0.999
_diffrn_reflns_limit_h_max       8
_diffrn_reflns_limit_h_min       -7
_diffrn_reflns_limit_k_max       10
_diffrn_reflns_limit_k_min       -10
_diffrn_reflns_limit_l_max       18
_diffrn_reflns_limit_l_min       -18
_diffrn_reflns_number            6294
_diffrn_reflns_point_group_measured_fraction_full 0.999
_diffrn_reflns_point_group_measured_fraction_max 0.999
_diffrn_reflns_theta_full        25.000
_diffrn_reflns_theta_max         24.998
_diffrn_reflns_theta_min         2.479
_exptl_absorpt_coefficient_mu    2.554
_exptl_absorpt_correction_T_max  0.7458
_exptl_absorpt_correction_T_min  0.4821
_exptl_absorpt_correction_type   multi-scan
_exptl_absorpt_process_details   'Sadabs, (Sheldrick 2012)'
_exptl_crystal_colour            Colourless
_exptl_crystal_density_diffrn    1.633
_exptl_crystal_density_meas      ?
_exptl_crystal_density_method    'Not Measured'
_exptl_crystal_description       Block
_exptl_crystal_F_000             424
_exptl_crystal_size_max          0.380
_exptl_crystal_size_mid          0.280
_exptl_crystal_size_min          0.150
_refine_diff_density_max         1.637
_refine_diff_density_min         -1.444
_refine_diff_density_rms         0.144
_refine_ls_extinction_method     none
_refine_ls_goodness_of_fit_ref   1.060
_refine_ls_hydrogen_treatment    mixed
_refine_ls_matrix_type           full
_refine_ls_number_parameters     223
_refine_ls_number_reflns         3016
_refine_ls_number_restraints     50
_refine_ls_restrained_S_all      1.095
_refine_ls_R_factor_all          0.0672
_refine_ls_R_factor_gt           0.0584
_refine_ls_shift/su_max          0.001
_refine_ls_shift/su_mean         0.000
_refine_ls_structure_factor_coef Fsqd
_refine_ls_weighting_details
'w=1/[\s^2^(Fo^2^)+(0.1018P)^2^+2.1221P] where P=(Fo^2^+2Fc^2^)/3'
_refine_ls_weighting_scheme      calc
_refine_ls_wR_factor_gt          0.1577
_refine_ls_wR_factor_ref         0.1640
_reflns_Friedel_coverage         0.000
_reflns_number_gt                2607
_reflns_number_total             3016
_reflns_threshold_expression     'I > 2\s(I)'
_cod_data_source_file            jo502416r_si_002.cif
_cod_data_source_block           E236
_cod_depositor_comments
;
The following automatic conversions were performed:

'_exptl_absorpt_correction_type' value 'Multi-scan' changed to
'multi-scan' according to
/usr/data/users/saulius/crontab/automatic-downloads/rss-feeds/ACS/lib/dictionaries/cif_core.dic
dictionary named 'cif_core.dic' version 2.4.2 from 2011-04-26.

'_exptl_crystal_density_meas' value 'Not Measured' was changed to '?'
- the value is perceived as not measured.

Automatic conversion script
Id: cif_fix_values 3008 2015-01-20 13:52:24Z robertas 

 Adding full bibliography for 4030691--4030696.cif.
;
_cod_original_cell_volume        858.7(5)
_cod_database_code               4030692
#BEGIN Tags that were not found in dictionaries:
_shelx_space_group_comment
; 
The symmetry employed for this shelxl refinement is uniquely defined 
by the following loop, which should always be used as a source of 
symmetry information in preference to the above space-group names. 
They are only intended as comments. 
;
_shelx_estimated_absorpt_t_min   0.444
_shelx_estimated_absorpt_t_max   0.701
_shelxl_version_number           2013-4
_shelx_res_file
; 
TITL E236 in P-1 
CELL  0.71073   6.8045   8.5285  15.3631   74.591   89.569   87.535 
ZERR    2.00   0.00200   0.00270   0.00500   0.0068   0.0077   0.0072 
LATT 1 
SFAC C  H  N  S  Br O  F 
UNIT 32 30 2 2 2 4 6 
OMIT  -1.00  50.00 
L.S. 10 
ACTA 50 
BOND $H 
FMAP 2 
PLAN 20 
DFIX 0.85 N1 H1N 
EADP F1A F2A F3A 
EADP F1 F2 F3 
EQIV $1 -x+1, -y+2, -z 
HTAB N1 O1_$1 
SADI 0.005 C16 F1 C16 F2 C16 F3 C16A F1A C16A F2A C16A F3A 
SADI 0.005 F1 F2 F1 F3 F2 F3 F1A F2A F1A F3A F2A F3A 
ISOR 0.002 0.003 F1 F2 F3 
SADI C13 C16 C13 C16A 
EADP C16 C16A 
SIZE 0.38 0.28 0.15 
TEMP -173 
WGHT    0.101800    2.122100 
FVAR       0.18041   0.68160 
PART 1 
C16   1    0.759174    0.517520    0.395921    21.00000    0.01106    0.02522 = 
         0.01731    0.00863    0.00330    0.00394 
F1    7    0.690427    0.377791    0.443462    21.00000    0.05000    0.05786 = 
         0.04738   -0.00317   -0.01199    0.00805 
F2    7    0.941918    0.485353    0.374851    21.00000    0.05000    0.05786 = 
         0.04738   -0.00317   -0.01199    0.00805 
F3    7    0.769187    0.608704    0.453623    21.00000    0.05000    0.05786 = 
         0.04738   -0.00317   -0.01199    0.00805 
PART 2 
C16A  1    0.755957    0.576894    0.404616   -21.00000    0.01106    0.02522 = 
         0.01731    0.00863    0.00330    0.00394 
F1A   7    0.692704    0.442298    0.461122   -21.00000    0.03527 
F2A   7    0.944200    0.547132    0.389431   -21.00000    0.03527 
F3A   7    0.755738    0.685416    0.453046   -21.00000    0.03527 
PART 0 
BR1   5    0.305598    1.417708    0.076150    11.00000    0.01750    0.01716 = 
         0.05347   -0.01404    0.00649   -0.00091 
S1    4    0.256046    0.865285    0.077495    11.00000    0.00598    0.01285 = 
         0.01073   -0.00169   -0.00097    0.00186 
O1    6    0.356874    0.857689   -0.004372    11.00000    0.00975    0.01638 = 
         0.01416   -0.00573    0.00010    0.00180 
O2    6    0.061989    0.805452    0.094768    11.00000    0.00641    0.01650 = 
         0.01760   -0.00232    0.00065   -0.00236 
N1    3    0.243045    1.054808    0.077464    11.00000    0.00745    0.01604 = 
         0.01134   -0.00367    0.00112    0.00094 
H1N   2    0.347723    1.101944    0.063063    11.00000   -1.20000 
C1    1    0.062761    1.295047    0.098153    11.00000    0.01254    0.02019 = 
         0.03027   -0.00955    0.00135    0.00534 
AFIX  13 
H1    2   -0.001884    1.307867    0.038282    11.00000   -1.20000 
AFIX   0 
C2    1    0.108352    1.113715    0.138676    11.00000    0.00746    0.01716 = 
         0.02074   -0.00923    0.00323    0.00109 
AFIX  13 
H2    2   -0.018046    1.058520    0.137769    11.00000   -1.20000 
AFIX   0 
C3    1    0.176862    1.067181    0.236618    11.00000    0.01989    0.02347 = 
         0.01959   -0.01023    0.00209    0.00369 
C4    1    0.045427    1.004114    0.304046    11.00000    0.02620    0.04202 = 
         0.02514   -0.01674    0.00593   -0.00401 
AFIX  43 
H4    2   -0.087430    0.993353    0.288775    11.00000   -1.20000 
AFIX   0 
C5    1    0.103947    0.955601    0.394617    11.00000    0.04650    0.06549 = 
         0.01996   -0.01750    0.01313   -0.01126 
AFIX  43 
H5    2    0.011520    0.913271    0.440613    11.00000   -1.20000 
AFIX   0 
C6    1    0.296543    0.969831    0.416340    11.00000    0.05275    0.08280 = 
         0.01929   -0.01694   -0.00601   -0.00152 
AFIX  43 
H6    2    0.338303    0.935980    0.477603    11.00000   -1.20000 
AFIX   0 
C7    1    0.428950    1.032972    0.349578    11.00000    0.03159    0.07956 = 
         0.02775   -0.02684   -0.00685    0.00031 
AFIX  43 
H7    2    0.561561    1.043652    0.365250    11.00000   -1.20000 
AFIX   0 
C8    1    0.372276    1.080776    0.260638    11.00000    0.01679    0.04681 = 
         0.02146   -0.01503   -0.00206   -0.00065 
AFIX  43 
H8    2    0.465825    1.123230    0.215195    11.00000   -1.20000 
AFIX   0 
C9    1   -0.078227    1.370927    0.155028    11.00000    0.01574    0.02877 = 
         0.04826   -0.01961    0.00243    0.00658 
AFIX 137 
H9A   2   -0.020115    1.358616    0.214768    11.00000   -1.50000 
H9B   2   -0.203158    1.315958    0.161671    11.00000   -1.50000 
H9C   2   -0.101787    1.486849    0.125105    11.00000   -1.50000 
AFIX   0 
C10   1    0.406744    0.758687    0.169682    11.00000    0.00965    0.01744 = 
         0.01470   -0.00296   -0.00198    0.00430 
C11   1    0.608476    0.779198    0.165459    11.00000    0.01119    0.01621 = 
         0.01195    0.00253    0.00374    0.00094 
AFIX  43 
H11   2    0.666783    0.844594    0.112548    11.00000   -1.20000 
AFIX   0 
C12   1    0.722447    0.702289    0.239997    11.00000    0.01044    0.02584 = 
         0.02159    0.00114   -0.00151    0.00412 
AFIX  43 
H12   2    0.860518    0.715170    0.238555    11.00000   -1.20000 
AFIX   0 
C13   1    0.636159    0.606418    0.316866    11.00000    0.01295    0.04031 = 
         0.01870    0.00389   -0.00262    0.00263 
C14   1    0.435401    0.584811    0.318966    11.00000    0.01177    0.05216 = 
         0.02435    0.01696    0.00398   -0.00011 
AFIX  43 
H14   2    0.377480    0.516727    0.371136    11.00000   -1.20000 
AFIX   0 
C15   1    0.319714    0.661588    0.245786    11.00000    0.01203    0.03346 = 
         0.02305    0.00542    0.00107   -0.00053 
AFIX  43 
H15   2    0.181729    0.648238    0.247368    11.00000   -1.20000 
AFIX   0 
HKLF 4 
  
REM  E236 in P-1 
REM R1 =  0.0584 for    2607 Fo > 4sig(Fo)  and  0.0672 for all    3016 data 
REM    223 parameters refined using     50 restraints 
  
END 
  
WGHT      0.1018      2.1221 
  
REM Highest difference peak  1.637,  deepest hole -1.444,  1-sigma level  0.144 
Q1    1   0.6966  0.5112  0.4724  11.00000  0.05    1.64 
Q2    1   0.7710  0.3346  0.3961  11.00000  0.05    1.36 
Q3    1   0.8911  0.3967  0.3747  11.00000  0.05    1.31 
Q4    1   0.9514  0.6026  0.3952  11.00000  0.05    1.26 
Q5    1   0.3207  1.4128  0.1387  11.00000  0.05    1.20 
Q6    1   0.2498  1.3285  0.1080  11.00000  0.05    0.86 
Q7    1   0.2891  1.3634  0.0397  11.00000  0.05    0.77 
Q8    1   0.2933  1.4339 -0.0018  11.00000  0.05    0.68 
Q9    1   0.6889  0.6102  0.4680  11.00000  0.05    0.64 
Q10   1   0.3496  1.4997  0.0591  11.00000  0.05    0.62 
Q11   1   0.3650  0.7380  0.2220  11.00000  0.05    0.61 
Q12   1   0.1411  1.1072  0.1853  11.00000  0.05    0.53 
Q13   1   0.2938  0.8495  0.1436  11.00000  0.05    0.48 
Q14   1   0.2642  0.9048  0.0020  11.00000  0.05    0.48 
Q15   1   0.2755  0.8588  0.0222  11.00000  0.05    0.46 
Q16   1   0.2771  0.9203  0.1210  11.00000  0.05    0.45 
Q17   1   0.7596  0.4632  0.3845  11.00000  0.05    0.45 
Q18   1   0.0527  0.9993  0.3250  11.00000  0.05    0.44 
Q19   1   0.2883  0.9857  0.0611  11.00000  0.05    0.43 
Q20   1   0.0463  0.7085  0.1248  11.00000  0.05    0.42 
;
_shelx_res_checksum              62450
_shelx_hkl_file
; 
  -1   0   0    3.80    0.30 
   1   0   0    3.48    0.30 
   1   0   0    3.61    0.25 
   1   0   0    3.48    0.23 
  -2   0   0  248.66   17.40 
   2   0   0  241.22   13.26 
   2   0   0  246.66   13.78 
  -3   0   0  333.75   23.74 
   3   0   0  342.75   18.10 
   3   0   0  328.24   18.80 
  -4   0   0    4.28    0.45 
   4   0   0    4.63    0.37 
   4   0   0    4.39    0.39 
  -5   0   0   65.11    4.89 
   5   0   0   66.08    3.91 
   5   0   0   71.67    3.74 
   6   0   0   10.70    0.91 
   6   0   0   12.83    0.82 
   7   0   0    2.19    0.52 
   8   0   0    6.22    0.81 
   8  -1   0   31.14    2.03 
   7  -1   0   -0.22    0.32 
   7  -1   0    0.77    0.47 
   6  -1   0   33.43    2.01 
   6  -1   0   31.31    1.89 
   5  -1   0   17.42    1.07 
   5  -1   0   17.25    1.16 
   4  -1   0    0.18    0.16 
   4  -1   0    0.28    0.21 
  -4   1   0    0.16    0.13 
   3  -1   0  120.86    7.13 
   3  -1   0  127.55    7.41 
  -3   1   0  144.73    9.32 
   2  -1   0   17.37    1.06 
   2  -1   0   20.33    1.12 
   1  -1   0   40.65    2.49 
   1  -1   0   47.31    2.59 
   1  -1   0   51.48    3.26 
  -1   1   0   43.57    3.26 
   0  -1   0   13.49    1.15 
   0  -1   0   17.15    0.87 
   0   1   0   15.90    0.90 
  -1  -1   0    0.07    0.08 
   1   1   0    0.15    0.06 
  -2  -1   0   59.86    4.07 
   2   1   0   53.03    3.20 
  -3  -1   0   26.60    2.13 
   3   1   0   30.95    1.68 
  -4  -1   0    6.93    0.66 
   4   1   0    6.74    0.52 
  -5  -1   0   74.76    5.32 
   5   1   0   71.39    4.20 
  -6  -1   0    4.83    0.63 
   6   1   0    5.52    0.53 
   7   1   0   14.80    1.12 
   8   1   0   22.86    1.58 
   8  -2   0   10.76    1.03 
   7  -2   0    0.97    0.38 
   7  -2   0    1.11    0.51 
   6  -2   0   15.84    1.11 
   6  -2   0   18.26    1.20 
   5  -2   0   32.71    1.84 
   5  -2   0   30.30    1.92 
   4  -2   0   40.80    2.38 
   4  -2   0   44.08    2.49 
   3  -2   0  139.21    7.56 
   3  -2   0  128.36    7.27 
   2  -2   0    1.29    0.16 
   2  -2   0    1.72    0.20 
   2  -2   0    1.68    0.17 
   1  -2   0  137.73    9.77 
   1  -2   0  138.16    7.45 
  -1   2   0  135.93    7.73 
   0  -2   0  138.66    7.66 
   0  -2   0  151.76   10.09 
   0   2   0  134.71    7.96 
  -1  -2   0  152.99   10.78 
   1   2   0  149.50    8.50 
  -2  -2   0  114.40    8.02 
   2   2   0  109.52    6.31 
  -3  -2   0   30.66    2.17 
   3   2   0   26.76    1.66 
  -4  -2   0  108.43    8.02 
   4   2   0  114.08    6.31 
  -5  -2   0    1.88    0.43 
   5   2   0    1.46    0.30 
  -6  -2   0    1.29    0.46 
   6   2   0    1.17    0.38 
   7   2   0    5.06    0.62 
   8   2   0    0.29    0.55 
   8  -3   0    2.54    0.51 
   8  -3   0    1.92    0.72 
   7  -3   0   13.86    1.04 
   7  -3   0   14.83    1.16 
   6  -3   0    0.74    0.33 
   6  -3   0    0.87    0.42 
   5  -3   0    7.44    0.70 
   5  -3   0    7.62    0.64 
   4  -3   0   14.86    1.02 
   4  -3   0   15.32    0.95 
   3  -3   0   14.92    1.05 
   3  -3   0   12.67    0.86 
   2  -3   0   18.02    1.06 
   2  -3   0   17.70    1.36 
  -2   3   0   18.96    1.10 
   1  -3   0   87.13    6.43 
   1  -3   0   92.03    4.88 
  -1   3   0   89.93    5.07 
   0  -3   0    1.88    0.17 
   0  -3   0    1.60    0.29 
   0   3   0    3.00    0.24 
  -1  -3   0   60.44    4.29 
   1   3   0   57.48    3.35 
  -2  -3   0   15.12    1.32 
   2   3   0   17.93    1.00 
  -3  -3   0    4.51    0.57 
   3   3   0    4.50    0.39 
  -4  -3   0   21.74    1.72 
   4   3   0   20.49    1.28 
  -5  -3   0    3.57    0.59 
   5   3   0    4.60    0.44 
  -6  -3   0   16.11    1.53 
   6   3   0   17.17    1.14 
   7   3   0    9.01    0.84 
   8   3   0    8.83    0.89 
   8  -4   0    2.51    0.53 
   7  -4   0   13.87    1.04 
   6  -4   0    9.51    0.77 
   5  -4   0   57.83    3.29 
  -5   4   0   58.92    3.43 
   4  -4   0   40.62    2.38 
  -4   4   0   43.30    2.48 
   3  -4   0    0.04    0.13 
   3  -4   0   -0.33    0.15 
  -3   4   0    0.06    0.22 
   2  -4   0  198.67   10.16 
   2  -4   0  175.24   13.32 
  -2   4   0  187.53   10.54 
   1  -4   0    0.72    0.15 
   1  -4   0    0.54    0.21 
  -1   4   0    0.65    0.17 
   0  -4   0   75.81    5.50 
   0  -4   0   77.34    4.14 
   0   4   0   74.31    4.30 
  -1  -4   0   33.88    2.49 
   1   4   0   31.77    1.90 
  -2  -4   0   11.98    1.05 
   2   4   0   11.26    0.74 
  -3  -4   0   63.48    4.58 
   3   4   0   60.35    3.54 
  -4  -4   0   17.21    1.52 
   4   4   0   18.06    1.12 
  -5  -4   0    2.56    0.58 
   5   4   0    1.25    0.33 
  -6  -4   0   22.78    2.06 
   6   4   0   25.05    1.54 
  -7  -4   0    4.19    0.80 
   7   4   0    4.45    0.60 
   8   4   0   -0.54    0.54 
   7  -5   0    3.16    0.53 
  -7   5   0    1.99    0.64 
   6  -5   0    2.34    0.46 
  -6   5   0    1.75    0.55 
   5  -5   0    2.29    0.41 
  -5   5   0    2.81    0.52 
   4  -5   0    9.39    0.74 
  -4   5   0   10.47    0.81 
   3  -5   0    0.45    0.21 
   3  -5   0    0.56    0.22 
  -3   5   0    0.80    0.29 
   2  -5   0   19.98    1.17 
   2  -5   0   18.57    1.53 
  -2   5   0   20.13    1.22 
   1  -5   0   35.87    1.87 
   1  -5   0   30.60    2.50 
  -1   5   0   32.69    1.95 
   0  -5   0   35.94    2.07 
   0  -5   0   41.25    2.85 
   0   5   0   35.42    2.16 
  -1  -5   0  144.78    8.01 
  -1  -5   0  151.20   10.65 
  -2  -5   0    3.36    0.58 
   2   5   0    3.51    0.35 
  -3  -5   0   89.39    7.36 
   3   5   0  111.75    5.76 
  -4  -5   0   24.22    2.00 
   4   5   0   22.99    1.45 
  -5  -5   0   23.92    2.10 
   5   5   0   24.25    1.52 
  -6  -5   0   11.28    1.28 
   6   5   0   10.22    0.86 
  -7  -5   0    1.99    0.74 
   7   5   0    1.76    0.50 
   7  -6   0   20.86    1.41 
  -7   6   0   19.99    1.56 
   6  -6   0    0.81    0.45 
  -6   6   0    0.75    0.57 
   5  -6   0    8.58    0.76 
  -5   6   0    9.46    0.85 
   4  -6   0    3.01    0.41 
  -4   6   0    2.77    0.49 
   3  -6   0   46.64    2.69 
  -3   6   0   48.09    2.80 
   2  -6   0    1.08    0.34 
   2  -6   0    1.25    0.26 
  -2   6   0    1.62    0.35 
   1  -6   0   29.10    2.37 
   1  -6   0   30.26    1.75 
  -1   6   0   32.73    1.86 
   0  -6   0   28.24    2.38 
   0  -6   0   32.94    1.73 
   0   6   0   29.42    1.82 
  -1  -6   0    4.47    0.71 
  -1  -6   0    4.67    0.39 
   1   6   0    5.84    0.50 
  -2  -6   0   54.47    4.10 
   2   6   0   53.88    3.14 
  -3  -6   0    0.23    0.36 
   3   6   0    0.47    0.27 
  -4  -6   0   11.58    1.33 
   4   6   0   13.06    0.90 
  -5  -6   0    7.67    1.08 
   5   6   0    7.92    0.70 
  -6  -6   0    8.71    1.18 
   6   6   0    8.34    0.77 
  -7  -6   0    0.09    0.68 
   7   6   0    0.32    0.48 
   6  -7   0    1.46    0.48 
  -6   7   0    1.83    0.67 
   5  -7   0    4.64    0.57 
  -5   7   0    4.96    0.72 
   4  -7   0   -0.20    0.31 
  -4   7   0   -0.17    0.45 
   3  -7   0   17.31    1.08 
  -3   7   0   15.66    1.19 
   2  -7   0   17.06    0.97 
   2  -7   0   12.33    1.26 
  -2   7   0   14.58    1.05 
   1  -7   0   14.44    1.34 
   1  -7   0   15.12    0.93 
  -1   7   0   13.70    1.02 
   0  -7   0   29.42    2.53 
   0  -7   0   31.48    1.81 
   0   7   0   33.81    1.93 
  -1  -7   0   -0.06    0.19 
  -1  -7   0    0.23    0.44 
   1   7   0   -0.08    0.33 
  -2  -7   0   39.29    3.12 
   2   7   0   38.98    2.34 
  -3  -7   0   26.17    2.29 
   3   7   0   27.04    1.65 
  -4  -7   0   33.22    2.88 
   4   7   0   35.89    2.12 
  -5  -7   0   45.85    3.72 
   5   7   0   46.57    2.77 
  -6  -7   0    1.46    0.78 
   6   7   0   -0.16    0.44 
  -7  -7   0   17.24    1.94 
   5  -8   0    2.14    0.50 
  -5   8   0    1.77    0.68 
   4  -8   0   13.10    0.95 
  -4   8   0   11.72    1.06 
   3  -8   0    6.55    0.59 
  -3   8   0    5.39    0.69 
   2  -8   0    0.80    0.33 
  -2   8   0    1.75    0.49 
   1  -8   0    7.32    0.59 
   1  -8   0    6.56    0.92 
  -1   8   0    7.37    0.69 
   0  -8   0    0.74    0.28 
   0  -8   0    0.50    0.57 
   0   8   0    0.56    0.41 
  -1  -8   0    6.09    0.98 
   1   8   0    6.67    0.66 
  -2  -8   0    7.64    1.13 
   2   8   0    8.42    0.75 
  -3  -8   0    0.46    0.68 
   3   8   0   -0.59    0.37 
  -4  -8   0   17.49    1.85 
   4   8   0   17.82    1.23 
  -5  -8   0    4.26    1.01 
   5   8   0    5.25    0.62 
  -6  -8   0    0.86    0.86 
   6   8   0    0.57    0.50 
   4  -9   0   15.17    1.16 
  -4   9   0   18.46    1.39 
   3  -9   0   12.03    0.92 
  -3   9   0   12.16    1.11 
   2  -9   0   12.49    0.93 
  -2   9   0   13.23    1.09 
   1  -9   0   47.56    3.76 
   1  -9   0   50.94    2.74 
  -1   9   0   45.18    2.89 
   0  -9   0    0.19    0.55 
   0   9   0   -0.74    0.48 
  -1  -9   0   45.81    3.45 
   1   9   0   38.60    2.52 
  -2  -9   0   10.00    1.38 
   2   9   0   10.07    0.90 
  -3  -9   0    8.87    1.31 
   3   9   0    8.07    0.77 
  -4  -9   0   14.36    1.73 
   4   9   0   13.58    1.08 
  -5  -9   0    0.74    0.91 
   5   9   0   -0.38    0.48 
   2 -10   0   -0.04    0.41 
  -2  10   0   -0.31    0.56 
  -1  10   0    2.80    0.66 
   0 -10   0    0.90    0.75 
   0  10   0    0.53    0.58 
  -1 -10   0    0.39    0.78 
   1  10   0    1.02    0.56 
  -2 -10   0    4.63    1.10 
   2  10   0    3.66    0.64 
  -3 -10   0    0.99    0.93 
   3  10   0    1.14    0.54 
  -4 -10   0   13.58    1.80 
   0 -11   0   16.80    1.91 
  -1 -11   0    8.42    1.41 
   3  10  -1    5.02    0.67 
  -3 -10   1    4.69    1.22 
   2  10  -1    2.73    0.57 
  -2 -10   1    2.93    0.98 
   1  10  -1    2.40    0.62 
  -1 -10   1    1.85    0.91 
   0  10  -1   -0.69    0.56 
   0 -10   1    0.65    0.66 
  -1  10  -1    5.95    0.80 
  -2  10  -1    2.03    0.65 
   2 -10   1    2.24    0.50 
  -5  -9   1    1.15    0.99 
   4   9  -1    9.13    0.85 
  -4  -9   1    8.78    1.38 
   3   9  -1   15.93    1.16 
  -3  -9   1   16.55    1.89 
   2   9  -1    0.30    0.48 
  -2  -9   1    0.98    0.76 
   1   9  -1   37.72    2.28 
  -1  -9   1   35.51    3.09 
   0   9  -1    3.55    0.62 
   0  -9   1    2.25    0.75 
  -1   9  -1   24.18    1.61 
   1  -9   1   25.73    1.49 
   1  -9   1   22.25    2.13 
  -2   9  -1   22.01    1.59 
   2  -9   1   24.63    1.47 
  -3   9  -1    0.95    0.62 
   3  -9   1    2.10    0.46 
  -4   9  -1   21.30    1.57 
   4  -9   1   20.11    1.40 
   6   8  -1    2.03    0.55 
  -6  -8   1    0.02    0.89 
   5   8  -1    1.85    0.51 
  -5  -8   1    2.32    0.89 
   4   8  -1   16.67    1.18 
  -4  -8   1   16.89    1.83 
   3   8  -1    0.60    0.39 
  -3  -8   1    0.53    0.68 
   2   8  -1    1.13    0.44 
  -2  -8   1    1.55    0.71 
   1   8  -1   16.56    1.19 
  -1  -8   1   18.23    1.72 
   0   8  -1   -0.26    0.41 
   0  -8   1    0.01    0.26 
   0  -8   1   -0.11    0.47 
  -1   8  -1    6.38    0.64 
   1  -8   1    5.48    0.51 
   1  -8   1    5.01    0.83 
  -2   8  -1    3.92    0.56 
   2  -8   1    1.72    0.39 
  -3   8  -1   -0.06    0.48 
   3  -8   1   -0.02    0.34 
  -4   8  -1   13.87    1.19 
   4  -8   1   12.64    0.98 
  -5   8  -1    1.05    0.66 
   5  -8   1    0.09    0.44 
  -7  -7   1    9.99    1.45 
   6   7  -1    6.45    0.70 
  -6  -7   1    6.49    1.16 
   5   7  -1    0.91    0.44 
  -5  -7   1    1.36    0.74 
   4   7  -1   33.39    1.98 
  -4  -7   1   30.62    2.76 
   3   7  -1    4.93    0.52 
  -3  -7   1    5.36    0.91 
   2   7  -1   43.05    2.61 
  -2  -7   1   45.73    3.48 
   1   7  -1    0.43    0.35 
  -1  -7   1    0.97    0.50 
  -1  -7   1    0.67    0.23 
   0   7  -1   23.70    1.51 
   0  -7   1   25.11    1.42 
   0  -7   1   23.44    2.02 
  -1   7  -1   33.28    1.94 
   1  -7   1   34.01    1.84 
   1  -7   1   27.13    2.47 
  -2   7  -1    3.87    0.53 
   2  -7   1    6.03    0.47 
   2  -7   1    3.08    0.55 
  -3   7  -1    9.45    0.89 
   3  -7   1   10.23    0.77 
  -4   7  -1    4.57    0.63 
   4  -7   1    4.24    0.54 
  -5   7  -1    2.94    0.63 
   5  -7   1    2.14    0.49 
  -6   7  -1    3.25    0.73 
   6  -7   1    3.21    0.58 
   7   6  -1   -0.73    0.45 
  -7  -6   1    0.87    0.77 
   6   6  -1   -0.27    0.42 
  -6  -6   1    0.21    0.76 
   5   6  -1   11.14    0.89 
  -5  -6   1   11.93    1.37 
   4   6  -1    3.82    0.45 
  -4  -6   1    2.86    0.70 
   3   6  -1    0.04    0.26 
  -3  -6   1    0.53    0.43 
   2   6  -1   23.29    1.47 
  -2  -6   1   24.99    2.03 
   1   6  -1   15.73    1.05 
  -1  -6   1   15.70    0.97 
  -1  -6   1   18.92    1.50 
   0   6  -1   12.88    0.91 
   0  -6   1   14.77    0.86 
   0  -6   1   12.73    1.25 
  -1   6  -1   52.17    3.13 
   1  -6   1   57.68    4.04 
   1  -6   1   52.82    3.01 
  -2   6  -1    5.29    0.51 
   2  -6   1    4.65    0.62 
   2  -6   1    5.84    0.47 
  -3   6  -1   64.75    3.72 
   3  -6   1   63.13    3.58 
  -4   6  -1    3.58    0.54 
   4  -6   1    4.80    0.49 
  -5   6  -1   11.30    0.96 
   5  -6   1   10.59    0.89 
  -6   6  -1   17.64    1.27 
   6  -6   1   14.58    1.14 
  -7   6  -1    7.53    0.93 
   7  -6   1    7.44    0.79 
   7   5  -1   15.07    1.16 
  -7  -5   1   16.62    1.77 
   6   5  -1    7.48    0.69 
  -6  -5   1    7.10    1.07 
   5   5  -1   16.13    1.09 
  -5  -5   1   16.60    1.61 
   4   5  -1   -0.12    0.26 
  -4  -5   1    0.35    0.44 
   3   5  -1   52.78    3.11 
  -3  -5   1   55.16    4.07 
   2   5  -1   15.00    0.88 
  -2  -5   1   11.81    1.20 
  -1  -5   1   62.74    3.63 
  -1  -5   1   71.49    4.92 
   0   5  -1   25.68    1.54 
   0  -5   1   26.03    2.03 
   0  -5   1   26.05    1.47 
  -1   5  -1   19.61    1.19 
   1  -5   1   17.66    1.53 
   1  -5   1   20.68    1.15 
  -2   5  -1   42.81    2.49 
   2  -5   1   48.22    2.41 
   2  -5   1   37.48    3.14 
  -3   5  -1    8.92    0.67 
   3  -5   1    7.33    0.69 
   3  -5   1    7.45    0.60 
  -4   5  -1   10.96    0.89 
   4  -5   1   12.23    0.84 
  -5   5  -1   18.95    1.33 
   5  -5   1   19.50    1.26 
  -6   5  -1   11.97    0.99 
   6  -5   1    9.88    0.88 
  -7   5  -1    1.30    0.62 
   7  -5   1    1.79    0.49 
   8   4  -1    1.85    0.64 
   7   4  -1    0.22    0.46 
  -7  -4   1    1.03    0.66 
   6   4  -1   14.39    1.03 
  -6  -4   1   15.20    1.54 
   5   4  -1   26.59    1.60 
  -5  -4   1   25.06    2.16 
   4   4  -1    1.20    0.28 
  -4  -4   1    0.94    0.40 
   3   4  -1   38.36    2.26 
  -3  -4   1   39.71    2.98 
   2   4  -1   11.62    0.72 
  -2  -4   1   10.18    1.00 
   1   4  -1    0.66    0.18 
  -1  -4   1    0.47    0.12 
  -1  -4   1    0.59    0.24 
   0   4  -1   31.69    1.78 
   0  -4   1   29.62    1.70 
   0  -4   1   30.16    2.30 
  -1   4  -1    3.87    0.33 
   1  -4   1    4.46    0.35 
   1  -4   1    4.00    0.48 
  -2   4  -1  157.15    9.20 
   2  -4   1  162.21    8.87 
   2  -4   1  169.97   11.63 
  -3   4  -1   45.56    2.74 
   3  -4   1   48.19    3.40 
   3  -4   1   47.57    2.64 
  -4   4  -1   20.79    1.33 
   4  -4   1   20.63    1.27 
   5  -4   1  117.87    6.49 
   6  -4   1   -0.01    0.36 
   7  -4   1   33.34    2.03 
   8  -4   1    0.25    0.46 
   8   3  -1   14.28    1.17 
   7   3  -1    2.07    0.52 
  -7  -3   1    1.39    0.60 
   6   3  -1   61.68    3.49 
  -6  -3   1   57.41    4.49 
   5   3  -1    0.11    0.27 
  -5  -3   1    0.12    0.38 
   4   3  -1   57.38    3.26 
  -4  -3   1   55.46    4.21 
   3   3  -1   30.61    1.79 
  -3  -3   1   30.70    2.36 
   2   3  -1   17.09    0.98 
  -2  -3   1   15.20    1.31 
   1   3  -1   48.70    2.57 
  -1  -3   1   40.81    3.30 
   0   3  -1    1.38    0.16 
   0  -3   1    1.20    0.25 
   0  -3   1    1.45    0.14 
  -1   3  -1   67.79    4.05 
   1  -3   1   74.12    5.15 
   1  -3   1   72.99    3.91 
  -2   3  -1    7.24    0.53 
   2  -3   1    7.64    0.52 
   2  -3   1    8.03    0.62 
   3  -3   1    5.92    0.46 
   4  -3   1   20.13    1.28 
   4  -3   1   20.05    1.21 
   5  -3   1    7.38    0.61 
   5  -3   1    7.99    0.68 
   6  -3   1   14.56    1.04 
   6  -3   1   15.02    1.11 
   7  -3   1    8.23    0.71 
   7  -3   1    7.29    0.83 
   8  -3   1    3.86    0.58 
   8  -3   1    4.63    0.80 
   8   2  -1    6.93    0.82 
   7   2  -1   14.00    1.08 
   6   2  -1    5.24    0.54 
  -6  -2   1    3.83    0.64 
   5   2  -1    0.57    0.27 
  -5  -2   1    1.06    0.41 
   4   2  -1   36.50    2.06 
  -4  -2   1   33.70    2.66 
   3   2  -1   86.67    4.86 
  -3  -2   1   84.86    6.20 
   2   2  -1  276.27   14.21 
  -2  -2   1  229.61   17.99 
   1   2  -1   82.59    4.62 
  -1  -2   1   80.98    5.88 
   0   2  -1   50.43    2.98 
   0  -2   1   55.43    3.80 
   0  -2   1   52.46    2.87 
  -1   2  -1  482.54   27.66 
   1  -2   1  504.07   34.95 
   1  -2   1  494.47   26.65 
   2  -2   1   59.87    3.33 
   2  -2   1   57.23    3.21 
   3  -2   1    7.05    0.53 
   3  -2   1    6.89    0.48 
   4  -2   1   70.32    3.86 
   4  -2   1   63.67    3.69 
   5  -2   1    3.45    0.44 
   5  -2   1    3.11    0.37 
   6  -2   1   76.10    4.79 
   6  -2   1   89.57    4.62 
   7  -2   1    2.19    0.57 
   7  -2   1    2.58    0.45 
   8  -2   1    3.26    0.70 
   8   1  -1    6.86    0.78 
   7   1  -1   71.19    4.18 
   6   1  -1   18.14    1.10 
  -6  -1   1   13.31    1.34 
   5   1  -1   71.59    4.05 
  -5  -1   1   68.94    5.13 
   4   1  -1    3.23    0.32 
  -4  -1   1    2.85    0.43 
   3   1  -1    1.86    0.20 
  -3  -1   1    1.20    0.26 
   2   1  -1   75.68    4.14 
  -2  -1   1   70.86    5.26 
   1   1  -1  176.18    9.83 
  -1  -1   1  174.17   12.44 
   0  -1   1    3.02    0.19 
   0  -1   1    2.88    0.26 
  -1   1  -1    1.16    0.11 
   1  -1   1    1.11    0.11 
   1  -1   1    1.23    0.11 
   1  -1   1    1.31    0.11 
   2  -1   1   73.85    4.31 
   2  -1   1   84.77    4.49 
   3  -1   1   74.26    4.15 
   3  -1   1   71.28    3.98 
   4  -1   1   22.77    1.32 
   4  -1   1   22.62    1.39 
   5  -1   1    5.35    0.44 
   5  -1   1    5.12    0.51 
   6  -1   1   72.99    3.89 
   6  -1   1   66.04    4.06 
   7  -1   1    5.05    0.66 
   7  -1   1    5.49    0.55 
   8  -1   1   10.65    0.99 
   8   0  -1    0.22    0.58 
   7   0  -1   10.09    0.91 
   6   0  -1   10.35    0.71 
   6   0  -1    9.80    0.82 
   5   0  -1   25.34    1.50 
   5   0  -1   22.86    1.39 
  -5   0   1   24.10    1.85 
   4   0  -1   11.02    0.80 
   4   0  -1   12.89    0.73 
  -4   0   1   11.68    0.97 
   3   0  -1   76.39    4.21 
   3   0  -1   76.81    4.04 
  -3   0   1   69.26    5.32 
   2   0  -1  135.52    7.75 
   2   0  -1  139.01    7.45 
  -2   0   1  137.65    9.80 
   1   0  -1  103.00    5.55 
   1   0  -1   97.82    5.34 
   1   0  -1   94.90    7.02 
  -1   0  -1  174.69   12.09 
   1   0   1  161.92    9.23 
   1   0   1  175.17    9.58 
  -2   0  -1   14.60    0.99 
   2   0   1   13.13    0.80 
   2   0   1   12.37    0.76 
  -3   0  -1   59.37    4.09 
   3   0   1   55.98    3.25 
   3   0   1   55.34    3.11 
  -4   0  -1    0.43    0.17 
   4   0   1    0.83    0.20 
   4   0   1    0.38    0.15 
  -5   0  -1   38.80    2.99 
   5   0   1   42.15    2.42 
   5   0   1   41.91    2.30 
   6   0   1    6.50    0.64 
   6   0   1    6.71    0.59 
   7   0   1   -0.08    0.41 
   8   0   1    2.26    0.63 
   8  -1  -1   33.25    2.14 
   7  -1  -1    5.62    0.69 
   6  -1  -1   38.41    2.37 
   6  -1  -1   39.53    2.24 
   5  -1  -1   54.74    3.30 
   5  -1  -1   55.58    3.16 
  -5   1   1   59.33    4.11 
   4  -1  -1   22.88    1.31 
   4  -1  -1   22.20    1.39 
  -4   1   1   22.93    1.69 
   3  -1  -1    0.72    0.16 
   3  -1  -1    0.73    0.15 
   3  -1  -1    1.23    0.19 
   2  -1  -1    4.55    0.36 
   2  -1  -1    4.26    0.32 
   2  -1  -1    3.68    0.28 
   1  -1  -1   41.38    2.76 
   1  -1  -1   38.21    2.18 
   1  -1  -1   35.25    2.10 
   0  -1  -1   47.86    2.58 
   0  -1  -1   46.23    3.40 
   0   1   1   46.61    2.68 
  -1  -1  -1  137.98    9.34 
   1   1   1  124.45    7.38 
  -2  -1  -1   37.67    2.77 
   2   1   1   38.48    2.18 
  -3  -1  -1   27.51    2.01 
   3   1   1   26.59    1.58 
  -4  -1  -1   -0.03    0.19 
   4   1   1    0.32    0.18 
  -5  -1  -1   37.96    2.89 
   5   1   1   39.56    2.29 
   6   1   1   37.15    2.25 
   7   1   1    9.00    0.81 
   8   1   1   29.19    1.92 
   8  -2  -1    5.90    0.82 
   7  -2  -1    1.45    0.38 
   7  -2  -1    1.13    0.54 
   6  -2  -1   13.72    0.96 
   6  -2  -1   13.97    1.04 
   5  -2  -1   59.43    3.52 
   5  -2  -1   61.40    3.38 
   4  -2  -1   13.27    0.92 
   4  -2  -1   14.25    0.98 
  -4   2   1   16.60    1.14 
   3  -2  -1   33.67    2.00 
   3  -2  -1   37.70    2.09 
   2  -2  -1    7.73    0.55 
   2  -2  -1    5.80    0.44 
   2  -2  -1    6.56    0.47 
   1  -2  -1   24.66    1.32 
   1  -2  -1   23.52    1.74 
  -1   2   1   22.80    1.36 
   0  -2  -1   60.67    3.10 
   0  -2  -1   51.85    4.10 
   0   2   1   58.21    3.22 
  -1  -2  -1   29.25    2.12 
   1   2   1   28.20    1.65 
  -2  -2  -1  182.43   13.73 
   2   2   1  203.12   10.84 
  -3  -2  -1    1.36    0.30 
   3   2   1    1.70    0.21 
  -4  -2  -1  149.49   10.32 
   4   2   1  138.50    8.13 
  -5  -2  -1   17.35    1.51 
   5   2   1   19.45    1.18 
  -6  -2  -1    0.33    0.37 
   6   2   1    0.17    0.32 
   7   2   1   20.22    1.38 
   8   2   1    1.13    0.56 
   8  -3  -1    0.73    0.44 
   8  -3  -1   -0.32    0.62 
   7  -3  -1   14.66    1.05 
   7  -3  -1   14.46    1.18 
   6  -3  -1   14.79    1.14 
   6  -3  -1   16.54    1.07 
   5  -3  -1    0.29    0.32 
   5  -3  -1    0.05    0.25 
   4  -3  -1   84.62    5.28 
   4  -3  -1   67.31    4.06 
   4  -3  -1   67.63    4.23 
   3  -3  -1   35.25    2.39 
   3  -3  -1   29.98    1.85 
   2  -3  -1    1.81    0.20 
   2  -3  -1    1.07    0.23 
  -2   3   1    2.20    0.22 
   1  -3  -1  160.89   10.77 
   1  -3  -1  148.63    8.18 
  -1   3   1  143.31    8.49 
   0  -3  -1  313.49   17.19 
   0  -3  -1  322.05   22.60 
   0   3   1  319.38   17.85 
  -1  -3  -1   12.81    1.07 
   1   3   1   13.53    0.80 
  -2  -3  -1  115.08    8.62 
   2   3   1  124.71    6.77 
  -3  -3  -1   17.54    1.45 
   3   3   1   18.17    1.09 
  -4  -3  -1   21.31    1.66 
   4   3   1   19.78    1.25 
  -5  -3  -1   25.05    2.17 
   5   3   1   29.27    1.67 
  -6  -3  -1   14.71    1.39 
   6   3   1   15.54    1.06 
   7   3   1   44.28    2.69 
   8   3   1    0.11    0.53 
   8  -4  -1   11.29    0.93 
   7  -4  -1    3.08    0.52 
   6  -4  -1   83.53    4.67 
   5  -4  -1    2.23    0.39 
  -5   4   1    2.49    0.44 
   4  -4  -1   24.97    1.51 
  -4   4   1   26.09    1.58 
   3  -4  -1   20.16    1.43 
   3  -4  -1   27.32    1.84 
  -3   4   1   26.46    1.51 
   2  -4  -1   64.07    4.29 
   2  -4  -1   57.14    3.26 
  -2   4   1   56.20    3.38 
   1  -4  -1   44.22    3.24 
   1  -4  -1   42.52    2.44 
  -1   4   1   45.47    2.53 
   0  -4  -1   97.07    5.17 
   0  -4  -1   93.90    6.87 
   0   4   1   94.19    5.38 
  -1  -4  -1   21.35    1.71 
   1   4   1   21.93    1.29 
  -2  -4  -1   43.78    3.40 
   2   4   1   47.10    2.62 
  -3  -4  -1   41.43    3.10 
   3   4   1   40.28    2.37 
  -4  -4  -1   10.17    1.07 
   4   4   1   11.73    0.77 
  -5  -4  -1   11.61    1.14 
   5   4   1   10.79    0.81 
  -6  -4  -1   10.52    1.18 
   6   4   1   10.27    0.82 
  -7  -4  -1   11.27    1.30 
   7   4   1   11.22    0.93 
   8   4   1    0.19    0.56 
   7  -5  -1    5.85    0.67 
  -7   5   1    6.18    0.77 
   6  -5  -1    6.95    0.68 
  -6   5   1    7.68    0.79 
   5  -5  -1    0.80    0.35 
  -5   5   1    1.05    0.44 
   4  -5  -1   20.68    1.29 
  -4   5   1   21.20    1.36 
   3  -5  -1    7.34    0.56 
   3  -5  -1    6.66    0.67 
  -3   5   1    8.09    0.63 
   2  -5  -1    2.57    0.41 
   2  -5  -1    3.12    0.31 
  -2   5   1    2.59    0.32 
   1  -5  -1   70.25    5.66 
   1  -5  -1   84.82    4.29 
  -1   5   1   78.71    4.45 
   0  -5  -1    0.43    0.26 
   0  -5  -1    0.10    0.13 
   0   5   1    0.09    0.18 
  -1  -5  -1   97.98    4.99 
  -1  -5  -1   84.51    6.67 
  -2  -5  -1   33.51    2.57 
   2   5   1   32.54    1.95 
  -3  -5  -1   57.23    4.22 
   3   5   1   55.25    3.24 
  -4  -5  -1   71.54    5.34 
   4   5   1   71.93    4.13 
  -5  -5  -1   21.40    1.83 
   5   5   1   19.10    1.30 
  -6  -5  -1   20.39    1.88 
   6   5   1   21.12    1.38 
  -7  -5  -1    1.45    0.69 
   7   5   1    1.68    0.49 
   8   5   1   13.26    1.13 
   7  -6  -1   30.28    1.91 
  -7   6   1   30.49    2.05 
   6  -6  -1   -0.70    0.37 
  -6   6   1    0.43    0.53 
   5  -6  -1   26.38    1.61 
  -5   6   1   25.68    1.71 
   4  -6  -1   21.20    1.37 
  -4   6   1   23.65    1.47 
   3  -6  -1   40.20    2.15 
   3  -6  -1   33.02    2.77 
  -3   6   1   38.89    2.23 
   2  -6  -1   34.73    1.93 
   2  -6  -1   32.67    2.57 
  -2   6   1   33.19    2.01 
   1  -6  -1    2.44    0.29 
   1  -6  -1    1.87    0.46 
  -1   6   1    3.18    0.39 
   0  -6  -1   27.45    1.55 
   0  -6  -1   25.29    2.15 
   0   6   1   28.67    1.65 
  -1  -6  -1    5.12    0.72 
   1   6   1    5.15    0.48 
  -2  -6  -1   40.63    3.27 
   2   6   1   43.64    2.49 
  -3  -6  -1    1.20    0.46 
   3   6   1    0.55    0.27 
  -4  -6  -1    4.37    0.73 
   4   6   1    4.81    0.49 
  -5  -6  -1    4.90    0.85 
   5   6   1    4.77    0.54 
  -6  -6  -1    5.90    1.00 
   6   6   1    6.55    0.67 
  -7  -6  -1    0.30    0.75 
   7   6   1    0.04    0.49 
   6  -7  -1    3.41    0.56 
  -6   7   1    3.66    0.74 
   5  -7  -1   12.74    0.95 
  -5   7   1   12.87    1.09 
   4  -7  -1    4.19    0.51 
  -4   7   1    4.69    0.62 
   3  -7  -1   21.36    1.28 
  -3   7   1   19.76    1.39 
   2  -7  -1   33.69    2.88 
   2  -7  -1   42.03    2.17 
  -2   7   1   37.31    2.27 
   1  -7  -1   -0.10    0.23 
   1  -7  -1   -0.43    0.29 
  -1   7   1   -0.05    0.34 
   0  -7  -1   53.35    4.15 
   0  -7  -1   53.76    3.05 
   0   7   1   57.89    3.22 
  -1  -7  -1    4.21    0.37 
  -1  -7  -1    3.99    0.73 
   1   7   1    5.17    0.51 
  -2  -7  -1   40.77    3.27 
   2   7   1   42.14    2.48 
  -3  -7  -1   40.96    3.17 
   3   7   1   38.33    2.35 
  -4  -7  -1    1.94    0.69 
   4   7   1    2.99    0.45 
  -5  -7  -1   74.05    5.39 
   5   7   1   66.86    4.08 
  -6  -7  -1    4.04    0.94 
   6   7   1    3.22    0.56 
  -7  -7  -1   11.08    1.52 
   7   7   1   11.69    1.01 
   5  -8  -1    9.23    0.80 
  -5   8   1    8.14    0.93 
   4  -8  -1    4.00    0.54 
  -4   8   1    4.35    0.70 
   3  -8  -1   26.20    1.54 
  -3   8   1   23.53    1.65 
   2  -8  -1    0.08    0.42 
   2  -8  -1   -0.24    0.29 
  -2   8   1    0.14    0.44 
   1  -8  -1    5.99    0.50 
   1  -8  -1    4.32    0.75 
  -1   8   1    4.90    0.58 
   0  -8  -1    4.93    0.89 
   0  -8  -1    7.49    0.55 
   0   8   1    7.66    0.69 
  -1  -8  -1    1.19    0.58 
   1   8   1    0.56    0.42 
  -2  -8  -1    5.85    0.99 
   2   8   1    6.74    0.65 
  -3  -8  -1    4.92    0.93 
   3   8   1    4.59    0.55 
  -4  -8  -1    6.92    1.13 
   4   8   1    7.74    0.72 
  -5  -8  -1    3.89    0.96 
   5   8   1    3.84    0.59 
  -6  -8  -1    0.80    0.90 
   6   8   1    0.30    0.53 
   4  -9  -1    2.88    0.55 
  -4   9   1    3.42    0.73 
   3  -9  -1   21.49    1.34 
  -3   9   1   19.54    1.50 
   2  -9  -1   -0.75    0.35 
  -2   9   1    0.01    0.52 
   1  -9  -1   48.18    3.48 
   1  -9  -1   44.45    2.49 
  -1   9   1   38.79    2.63 
   0  -9  -1    9.61    1.24 
   0   9   1   10.89    0.92 
  -1  -9  -1   13.43    1.48 
   1   9   1   11.81    1.00 
  -2  -9  -1   37.16    2.98 
   2   9   1   33.35    2.17 
  -3  -9  -1    1.55    0.82 
   3   9   1    2.47    0.52 
  -4  -9  -1    6.09    1.17 
   4   9   1    7.20    0.75 
  -5  -9  -1    0.68    0.88 
   5   9   1    1.28    0.54 
   3 -10  -1    1.04    0.47 
  -3  10   1   -0.01    0.66 
   2 -10  -1   -0.29    0.38 
  -2  10   1    0.17    0.60 
   1 -10  -1    2.65    0.83 
  -1  10   1    3.63    0.66 
   0 -10  -1    0.50    0.69 
   0  10   1    0.09    0.55 
  -1 -10  -1    0.80    0.71 
   1  10   1    0.50    0.54 
  -2 -10  -1    3.17    0.92 
   2  10   1    2.04    0.60 
  -3 -10  -1    0.33    0.84 
   3  10   1    1.18    0.52 
  -4 -10  -1   15.61    1.93 
   0 -11  -1    8.59    1.34 
  -1 -11  -1   14.08    1.73 
  -2 -11  -1    1.35    0.91 
  -3 -10   2    6.41    1.36 
  -2 -10   2    1.50    1.00 
   1  10  -2    1.53    0.60 
  -1 -10   2    0.47    0.74 
   0  10  -2    1.54    0.63 
   0 -10   2   -0.26    0.66 
  -1  10  -2    0.18    0.63 
  -5  -9   2    2.86    1.15 
  -4  -9   2    0.97    0.96 
   3   9  -2   21.64    1.40 
  -3  -9   2   17.91    2.16 
   2   9  -2    3.55    0.55 
  -2  -9   2    2.65    0.96 
   1   9  -2   20.73    1.42 
  -1  -9   2   20.51    2.14 
   0   9  -2   22.25    1.44 
   0  -9   2   18.47    1.97 
  -1   9  -2    0.09    0.52 
   1  -9   2    0.40    0.34 
  -2   9  -2   16.08    1.26 
   2  -9   2   16.82    1.13 
  -3   9  -2    0.71    0.61 
   3  -9   2    1.28    0.45 
  -6  -8   2    2.51    1.08 
   5   8  -2   -0.72    0.44 
  -5  -8   2    0.48    0.84 
   4   8  -2   13.87    1.01 
  -4  -8   2   11.91    1.63 
   3   8  -2    3.25    0.48 
  -3  -8   2    2.47    0.89 
   2   8  -2    1.96    0.44 
  -2  -8   2    2.12    0.74 
   1   8  -2    8.49    0.76 
  -1  -8   2    8.36    1.18 
   0   8  -2    8.53    0.76 
   0  -8   2    8.29    0.66 
   0  -8   2    7.22    1.12 
  -1   8  -2    0.29    0.43 
   1  -8   2    0.66    0.31 
   1  -8   2    0.23    0.48 
  -2   8  -2    6.23    0.67 
   2  -8   2    5.58    0.56 
  -3   8  -2    5.15    0.69 
   3  -8   2    5.76    0.59 
  -4   8  -2    7.86    0.84 
   4  -8   2    7.75    0.75 
  -5   8  -2    0.35    0.64 
   5  -8   2    0.66    0.50 
  -7  -7   2    2.13    1.02 
   6   7  -2   11.91    0.93 
  -6  -7   2    9.22    1.48 
   5   7  -2    0.54    0.45 
  -5  -7   2   -0.11    0.72 
   4   7  -2   26.20    1.63 
  -4  -7   2   24.98    2.34 
   3   7  -2    1.07    0.37 
  -3  -7   2    1.25    0.70 
   2   7  -2   36.36    2.13 
  -2  -7   2   34.15    2.90 
   1   7  -2   11.55    0.84 
  -1  -7   2   11.34    1.26 
  -1  -7   2   10.97    0.75 
   0   7  -2   10.30    0.77 
   0  -7   2    9.15    0.69 
   0  -7   2    9.95    1.15 
  -1   7  -2   44.87    2.69 
   1  -7   2   45.74    2.57 
   1  -7   2   45.83    3.49 
  -2   7  -2    0.05    0.39 
   2  -7   2    0.38    0.35 
   2  -7   2    0.74    0.31 
  -3   7  -2   11.40    1.01 
   3  -7   2   12.67    0.89 
  -4   7  -2   10.72    0.95 
   4  -7   2    9.69    0.83 
  -5   7  -2   -0.59    0.55 
   5  -7   2   -0.43    0.44 
  -6   7  -2    6.32    0.87 
   6  -7   2    5.83    0.73 
   7   6  -2    3.59    0.60 
  -7  -6   2    3.43    0.99 
   6   6  -2    0.14    0.42 
  -6  -6   2   -0.69    0.69 
   5   6  -2   15.35    1.04 
  -5  -6   2   12.67    1.56 
   4   6  -2   11.29    0.81 
  -4  -6   2    9.43    1.24 
   3   6  -2    0.49    0.30 
  -3  -6   2    0.25    0.51 
   2   6  -2    9.38    0.66 
  -2  -6   2    7.52    1.00 
   1   6  -2   36.60    2.14 
  -1  -6   2   35.96    2.03 
  -1  -6   2   36.02    2.84 
   0   6  -2    1.51    0.31 
   0  -6   2    1.71    0.50 
   0  -6   2    1.44    0.25 
  -1   6  -2   33.62    1.92 
   1  -6   2   29.65    2.47 
   1  -6   2   31.99    1.82 
  -2   6  -2   21.07    1.29 
   2  -6   2   17.93    1.60 
   2  -6   2   21.12    1.23 
  -3   6  -2   43.34    2.49 
   3  -6   2   40.01    2.39 
  -4   6  -2   20.04    1.32 
   4  -6   2   18.47    1.25 
  -5   6  -2    7.44    0.77 
   5  -6   2    6.88    0.70 
  -6   6  -2   30.66    1.96 
   6  -6   2   28.44    1.85 
   7   5  -2   35.73    2.19 
  -7  -5   2   34.18    3.00 
   6   5  -2   -0.52    0.37 
  -6  -5   2    0.11    0.66 
   5   5  -2   91.98    5.78 
  -5  -5   2  112.91    7.54 
   4   5  -2   38.05    2.27 
  -4  -5   2   39.08    3.06 
   3   5  -2   17.89    1.10 
  -3  -5   2   16.29    1.54 
   2   5  -2  107.86    6.04 
  -2  -5   2  105.25    7.77 
   1   5  -2    1.23    0.25 
  -1  -5   2    0.82    0.37 
  -1  -5   2    0.83    0.17 
   0   5  -2   66.92    3.93 
   0  -5   2   70.03    5.06 
   0  -5   2   69.93    3.78 
  -1   5  -2    0.44    0.23 
   1  -5   2    0.71    0.21 
   1  -5   2    0.73    0.29 
  -2   5  -2   62.12    3.73 
   2  -5   2   67.03    3.60 
   2  -5   2   65.93    4.73 
  -3   5  -2   24.26    1.46 
   3  -5   2   22.51    1.40 
  -4   5  -2    8.13    0.73 
   4  -5   2    7.41    0.62 
  -5   5  -2    4.11    0.58 
   5  -5   2    3.60    0.50 
  -6   5  -2    7.37    0.80 
   6  -5   2    7.00    0.70 
  -7   5  -2    1.97    0.64 
   7  -5   2    1.20    0.50 
   8   4  -2    6.12    0.77 
   7   4  -2    2.52    0.55 
  -7  -4   2    3.14    0.82 
   6   4  -2    5.24    0.55 
  -6  -4   2    4.65    0.89 
   5   4  -2   12.16    0.83 
  -5  -4   2   10.39    1.25 
   4   4  -2   13.88    0.92 
  -4  -4   2   13.46    1.33 
   3   4  -2   11.68    0.77 
  -3  -4   2   11.75    1.12 
   2   4  -2   71.93    3.70 
  -2  -4   2   56.64    4.76 
  -1  -4   2    5.07    0.63 
  -1  -4   2    6.71    0.41 
   0   4  -2   41.72    2.51 
   0  -4   2   42.06    2.42 
   0  -4   2   48.71    3.27 
  -1   4  -2  102.07    6.07 
   1  -4   2  115.27    7.73 
   1  -4   2  105.47    5.86 
  -2   4  -2   32.24    1.99 
   2  -4   2   35.88    2.52 
   2  -4   2   34.19    1.93 
  -3   4  -2   68.60    3.91 
   3  -4   2   62.46    4.86 
   3  -4   2   74.00    3.77 
  -4   4  -2    0.99    0.33 
   4  -4   2    0.75    0.27 
   5  -4   2   14.75    1.02 
   6  -4   2    7.42    0.68 
   7  -4   2   32.88    2.01 
   8   3  -2   14.76    1.20 
   7   3  -2    1.53    0.49 
  -7  -3   2   -0.12    0.55 
   6   3  -2   22.78    1.50 
  -6  -3   2   24.67    2.08 
   5   3  -2   58.08    3.38 
  -5  -3   2   58.90    4.41 
   4   3  -2   49.25    2.69 
  -4  -3   2   42.87    3.49 
   3   3  -2   18.13    1.11 
  -3  -3   2   18.55    1.51 
   2   3  -2   16.94    1.04 
  -2  -3   2   18.17    1.42 
  -1  -3   2   56.33    4.12 
   0   3  -2   52.01    3.11 
   0  -3   2   55.96    3.00 
   0  -3   2   57.02    4.00 
  -1   3  -2   15.25    0.91 
   1  -3   2   14.54    1.18 
   1  -3   2   16.04    0.89 
  -2   3  -2    0.71    0.17 
   2  -3   2    0.89    0.17 
   2  -3   2    0.63    0.16 
   3  -3   2    0.54    0.18 
   3  -3   2    0.15    0.20 
   4  -3   2   17.06    1.11 
   4  -3   2   16.52    1.04 
   5  -3   2    7.89    0.69 
   5  -3   2    7.48    0.65 
   6  -3   2    4.69    0.62 
   6  -3   2    4.78    0.53 
   7  -3   2    4.95    0.73 
   7  -3   2    5.75    0.61 
   8  -3   2    2.54    0.53 
   8  -3   2    2.88    0.75 
   8   2  -2    3.13    0.67 
   7   2  -2    5.15    0.64 
   6   2  -2    1.31    0.39 
  -6  -2   2    1.91    0.55 
   5   2  -2   -0.21    0.24 
  -5  -2   2    0.04    0.37 
   4   2  -2   13.35    0.89 
  -4  -2   2   14.90    1.24 
   3   2  -2   99.65    5.74 
  -3  -2   2  103.80    7.34 
   2   2  -2   54.37    3.12 
  -2  -2   2   55.81    4.02 
  -1  -2   2  186.91   13.31 
   0  -2   2  110.35    5.92 
   0  -2   2  108.17    7.80 
  -1   2  -2  257.48   15.13 
   1  -2   2  278.48   19.12 
   1  -2   2  273.32   14.58 
   2  -2   2   19.66    1.23 
   2  -2   2   23.94    1.56 
   2  -2   2   20.55    1.28 
   3  -2   2   11.08    0.70 
   3  -2   2    9.21    0.65 
   4  -2   2   61.21    3.42 
   4  -2   2   57.04    3.28 
   5  -2   2    0.80    0.27 
   5  -2   2    0.70    0.34 
   6  -2   2   16.73    1.10 
   6  -2   2   16.13    1.17 
   7  -2   2    0.86    0.51 
   7  -2   2    0.35    0.37 
   8  -2   2   -0.26    0.60 
   8   1  -2   -0.08    0.57 
   7   1  -2   58.60    3.48 
   6   1  -2   14.24    0.99 
  -6  -1   2   12.12    1.26 
   5   1  -2    0.85    0.28 
  -5  -1   2    1.03    0.37 
   4   1  -2   74.12    4.06 
  -4  -1   2   67.64    5.16 
   3   1  -2    0.36    0.14 
  -3  -1   2    0.49    0.20 
   2   1  -2   35.06    1.96 
  -2  -1   2   33.49    2.53 
  -1  -1   2   23.74    1.88 
  -1  -1   2   27.02    1.40 
   0  -1   2    2.00    0.15 
   0  -1   2    1.39    0.19 
   1  -1   2  101.19    5.76 
   1  -1   2   96.82    5.54 
   1  -1   2  108.03    7.26 
   2  -1   2   14.88    0.87 
   2  -1   2   13.62    0.82 
   3  -1   2    3.83    0.34 
   3  -1   2    4.22    0.38 
   4  -1   2   49.44    2.87 
   4  -1   2   49.52    2.75 
   5  -1   2    5.86    0.49 
   5  -1   2    6.59    0.57 
   6  -1   2   10.08    0.75 
   6  -1   2    8.81    0.80 
   7  -1   2   29.50    1.73 
   7  -1   2   26.54    1.83 
   8  -1   2    0.37    0.56 
   8   0  -2    0.49    0.60 
   7   0  -2    3.24    0.60 
   6   0  -2    6.18    0.53 
   6   0  -2    6.26    0.60 
   5   0  -2    3.70    0.34 
   5   0  -2    4.19    0.44 
  -5   0   2    3.81    0.53 
   4   0  -2  238.98   14.05 
   4   0  -2  249.12   13.51 
  -4   0   2  261.11   17.78 
   3   0  -2    3.26    0.28 
   3   0  -2    4.14    0.34 
  -3   0   2    3.92    0.41 
   2   0  -2  160.84    8.84 
   2   0  -2  156.71   11.64 
   2   0  -2  172.93    9.19 
   1   0  -2  371.57   20.87 
   1   0  -2  401.87   27.41 
   0   0  -2   27.32    2.26 
   0   0   2   34.77    1.71 
  -1   0  -2  373.93   27.45 
   1   0   2  394.75   20.94 
   1   0   2  395.24   21.74 
  -2   0  -2  116.13    7.91 
   2   0   2  107.24    6.03 
   2   0   2  109.92    6.27 
  -3   0  -2  236.54   16.07 
   3   0   2  219.65   12.74 
   3   0   2  222.87   12.25 
  -4   0  -2   20.16    1.54 
   4   0   2   20.63    1.19 
   4   0   2   21.08    1.27 
  -5   0  -2   77.52    5.80 
   5   0   2   87.87    4.45 
   5   0   2   77.20    4.64 
   6   0   2    5.94    0.51 
   6   0   2    5.98    0.60 
   7   0   2   -0.43    0.39 
   8   0   2    0.40    0.57 
   8  -1  -2   15.16    1.22 
   7  -1  -2   14.23    1.11 
   6  -1  -2   24.46    1.48 
   6  -1  -2   25.04    1.59 
   5  -1  -2   61.55    3.36 
   5  -1  -2   58.08    3.20 
  -5   1   2   53.61    4.19 
   4  -1  -2   44.80    2.69 
   4  -1  -2   46.43    2.57 
  -4   1   2   47.25    3.38 
   3  -1  -2   15.02    0.91 
   3  -1  -2   15.48    0.97 
   3  -1  -2   16.73    1.22 
   2  -1  -2  116.79    6.67 
   2  -1  -2  131.02    8.78 
   2  -1  -2  121.23    6.93 
   1  -1  -2  240.11   17.80 
   1  -1  -2  261.62   13.56 
   0  -1  -2   72.72    4.13 
   0  -1  -2   77.57    5.46 
   0   1   2   79.02    4.30 
  -1  -1  -2   77.72    5.25 
   1   1   2   68.36    3.98 
   1   1   2   74.52    4.14 
  -2  -1  -2   12.59    1.04 
   2   1   2   14.45    0.81 
  -3  -1  -2    9.40    0.80 
   3   1   2    9.98    0.63 
  -4  -1  -2   56.36    4.02 
   4   1   2   54.10    3.18 
  -5  -1  -2   10.86    0.97 
   5   1   2   12.12    0.81 
   6   1   2   25.04    1.58 
   7   1   2    0.59    0.45 
   8   1   2   27.34    1.82 
   8  -2  -2    7.09    0.88 
   7  -2  -2    9.91    0.87 
   7  -2  -2    8.52    0.76 
   6  -2  -2    1.17    0.31 
   6  -2  -2    0.87    0.42 
   5  -2  -2   66.99    3.69 
   5  -2  -2   65.55    3.84 
   4  -2  -2   11.41    0.83 
   4  -2  -2   11.63    0.78 
   4  -2  -2   13.14    0.98 
   3  -2  -2   31.38    1.89 
   3  -2  -2   32.21    1.97 
   3  -2  -2   37.39    2.48 
   2  -2  -2  125.81    7.32 
   2  -2  -2  144.06    9.61 
   1  -2  -2  292.74   15.13 
   1  -2  -2  263.49   19.85 
  -1   2   2  283.49   15.70 
   0  -2  -2  387.50   22.33 
   0  -2  -2  444.23   29.35 
   0   2   2  410.32   23.20 
  -1  -2  -2    2.91    0.36 
   1   2   2    3.74    0.27 
  -2  -2  -2  165.44   11.31 
   2   2   2  151.69    8.91 
  -3  -2  -2  255.29   16.99 
   3   2   2  221.96   13.40 
  -4  -2  -2   31.21    2.33 
   4   2   2   30.04    1.81 
  -5  -2  -2   17.72    1.48 
   5   2   2   18.24    1.15 
  -6  -2  -2    0.55    0.38 
   6   2   2    1.03    0.35 
   7   2   2    8.84    0.81 
   8   2   2    2.86    0.63 
   8  -3  -2    6.33    0.69 
   8  -3  -2    7.23    0.89 
   7  -3  -2    3.38    0.65 
   7  -3  -2    2.92    0.47 
   6  -3  -2   15.64    1.05 
   6  -3  -2   15.89    1.16 
   5  -3  -2    6.20    0.59 
   5  -3  -2    5.77    0.52 
   4  -3  -2    6.45    0.54 
   4  -3  -2    5.31    0.49 
   4  -3  -2    4.44    0.44 
   3  -3  -2  186.47   10.69 
   3  -3  -2  214.22   14.03 
  -3   3   2  190.12   11.10 
   2  -3  -2    2.05    0.21 
   2  -3  -2    1.98    0.30 
  -2   3   2    2.05    0.23 
   1  -3  -2    0.29    0.11 
   1  -3  -2    0.12    0.16 
  -1   3   2    0.55    0.13 
   0  -3  -2  535.39   26.85 
   0  -3  -2  431.02   35.25 
   0   3   2  526.32   27.89 
  -1  -3  -2   19.13    1.44 
   1   3   2   17.68    1.09 
  -2  -3  -2   80.04    5.86 
   2   3   2   81.46    4.58 
  -3  -3  -2   18.24    1.44 
   3   3   2   17.15    1.08 
  -4  -3  -2    0.62    0.30 
   4   3   2    0.71    0.22 
  -5  -3  -2   47.90    3.78 
   5   3   2   53.10    2.96 
  -6  -3  -2    3.26    0.62 
   6   3   2    3.86    0.47 
   7   3   2   15.64    1.15 
   8   3   2    3.91    0.65 
   8  -4  -2   23.41    1.54 
   7  -4  -2    0.48    0.40 
   6  -4  -2   95.34    5.30 
   5  -4  -2    0.50    0.32 
  -5   4   2    0.94    0.36 
   4  -4  -2   27.66    1.65 
  -4   4   2   28.91    1.73 
   3  -4  -2   55.73    3.48 
   3  -4  -2   42.20    2.65 
  -3   4   2   44.54    2.76 
   2  -4  -2   27.52    1.59 
   2  -4  -2   29.22    2.11 
  -2   4   2   27.22    1.65 
   1  -4  -2  256.51   13.19 
   1  -4  -2  233.29   17.35 
  -1   4   2  240.62   13.68 
   0  -4  -2   28.07    2.14 
   0  -4  -2   29.17    1.57 
   0   4   2   27.15    1.65 
  -1  -4  -2   40.10    3.32 
   1   4   2   49.02    2.59 
  -2  -4  -2   22.82    1.86 
   2   4   2   24.23    1.40 
  -3  -4  -2   26.73    2.11 
   3   4   2   26.71    1.59 
  -4  -4  -2    9.55    0.98 
   4   4   2    9.57    0.69 
  -5  -4  -2    7.17    0.86 
   5   4   2    6.81    0.60 
  -6  -4  -2    3.87    0.70 
   6   4   2    3.56    0.48 
  -7  -4  -2    7.46    0.99 
   7   4   2    7.90    0.75 
   8   4   2    0.78    0.58 
   7  -5  -2    5.31    0.61 
  -7   5   2    4.96    0.73 
   6  -5  -2    0.86    0.40 
  -6   5   2    0.71    0.53 
   5  -5  -2    3.29    0.46 
  -5   5   2    3.87    0.53 
   4  -5  -2    4.76    0.46 
  -4   5   2    5.06    0.51 
   3  -5  -2   25.25    1.60 
   3  -5  -2   29.99    2.11 
  -3   5   2   27.48    1.68 
   2  -5  -2   20.77    1.57 
   2  -5  -2   20.77    1.17 
  -2   5   2   17.73    1.22 
   1  -5  -2   26.86    1.46 
   1  -5  -2   22.03    1.96 
  -1   5   2   27.12    1.53 
   0  -5  -2    4.73    0.36 
   0  -5  -2    4.64    0.60 
   0   5   2    5.08    0.45 
  -1  -5  -2   57.27    4.14 
   1   5   2   54.17    3.20 
  -2  -5  -2   85.47    6.17 
   2   5   2   82.93    4.80 
  -3  -5  -2   20.30    1.75 
   3   5   2   21.22    1.29 
  -4  -5  -2  104.86    7.35 
   4   5   2   95.92    5.71 
  -5  -5  -2    1.79    0.56 
   5   5   2    1.69    0.38 
  -6  -5  -2   33.70    2.54 
   6   5   2   26.94    1.84 
  -7  -5  -2    4.14    0.88 
   7   5   2    5.31    0.63 
   8   5   2    7.01    0.82 
   7  -6  -2   28.17    1.80 
  -7   6   2   29.53    1.97 
   6  -6  -2    3.32    0.52 
  -6   6   2    3.04    0.63 
   5  -6  -2   52.37    3.16 
  -5   6   2   59.14    3.32 
   4  -6  -2   60.22    3.47 
  -4   6   2   63.17    3.61 
   3  -6  -2   10.28    0.99 
   3  -6  -2   10.60    0.75 
  -3   6   2   11.12    0.83 
   2  -6  -2   75.16    5.92 
   2  -6  -2   83.82    4.49 
  -2   6   2   84.82    4.67 
   1  -6  -2    6.70    0.78 
   1  -6  -2    7.38    0.52 
  -1   6   2    6.45    0.61 
   0  -6  -2    5.79    0.45 
   0  -6  -2    6.24    0.76 
   0   6   2    6.90    0.56 
  -1  -6  -2   12.66    1.18 
  -1  -6  -2   11.33    0.72 
   1   6   2   12.51    0.83 
  -2  -6  -2    8.44    1.01 
   2   6   2    9.18    0.69 
  -3  -6  -2    7.99    0.93 
   3   6   2    6.48    0.58 
  -4  -6  -2    0.46    0.48 
   4   6   2    0.05    0.28 
  -5  -6  -2    2.03    0.66 
   5   6   2    2.19    0.43 
  -6  -6  -2    9.58    1.20 
   6   6   2    9.32    0.82 
  -7  -6  -2    3.46    0.84 
   7   6   2    3.01    0.59 
   6  -7  -2   -0.37    0.41 
  -6   7   2    0.72    0.62 
   5  -7  -2   11.03    0.88 
  -5   7   2   12.41    1.04 
   4  -7  -2    3.38    0.48 
  -4   7   2    4.62    0.60 
   3  -7  -2    3.72    0.43 
  -3   7   2    3.22    0.52 
   2  -7  -2   22.70    2.13 
   2  -7  -2   30.55    1.60 
  -2   7   2   27.36    1.69 
   1  -7  -2    6.66    0.56 
   1  -7  -2    7.50    0.88 
  -1   7   2    9.17    0.71 
   0  -7  -2   49.34    2.82 
   0  -7  -2   58.25    3.90 
   0   7   2   46.53    2.96 
  -1  -7  -2   41.65    2.33 
  -1  -7  -2   42.25    3.28 
   1   7   2   42.18    2.49 
  -2  -7  -2    1.75    0.58 
   2   7   2    1.60    0.38 
  -3  -7  -2   61.37    4.49 
   3   7   2   56.31    3.41 
  -4  -7  -2   16.55    1.73 
   4   7   2   18.90    1.22 
  -5  -7  -2   14.23    1.63 
   5   7   2   16.09    1.11 
  -6  -7  -2   19.84    1.92 
   6   7   2   16.55    1.26 
  -7  -7  -2    3.88    0.93 
   7   7   2    2.13    0.60 
   5  -8  -2    7.40    0.73 
  -5   8   2    8.58    0.91 
   4  -8  -2    0.08    0.38 
  -4   8   2   -0.73    0.52 
   3  -8  -2   24.30    1.49 
  -3   8   2   24.03    1.61 
   2  -8  -2   -0.17    0.29 
   2  -8  -2   -0.08    0.42 
  -2   8   2    0.91    0.45 
   1  -8  -2    2.69    0.63 
   1  -8  -2    1.64    0.34 
  -1   8   2    2.42    0.46 
   0  -8  -2   17.66    1.13 
   0  -8  -2   22.43    1.78 
   0   8   2   17.95    1.26 
  -1  -8  -2    0.76    0.53 
   1   8   2    0.64    0.40 
  -2  -8  -2    1.67    0.66 
   2   8   2    1.39    0.44 
  -3  -8  -2   13.62    1.56 
   3   8   2   14.77    1.03 
  -4  -8  -2    6.66    1.09 
   4   8   2    6.49    0.68 
  -5  -8  -2   11.88    1.41 
   5   8   2    9.11    0.87 
  -6  -8  -2   -0.34    0.74 
   6   8   2   -0.02    0.51 
   4  -9  -2   -0.99    0.41 
  -4   9   2    0.15    0.62 
   3  -9  -2   21.05    1.30 
  -3   9   2   18.71    1.47 
   2  -9  -2    4.21    0.51 
  -2   9   2    5.59    0.70 
   1  -9  -2   21.76    1.31 
   1  -9  -2   20.41    1.97 
  -1   9   2   21.55    1.45 
   0  -9  -2   19.44    1.93 
   0   9   2   22.06    1.44 
  -1  -9  -2    0.59    0.62 
   1   9   2    0.51    0.49 
  -2  -9  -2   54.33    3.89 
   2   9   2   43.64    2.88 
  -3  -9  -2    1.18    0.77 
   3   9   2    0.48    0.45 
  -4  -9  -2   17.73    1.90 
   4   9   2   17.41    1.27 
  -5  -9  -2    6.09    1.14 
   5   9   2    5.39    0.71 
   3 -10  -2    0.05    0.43 
  -3  10   2    0.24    0.67 
   2 -10  -2   -0.61    0.37 
  -2  10   2    0.82    0.61 
   1 -10  -2    3.73    0.90 
  -1  10   2    6.08    0.74 
   0 -10  -2    2.15    0.84 
   0  10   2    1.36    0.61 
  -1 -10  -2    1.23    0.72 
   1  10   2    0.19    0.54 
  -2 -10  -2    6.90    1.22 
   2  10   2    6.48    0.79 
  -3 -10  -2    5.18    1.10 
   3  10   2    5.75    0.70 
  -4 -10  -2   12.03    1.60 
   0 -11  -2    1.40    0.92 
  -1 -11  -2   23.64    2.43 
  -2 -11  -2    2.08    0.93 
  -3 -10   3    9.90    1.58 
  -2 -10   3    0.71    0.95 
  -1 -10   3   -1.38    0.81 
   0 -10   3    1.05    0.85 
  -4  -9   3    1.32    1.01 
  -3  -9   3   12.30    1.65 
  -2  -9   3   15.92    1.86 
  -1  -9   3    6.46    1.22 
   0   9  -3   31.90    2.00 
   0  -9   3   30.20    2.75 
   1  -9   3    2.07    0.42 
  -2   9  -3   17.94    1.37 
   2  -9   3   19.35    1.26 
  -3   9  -3    4.31    0.76 
   3  -9   3    5.44    0.65 
  -6  -8   3    6.14    1.37 
  -5  -8   3    0.07    0.97 
  -4  -8   3    6.73    1.27 
  -3  -8   3    6.04    1.18 
  -2  -8   3    0.95    0.74 
   1   8  -3    5.85    0.62 
  -1  -8   3    5.52    1.01 
   0  -8   3    9.66    0.74 
   0  -8   3    9.38    1.25 
  -1   8  -3   -0.18    0.45 
   1  -8   3    0.17    0.32 
   1  -8   3    0.62    0.52 
  -2   8  -3    6.31    0.70 
   2  -8   3    6.06    0.59 
  -3   8  -3   12.14    1.08 
   3  -8   3   12.70    0.96 
  -4   8  -3    9.41    0.93 
   4  -8   3    9.25    0.84 
   5  -8   3    3.39    0.67 
   6   7  -3   15.96    1.14 
  -6  -7   3   14.31    1.84 
   5   7  -3    4.76    0.62 
  -5  -7   3    4.99    1.06 
   4   7  -3   21.46    1.37 
  -4  -7   3   19.77    2.06 
   3   7  -3   19.01    1.18 
  -3  -7   3   14.91    1.83 
   2   7  -3   12.14    0.85 
  -2  -7   3   11.01    1.39 
  -1  -7   3   34.90    2.86 
   0   7  -3    1.13    0.40 
   0  -7   3    0.85    0.51 
   0  -7   3    0.89    0.27 
  -1   7  -3   60.36    3.55 
   1  -7   3   60.54    3.41 
   1  -7   3   62.60    4.60 
  -2   7  -3   14.51    1.05 
   2  -7   3   13.79    0.96 
  -3   7  -3   12.60    1.02 
   3  -7   3   12.10    0.91 
  -4   7  -3   13.79    1.11 
   4  -7   3   12.62    0.99 
  -5   7  -3    1.51    0.63 
   5  -7   3    2.33    0.53 
   7   6  -3    6.38    0.71 
  -7  -6   3    5.25    1.27 
   6   6  -3    2.04    0.50 
  -6  -6   3    2.50    0.91 
   5   6  -3    9.02    0.72 
  -5  -6   3    6.19    1.14 
   4   6  -3   15.32    1.02 
  -4  -6   3   14.49    1.59 
   3   6  -3    1.78    0.36 
  -3  -6   3    1.26    0.64 
  -2  -6   3    1.55    0.58 
  -1  -6   3   44.73    3.38 
  -1  -6   3   42.71    2.43 
   0   6  -3    1.66    0.32 
   0  -6   3    2.00    0.29 
   0  -6   3    1.63    0.48 
  -1   6  -3   17.60    1.07 
   1  -6   3   16.55    1.01 
   1  -6   3   13.91    1.38 
  -2   6  -3   34.46    1.89 
   2  -6   3   26.63    2.36 
   2  -6   3   31.85    1.81 
  -3   6  -3    1.38    0.39 
   3  -6   3    1.31    0.34 
  -4   6  -3   55.74    3.28 
   4  -6   3   55.19    3.16 
  -5   6  -3    0.13    0.51 
   5  -6   3    0.09    0.43 
  -6   6  -3   21.38    1.49 
   6  -6   3   19.07    1.38 
  -8  -5   3   -0.69    0.93 
   7   5  -3   30.95    2.03 
  -7  -5   3   34.37    2.93 
   6   5  -3    8.68    0.76 
  -6  -5   3    8.77    1.25 
   5   5  -3   24.22    1.51 
  -5  -5   3   24.05    2.20 
   4   5  -3   55.75    3.27 
  -4  -5   3   57.30    4.34 
   3   5  -3    4.64    0.43 
  -3  -5   3    4.92    0.77 
  -2  -5   3   32.08    2.57 
  -1  -5   3    0.41    0.18 
  -1  -5   3    0.17    0.33 
   0  -5   3   22.62    1.85 
   0  -5   3   23.48    1.34 
  -1   5  -3    7.93    0.61 
   1  -5   3    8.35    0.59 
   1  -5   3    8.05    0.81 
  -2   5  -3    6.39    0.55 
   2  -5   3    7.09    0.53 
   2  -5   3    6.28    0.67 
  -3   5  -3    2.48    0.41 
   3  -5   3    3.57    0.38 
  -4   5  -3    0.02    0.38 
   4  -5   3   -0.17    0.28 
  -5   5  -3    0.94    0.49 
   5  -5   3    1.18    0.42 
  -6   5  -3   -0.34    0.51 
   6  -5   3   -0.13    0.42 
  -7   5  -3    0.83    0.62 
   7  -5   3    1.98    0.55 
   8   4  -3    0.94    0.59 
   7   4  -3    2.05    0.54 
  -7  -4   3    1.00    0.72 
   6   4  -3   10.98    0.87 
  -6  -4   3   12.22    1.41 
   5   4  -3    0.32    0.31 
  -5  -4   3   -0.18    0.55 
   4   4  -3    8.21    0.58 
  -4  -4   3    5.63    0.88 
   3   4  -3    9.72    0.65 
  -3  -4   3    8.59    0.98 
  -2  -4   3   56.10    4.18 
  -1  -4   3   35.51    2.66 
  -1  -4   3   34.17    1.92 
   0  -4   3   10.80    0.97 
   0  -4   3   11.01    0.68 
  -1   4  -3  120.24    7.06 
   1  -4   3  129.77    6.82 
   1  -4   3  125.77    8.98 
  -2   4  -3    4.57    0.43 
   2  -4   3    4.82    0.50 
   2  -4   3    5.02    0.44 
  -3   4  -3   42.67    2.40 
   3  -4   3   45.29    2.32 
   3  -4   3   35.82    2.95 
  -4   4  -3   18.64    1.21 
   4  -4   3   18.11    1.16 
   5  -4   3   11.58    0.87 
   6  -4   3   28.76    1.78 
   7  -4   3   15.37    1.15 
   8   3  -3   18.18    1.38 
   7   3  -3    6.41    0.69 
  -7  -3   3    6.00    1.04 
   6   3  -3    9.03    0.78 
  -6  -3   3    9.60    1.15 
   5   3  -3   31.68    1.91 
  -5  -3   3   32.03    2.57 
   4   3  -3   14.08    0.91 
  -4  -3   3   13.97    1.31 
   3   3  -3   69.18    3.77 
  -3  -3   3   62.22    4.86 
  -2  -3   3    0.04    0.26 
  -1  -3   3   47.97    2.48 
  -1  -3   3   41.87    3.34 
   0  -3   3   17.34    1.35 
   0  -3   3   16.68    0.97 
   1  -3   3    0.46    0.19 
   1  -3   3    0.82    0.15 
  -2   3  -3    9.03    0.64 
   2  -3   3   10.79    0.79 
   2  -3   3    9.58    0.64 
   3  -3   3    5.16    0.46 
   3  -3   3    5.62    0.48 
   4  -3   3    2.43    0.32 
   4  -3   3    2.17    0.36 
   5  -3   3   19.07    1.20 
   5  -3   3   18.70    1.27 
   6  -3   3    8.98    0.75 
   6  -3   3    8.97    0.82 
   7  -3   3    7.85    0.86 
   7  -3   3    8.45    0.75 
   8  -3   3    8.58    1.04 
   8  -3   3   10.56    0.91 
   8   2  -3    0.60    0.59 
   7   2  -3    3.27    0.58 
  -7  -2   3    3.40    0.75 
   6   2  -3   42.05    2.37 
  -6  -2   3   36.06    3.06 
   5   2  -3    8.51    0.64 
  -5  -2   3    6.89    0.88 
   4   2  -3    3.74    0.36 
  -4  -2   3    4.50    0.60 
   3   2  -3  116.09    6.59 
  -3  -2   3  117.48    8.42 
  -2  -2   3   24.56    1.88 
  -1  -2   3   87.43    6.19 
  -1  -2   3   84.48    4.66 
   0  -2   3   95.53    6.85 
   0  -2   3   95.70    5.19 
   1  -2   3   22.08    1.26 
   1  -2   3   22.59    1.66 
   2  -2   3  419.21   27.70 
   2  -2   3  372.67   21.14 
   2  -2   3  381.12   21.95 
   3  -2   3   21.25    1.27 
   3  -2   3   22.44    1.33 
   4  -2   3   47.47    2.73 
   4  -2   3   45.79    2.61 
   5  -2   3  161.82    8.77 
   5  -2   3  159.26    9.11 
   6  -2   3    0.32    0.31 
   6  -2   3    0.28    0.39 
   7  -2   3    9.66    0.76 
   7  -2   3    7.79    0.84 
   8  -2   3    7.03    0.88 
   8   1  -3   19.19    1.43 
   7   1  -3   20.64    1.42 
   6   1  -3   34.84    2.08 
  -6  -1   3   32.94    2.67 
   5   1  -3    1.43    0.31 
  -5  -1   3    1.15    0.44 
   4   1  -3   29.99    1.79 
  -4  -1   3   30.68    2.34 
   3   1  -3   26.05    1.51 
  -3  -1   3   25.66    1.99 
  -2  -1   3    8.09    0.71 
   1   1  -3    0.73    0.18 
  -1  -1   3    0.64    0.09 
   0   1  -3   27.28    2.07 
   0  -1   3   28.92    1.55 
  -1   1  -3   55.10    3.86 
   1  -1   3   52.50    2.94 
  -2   1  -3  130.89    8.86 
   2  -1   3  124.46    7.04 
   2  -1   3  119.05    6.78 
   3  -1   3   36.61    2.12 
   3  -1   3   39.49    2.21 
   4  -1   3    6.06    0.48 
   4  -1   3    6.24    0.55 
   5  -1   3   82.02    4.69 
   5  -1   3   80.87    4.49 
   6  -1   3    0.28    0.39 
   6  -1   3    0.58    0.30 
   7  -1   3   40.45    2.62 
   7  -1   3   44.84    2.50 
   8  -1   3    0.66    0.59 
   8   0  -3    1.94    0.66 
   7   0  -3    0.52    0.51 
   6   0  -3   27.60    1.72 
   6   0  -3   27.13    1.58 
  -6   0   3   27.07    2.19 
   5   0  -3   13.53    0.81 
   5   0  -3   13.43    0.90 
  -5   0   3   11.89    1.14 
   4   0  -3   99.84    5.56 
   4   0  -3  103.39    5.81 
  -4   0   3  103.71    7.38 
   3   0  -3   13.84    0.79 
   3   0  -3   12.40    1.09 
   3   0  -3   14.57    0.86 
   2   0  -3    3.72    0.26 
   2   0  -3    4.25    0.30 
   2   0  -3    3.24    0.40 
   1   0  -3   81.37    5.73 
  -1   0   3   78.05    4.32 
   0   0  -3    3.96    0.41 
   0   0   3    4.54    0.29 
  -1   0  -3  246.27   18.20 
   1   0   3  266.29   13.87 
  -2   0  -3   23.25    1.84 
   2   0   3   27.19    1.46 
   2   0   3   25.01    1.40 
  -3   0  -3   76.89    5.40 
   3   0   3   74.69    4.12 
   3   0   3   74.80    4.29 
  -4   0  -3   81.05    5.82 
   4   0   3   79.49    4.64 
   4   0   3   83.45    4.46 
   5   0   3    8.74    0.71 
   5   0   3    9.36    0.64 
   6   0   3   50.48    2.66 
   6   0   3   42.98    2.79 
   7   0   3   -0.01    0.42 
   8   0   3    3.95    0.70 
   8  -1  -3    6.43    0.80 
   7  -1  -3   43.55    2.65 
   6  -1  -3    1.84    0.43 
   6  -1  -3    1.48    0.31 
   5  -1  -3  113.10    6.27 
   5  -1  -3  113.35    6.54 
  -5   1   3  117.87    8.27 
   4  -1  -3    0.46    0.24 
   4  -1  -3    0.40    0.23 
   4  -1  -3    0.53    0.17 
   3  -1  -3   17.45    1.11 
   3  -1  -3   18.52    1.43 
   3  -1  -3   18.85    1.05 
   2  -1  -3   95.38    7.20 
   2  -1  -3  105.32    5.67 
   2  -1  -3  100.35    5.45 
   1  -1  -3   21.20    1.66 
   1  -1  -3   23.05    1.23 
  -1   1   3   22.54    1.28 
   0  -1  -3    6.26    0.52 
   0   1   3    6.02    0.35 
  -1  -1  -3    7.58    0.62 
   1   1   3    7.86    0.46 
   1   1   3    7.10    0.44 
  -2  -1  -3   25.47    1.92 
   2   1   3   26.43    1.50 
   2   1   3   25.97    1.43 
  -3  -1  -3   18.71    1.37 
   3   1   3   18.12    1.01 
   3   1   3   16.42    1.07 
  -4  -1  -3   11.55    1.03 
   4   1   3   12.38    0.83 
   4   1   3   14.44    0.78 
  -5  -1  -3    3.05    0.43 
   5   1   3    3.27    0.38 
   5   1   3    3.61    0.32 
   6   1   3   30.83    1.90 
   7   1   3    3.52    0.54 
   8   1   3   15.21    1.21 
   8  -2  -3    7.26    0.88 
   7  -2  -3   18.77    1.18 
   7  -2  -3   15.83    1.28 
   6  -2  -3   27.72    1.83 
   6  -2  -3   30.35    1.73 
   5  -2  -3   45.51    2.73 
   5  -2  -3   44.59    2.61 
  -5   2   3   48.92    3.42 
   4  -2  -3    0.91    0.26 
   4  -2  -3    1.09    0.27 
   4  -2  -3    0.63    0.20 
   3  -2  -3   28.03    2.07 
   3  -2  -3   27.86    1.63 
   3  -2  -3   26.53    1.55 
   2  -2  -3  135.75    9.56 
   2  -2  -3  135.69    7.27 
  -2   2   3  130.35    7.54 
   1  -2  -3   43.83    3.36 
   1  -2  -3   47.75    2.53 
  -1   2   3   46.46    2.62 
   0  -2  -3  993.96   51.31 
   0  -2  -3  860.49   67.31 
   0   2   3 1000.00   53.27 
  -1  -2  -3    5.14    0.47 
   1   2   3    4.23    0.28 
   1   2   3    5.33    0.34 
  -2  -2  -3    2.66    0.36 
   2   2   3    2.94    0.24 
  -3  -2  -3  341.76   22.95 
   3   2   3  304.05   18.12 
  -4  -2  -3   11.62    1.01 
   4   2   3   11.44    0.77 
  -5  -2  -3   26.37    2.07 
   5   2   3   26.83    1.62 
   6   2   3    6.59    0.60 
   7   2   3    1.94    0.46 
   8   2   3   10.77    0.97 
   8  -3  -3   17.48    1.40 
   7  -3  -3   -0.50    0.53 
   7  -3  -3    0.27    0.37 
   6  -3  -3    8.76    0.80 
   6  -3  -3    8.98    0.71 
   5  -3  -3   32.36    1.85 
   5  -3  -3   31.13    1.95 
   4  -3  -3    2.66    0.38 
   4  -3  -3    2.49    0.35 
   4  -3  -3    3.19    0.32 
   3  -3  -3   63.13    4.19 
   3  -3  -3   54.87    3.17 
  -3   3   3   54.57    3.29 
   2  -3  -3   20.06    1.14 
   2  -3  -3   19.20    1.52 
  -2   3   3   20.41    1.19 
   1  -3  -3    3.49    0.44 
   1  -3  -3    4.46    0.30 
  -1   3   3    4.52    0.34 
   0  -3  -3   39.57    2.13 
   0  -3  -3   33.70    2.87 
   0   3   3   42.56    2.23 
  -1  -3  -3   22.63    1.27 
  -1  -3  -3   21.03    1.76 
   1   3   3   25.21    1.36 
  -2  -3  -3   71.88    5.44 
   2   3   3   77.63    4.25 
  -3  -3  -3   86.07    6.00 
   3   3   3   79.09    4.68 
  -4  -3  -3    7.12    0.78 
   4   3   3    6.09    0.53 
  -5  -3  -3   61.41    4.38 
   5   3   3   56.48    3.41 
  -6  -3  -3   14.75    1.39 
   6   3   3   16.42    1.08 
   7   3   3    6.48    0.69 
   8   3   3   13.25    1.09 
   8  -4  -3   20.46    1.41 
  -8   4   3   20.59    1.54 
   7  -4  -3    6.86    0.69 
  -7   4   3    8.08    0.81 
   6  -4  -3   39.38    2.32 
  -6   4   3   40.43    2.44 
   5  -4  -3   52.78    2.98 
  -5   4   3   52.75    3.11 
   4  -4  -3   26.45    1.59 
   4  -4  -3   28.36    2.07 
  -4   4   3   26.46    1.66 
   3  -4  -3   41.81    2.47 
  -3   4   3   46.54    2.58 
   2  -4  -3    7.87    0.80 
   2  -4  -3   10.19    0.60 
  -2   4   3    9.17    0.63 
   1  -4  -3   13.28    0.75 
   1  -4  -3   12.13    1.06 
  -1   4   3   12.22    0.81 
   0  -4  -3   11.30    0.66 
   0  -4  -3   10.81    0.96 
   0   4   3   11.18    0.73 
  -1  -4  -3   31.42    2.32 
  -1  -4  -3   29.70    1.67 
   1   4   3   30.24    1.77 
  -2  -4  -3    6.53    0.72 
   2   4   3    7.53    0.51 
  -3  -4  -3    6.32    0.76 
   3   4   3    7.17    0.53 
  -4  -4  -3   15.53    1.46 
   4   4   3   18.51    1.10 
  -5  -4  -3   10.07    1.06 
   5   4   3   10.92    0.79 
  -6  -4  -3    1.50    0.53 
   6   4   3    1.66    0.40 
   7   4   3    4.67    0.61 
   8   4   3    4.77    0.72 
   7  -5  -3    6.91    0.69 
  -7   5   3    5.84    0.79 
   6  -5  -3    1.00    0.39 
  -6   5   3    1.17    0.50 
   5  -5  -3    0.91    0.33 
  -5   5   3    1.76    0.43 
   4  -5  -3    0.67    0.27 
  -4   5   3    1.36    0.34 
   3  -5  -3   19.42    1.52 
   3  -5  -3   19.13    1.15 
  -3   5   3   18.56    1.21 
   2  -5  -3    1.13    0.33 
   2  -5  -3    1.31    0.23 
  -2   5   3    1.55    0.27 
   1  -5  -3   63.25    5.04 
   1  -5  -3   73.40    3.79 
  -1   5   3   69.72    3.94 
   0  -5  -3   14.85    1.30 
   0  -5  -3   15.98    0.91 
  -1  -5  -3   23.66    1.87 
  -1  -5  -3   23.48    1.30 
   1   5   3   22.74    1.41 
  -2  -5  -3  152.15   10.37 
   2   5   3  135.53    8.11 
  -3  -5  -3    4.42    0.70 
   3   5   3    5.96    0.49 
  -4  -5  -3   79.11    5.71 
   4   5   3   75.03    4.42 
  -5  -5  -3   17.71    1.65 
   5   5   3   18.61    1.21 
  -6  -5  -3   12.68    1.42 
   6   5   3   15.03    1.03 
  -7  -5  -3   17.51    1.66 
   7   5   3   15.75    1.19 
   8   5   3    0.85    0.59 
   7  -6  -3   17.39    1.27 
  -7   6   3   19.36    1.43 
   6  -6  -3   20.59    1.36 
  -6   6   3   21.25    1.49 
   5  -6  -3    5.01    0.54 
  -5   6   3    5.34    0.65 
   4  -6  -3   59.21    3.38 
  -4   6   3   60.93    3.52 
   3  -6  -3   22.63    1.72 
   3  -6  -3   19.37    1.28 
  -3   6   3   21.64    1.36 
   2  -6  -3   67.40    3.62 
   2  -6  -3   63.55    4.81 
  -2   6   3   64.71    3.77 
   1  -6  -3    1.96    0.26 
   1  -6  -3    1.70    0.43 
  -1   6   3    2.43    0.36 
   0  -6  -3    0.68    0.35 
   0  -6  -3    0.38    0.18 
   0   6   3    1.22    0.28 
  -1  -6  -3   34.38    1.85 
  -1  -6  -3   29.16    2.57 
   1   6   3   35.12    1.99 
  -2  -6  -3    1.21    0.46 
   2   6   3    0.87    0.29 
  -3  -6  -3   18.16    1.53 
   3   6   3   15.15    1.06 
  -4  -6  -3    1.12    0.53 
   4   6   3    1.07    0.33 
  -5  -6  -3    2.58    0.70 
   5   6   3    1.05    0.39 
  -6  -6  -3    7.20    1.06 
   6   6   3    7.04    0.69 
  -7  -6  -3    5.11    0.96 
   7   6   3    4.86    0.66 
   6  -7  -3    6.62    0.69 
  -6   7   3    6.86    0.84 
   5  -7  -3    1.24    0.39 
  -5   7   3    1.78    0.59 
   4  -7  -3    4.99    0.53 
  -4   7   3    5.92    0.66 
   3  -7  -3    1.35    0.33 
   3  -7  -3    1.08    0.45 
  -3   7   3    1.82    0.45 
   2  -7  -3   10.93    0.75 
   2  -7  -3   11.45    1.11 
  -2   7   3   10.28    0.85 
   1  -7  -3   45.64    2.59 
   1  -7  -3   50.11    3.56 
  -1   7   3   43.70    2.73 
   0  -7  -3   32.83    1.81 
   0  -7  -3   30.75    2.54 
   0   7   3   31.77    1.94 
  -1  -7  -3   69.30    3.84 
  -1  -7  -3   72.09    5.25 
   1   7   3   69.48    4.06 
  -2  -7  -3    4.17    0.76 
   2   7   3    4.89    0.51 
  -3  -7  -3   71.10    4.84 
   3   7   3   57.55    3.67 
  -4  -7  -3   35.42    2.68 
   4   7   3   29.32    1.95 
  -5  -7  -3    7.60    1.12 
   5   7   3    8.18    0.74 
  -6  -7  -3   24.52    2.25 
   6   7   3   22.88    1.57 
  -7  -7  -3   -0.41    0.76 
   7   7   3   -0.69    0.49 
   5  -8  -3    7.24    0.71 
  -5   8   3    8.54    0.90 
   4  -8  -3    6.90    0.64 
  -4   8   3    6.68    0.78 
   3  -8  -3   13.95    0.92 
  -3   8   3   12.35    1.05 
   2  -8  -3    7.44    0.95 
   2  -8  -3    7.41    0.62 
  -2   8   3    8.85    0.76 
   1  -8  -3    0.35    0.53 
   1  -8  -3   -0.07    0.25 
  -1   8   3    0.39    0.39 
   0  -8  -3   20.84    1.22 
   0  -8  -3   19.18    1.81 
   0   8   3   20.69    1.35 
  -1  -8  -3    9.69    1.15 
   1   8   3    8.74    0.78 
  -2  -8  -3    1.20    0.62 
   2   8   3    0.69    0.42 
  -3  -8  -3    6.61    1.04 
   3   8   3    6.40    0.64 
  -4  -8  -3   12.59    1.46 
   4   8   3   11.92    0.96 
  -5  -8  -3   10.45    1.33 
   5   8   3    9.10    0.86 
  -6  -8  -3    1.69    0.84 
   6   8   3    1.12    0.54 
   4  -9  -3    6.59    0.68 
  -4   9   3    6.82    0.84 
   3  -9  -3   19.68    1.25 
  -3   9   3   18.84    1.43 
   2  -9  -3   19.42    1.23 
  -2   9   3   19.77    1.40 
   1  -9  -3    1.48    0.67 
   1  -9  -3    2.29    0.40 
  -1   9   3    3.72    0.59 
   0  -9  -3   32.73    2.59 
   0   9   3   26.93    1.86 
  -1  -9  -3    1.10    0.61 
   1   9   3    0.19    0.46 
  -2  -9  -3   40.08    3.13 
   2   9   3   35.56    2.31 
  -3  -9  -3   11.12    1.41 
   3   9   3   10.46    0.89 
  -4  -9  -3   22.99    2.20 
   4   9   3   22.22    1.52 
  -5  -9  -3   17.83    2.03 
   5   9   3   21.42    1.43 
   3 -10  -3    4.17    0.56 
  -3  10   3    3.63    0.77 
   2 -10  -3   -0.30    0.37 
  -2  10   3    0.51    0.59 
   1 -10  -3    2.02    0.79 
   1 -10  -3    2.41    0.42 
  -1  10   3    3.15    0.64 
   0 -10  -3    6.65    1.16 
   0  10   3    7.83    0.84 
  -1 -10  -3    1.72    0.81 
   1  10   3   -0.77    0.52 
  -2 -10  -3    7.02    1.20 
   2  10   3    5.58    0.77 
  -3 -10  -3    8.69    1.29 
   3  10   3    7.83    0.82 
  -4 -10  -3    2.62    0.93 
   4  10   3    0.95    0.57 
   0 -11  -3    2.35    0.88 
  -1 -11  -3   16.01    1.93 
  -2 -11  -3    8.26    1.32 
  -2 -10   4    3.57    1.24 
  -1 -10   4    0.82    0.85 
  -4  -9   4    4.85    1.30 
  -3  -9   4    2.27    1.04 
  -2  -9   4   14.86    1.76 
  -1  -9   4    0.74    0.74 
   0  -9   4   16.97    1.91 
   1  -9   4    1.90    0.43 
   2  -9   4   17.43    1.21 
   3  -9   4    7.00    0.74 
  -5  -8   4    7.37    1.40 
  -4  -8   4   -0.44    0.90 
  -3  -8   4    7.38    1.26 
  -2  -8   4   -0.60    0.71 
  -1  -8   4    0.49    0.65 
   0  -8   4    2.48    0.40 
   0  -8   4    2.61    0.80 
  -1   8  -4   -0.44    0.47 
   1  -8   4   -0.18    0.53 
   1  -8   4    0.49    0.34 
   2  -8   4    2.64    0.46 
  -3   8  -4   10.96    0.94 
   3  -8   4    9.90    0.88 
  -4   8  -4    1.30    0.61 
   4  -8   4    1.29    0.51 
  -6  -7   4   15.63    1.91 
  -5  -7   4   10.95    1.60 
  -4  -7   4    3.42    0.97 
  -3  -7   4   23.41    2.25 
  -2  -7   4    1.48    0.71 
  -1  -7   4   28.28    2.43 
   0  -7   4    1.45    0.32 
   0  -7   4    1.67    0.63 
  -1   7  -4   11.05    0.86 
   1  -7   4    9.70    1.18 
   1  -7   4   11.64    0.81 
  -2   7  -4   19.66    1.30 
   2  -7   4   18.24    1.21 
  -3   7  -4    5.17    0.64 
   3  -7   4    4.75    0.55 
  -4   7  -4    3.51    0.63 
   4  -7   4    4.08    0.57 
  -5   7  -4   -0.91    0.60 
   5  -7   4    0.21    0.49 
  -7  -6   4    2.21    1.01 
  -6  -6   4    3.61    1.08 
  -5  -6   4    0.63    0.77 
  -4  -6   4   10.42    1.36 
  -3  -6   4    1.86    0.72 
  -2  -6   4    3.18    0.74 
  -1  -6   4   38.00    2.11 
  -1  -6   4   36.37    2.97 
   0  -6   4   10.69    0.70 
   0  -6   4    8.90    1.07 
   1  -6   4    0.85    0.44 
   1  -6   4    1.79    0.31 
  -2   6  -4   32.68    1.88 
   2  -6   4   31.26    1.81 
   2  -6   4   28.43    2.38 
  -3   6  -4    2.19    0.43 
   3  -6   4    2.36    0.39 
  -4   6  -4   27.52    1.78 
   4  -6   4   28.15    1.71 
  -5   6  -4    8.06    0.83 
   5  -6   4    8.33    0.79 
  -6   6  -4   10.06    0.99 
   6  -6   4   10.26    0.93 
   7   5  -4   10.34    0.93 
  -7  -5   4    9.96    1.43 
   6   5  -4   32.56    2.01 
  -6  -5   4   32.71    2.92 
   5   5  -4   -0.08    0.34 
  -5  -5   4    1.23    0.71 
  -4  -5   4   58.57    4.52 
  -3  -5   4    1.53    0.58 
  -2  -5   4   27.64    2.28 
  -1  -5   4   24.98    2.07 
  -1  -5   4   25.14    1.44 
   0  -5   4   26.06    2.03 
   0  -5   4   24.13    1.44 
   1  -5   4   10.51    1.05 
   1  -5   4   12.68    0.78 
  -2   5  -4    1.63    0.30 
   2  -5   4    2.16    0.30 
   2  -5   4    0.99    0.34 
  -3   5  -4    8.86    0.72 
   3  -5   4    8.73    0.69 
  -4   5  -4    0.89    0.41 
   4  -5   4    1.36    0.35 
  -5   5  -4   12.39    0.95 
   5  -5   4    9.12    0.87 
  -6   5  -4    0.39    0.54 
   6  -5   4    0.57    0.47 
  -7   5  -4    3.26    0.71 
   7  -5   4    2.85    0.62 
   7   4  -4   -0.15    0.50 
  -7  -4   4    0.16    0.84 
   6   4  -4   -0.43    0.38 
  -6  -4   4   -0.25    0.65 
   5   4  -4    1.21    0.35 
  -5  -4   4    1.64    0.64 
  -4  -4   4    2.24    0.63 
  -3  -4   4    5.11    0.75 
  -2  -4   4   46.50    3.54 
  -1  -4   4   40.00    2.93 
  -1  -4   4   36.93    2.12 
   0  -4   4    5.36    0.68 
   0  -4   4    6.50    0.46 
   1  -4   4  167.31    9.42 
   1  -4   4  179.62   12.41 
  -2   4  -4    7.66    0.57 
   2  -4   4    7.94    0.58 
   2  -4   4    7.89    0.72 
  -3   4  -4   93.47    5.49 
   3  -4   4   99.15    5.30 
  -4   4  -4   23.02    1.36 
   4  -4   4   19.13    1.30 
   5  -4   4    1.36    0.38 
   6  -4   4   39.85    2.36 
   7  -4   4    0.55    0.47 
   8   3  -4   10.23    0.99 
   7   3  -4   21.16    1.42 
  -7  -3   4   19.60    2.03 
   6   3  -4    0.25    0.39 
  -6  -3   4    0.59    0.57 
   5   3  -4   43.84    2.61 
  -5  -3   4   45.42    3.50 
  -4  -3   4   36.66    2.89 
  -3  -3   4   27.72    2.21 
  -2  -3   4   58.62    4.34 
  -1  -3   4   10.25    0.62 
  -1  -3   4   10.32    0.94 
   0  -3   4   42.80    2.34 
   0  -3   4   41.93    3.14 
   1  -3   4    3.65    0.46 
   1  -3   4    4.21    0.32 
  -2   3  -4   25.27    1.53 
   2  -3   4   27.05    1.94 
   2  -3   4   25.94    1.50 
   3  -3   4   13.06    0.85 
   4  -3   4    3.72    0.41 
   4  -3   4    3.82    0.44 
   5  -3   4   19.33    1.26 
   5  -3   4   17.90    1.20 
   6  -3   4    8.65    0.77 
   6  -3   4    8.94    0.82 
   7  -3   4    1.41    0.59 
   7  -3   4    0.25    0.40 
   8  -3   4    5.33    0.88 
   8  -3   4    5.76    0.69 
   8   2  -4    0.26    0.56 
   7   2  -4   12.02    1.02 
  -7  -2   4   12.65    1.43 
   6   2  -4    1.79    0.42 
  -6  -2   4    1.62    0.60 
   5   2  -4   51.06    3.05 
  -5  -2   4   54.28    4.01 
   4   2  -4   46.93    2.69 
  -4  -2   4   46.12    3.53 
  -3  -2   4   22.45    1.80 
  -2  -2   4   52.99    3.92 
  -1  -2   4    0.81    0.13 
  -1  -2   4    0.59    0.23 
   0  -2   4  128.17    9.38 
   0  -2   4  133.92    7.11 
   1  -2   4    4.77    0.34 
   1  -2   4    4.24    0.44 
   2  -2   4  203.03   13.49 
   2  -2   4  176.48   10.30 
   3  -2   4   20.04    1.20 
   3  -2   4   20.46    1.24 
   4  -2   4   25.91    1.66 
   4  -2   4   28.60    1.60 
   5  -2   4   48.53    2.81 
   5  -2   4   46.36    2.69 
   6  -2   4    5.12    0.52 
   6  -2   4    4.68    0.60 
   7  -2   4    6.66    0.78 
   7  -2   4    8.15    0.71 
   8  -2   4    0.65    0.65 
   8   1  -4   23.38    1.65 
   7   1  -4    7.72    0.76 
   6   1  -4   69.02    4.09 
  -6  -1   4   71.97    5.27 
   5   1  -4    0.76    0.30 
  -5  -1   4    0.76    0.44 
   4   1  -4   37.94    2.14 
  -4  -1   4   35.03    2.80 
  -3  -1   4   68.87    5.04 
   2   1  -4    2.04    0.35 
  -2  -1   4    2.35    0.18 
   1   1  -4  115.30    7.85 
  -1  -1   4  103.65    5.92 
   0   1  -4   38.83    2.91 
   0  -1   4   40.64    2.18 
  -1   1  -4   25.69    2.01 
   1  -1   4   28.91    1.52 
  -2   1  -4    1.71    0.22 
   2  -1   4    2.02    0.20 
   2  -1   4    1.92    0.19 
   3  -1   4    3.51    0.33 
   3  -1   4    3.76    0.31 
   4  -1   4    2.62    0.34 
   4  -1   4    2.01    0.27 
   5  -1   4    0.64    0.24 
   5  -1   4    0.06    0.30 
   6  -1   4    1.47    0.32 
   6  -1   4    0.86    0.42 
   7  -1   4    5.64    0.75 
   7  -1   4    7.04    0.64 
   8  -1   4    2.33    0.65 
   8   0  -4    8.55    0.90 
   7   0  -4    0.59    0.52 
   6   0  -4    1.07    0.42 
   6   0  -4    1.40    0.30 
  -6   0   4    0.77    0.44 
   5   0  -4   86.52    4.74 
   5   0  -4   84.71    4.95 
  -5   0   4   88.44    6.33 
   4   0  -4   49.12    2.74 
   4   0  -4   47.72    2.87 
  -4   0   4   52.99    3.71 
   3   0  -4   55.00    3.09 
   3   0  -4   53.19    3.98 
   3   0  -4   54.32    2.97 
   2   0  -4   64.54    4.59 
   2   0  -4   61.58    3.43 
   1   0  -4  129.42   10.04 
  -1   0   4  151.11    7.61 
   0   0  -4  106.16    7.79 
   0   0   4  111.19    5.90 
  -1   0  -4  707.17   49.72 
   1   0   4  697.31   37.89 
  -2   0  -4    0.56    0.16 
   2   0   4    0.75    0.12 
   2   0   4    0.72    0.12 
  -3   0  -4   40.07    3.04 
   3   0   4   43.34    2.42 
   3   0   4   42.66    2.33 
  -4   0  -4   91.77    6.84 
   4   0   4   99.10    5.24 
   4   0   4   96.63    5.45 
   5   0   4   12.72    0.80 
   5   0   4   11.50    0.86 
   6   0   4   59.16    3.65 
   6   0   4   65.13    3.48 
   7   0   4    1.27    0.49 
   8   0   4    0.74    0.57 
   8  -1  -4    1.34    0.63 
   7  -1  -4   64.27    3.79 
   6  -1  -4   27.22    1.76 
   6  -1  -4   28.67    1.64 
   5  -1  -4   39.73    2.25 
   5  -1  -4   42.13    2.38 
  -5   1   4   38.27    3.02 
   4  -1  -4   57.26    3.24 
   4  -1  -4   61.00    4.33 
   4  -1  -4   58.74    3.39 
   3  -1  -4    1.21    0.30 
   3  -1  -4    1.22    0.17 
   3  -1  -4    1.22    0.20 
   2  -1  -4  106.42    5.80 
   2  -1  -4   98.46    7.40 
   2  -1  -4  103.37    5.58 
   1  -1  -4   17.97    1.57 
   1  -1  -4   22.86    1.16 
   0  -1  -4   -0.04    0.10 
   0   1   4   -0.07    0.05 
  -1  -1  -4  181.27   12.72 
   1   1   4  169.47    9.66 
   1   1   4  185.15   10.03 
  -2  -1  -4   27.78    2.00 
   2   1   4   25.77    1.48 
   2   1   4   26.85    1.55 
  -3  -1  -4    2.65    0.36 
   3   1   4    2.64    0.21 
   3   1   4    2.46    0.26 
  -4  -1  -4   50.48    3.89 
   4   1   4   56.99    2.95 
   4   1   4   52.36    3.07 
  -5  -1  -4   14.91    1.36 
   5   1   4   17.55    1.11 
   5   1   4   19.21    1.04 
   6   1   4   28.06    1.53 
   6   1   4   23.40    1.62 
   7   1   4    7.88    0.76 
   8   1   4    0.33    0.54 
   8  -2  -4    0.27    0.61 
   7  -2  -4   24.76    1.70 
   7  -2  -4   25.98    1.57 
   6  -2  -4    8.96    0.80 
   6  -2  -4    9.78    0.72 
   5  -2  -4    5.66    0.54 
   5  -2  -4    5.71    0.47 
   5  -2  -4    5.58    0.66 
   4  -2  -4   69.50    4.69 
   4  -2  -4   63.39    3.69 
   4  -2  -4   59.89    3.53 
   3  -2  -4    8.17    0.56 
   3  -2  -4    7.20    0.72 
   3  -2  -4    7.34    0.51 
   2  -2  -4  143.82   10.60 
   2  -2  -4  149.28    8.04 
  -2   2   4  151.32    8.35 
   1  -2  -4   98.76    7.11 
   1  -2  -4  101.49    5.38 
  -1   2   4   96.73    5.58 
   0  -2  -4    6.12    0.65 
   0  -2  -4    7.76    0.45 
   0   2   4    8.61    0.48 
  -1  -2  -4   33.05    2.45 
   1   2   4   34.90    1.89 
   1   2   4   30.87    1.80 
  -2  -2  -4    0.34    0.19 
   2   2   4    0.34    0.11 
   2   2   4    0.23    0.08 
  -3  -2  -4   41.82    3.05 
   3   2   4   40.73    2.38 
  -4  -2  -4    0.68    0.28 
   4   2   4    0.60    0.21 
  -5  -2  -4   14.62    1.26 
   5   2   4   14.87    0.98 
   6   2   4    4.80    0.52 
   7   2   4    2.51    0.48 
   8   2   4    4.03    0.66 
   8  -3  -4   10.10    1.03 
   7  -3  -4    0.50    0.39 
   7  -3  -4    0.02    0.56 
   6  -3  -4    4.56    0.61 
   6  -3  -4    5.35    0.52 
   5  -3  -4   21.34    1.36 
   5  -3  -4   24.65    1.80 
   5  -3  -4   22.07    1.45 
   4  -3  -4   13.41    1.18 
   4  -3  -4   14.93    0.90 
   3  -3  -4    1.03    0.29 
   3  -3  -4    0.69    0.18 
  -3   3   4    0.74    0.22 
   2  -3  -4   96.72    6.76 
   2  -3  -4   90.39    5.11 
  -2   3   4   94.30    5.31 
   1  -3  -4    2.49    0.40 
   1  -3  -4    2.48    0.23 
  -1   3   4    2.93    0.25 
   0  -3  -4    1.84    0.34 
   0  -3  -4    1.93    0.17 
   0   3   4    1.70    0.20 
  -1  -3  -4   48.85    3.80 
   1   3   4   50.62    2.82 
   1   3   4   55.30    2.95 
  -2  -3  -4    0.13    0.20 
   2   3   4    0.41    0.14 
  -3  -3  -4   62.72    4.61 
   3   3   4   63.08    3.60 
  -4  -3  -4   12.01    1.13 
   4   3   4   13.77    0.87 
  -5  -3  -4   20.48    1.73 
   5   3   4   21.67    1.33 
  -6  -3  -4   35.19    2.73 
   6   3   4   35.57    2.14 
   7   3   4    1.31    0.45 
   8   3   4   10.29    0.95 
   8  -4  -4    6.00    0.69 
  -8   4   4    6.83    0.86 
   7  -4  -4   23.08    1.49 
  -7   4   4   23.43    1.61 
   6  -4  -4   27.01    1.66 
  -6   4   4   27.67    1.76 
   5  -4  -4  107.17    5.64 
  -5   4   4   97.30    5.85 
   4  -4  -4    0.20    0.22 
   4  -4  -4    0.68    0.29 
  -4   4   4   -0.07    0.28 
   3  -4  -4   34.84    1.90 
   3  -4  -4   34.55    2.53 
  -3   4   4   30.78    1.97 
   2  -4  -4   38.16    2.14 
   2  -4  -4   39.62    2.88 
  -2   4   4   37.43    2.23 
   1  -4  -4   15.14    1.26 
   1  -4  -4   15.12    0.89 
  -1   4   4   15.69    0.96 
   0  -4  -4    0.93    0.31 
   0  -4  -4    1.14    0.15 
   0   4   4    1.31    0.21 
  -1  -4  -4    4.76    0.30 
  -1  -4  -4    3.46    0.52 
   1   4   4    4.49    0.39 
  -2  -4  -4   29.55    2.43 
   2   4   4   33.57    1.86 
  -3  -4  -4    1.02    0.36 
   3   4   4    0.89    0.23 
  -4  -4  -4    7.64    0.87 
   4   4   4    7.20    0.58 
  -5  -4  -4    3.65    0.63 
   5   4   4    3.68    0.42 
  -6  -4  -4    0.94    0.47 
   6   4   4   -0.15    0.33 
   7   4   4    5.78    0.66 
   8   4   4    1.93    0.61 
   7  -5  -4    4.42    0.57 
  -7   5   4    3.82    0.71 
   6  -5  -4    1.79    0.42 
  -6   5   4    1.39    0.53 
   5  -5  -4    0.10    0.29 
  -5   5   4   -0.44    0.38 
   4  -5  -4    6.11    0.71 
   4  -5  -4    6.67    0.55 
  -4   5   4    6.72    0.60 
   3  -5  -4   14.21    1.24 
   3  -5  -4   14.66    0.92 
  -3   5   4   15.53    0.99 
   2  -5  -4   13.70    0.87 
   2  -5  -4   13.70    1.24 
  -2   5   4   15.64    0.95 
   1  -5  -4   79.34    4.10 
   1  -5  -4   69.12    5.46 
  -1   5   4   74.96    4.27 
   0  -5  -4  163.29   13.13 
   0  -5  -4  189.73    9.92 
   0   5   4  195.41   10.33 
  -1  -5  -4    0.24    0.27 
  -1  -5  -4    0.48    0.13 
   1   5   4    0.12    0.23 
  -2  -5  -4   94.31    6.57 
   2   5   4   85.64    5.11 
  -3  -5  -4   87.15    6.03 
   3   5   4   77.21    4.67 
  -4  -5  -4   32.52    2.53 
   4   5   4   31.10    1.91 
  -5  -5  -4   46.65    3.69 
   5   5   4   49.15    2.85 
  -6  -5  -4    7.29    0.97 
   6   5   4    7.75    0.71 
  -7  -5  -4   29.63    2.39 
   7   5   4   26.92    1.80 
   8   5   4    0.48    0.56 
   7  -6  -4    4.51    0.62 
  -7   6   4    4.60    0.77 
   6  -6  -4   58.92    3.44 
  -6   6   4   61.83    3.61 
   5  -6  -4    3.40    0.45 
  -5   6   4    3.22    0.56 
   4  -6  -4   30.37    1.84 
  -4   6   4   32.59    1.94 
   3  -6  -4   90.06    6.44 
   3  -6  -4   88.91    4.88 
  -3   6   4   86.20    5.07 
   2  -6  -4   65.71    4.86 
   2  -6  -4   68.87    3.64 
  -2   6   4   62.39    3.79 
   1  -6  -4   17.31    1.05 
   1  -6  -4   16.52    1.51 
  -1   6   4   18.93    1.15 
   0  -6  -4    0.21    0.34 
   0  -6  -4   -0.06    0.16 
   0   6   4   -0.08    0.26 
  -1  -6  -4   13.31    1.32 
  -1  -6  -4   15.49    0.89 
   1   6   4   16.18    1.01 
  -2  -6  -4   25.31    2.13 
   2   6   4   26.90    1.61 
  -3  -6  -4    8.12    0.96 
   3   6   4    7.34    0.62 
  -4  -6  -4    0.98    0.50 
   4   6   4    1.01    0.33 
  -5  -6  -4   10.53    1.16 
   5   6   4    8.60    0.76 
  -6  -6  -4    1.76    0.65 
   6   6   4    2.82    0.49 
  -7  -6  -4    2.37    0.70 
   7   6   4    3.12    0.57 
   6  -7  -4   10.69    0.90 
  -6   7   4   11.99    1.06 
   5  -7  -4    1.08    0.39 
  -5   7   4    0.68    0.53 
   4  -7  -4   13.53    0.92 
  -4   7   4   13.02    1.06 
   3  -7  -4    5.77    0.50 
   3  -7  -4    4.73    0.74 
  -3   7   4    5.71    0.61 
   2  -7  -4    0.59    0.39 
   2  -7  -4    0.70    0.25 
  -2   7   4    0.43    0.37 
   1  -7  -4   40.76    2.32 
   1  -7  -4   43.69    3.21 
  -1   7   4   39.48    2.45 
   0  -7  -4   -0.03    0.19 
   0  -7  -4    0.41    0.43 
   0   7   4    0.57    0.33 
  -1  -7  -4   57.92    3.92 
  -1  -7  -4   48.67    2.81 
   1   7   4   48.27    2.99 
  -2  -7  -4   16.92    1.51 
   2   7   4   14.41    1.05 
  -3  -7  -4   23.97    1.95 
   3   7   4   20.49    1.39 
  -4  -7  -4   51.41    3.84 
   4   7   4   47.15    2.90 
  -5  -7  -4    0.56    0.65 
   5   7   4   -0.07    0.39 
  -6  -7  -4   19.77    2.01 
   6   7   4   21.93    1.45 
  -7  -7  -4    2.77    0.83 
   7   7   4    5.34    0.68 
   5  -8  -4   21.43    1.40 
  -5   8   4   21.75    1.57 
   4  -8  -4   11.06    0.86 
  -4   8   4   12.83    1.06 
   3  -8  -4    7.69    0.62 
  -3   8   4    6.01    0.72 
   2  -8  -4   32.16    2.60 
   2  -8  -4   32.57    1.86 
  -2   8   4   30.81    1.99 
   1  -8  -4    7.08    0.56 
   1  -8  -4    6.35    0.91 
  -1   8   4    7.48    0.68 
   0  -8  -4   11.10    1.23 
   0  -8  -4    9.59    0.68 
   0   8   4    9.76    0.83 
  -1  -8  -4    7.66    1.03 
   1   8   4    8.09    0.73 
  -2  -8  -4    0.55    0.57 
   2   8   4   -0.65    0.37 
  -3  -8  -4    0.65    0.57 
   3   8   4    0.94    0.40 
  -4  -8  -4    6.34    1.02 
   4   8   4    6.83    0.69 
  -5  -8  -4    1.51    0.73 
   5   8   4    1.05    0.47 
  -6  -8  -4    2.75    0.85 
   6   8   4    4.29    0.64 
   4  -9  -4   14.98    1.10 
  -4   9   4   16.73    1.29 
   3  -9  -4    7.51    0.68 
  -3   9   4    7.91    0.86 
   2  -9  -4   32.75    2.56 
   2  -9  -4   30.00    1.78 
  -2   9   4   28.04    1.94 
   1  -9  -4    1.49    0.58 
   1  -9  -4    0.19    0.32 
  -1   9   4    1.30    0.52 
   0  -9  -4   27.81    2.34 
   0  -9  -4   24.69    1.50 
   0   9   4   24.84    1.67 
  -1  -9  -4    5.77    0.99 
   1   9   4    5.70    0.69 
  -2  -9  -4   11.94    1.46 
   2   9   4   12.57    1.01 
  -3  -9  -4   29.03    2.41 
   3   9   4   23.10    1.63 
  -4  -9  -4    2.51    0.80 
   4   9   4    1.45    0.50 
  -5  -9  -4   17.77    1.96 
   5   9   4   18.91    1.35 
   3 -10  -4    9.11    0.78 
  -3  10   4    8.42    0.95 
   2 -10  -4    0.42    0.38 
  -2  10   4   -0.17    0.57 
   1 -10  -4    0.18    0.33 
   1 -10  -4    0.37    0.68 
  -1  10   4   -0.48    0.54 
   0 -10  -4   14.74    1.70 
   0  10   4   14.76    1.18 
  -1 -10  -4    2.88    0.88 
   1  10   4    2.70    0.63 
  -2 -10  -4    1.73    0.77 
   2  10   4    0.26    0.56 
  -3 -10  -4   15.42    1.84 
   3  10   4   16.63    1.22 
  -4 -10  -4    1.96    0.86 
   4  10   4    1.40    0.58 
   0 -11  -4   13.84    1.74 
   0  11   4   15.32    1.26 
  -1 -11  -4    4.42    1.13 
   1  11   4    4.10    0.75 
  -2 -11  -4   22.27    2.45 
  -4  -9   5    6.01    1.44 
  -3  -9   5   -0.04    1.02 
  -2  -9   5    6.32    1.34 
  -1  -9   5    5.64    1.19 
   0  -9   5   10.36    1.44 
   2  -9   5    4.68    0.61 
  -5  -8   5    6.97    1.40 
  -4  -8   5   -0.41    0.94 
  -3  -8   5    5.32    1.22 
  -2  -8   5    2.59    0.92 
  -1  -8   5   -0.18    0.68 
   0  -8   5    5.77    1.00 
   1  -8   5    3.61    0.49 
   2  -8   5    0.06    0.39 
   3  -8   5   10.05    0.86 
   4  -8   5    8.94    0.88 
  -6  -7   5    3.15    1.21 
  -5  -7   5   17.12    2.02 
  -4  -7   5    1.63    0.94 
  -3  -7   5   41.20    3.49 
  -2  -7   5    8.79    1.27 
  -1  -7   5   10.07    1.27 
   0  -7   5   36.13    2.88 
   0  -7   5   34.71    2.04 
   1  -7   5    2.72    0.66 
   1  -7   5    2.44    0.42 
   2  -7   5   10.18    0.81 
  -3   7  -5    0.58    0.49 
   3  -7   5    0.11    0.39 
  -4   7  -5    1.81    0.59 
   4  -7   5    2.22    0.53 
  -5   7  -5    1.22    0.65 
   5  -7   5   -0.16    0.53 
  -7  -6   5    0.51    1.00 
  -6  -6   5    0.49    0.95 
  -5  -6   5   -0.29    0.85 
  -4  -6   5    3.95    0.96 
  -3  -6   5    2.80    0.84 
  -2  -6   5   12.32    1.45 
  -1  -6   5    9.34    0.69 
  -1  -6   5   10.68    1.20 
   0  -6   5   34.00    2.63 
   0  -6   5   31.71    1.88 
   1  -6   5    5.96    0.86 
   1  -6   5    8.38    0.62 
   2  -6   5   36.63    2.13 
  -3   6  -5   23.73    1.47 
   3  -6   5   20.94    1.40 
  -4   6  -5    8.66    0.81 
   4  -6   5    9.50    0.79 
   5  -6   5   22.99    1.53 
  -6   6  -5   -0.01    0.62 
   6  -6   5   -0.81    0.53 
  -7  -5   5    0.41    0.90 
  -6  -5   5   39.28    3.40 
  -5  -5   5    2.42    0.88 
  -4  -5   5   36.96    3.06 
  -3  -5   5   20.76    1.92 
  -2  -5   5   15.38    1.48 
  -1  -5   5   23.87    1.96 
  -1  -5   5   22.51    1.34 
   0  -5   5    4.55    0.39 
   0  -5   5    2.57    0.58 
   1  -5   5   20.46    1.22 
   1  -5   5   19.83    1.67 
   2  -5   5    1.91    0.32 
   2  -5   5    1.13    0.37 
  -3   5  -5    1.36    0.35 
   3  -5   5    1.89    0.36 
  -4   5  -5   11.66    0.88 
   4  -5   5    9.20    0.81 
  -5   5  -5    0.08    0.51 
   5  -5   5   -0.22    0.41 
  -6   5  -5    0.05    0.56 
   6  -5   5    1.01    0.49 
  -8  -4   5    3.10    1.05 
   7   4  -5    6.97    0.77 
  -7  -4   5    8.11    1.37 
   6   4  -5    0.57    0.43 
  -6  -4   5    0.32    0.71 
  -5  -4   5   15.45    1.64 
  -4  -4   5    2.85    0.74 
  -3  -4   5    1.56    0.55 
  -2  -4   5   21.76    1.86 
  -1  -4   5    8.13    0.96 
  -1  -4   5    9.25    0.59 
   0  -4   5    0.16    0.19 
   0  -4   5   -0.10    0.31 
   1  -4   5   25.96    1.45 
   1  -4   5   23.32    1.93 
   2  -4   5   57.51    3.36 
   2  -4   5   63.30    4.42 
  -3   4  -5   36.35    2.22 
   3  -4   5   38.85    2.16 
  -4   4  -5   26.02    1.62 
   4  -4   5   25.59    1.58 
  -5   4  -5    0.46    0.46 
   5  -4   5    0.39    0.37 
   6  -4   5   36.71    2.21 
   7  -4   5    1.21    0.52 
   8   3  -5   13.29    1.16 
   7   3  -5   31.30    1.98 
  -7  -3   5   30.66    2.73 
   6   3  -5    0.12    0.38 
  -6  -3   5    0.30    0.61 
   5   3  -5   98.55    5.88 
  -5  -3   5  109.45    7.66 
  -4  -3   5   60.71    4.60 
  -3  -3   5   12.91    1.25 
  -2  -3   5  109.74    7.97 
  -1  -3   5    3.98    0.30 
  -1  -3   5    2.90    0.51 
   0  -3   5   19.02    1.54 
   0  -3   5   19.60    1.12 
   1  -3   5   29.37    1.74 
   1  -3   5   32.25    2.33 
   2  -3   5   13.25    1.06 
   2  -3   5   13.14    0.84 
   3  -3   5    6.86    0.56 
   3  -3   5    6.43    0.52 
   4  -3   5    8.86    0.72 
   4  -3   5    8.81    0.71 
   5  -3   5    0.03    0.38 
   5  -3   5    1.20    0.34 
   6  -3   5   14.40    1.02 
   6  -3   5   13.14    1.08 
   7  -3   5    0.14    0.41 
   7  -3   5   -0.09    0.56 
   8   2  -5   -0.56    0.58 
   7   2  -5   20.56    1.45 
  -7  -2   5   21.36    2.04 
   6   2  -5   -0.05    0.37 
  -6  -2   5   -0.59    0.54 
   5   2  -5    9.54    0.72 
  -5  -2   5    8.33    1.08 
  -4  -2   5   15.65    1.42 
  -3  -2   5   23.53    1.93 
  -2  -2   5   37.89    2.77 
  -2  -2   5   34.95    1.99 
  -1  -2   5   24.97    2.15 
  -1  -2   5   30.68    1.58 
   0  -2   5   28.70    2.34 
   0  -2   5   33.50    1.75 
   1  -2   5   81.82    4.53 
   1  -2   5   84.31    5.98 
   2  -2   5   15.80    0.98 
   2  -2   5   16.94    1.26 
   3  -2   5   60.23    3.40 
   3  -2   5   62.45    3.52 
   4  -2   5    1.20    0.31 
   4  -2   5    1.13    0.27 
   5  -2   5   29.69    1.77 
   5  -2   5   30.00    1.84 
   6  -2   5    7.42    0.74 
   6  -2   5    7.83    0.66 
   7  -2   5   15.79    1.23 
   7  -2   5   16.72    1.15 
   8  -2   5   -0.36    0.62 
   8   1  -5   20.63    1.52 
   7   1  -5    2.79    0.57 
  -7  -1   5    1.60    0.72 
   6   1  -5   60.01    3.39 
  -6  -1   5   55.36    4.40 
   5   1  -5   19.75    1.27 
  -5  -1   5   19.82    1.73 
   4   1  -5   66.02    3.78 
  -4  -1   5   66.05    4.90 
  -3  -1   5   12.04    0.73 
  -3  -1   5   13.63    1.14 
   2   1  -5   28.28    2.08 
  -2  -1   5   25.78    1.49 
   1   1  -5   56.23    4.52 
  -1  -1   5   67.20    3.40 
   0   1  -5    7.62    0.72 
   0  -1   5    8.42    0.51 
  -1   1  -5  250.79   17.97 
   1  -1   5  254.71   13.68 
  -2   1  -5    5.48    0.52 
   2  -1   5    6.38    0.42 
  -3   1  -5   83.11    6.16 
   3  -1   5   89.73    4.91 
   3  -1   5   86.39    4.73 
   4  -1   5   16.61    1.04 
   4  -1   5   17.19    1.09 
   5  -1   5    0.18    0.26 
   5  -1   5   -0.06    0.33 
   6  -1   5   22.15    1.45 
   6  -1   5   21.37    1.35 
   7  -1   5    8.77    0.86 
   7  -1   5    8.86    0.79 
   8  -1   5   11.31    1.05 
   8   0  -5    4.98    0.75 
   7   0  -5   -0.22    0.49 
   6   0  -5   -0.45    0.40 
  -6   0   5    0.57    0.46 
   5   0  -5   23.28    1.41 
   5   0  -5   25.22    1.51 
  -5   0   5   24.68    2.02 
   4   0  -5    4.45    0.37 
   4   0  -5    4.13    0.39 
   4   0  -5    3.44    0.54 
   3   0  -5   75.91    4.13 
   3   0  -5   75.40    5.53 
   2   0  -5    3.88    0.50 
  -2   0   5    3.55    0.27 
   1   0  -5   76.04    5.61 
  -1   0   5   78.41    4.21 
   0   0  -5   68.14    5.15 
   0   0   5   73.65    3.87 
  -1   0  -5   63.27    4.84 
   1   0   5   70.39    3.66 
  -2   0  -5   45.97    3.34 
   2   0   5   46.68    2.62 
   2   0   5   44.93    2.53 
  -3   0  -5    2.78    0.37 
   3   0   5    3.85    0.32 
   3   0   5    3.69    0.31 
  -4   0  -5   89.82    6.50 
   4   0   5   91.29    5.17 
   4   0   5   91.13    4.97 
   5   0   5   17.70    1.14 
   5   0   5   16.60    1.07 
   6   0   5    1.35    0.42 
   6   0   5    1.41    0.30 
   7   0   5    5.60    0.67 
   8   0   5    0.87    0.59 
   8  -1  -5    0.38    0.62 
   7  -1  -5    9.48    0.88 
   6  -1  -5   29.56    1.59 
   6  -1  -5   26.97    1.69 
  -6   1   5   23.35    2.16 
   5  -1  -5   -0.11    0.29 
   5  -1  -5    0.00    0.23 
  -5   1   5    0.29    0.35 
   4  -1  -5   79.51    4.24 
   4  -1  -5   79.98    4.42 
   4  -1  -5   72.03    5.64 
   3  -1  -5   13.58    0.80 
   3  -1  -5   12.39    1.14 
   3  -1  -5   13.86    0.84 
   2  -1  -5    0.06    0.10 
   2  -1  -5    0.21    0.20 
   1  -1  -5   23.12    1.77 
  -1   1   5   22.65    1.27 
   0  -1  -5    4.87    0.52 
   0   1   5    5.22    0.34 
  -1  -1  -5    0.85    0.21 
   1   1   5    1.03    0.13 
  -2  -1  -5   79.34    5.34 
   2   1   5   69.98    4.02 
   2   1   5   72.49    4.17 
  -3  -1  -5   29.17    2.08 
   3   1   5   27.05    1.61 
   3   1   5   26.25    1.53 
  -4  -1  -5   32.78    2.68 
   4   1   5   39.23    2.03 
   4   1   5   36.48    2.13 
   5   1   5   66.91    4.10 
   5   1   5   75.55    3.94 
   6   1   5    0.47    0.26 
   6   1   5    0.34    0.32 
   7   1   5   25.83    1.68 
   8   1   5    4.08    0.70 
   8  -2  -5    5.30    0.80 
   7  -2  -5    9.39    0.89 
   7  -2  -5    9.55    0.80 
   6  -2  -5   26.06    1.53 
   6  -2  -5   24.79    1.64 
   5  -2  -5    4.22    0.61 
   5  -2  -5    5.29    0.51 
   5  -2  -5    4.92    0.44 
   4  -2  -5  110.51    7.76 
   4  -2  -5  109.49    6.10 
   4  -2  -5  102.05    5.85 
   3  -2  -5   28.74    1.57 
   3  -2  -5   26.50    2.14 
   2  -2  -5    3.32    0.47 
   2  -2  -5    3.43    0.29 
  -2   2   5    3.82    0.33 
   1  -2  -5  221.36   16.14 
   1  -2  -5  230.27   12.25 
  -1   2   5  227.71   12.71 
   0  -2  -5    4.78    0.55 
   0   2   5    6.26    0.38 
   0   2   5    5.46    0.35 
  -1  -2  -5   59.54    4.21 
   1   2   5   54.02    3.14 
   1   2   5   59.41    3.26 
  -2  -2  -5    5.38    0.55 
   2   2   5    4.48    0.35 
   2   2   5    5.56    0.38 
  -3  -2  -5   83.89    5.78 
   3   2   5   75.09    4.33 
   3   2   5   80.09    4.52 
  -4  -2  -5   23.00    1.70 
   4   2   5   22.15    1.21 
   4   2   5   18.54    1.29 
  -5  -2  -5   30.46    2.28 
   5   2   5   28.38    1.77 
   6   2   5    1.94    0.39 
   7   2   5    0.69    0.41 
   8   2   5    6.62    0.77 
   8  -3  -5    4.12    0.77 
   7  -3  -5    1.33    0.44 
   7  -3  -5    1.30    0.59 
   6  -3  -5    7.47    0.71 
   6  -3  -5    6.38    0.59 
   5  -3  -5    3.11    0.51 
   5  -3  -5    3.19    0.38 
   4  -3  -5   24.31    2.06 
   4  -3  -5   27.31    1.54 
  -4   3   5   27.88    1.62 
   3  -3  -5   11.43    0.98 
   3  -3  -5    9.75    0.67 
  -3   3   5   10.97    0.74 
   2  -3  -5   60.76    3.41 
   2  -3  -5   59.43    4.55 
  -2   3   5   65.90    3.55 
   1  -3  -5   18.34    1.73 
   1  -3  -5   23.84    1.27 
  -1   3   5   24.19    1.33 
   0  -3  -5   24.04    1.28 
   0  -3  -5   19.62    1.76 
   0   3   5   24.14    1.35 
  -1  -3  -5  209.63   13.34 
   1   3   5  166.35   10.06 
   1   3   5  184.57   10.47 
  -2  -3  -5    2.64    0.45 
   2   3   5    2.15    0.20 
   2   3   5    2.71    0.25 
  -3  -3  -5   77.40    5.69 
   3   3   5   78.65    4.45 
  -4  -3  -5   49.26    3.63 
   4   3   5   48.08    2.83 
  -5  -3  -5    2.76    0.51 
   5   3   5    2.87    0.38 
  -6  -3  -5   37.90    2.98 
   6   3   5   40.19    2.35 
   7   3   5    1.91    0.46 
   8   3   5   11.78    1.03 
   7  -4  -5   43.24    2.58 
  -7   4   5   45.03    2.71 
   6  -4  -5    4.26    0.50 
  -6   4   5    4.09    0.58 
   5  -4  -5  110.29    5.98 
  -5   4   5  106.94    6.21 
   4  -4  -5    6.14    0.53 
   4  -4  -5    6.02    0.73 
  -4   4   5    6.86    0.57 
   3  -4  -5   29.59    2.24 
   3  -4  -5   30.03    1.66 
  -3   4   5   27.15    1.73 
   2  -4  -5   98.88    5.29 
   2  -4  -5   89.05    7.01 
  -2   4   5  102.45    5.50 
   1  -4  -5   77.07    4.18 
   1  -4  -5   74.66    5.59 
  -1   4   5   77.50    4.35 
   0  -4  -5  153.76   10.65 
   0  -4  -5  142.87    8.02 
   0   4   5  147.96    8.35 
  -1  -4  -5   16.25    0.93 
  -1  -4  -5   14.25    1.35 
   1   4   5   18.20    1.02 
  -2  -4  -5   33.37    2.49 
   2   4   5   31.18    1.88 
  -3  -4  -5   56.40    4.12 
   3   4   5   54.45    3.19 
  -4  -4  -5    2.94    0.53 
   4   4   5    2.61    0.33 
  -5  -4  -5    0.85    0.40 
   5   4   5    1.08    0.31 
  -6  -4  -5    1.83    0.52 
   6   4   5    2.24    0.41 
   7   4   5    2.87    0.51 
   8   4   5    1.22    0.57 
   7  -5  -5    0.64    0.43 
  -7   5   5   -0.66    0.56 
   6  -5  -5    1.60    0.42 
  -6   5   5    2.46    0.55 
   5  -5  -5    0.62    0.32 
  -5   5   5    0.63    0.42 
   4  -5  -5    0.00    0.24 
   4  -5  -5   -0.01    0.34 
  -4   5   5   -0.14    0.32 
   3  -5  -5   11.83    0.75 
   3  -5  -5    9.57    1.03 
  -3   5   5   12.62    0.83 
   2  -5  -5   28.67    2.17 
   2  -5  -5   26.49    1.56 
  -2   5   5   26.95    1.64 
   1  -5  -5   -0.14    0.14 
   1  -5  -5   -0.07    0.27 
  -1   5   5    0.04    0.24 
   0  -5  -5  194.81   13.85 
   0  -5  -5  189.75   10.45 
   0   5   5  194.46   10.88 
  -1  -5  -5    6.79    0.83 
  -1  -5  -5    7.87    0.48 
   1   5   5    7.60    0.59 
  -2  -5  -5   47.31    3.65 
   2   5   5   49.43    2.82 
  -3  -5  -5   67.77    4.86 
   3   5   5   63.07    3.75 
  -4  -5  -5    8.00    0.93 
   4   5   5    7.20    0.62 
  -5  -5  -5   51.09    3.91 
   5   5   5   51.26    3.02 
  -6  -5  -5    0.96    0.49 
   6   5   5    1.08    0.39 
   7   5   5    8.43    0.79 
   7  -6  -5   -0.15    0.46 
  -7   6   5    0.42    0.65 
   6  -6  -5   39.65    2.34 
  -6   6   5   39.62    2.48 
   5  -6  -5   13.61    0.96 
  -5   6   5   13.66    1.07 
   4  -6  -5    9.28    0.71 
  -4   6   5    9.58    0.82 
   3  -6  -5   91.81    5.16 
   3  -6  -5  100.09    6.86 
  -3   6   5   90.03    5.37 
   2  -6  -5    2.40    0.56 
   2  -6  -5    3.24    0.33 
  -2   6   5    3.50    0.41 
   1  -6  -5   63.08    5.16 
   1  -6  -5   72.95    3.84 
  -1   6   5   72.34    4.02 
   0  -6  -5    4.19    0.67 
   0  -6  -5    4.55    0.37 
   0   6   5    4.41    0.44 
  -1  -6  -5    8.25    0.95 
  -1  -6  -5    8.25    0.54 
   1   6   5    8.75    0.66 
  -2  -6  -5   18.11    1.70 
   2   6   5   22.49    1.31 
  -3  -6  -5    2.50    0.55 
   3   6   5    1.91    0.34 
  -4  -6  -5    0.94    0.51 
   4   6   5    0.75    0.33 
  -5  -6  -5    7.63    1.00 
   5   6   5    7.65    0.69 
  -6  -6  -5    1.37    0.65 
   6   6   5    1.57    0.45 
  -7  -6  -5    0.10    0.60 
   7   6   5    0.22    0.47 
   6  -7  -5    2.27    0.50 
  -6   7   5    2.17    0.64 
   5  -7  -5    3.49    0.49 
  -5   7   5    3.80    0.65 
   4  -7  -5    3.43    0.44 
  -4   7   5    3.92    0.57 
   3  -7  -5    9.87    1.06 
   3  -7  -5    9.56    0.70 
  -3   7   5    9.12    0.82 
   2  -7  -5    1.42    0.49 
   2  -7  -5    1.03    0.27 
  -2   7   5    0.80    0.37 
   1  -7  -5    4.03    0.72 
   1  -7  -5    4.85    0.41 
  -1   7   5    4.46    0.50 
   0  -7  -5   14.54    1.33 
   0  -7  -5   12.58    0.81 
   0   7   5   12.69    0.94 
  -1  -7  -5   33.95    1.96 
  -1  -7  -5   36.98    2.83 
   1   7   5   35.07    2.12 
  -2  -7  -5   38.38    2.86 
   2   7   5   33.16    2.13 
  -3  -7  -5    9.68    1.13 
   3   7   5    9.01    0.74 
  -4  -7  -5   49.25    3.59 
   4   7   5   41.93    2.68 
  -5  -7  -5    7.16    0.97 
   5   7   5    4.67    0.60 
  -6  -7  -5   18.02    1.83 
   6   7   5   16.84    1.25 
  -7  -7  -5    7.67    1.18 
   7   7   5    8.47    0.84 
   5  -8  -5   17.91    1.20 
  -5   8   5   17.45    1.37 
   4  -8  -5   22.15    1.40 
  -4   8   5   22.59    1.54 
   3  -8  -5   -0.36    0.30 
  -3   8   5    0.28    0.48 
   2  -8  -5   21.10    1.25 
   2  -8  -5   21.37    1.86 
  -2   8   5   18.55    1.38 
   1  -8  -5   31.00    2.42 
   1  -8  -5   29.17    1.66 
  -1   8   5   26.07    1.79 
   0  -8  -5   -0.21    0.22 
   0  -8  -5   -0.02    0.50 
   0   8   5    0.24    0.42 
  -1  -8  -5   17.93    1.65 
   1   8   5   15.30    1.15 
  -2  -8  -5    2.20    0.68 
   2   8   5    1.73    0.46 
  -3  -8  -5    0.10    0.50 
   3   8   5   -0.28    0.37 
  -4  -8  -5   10.33    1.25 
   4   8   5    8.45    0.80 
  -5  -8  -5    1.53    0.69 
   5   8   5    0.72    0.46 
  -6  -8  -5    4.48    0.94 
   6   8   5    3.70    0.62 
   4  -9  -5   13.78    0.99 
  -4   9   5   13.19    1.18 
   3  -9  -5    3.24    0.47 
  -3   9   5    3.32    0.65 
   2  -9  -5   35.66    2.03 
   2  -9  -5   41.11    2.92 
  -2   9   5   29.39    2.18 
   1  -9  -5    5.99    0.53 
   1  -9  -5    6.58    1.03 
  -1   9   5    6.32    0.71 
   0  -9  -5   19.37    1.17 
   0  -9  -5   18.91    1.86 
   0   9   5   18.93    1.34 
  -1  -9  -5   22.14    2.14 
   1   9   5   21.76    1.48 
  -2  -9  -5    1.01    0.65 
   2   9   5   -1.16    0.44 
  -3  -9  -5   36.17    3.04 
   3   9   5   35.62    2.22 
  -4  -9  -5    4.06    0.89 
   4   9   5    3.14    0.56 
  -5  -9  -5    6.06    1.12 
   5   9   5    6.92    0.76 
   3 -10  -5    8.53    0.78 
  -3  10   5    9.74    0.98 
   2 -10  -5    0.42    0.36 
  -2  10   5    0.58    0.58 
   1 -10  -5    1.66    0.80 
   1 -10  -5    0.99    0.35 
  -1  10   5    0.63    0.58 
   0 -10  -5   12.91    1.52 
   0  10   5   12.62    1.09 
  -1 -10  -5    7.03    1.18 
   1  10   5    6.32    0.77 
  -2 -10  -5    1.27    0.78 
   2  10   5   -0.43    0.54 
  -3 -10  -5   21.21    2.10 
   3  10   5   19.06    1.40 
  -4 -10  -5    9.82    1.42 
   4  10   5   10.78    0.97 
   1 -11  -5    3.75    1.07 
   0 -11  -5   21.48    2.35 
   0  11   5   25.51    1.71 
  -1 -11  -5   -0.12    0.83 
   1  11   5   -0.67    0.61 
  -2 -11  -5   18.54    2.13 
  -3  -9   6    3.36    1.24 
  -2  -9   6    5.21    1.23 
  -1  -9   6   13.65    1.76 
   0  -9   6   -0.50    0.75 
  -5  -8   6    1.57    1.19 
  -4  -8   6    1.17    1.09 
  -3  -8   6    3.12    1.13 
  -2  -8   6    6.57    1.31 
  -1  -8   6    2.56    0.86 
   0  -8   6   10.43    1.42 
   1  -8   6    6.72    0.66 
   2  -8   6    3.94    0.55 
   3  -8   6    3.68    0.60 
  -6  -7   6    0.83    1.16 
  -5  -7   6   10.24    1.62 
  -4  -7   6    9.92    1.57 
  -3  -7   6   22.79    2.38 
  -2  -7   6   17.25    1.91 
  -1  -7   6    3.05    0.90 
   0  -7   6   14.11    0.97 
   0  -7   6   14.27    1.59 
   1  -7   6    2.39    0.43 
   1  -7   6    1.79    0.64 
   2  -7   6    9.76    0.81 
   3  -7   6    0.64    0.45 
   4  -7   6    5.17    0.67 
   5  -7   6    2.67    0.68 
  -6  -6   6    0.36    1.17 
  -5  -6   6    1.13    1.00 
  -4  -6   6    3.54    1.02 
  -3  -6   6   -0.17    0.76 
  -2  -6   6    2.47    0.84 
  -1  -6   6    2.45    0.74 
  -1  -6   6    2.23    0.33 
   0  -6   6   14.13    1.59 
   0  -6   6   14.73    0.97 
   1  -6   6    0.70    0.33 
   1  -6   6    0.90    0.53 
   2  -6   6   24.36    1.51 
   3  -6   6   21.29    1.36 
  -4   6  -6   10.77    0.94 
   4  -6   6    9.64    0.88 
  -5   6  -6   15.50    1.22 
   5  -6   6   14.57    1.15 
  -6   6  -6    7.57    0.91 
   6  -6   6    8.64    0.89 
  -7  -5   6    0.62    1.01 
  -6  -5   6   30.43    2.88 
  -5  -5   6   20.73    2.15 
  -4  -5   6   12.54    1.42 
  -3  -5   6   52.63    4.15 
  -2  -5   6    1.79    0.29 
  -2  -5   6    1.54    0.65 
  -1  -5   6   50.92    2.99 
  -1  -5   6   58.13    4.15 
   0  -5   6   -0.04    0.42 
   0  -5   6    0.38    0.25 
   1  -5   6   73.10    5.31 
   1  -5   6   70.50    3.98 
   2  -5   6    5.98    0.76 
   3  -5   6    4.23    0.51 
  -4   5  -6    6.41    0.69 
   4  -5   6    7.79    0.68 
  -5   5  -6    0.89    0.55 
   5  -5   6   -0.48    0.44 
  -6   5  -6   -0.40    0.59 
   6  -5   6   -0.51    0.48 
  -7  -4   6    1.62    0.97 
  -6  -4   6    8.53    1.28 
  -5  -4   6    0.86    0.70 
  -4  -4   6    3.97    0.84 
  -3  -4   6   14.16    1.48 
  -2  -4   6    0.31    0.42 
  -2  -4   6    0.22    0.20 
  -1  -4   6   53.37    3.10 
  -1  -4   6   59.93    4.25 
   0  -4   6    5.20    0.76 
   0  -4   6    7.03    0.51 
   1  -4   6    7.77    0.86 
   1  -4   6    8.21    0.60 
   2  -4   6   77.52    4.47 
   2  -4   6   84.47    5.88 
   3  -4   6    4.80    0.47 
  -4   4  -6   72.76    3.94 
   4  -4   6   62.61    3.81 
  -5   4  -6   -0.83    0.43 
   5  -4   6    0.03    0.38 
   6  -4   6   12.54    1.02 
   7  -4   6   26.13    1.72 
  -7  -3   6   16.39    1.83 
  -6  -3   6    8.73    1.21 
  -5  -3   6    2.36    0.80 
  -4  -3   6   46.34    3.61 
  -3  -3   6    0.03    0.41 
  -2  -3   6    7.57    0.90 
  -2  -3   6    8.98    0.57 
  -1  -3   6   45.83    3.44 
  -1  -3   6   45.02    2.52 
   0  -3   6    0.64    0.19 
   0  -3   6    0.83    0.39 
   1  -3   6   43.07    3.19 
   1  -3   6   42.58    2.39 
   2  -3   6    2.28    0.39 
   2  -3   6    3.24    0.32 
   3  -3   6    1.44    0.30 
   4  -3   6    0.90    0.31 
   4  -3   6    0.19    0.34 
   5  -3   6    4.41    0.50 
   5  -3   6    2.54    0.51 
   6  -3   6    2.15    0.55 
   6  -3   6    2.34    0.47 
   7  -3   6    5.53    0.67 
   7  -3   6    6.58    0.79 
   8   2  -6    7.83    0.90 
   7   2  -6    1.80    0.54 
  -7  -2   6    2.47    0.81 
  -6  -2   6    7.85    1.12 
  -5  -2   6   17.75    1.69 
  -4  -2   6   16.98    1.57 
  -3  -2   6    0.22    0.38 
  -3  -2   6    0.26    0.17 
  -2  -2   6   17.73    1.65 
  -2  -2   6   21.56    1.16 
  -1  -2   6    3.58    0.31 
  -1  -2   6    2.63    0.47 
   0   2  -6   40.49    3.11 
   0  -2   6   42.78    2.32 
  -1   2  -6   75.06    5.43 
   1  -2   6   74.74    4.11 
   2  -2   6   58.37    3.34 
   2  -2   6   62.66    4.38 
   3  -2   6   14.57    1.11 
   3  -2   6   13.94    0.92 
   4  -2   6   20.42    1.31 
   4  -2   6   21.08    1.29 
   5  -2   6   42.38    2.46 
   5  -2   6   42.88    2.55 
   6  -2   6    8.57    0.72 
   6  -2   6    8.67    0.80 
   7  -2   6    5.03    0.59 
   7  -2   6    5.36    0.70 
   8  -2   6   -1.19    0.61 
   8   1  -6   12.08    1.11 
   7   1  -6    9.64    0.91 
  -7  -1   6   11.21    1.34 
   6   1  -6   18.88    1.24 
  -6  -1   6   17.28    1.77 
   5   1  -6   10.57    0.77 
  -5  -1   6   10.19    1.17 
  -4  -1   6    2.96    0.58 
  -4  -1   6    2.35    0.25 
   3   1  -6   50.81    3.64 
  -3  -1   6   46.23    2.65 
   2   1  -6    3.82    0.53 
  -2  -1   6    3.32    0.29 
   1   1  -6    6.66    0.76 
  -1  -1   6    9.02    0.53 
   0   1  -6    9.33    0.88 
   0  -1   6   10.45    0.62 
  -1   1  -6   12.26    1.06 
   1  -1   6   13.28    0.78 
  -2   1  -6    4.95    0.52 
   2  -1   6    5.87    0.42 
  -3   1  -6    7.93    0.71 
   3  -1   6    8.71    0.60 
   3  -1   6    9.55    0.63 
   4  -1   6    0.54    0.27 
   4  -1   6    0.68    0.24 
   5  -1   6   10.79    0.80 
   5  -1   6   10.64    0.84 
   6  -1   6   15.19    1.02 
   6  -1   6   14.16    1.09 
   7  -1   6    0.10    0.35 
   7  -1   6   -0.36    0.51 
   8  -1   6   14.23    1.21 
   8   0  -6    3.19    0.67 
   7   0  -6    5.31    0.68 
   6   0  -6    6.64    0.64 
  -6   0   6    5.28    0.86 
   5   0  -6   43.40    2.49 
   5   0  -6   39.98    2.36 
  -5   0   6   43.90    3.30 
   4   0  -6   56.91    4.48 
   4   0  -6   61.57    3.46 
   4   0  -6   61.53    3.32 
   3   0  -6  113.67    8.12 
  -3   0   6  110.54    6.09 
   2   0  -6   83.45    6.74 
  -2   0   6  101.28    5.06 
   1   0  -6    2.40    0.41 
  -1   0   6    2.47    0.22 
   0   0  -6  239.99   17.78 
   0   0   6  258.36   13.50 
  -1   0  -6   68.35    5.08 
   1   0   6   71.00    3.82 
  -2   0  -6  372.37   26.95 
   2   0   6  386.88   20.52 
  -3   0  -6    0.81    0.23 
   3   0   6    0.62    0.17 
   3   0   6    0.86    0.19 
  -4   0  -6   56.15    4.18 
   4   0   6   58.90    3.20 
   4   0   6   57.97    3.33 
   5   0   6   82.97    4.57 
   5   0   6   82.38    4.75 
   6   0   6    5.18    0.62 
   6   0   6    6.52    0.54 
   7   0   6    5.06    0.65 
   8   0   6    0.17    0.60 
   8  -1  -6   10.13    0.98 
   7  -1  -6    2.63    0.57 
   6  -1  -6   28.73    1.61 
   6  -1  -6   25.50    1.70 
  -6   1   6   26.61    2.25 
   5  -1  -6    2.72    0.33 
   5  -1  -6    2.40    0.52 
   5  -1  -6    2.00    0.38 
   4  -1  -6   30.31    1.76 
   4  -1  -6   32.22    2.45 
   3  -1  -6   41.94    2.33 
   3  -1  -6   39.07    3.18 
   3  -1  -6   44.38    2.43 
   2  -1  -6   18.63    1.54 
   2  -1  -6   18.86    1.08 
   1  -1  -6   35.90    3.06 
  -1   1   6   45.03    2.26 
   0  -1  -6    3.49    0.47 
   0   1   6    3.21    0.27 
  -1  -1  -6   11.91    1.04 
   1   1   6   12.95    0.75 
  -2  -1  -6   57.94    3.93 
   2   1   6   53.64    3.03 
   2   1   6   49.11    2.93 
  -3  -1  -6   17.79    1.46 
   3   1   6   19.11    1.08 
   3   1   6   18.45    1.12 
  -4  -1  -6    6.29    0.70 
   4   1   6    7.12    0.51 
   4   1   6    7.19    0.55 
   5   1   6   65.62    3.90 
   5   1   6   69.42    3.74 
   6   1   6    0.12    0.33 
   6   1   6    1.14    0.30 
   7   1   6   19.12    1.34 
   8   1   6    5.80    0.77 
   8  -2  -6    6.93    0.87 
   7  -2  -6    0.42    0.42 
   7  -2  -6   -0.06    0.51 
   6  -2  -6   64.25    3.86 
   6  -2  -6   67.80    3.69 
   5  -2  -6   15.89    1.39 
   5  -2  -6   14.78    0.96 
   5  -2  -6   14.88    1.04 
   4  -2  -6   49.00    2.98 
   4  -2  -6   58.39    3.13 
   4  -2  -6   54.78    4.04 
   3  -2  -6   41.96    2.28 
   3  -2  -6   38.90    3.10 
  -3   2   6   41.51    2.37 
   2  -2  -6   11.20    1.13 
   2  -2  -6   13.31    0.78 
  -2   2   6   14.02    0.81 
   1  -2  -6  187.34   10.06 
   1  -2  -6  184.31   13.30 
   0  -2  -6    9.68    0.88 
   0   2   6    9.70    0.58 
  -1  -2  -6   42.89    3.05 
   1   2   6   41.48    2.32 
   1   2   6   37.99    2.24 
  -2  -2  -6   14.27    1.12 
   2   2   6   11.76    0.76 
   2   2   6   13.14    0.80 
  -3  -2  -6    2.39    0.44 
   3   2   6    2.52    0.23 
   3   2   6    2.88    0.28 
  -4  -2  -6   27.99    2.05 
   4   2   6   25.11    1.47 
   4   2   6   25.33    1.56 
  -5  -2  -6   13.28    1.28 
   5   2   6   16.21    0.92 
   5   2   6   14.42    0.98 
   6   2   6   16.29    1.11 
   7   2   6    0.47    0.42 
   8   2   6    1.36    0.56 
   7  -3  -6   27.12    1.69 
   6  -3  -6    2.49    0.42 
   5  -3  -6    4.27    0.65 
   5  -3  -6    5.39    0.47 
  -5   3   6    4.98    0.56 
   4  -3  -6    4.53    0.64 
   4  -3  -6    4.52    0.41 
  -4   3   6    4.92    0.46 
   3  -3  -6    1.22    0.40 
   3  -3  -6    1.54    0.23 
  -3   3   6    1.26    0.27 
   2  -3  -6   75.17    5.58 
   2  -3  -6   75.06    4.17 
  -2   3   6   78.50    4.33 
   1  -3  -6    0.66    0.28 
   1  -3  -6    0.61    0.14 
  -1   3   6    0.46    0.17 
   0  -3  -6    7.66    0.50 
   0  -3  -6    7.34    0.79 
   0   3   6    8.91    0.55 
  -1  -3  -6   82.74    6.58 
   1   3   6   86.92    4.93 
   1   3   6  101.74    5.14 
  -2  -3  -6    6.01    0.68 
   2   3   6    6.43    0.46 
   2   3   6    5.96    0.42 
  -3  -3  -6   18.21    1.46 
   3   3   6   16.55    1.00 
   3   3   6   17.97    1.08 
  -4  -3  -6   44.41    3.24 
   4   3   6   40.85    2.48 
  -5  -3  -6    3.66    0.62 
   5   3   6    3.91    0.44 
   6   3   6   21.41    1.38 
   7   3   6    6.45    0.68 
   8   3   6    5.46    0.73 
   7  -4  -6   30.25    1.83 
  -7   4   6   28.80    1.93 
   6  -4  -6   36.76    2.11 
  -6   4   6   34.69    2.21 
   5  -4  -6   49.00    3.78 
   5  -4  -6   49.56    2.84 
  -5   4   6   51.94    2.97 
   4  -4  -6   17.23    1.52 
   4  -4  -6   17.20    1.09 
  -4   4   6   18.63    1.17 
   3  -4  -6   14.25    1.36 
   3  -4  -6   16.66    0.98 
  -3   4   6   17.19    1.04 
   2  -4  -6   93.04    5.03 
   2  -4  -6   85.70    6.69 
  -2   4   6   96.74    5.23 
   1  -4  -6    5.09    0.38 
   1  -4  -6    5.03    0.66 
  -1   4   6    5.30    0.45 
   0  -4  -6   48.05    4.19 
   0  -4  -6   57.40    3.11 
   0   4   6   63.53    3.26 
  -1  -4  -6    7.94    0.83 
   1   4   6    9.02    0.59 
   1   4   6    7.91    0.52 
  -2  -4  -6    0.23    0.30 
   2   4   6    0.38    0.14 
   2   4   6    0.48    0.20 
  -3  -4  -6   20.51    1.71 
   3   4   6   19.99    1.24 
  -4  -4  -6    0.07    0.32 
   4   4   6    0.09    0.23 
  -5  -4  -6    0.35    0.41 
   5   4   6    0.46    0.29 
  -6  -4  -6   14.09    1.35 
   6   4   6   14.11    1.01 
   7   4   6    0.00    0.41 
   8   4   6   -0.21    0.54 
   7  -5  -6    3.82    0.58 
  -7   5   6    4.75    0.75 
   6  -5  -6    2.99    0.48 
  -6   5   6    2.27    0.58 
   5  -5  -6    8.50    0.69 
  -5   5   6    7.85    0.74 
   4  -5  -6    1.06    0.28 
   4  -5  -6    1.09    0.42 
  -4   5   6    0.68    0.37 
   3  -5  -6    1.66    0.27 
   3  -5  -6    2.25    0.48 
  -3   5   6    1.15    0.33 
   2  -5  -6   20.22    1.80 
   2  -5  -6   22.71    1.29 
  -2   5   6   22.77    1.37 
   1  -5  -6    9.36    1.01 
   1  -5  -6   10.69    0.66 
  -1   5   6   10.57    0.75 
   0  -5  -6    8.30    0.87 
   0  -5  -6    7.29    0.51 
   0   5   6    8.12    0.61 
  -1  -5  -6   24.04    1.40 
  -1  -5  -6   27.14    2.03 
   1   5   6   24.14    1.50 
  -2  -5  -6   11.35    1.08 
   2   5   6   10.84    0.72 
   2   5   6    9.56    0.63 
  -3  -5  -6   68.07    5.03 
   3   5   6   66.87    3.88 
  -4  -5  -6   -0.10    0.35 
   4   5   6    0.12    0.25 
  -5  -5  -6   73.02    5.07 
   5   5   6   62.43    3.91 
  -6  -5  -6   12.64    1.33 
   6   5   6   12.04    0.93 
   7   5   6    4.34    0.61 
   7  -6  -6    3.69    0.63 
  -7   6   6    4.66    0.80 
   6  -6  -6   27.34    1.70 
  -6   6   6   27.43    1.84 
   5  -6  -6   33.43    2.02 
  -5   6   6   34.87    2.13 
   4  -6  -6    0.70    0.47 
   4  -6  -6    0.17    0.29 
  -4   6   6    0.63    0.41 
   3  -6  -6   67.09    3.81 
   3  -6  -6   67.77    5.10 
  -3   6   6   71.15    3.98 
   2  -6  -6   19.06    1.15 
   2  -6  -6   18.01    1.67 
  -2   6   6   20.16    1.24 
   1  -6  -6   16.91    1.62 
   1  -6  -6   19.43    1.10 
  -1   6   6   18.59    1.20 
   0  -6  -6    7.24    0.51 
   0  -6  -6    7.99    0.92 
   0   6   6    7.39    0.62 
  -1  -6  -6    0.16    0.16 
  -1  -6  -6    0.67    0.41 
   1   6   6   -0.32    0.26 
  -2  -6  -6    5.15    0.77 
   2   6   6    4.83    0.48 
  -3  -6  -6    0.44    0.36 
   3   6   6    0.38    0.28 
  -4  -6  -6   -0.16    0.40 
   4   6   6   -0.16    0.29 
  -5  -6  -6    3.08    0.72 
   5   6   6    3.30    0.47 
  -6  -6  -6    7.82    1.03 
   6   6   6    8.47    0.76 
  -7  -6  -6    0.76    0.65 
   7   6   6   -0.13    0.46 
   6  -7  -6    0.25    0.43 
  -6   7   6    0.09    0.61 
   5  -7  -6    9.93    0.82 
  -5   7   6   10.13    0.94 
   4  -7  -6    0.65    0.32 
  -4   7   6   -0.26    0.44 
   3  -7  -6   11.00    1.24 
   3  -7  -6   12.58    0.83 
  -3   7   6   12.52    0.95 
   2  -7  -6    0.61    0.26 
   2  -7  -6    0.33    0.44 
  -2   7   6    0.61    0.38 
   1  -7  -6   11.41    1.25 
   1  -7  -6   12.48    0.76 
  -1   7   6   10.59    0.87 
   0  -7  -6   26.25    1.49 
   0  -7  -6   24.78    2.22 
   0   7   6   26.47    1.62 
  -1  -7  -6    2.16    0.26 
  -1  -7  -6    3.36    0.69 
   1   7   6    2.17    0.42 
  -2  -7  -6   54.14    4.01 
   2   7   6   49.99    3.04 
  -3  -7  -6    7.65    0.99 
   3   7   6    7.45    0.66 
  -4  -7  -6   29.00    2.38 
   4   7   6   26.92    1.74 
  -5  -7  -6   18.75    1.78 
   5   7   6   18.41    1.28 
  -6  -7  -6   10.51    1.29 
   6   7   6   11.43    0.94 
  -7  -7  -6   16.19    1.71 
   5  -8  -6    0.53    0.42 
  -5   8   6    1.15    0.60 
   4  -8  -6   30.32    1.72 
  -4   8   6   25.73    1.83 
   3  -8  -6    6.34    0.93 
   3  -8  -6    6.89    0.59 
  -3   8   6    5.85    0.68 
   2  -8  -6    9.57    0.69 
   2  -8  -6    8.75    1.12 
  -2   8   6    9.63    0.83 
   1  -8  -6    7.60    1.08 
   1  -8  -6    9.35    0.65 
  -1   8   6    9.22    0.79 
   0  -8  -6   11.71    0.76 
   0  -8  -6   11.00    1.33 
   0   8   6   11.19    0.91 
  -1  -8  -6   21.24    2.02 
   1   8   6   23.60    1.49 
  -2  -8  -6    4.79    0.86 
   2   8   6    3.73    0.55 
  -3  -8  -6    1.33    0.61 
   3   8   6    1.86    0.43 
  -4  -8  -6    8.99    1.12 
   4   8   6    7.08    0.73 
  -5  -8  -6    7.40    1.10 
   5   8   6    7.09    0.74 
  -6  -8  -6    2.63    0.87 
   6   8   6    3.17    0.59 
   4  -9  -6   11.04    0.89 
  -4   9   6   12.51    1.09 
   3  -9  -6   22.21    1.40 
  -3   9   6   22.89    1.58 
   2  -9  -6   15.62    0.98 
   2  -9  -6   14.56    1.62 
  -2   9   6   13.16    1.13 
   1  -9  -6   37.83    2.85 
   1  -9  -6   31.98    1.88 
  -1   9   6   29.89    2.05 
   0  -9  -6    6.55    1.10 
   0  -9  -6    6.48    0.57 
   0   9   6    8.19    0.77 
  -1  -9  -6   23.09    2.23 
   1   9   6   23.35    1.56 
  -2  -9  -6    7.93    1.19 
   2   9   6    6.53    0.76 
  -3  -9  -6   24.15    2.20 
   3   9   6   22.09    1.52 
  -4  -9  -6   10.21    1.37 
   4   9   6    9.70    0.87 
  -5  -9  -6    2.60    0.86 
   5   9   6    1.03    0.52 
   3 -10  -6    7.61    0.70 
  -3  10   6    8.16    0.93 
   2 -10  -6    1.59    0.40 
   2 -10  -6    1.81    0.87 
  -2  10   6    1.49    0.60 
   1 -10  -6    0.61    0.70 
   1 -10  -6    0.32    0.33 
  -1  10   6   -0.10    0.55 
   0 -10  -6    4.59    0.98 
   0  10   6    4.31    0.72 
  -1 -10  -6    8.00    1.24 
   1  10   6    8.04    0.84 
  -2 -10  -6    3.34    0.97 
   2  10   6    1.13    0.60 
  -3 -10  -6    7.69    1.28 
   3  10   6    7.84    0.82 
  -4 -10  -6   12.80    1.60 
   4  10   6   11.25    1.03 
   1 -11  -6    1.48    0.93 
   0 -11  -6   24.72    2.46 
   0  11   6   23.26    1.70 
  -1 -11  -6    2.03    0.93 
   1  11   6    2.31    0.68 
  -2 -11  -6   12.82    1.74 
  -2  -9   7    1.96    1.06 
  -1  -9   7    7.99    1.35 
  -4  -8   7    0.45    1.20 
  -3  -8   7    2.59    1.18 
  -2  -8   7    2.67    1.05 
  -1  -8   7    4.83    1.12 
   0  -8   7    3.23    0.94 
   1  -8   7    5.30    0.63 
   2  -8   7    1.52    0.52 
   3  -8   7    0.55    0.52 
  -5  -7   7   10.03    1.70 
  -4  -7   7   21.99    2.49 
  -3  -7   7    0.23    1.06 
  -2  -7   7   20.14    2.18 
  -1  -7   7    0.06    0.70 
   0  -7   7    2.38    0.88 
   0  -7   7    3.00    0.46 
   1  -7   7    0.55    0.41 
   2  -7   7    6.33    0.67 
   3  -7   7    3.63    0.61 
   4  -7   7    1.18    0.56 
  -6  -6   7    2.99    1.30 
  -5  -6   7    3.49    1.26 
  -4  -6   7   -0.57    0.93 
  -3  -6   7   -0.01    0.81 
  -2  -6   7    0.01    0.76 
  -1  -6   7   12.79    0.90 
  -1  -6   7   14.56    1.60 
   0  -6   7    2.95    0.42 
   0  -6   7    2.57    0.81 
   1  -6   7    6.15    0.58 
   1  -6   7    5.65    0.88 
   2  -6   7    1.67    0.43 
   3  -6   7   26.13    1.64 
   4  -6   7    1.19    0.51 
   5  -6   7   19.74    1.41 
  -7  -5   7    4.37    1.42 
  -6  -5   7   12.80    1.74 
  -5  -5   7   24.41    2.42 
  -4  -5   7    1.49    0.79 
  -3  -5   7   40.80    3.39 
  -2  -5   7    2.72    0.36 
  -2  -5   7    2.92    0.82 
  -1  -5   7   24.66    2.29 
  -1  -5   7   27.73    1.56 
   0  -5   7   12.34    0.82 
   0  -5   7   11.07    1.28 
   1  -5   7    1.04    0.33 
   1  -5   7    0.75    0.46 
   2  -5   7    2.31    0.41 
   3  -5   7   -0.14    0.35 
   4  -5   7    5.26    0.62 
  -5   5  -7   -0.08    0.53 
   5  -5   7    0.56    0.48 
  -6   5  -7   -0.28    0.63 
   6  -5   7   -0.44    0.51 
  -7  -4   7    0.62    0.95 
  -6  -4   7    7.30    1.25 
  -5  -4   7    0.25    0.76 
  -4  -4   7    1.39    0.70 
  -3  -4   7    4.20    0.87 
  -2  -4   7    3.33    0.74 
  -2  -4   7    4.07    0.37 
  -1  -4   7    6.09    0.86 
  -1  -4   7    5.53    0.48 
   0  -4   7    6.42    0.84 
   0  -4   7    5.21    0.48 
   1  -4   7   27.05    2.16 
   1  -4   7   27.04    1.59 
   2  -4   7   39.99    2.31 
   2  -4   7   40.78    3.05 
   3  -4   7    4.64    0.50 
  -4   4  -7   21.84    1.29 
   4  -4   7   16.04    1.26 
  -5   4  -7   23.63    1.48 
   5  -4   7   19.60    1.43 
  -6   4  -7   10.55    0.97 
   6  -4   7   11.17    0.94 
   7  -4   7   34.36    2.15 
  -8  -3   7    4.75    1.32 
  -7  -3   7    9.06    1.45 
  -6  -3   7   27.22    2.57 
  -5  -3   7    2.35    0.79 
  -4  -3   7   44.94    3.57 
  -3  -3   7    0.80    0.50 
  -2  -3   7   23.49    1.91 
  -2  -3   7   20.76    1.25 
  -1  -3   7   40.83    2.30 
  -1  -3   7   41.79    3.19 
   0  -3   7    1.03    0.42 
   0  -3   7    1.41    0.25 
   1  -3   7    1.35    0.39 
   1  -3   7    0.92    0.23 
   2  -3   7   16.14    0.99 
   2  -3   7   15.03    1.28 
   3  -3   7    3.99    0.44 
   4  -3   7    0.64    0.35 
   4  -3   7    0.63    0.34 
   5  -3   7    0.05    0.42 
   5  -3   7    0.31    0.40 
   6  -3   7    0.18    0.51 
   6  -3   7    0.01    0.41 
   7  -3   7    5.93    0.80 
   7  -3   7    6.57    0.70 
  -7  -2   7    1.47    0.86 
  -6  -2   7   15.01    1.66 
  -5  -2   7    0.15    0.57 
  -4  -2   7   17.80    1.70 
  -3  -2   7   13.58    1.40 
  -3  -2   7   16.58    0.94 
  -2  -2   7   26.34    2.35 
  -2  -2   7   32.50    1.69 
   1   2  -7   28.06    2.11 
  -1  -2   7   25.33    1.50 
   0   2  -7    2.81    0.49 
   0  -2   7    2.95    0.29 
  -1   2  -7  104.31    7.60 
   1  -2   7  106.35    5.76 
  -2   2  -7    2.57    0.40 
   2  -2   7    2.73    0.30 
   3  -2   7   50.51    2.94 
   3  -2   7   54.00    3.80 
   4  -2   7   32.06    1.91 
   4  -2   7   31.18    1.86 
   5  -2   7    0.43    0.35 
   5  -2   7   -0.22    0.39 
   6  -2   7   46.39    2.68 
   6  -2   7   45.58    2.77 
   7  -2   7    3.95    0.55 
   7  -2   7    2.81    0.63 
   8   1  -7    8.85    0.92 
   7   1  -7   32.26    2.10 
  -7  -1   7   35.25    2.93 
   6   1  -7    4.62    0.56 
  -6  -1   7    3.61    0.88 
  -5  -1   7  110.15    8.11 
  -4  -1   7   14.01    0.86 
  -4  -1   7   13.77    1.36 
   3   1  -7   29.36    2.44 
  -3  -1   7   31.25    1.72 
   2   1  -7   63.32    4.47 
  -2  -1   7   57.22    3.28 
   1   1  -7   12.78    1.16 
  -1  -1   7   12.88    0.79 
   0   1  -7    9.13    0.92 
   0  -1   7   10.48    0.64 
  -1   1  -7    1.05    0.33 
   1  -1   7    1.42    0.21 
  -2   1  -7   26.70    2.01 
   2  -1   7   26.01    1.51 
  -3   1  -7   55.63    3.85 
   3  -1   7   49.92    2.94 
   4  -1   7   18.94    1.31 
   4  -1   7   23.24    1.30 
   5  -1   7    5.62    0.62 
   5  -1   7    7.44    0.59 
   6  -1   7   31.66    1.93 
   6  -1   7   32.51    2.02 
   7  -1   7    9.83    0.92 
   7  -1   7   10.22    0.85 
   8  -1   7    6.90    0.86 
   8   0  -7    9.20    0.92 
   7   0  -7   12.33    1.01 
   6   0  -7    0.46    0.41 
  -6   0   7    0.48    0.62 
   5   0  -7   50.50    2.76 
  -5   0   7   44.83    2.62 
  -5   0   7   46.07    3.64 
   4   0  -7  103.89    7.20 
  -4   0   7   93.43    5.35 
   3   0  -7    7.18    0.81 
  -3   0   7    6.47    0.47 
   2   0  -7   79.29    5.68 
  -2   0   7   75.29    4.21 
   1   0  -7   34.24    2.65 
  -1   0   7   34.80    1.93 
   0   0  -7   60.02    4.41 
   0   0   7   59.22    3.27 
  -1   0  -7   89.93    6.14 
   1   0   7   79.37    4.60 
  -2   0  -7   30.27    2.29 
   2   0   7   29.50    1.69 
  -3   0  -7   17.67    1.45 
   3   0   7   17.55    1.09 
   3   0   7   19.72    1.13 
  -4   0  -7    4.24    0.53 
   4   0   7    4.72    0.44 
   4   0   7    5.82    0.45 
   5   0   7    3.66    0.45 
   5   0   7    4.58    0.45 
   6   0   7    2.03    0.47 
   6   0   7    3.06    0.43 
   7   0   7    6.11    0.69 
   8   0   7   -0.36    0.61 
   8  -1  -7   10.29    0.98 
   7  -1  -7   -0.32    0.51 
   6  -1  -7   26.36    1.48 
   6  -1  -7   23.80    1.55 
  -6   1   7   21.51    2.10 
   5  -1  -7    5.06    0.45 
   5  -1  -7    4.19    0.48 
   5  -1  -7    3.86    0.67 
   4  -1  -7   23.68    1.42 
   4  -1  -7   25.91    1.49 
   4  -1  -7   24.13    2.03 
   3  -1  -7   28.74    2.31 
   3  -1  -7   29.03    1.64 
   2  -1  -7    0.59    0.32 
  -2   1   7    0.84    0.16 
   1  -1  -7   35.51    2.91 
  -1   1   7   40.54    2.13 
   0  -1  -7   21.92    1.89 
   0   1   7   25.89    1.37 
  -1  -1  -7   -0.06    0.21 
   1   1   7    0.09    0.13 
  -2  -1  -7    0.27    0.25 
   2   1   7    0.35    0.15 
  -3  -1  -7   53.60    3.80 
   3   1   7   49.78    2.84 
   3   1   7   50.85    2.94 
  -4  -1  -7    8.34    0.83 
   4   1   7    9.39    0.60 
   4   1   7    7.84    0.62 
   5   1   7    6.63    0.57 
   5   1   7    6.71    0.58 
   6   1   7    9.12    0.72 
   6   1   7    8.03    0.74 
   7   1   7    5.08    0.66 
   8   1   7    3.61    0.69 
   8  -2  -7    6.43    0.83 
   7  -2  -7    0.35    0.44 
   7  -2  -7    0.55    0.53 
   6  -2  -7    6.33    0.89 
   6  -2  -7    8.30    0.68 
   6  -2  -7    7.54    0.71 
   5  -2  -7   42.79    3.39 
   5  -2  -7   45.36    2.50 
   5  -2  -7   43.83    2.60 
   4  -2  -7   51.08    3.88 
   4  -2  -7   51.16    2.85 
   3  -2  -7   10.76    0.69 
   3  -2  -7    9.82    1.05 
  -3   2   7   11.33    0.73 
   2  -2  -7   11.38    1.09 
   2  -2  -7   11.29    0.70 
   1  -2  -7  105.35    7.70 
  -1   2   7  106.91    5.78 
   0  -2  -7   32.37    2.70 
   0   2   7   37.87    1.97 
  -1  -2  -7    6.18    0.67 
   1   2   7    6.07    0.43 
  -2  -2  -7    3.20    0.52 
   2   2   7    3.62    0.33 
   2   2   7    3.59    0.29 
  -3  -2  -7    0.55    0.32 
   3   2   7    0.92    0.18 
   3   2   7    0.89    0.20 
  -4  -2  -7   56.74    4.35 
   4   2   7   59.92    3.40 
   4   2   7   59.74    3.25 
  -5  -2  -7   10.10    1.07 
   5   2   7   13.27    0.78 
   5   2   7   11.44    0.83 
   6   2   7    6.62    0.63 
   7   2   7    0.78    0.46 
   8   2   7    0.19    0.54 
  -8   3   7   -1.22    0.64 
   7  -3  -7   20.03    1.26 
  -7   3   7   16.11    1.32 
   6  -3  -7    7.51    0.66 
  -6   3   7    7.62    0.75 
   5  -3  -7    0.54    0.31 
   5  -3  -7    1.12    0.45 
  -5   3   7    0.06    0.37 
   4  -3  -7    4.61    0.72 
   4  -3  -7    5.72    0.49 
  -4   3   7    5.99    0.52 
   3  -3  -7    9.49    1.10 
   3  -3  -7   12.77    0.75 
  -3   3   7   11.72    0.79 
   2  -3  -7    2.24    0.25 
   2  -3  -7    2.30    0.46 
  -2   3   7    2.20    0.27 
   1  -3  -7   38.22    2.18 
   1  -3  -7   39.21    3.00 
  -1   3   7   40.48    2.27 
   0  -3  -7   17.18    1.47 
   0   3   7   18.55    1.05 
   0   3   7   16.11    0.99 
  -1  -3  -7  122.93    8.64 
   1   3   7  123.65    6.73 
   1   3   7  111.54    6.48 
  -2  -3  -7   65.89    4.58 
   2   3   7   57.12    3.38 
   2   3   7   62.73    3.52 
  -3  -3  -7    1.75    0.44 
   3   3   7    2.15    0.23 
   3   3   7    2.21    0.28 
  -4  -3  -7   65.80    5.20 
   4   3   7   74.84    4.07 
   4   3   7   70.91    3.87 
  -5  -3  -7   10.12    1.15 
   5   3   7   13.43    0.87 
   6   3   7    6.08    0.59 
   7   3   7   16.87    1.21 
   8   3   7   -0.19    0.51 
   7  -4  -7   10.50    0.92 
  -7   4   7   11.60    1.03 
   6  -4  -7   16.04    1.08 
  -6   4   7   15.00    1.17 
   5  -4  -7    7.67    0.67 
   5  -4  -7    7.44    0.93 
  -5   4   7    8.97    0.77 
   4  -4  -7  117.00    8.38 
   4  -4  -7  111.30    6.29 
  -4   4   7  116.55    6.54 
   3  -4  -7    1.04    0.25 
   3  -4  -7    1.40    0.44 
  -3   4   7    1.61    0.30 
   2  -4  -7   86.01    6.34 
   2  -4  -7   78.66    4.73 
  -2   4   7   95.10    4.93 
   1  -4  -7   65.27    4.90 
   1  -4  -7   64.12    3.62 
  -1   4   7   68.66    3.78 
   0  -4  -7    5.45    0.42 
   0  -4  -7    5.65    0.75 
   0   4   7    6.88    0.49 
  -1  -4  -7   26.62    2.39 
   1   4   7   33.62    1.81 
   1   4   7   30.95    1.72 
  -2  -4  -7    5.13    0.69 
   2   4   7    5.06    0.42 
   2   4   7    4.12    0.35 
  -3  -4  -7   11.56    1.22 
   3   4   7   14.23    0.87 
  -4  -4  -7    2.43    0.54 
   4   4   7    2.01    0.33 
  -5  -4  -7    2.59    0.59 
   5   4   7    3.25    0.42 
  -6  -4  -7    1.90    0.53 
   6   4   7    1.82    0.42 
   7   4   7    2.45    0.52 
   8   4   7    0.09    0.58 
   7  -5  -7    2.07    0.53 
  -7   5   7    2.21    0.64 
   6  -5  -7    0.42    0.42 
  -6   5   7   -1.06    0.48 
   5  -5  -7    3.30    0.46 
  -5   5   7    2.71    0.53 
   4  -5  -7   10.59    0.77 
   4  -5  -7   11.20    1.16 
  -4   5   7   10.85    0.85 
   3  -5  -7   12.64    0.82 
   3  -5  -7   12.27    1.24 
  -3   5   7   12.98    0.90 
   2  -5  -7   11.47    0.73 
   2  -5  -7   10.20    1.11 
  -2   5   7   12.27    0.82 
   1  -5  -7   54.68    3.16 
   1  -5  -7   58.42    4.33 
  -1   5   7   59.41    3.31 
   0  -5  -7    0.32    0.16 
   0  -5  -7    0.17    0.33 
   0   5   7    0.44    0.26 
  -1  -5  -7   85.96    5.73 
   1   5   7   75.80    4.40 
   1   5   7   71.56    4.20 
  -2  -5  -7    0.52    0.38 
   2   5   7    0.12    0.22 
   2   5   7    0.52    0.17 
  -3  -5  -7   62.37    4.52 
   3   5   7   57.67    3.45 
  -4  -5  -7   12.41    1.45 
   4   5   7   18.32    1.07 
  -5  -5  -7   38.92    2.98 
   5   5   7   35.04    2.22 
  -6  -5  -7   29.61    2.40 
   6   5   7   26.81    1.76 
   7   5   7    1.33    0.48 
   6  -6  -7   20.44    1.35 
  -6   6   7   20.17    1.48 
   5  -6  -7   31.99    1.91 
  -5   6   7   32.23    2.02 
   4  -6  -7    6.99    0.90 
   4  -6  -7    6.42    0.56 
  -4   6   7    5.74    0.63 
   3  -6  -7   32.54    2.74 
   3  -6  -7   35.15    1.99 
  -3   6   7   35.86    2.11 
   2  -6  -7   69.24    5.18 
   2  -6  -7   69.72    3.82 
  -2   6   7   68.46    3.99 
   1  -6  -7   25.01    1.42 
   1  -6  -7   24.26    2.09 
  -1   6   7   24.56    1.53 
   0  -6  -7   32.73    1.96 
   0  -6  -7   38.41    2.81 
   0   6   7   35.26    2.09 
  -1  -6  -7    8.80    0.57 
  -1  -6  -7    8.24    1.02 
   1   6   7    8.02    0.67 
  -2  -6  -7   29.47    2.30 
   2   6   7   25.99    1.56 
   2   6   7   28.34    1.69 
  -3  -6  -7    6.21    0.92 
   3   6   7    5.71    0.53 
  -4  -6  -7    0.20    0.47 
   4   6   7   -0.11    0.29 
  -5  -6  -7    1.23    0.64 
   5   6   7    1.39    0.38 
  -6  -6  -7    1.77    0.71 
   6   6   7    1.79    0.47 
   7   6   7   -0.12    0.46 
   6  -7  -7    0.50    0.46 
  -6   7   7   -0.18    0.63 
   5  -7  -7    9.11    0.77 
  -5   7   7    8.46    0.86 
   4  -7  -7   -0.03    0.31 
  -4   7   7   -0.59    0.45 
   3  -7  -7   11.50    0.78 
   3  -7  -7   10.53    1.23 
  -3   7   7   10.63    0.90 
   2  -7  -7   16.02    1.53 
   2  -7  -7   15.91    0.98 
  -2   7   7   15.18    1.11 
   1  -7  -7   10.03    0.69 
   1  -7  -7    9.86    1.19 
  -1   7   7   11.14    0.83 
   0  -7  -7   72.94    5.31 
   0  -7  -7   69.81    3.86 
   0   7   7   68.49    4.07 
  -1  -7  -7    3.67    0.34 
  -1  -7  -7    3.70    0.78 
   1   7   7    3.68    0.49 
  -2  -7  -7   32.35    2.62 
   2   7   7   30.41    1.91 
  -3  -7  -7   39.47    2.97 
   3   7   7   33.19    2.14 
  -4  -7  -7    8.40    1.12 
   4   7   7    7.93    0.71 
  -5  -7  -7   20.57    2.00 
   5   7   7   22.20    1.43 
  -6  -7  -7    0.58    0.62 
   6   7   7   -0.09    0.46 
  -7  -7  -7   18.59    2.00 
   5  -8  -7    2.64    0.50 
  -5   8   7    2.98    0.72 
   4  -8  -7   15.32    1.05 
  -4   8   7   15.88    1.21 
   3  -8  -7   17.53    1.65 
   3  -8  -7   16.87    1.09 
  -3   8   7   16.03    1.22 
   2  -8  -7    9.02    1.15 
   2  -8  -7    7.32    0.62 
  -2   8   7    8.01    0.75 
   1  -8  -7    5.82    1.00 
   1  -8  -7    7.80    0.59 
  -1   8   7    7.91    0.71 
   0  -8  -7   13.75    1.54 
   0  -8  -7   14.87    0.92 
   0   8   7   14.67    1.07 
  -1  -8  -7   12.17    1.48 
  -1  -8  -7   13.97    0.84 
   1   8   7   13.37    1.00 
  -2  -8  -7   12.82    1.52 
   2   8   7   14.84    1.04 
  -3  -8  -7    1.73    0.71 
   3   8   7    0.49    0.39 
  -4  -8  -7    3.41    0.83 
   4   8   7    3.35    0.54 
  -5  -8  -7   16.58    1.77 
   5   8   7   14.56    1.13 
  -6  -8  -7   -0.27    0.68 
   6   8   7   -0.02    0.50 
   4  -9  -7    7.93    0.71 
  -4   9   7    7.59    0.88 
   3  -9  -7   26.72    1.58 
  -3   9   7   24.45    1.74 
   2  -9  -7    0.02    0.66 
   2  -9  -7   -0.20    0.32 
  -2   9   7    0.11    0.48 
   1  -9  -7   38.16    2.20 
   1  -9  -7   43.57    3.27 
  -1   9   7   35.50    2.36 
   0  -9  -7    1.59    0.32 
   0  -9  -7    1.85    0.77 
   0   9   7    1.52    0.52 
  -1  -9  -7   20.05    1.98 
   1   9   7   18.65    1.34 
  -2  -9  -7    9.57    1.34 
   2   9   7    9.38    0.87 
  -3  -9  -7    7.41    1.17 
   3   9   7    5.53    0.67 
  -4  -9  -7   13.35    1.61 
   4   9   7   12.23    1.01 
  -5  -9  -7   -0.21    0.82 
   5   9   7   -0.36    0.49 
   3 -10  -7    2.62    0.49 
  -3  10   7    2.25    0.70 
   2 -10  -7    9.81    0.76 
   2 -10  -7    9.24    1.33 
  -2  10   7    8.86    0.93 
   1 -10  -7    0.55    0.36 
   1 -10  -7    0.86    0.75 
  -1  10   7    0.01    0.57 
   0 -10  -7   -0.53    0.71 
   0  10   7   -0.35    0.55 
  -1 -10  -7    2.94    0.97 
   1  10   7    3.53    0.64 
  -2 -10  -7    9.74    1.40 
   2  10   7    9.05    0.92 
  -3 -10  -7    1.29    0.90 
   3  10   7    0.54    0.54 
  -4 -10  -7   14.39    1.78 
   4  10   7   10.91    1.03 
   1 -11  -7   11.34    1.57 
   0 -11  -7   12.52    1.65 
   0  11   7   10.93    1.11 
  -1 -11  -7   14.54    1.76 
   1  11   7   12.58    1.17 
  -2 -11  -7    2.60    1.02 
  -3  -8   8   -2.46    1.04 
  -2  -8   8    1.08    0.98 
  -1  -8   8   -0.29    0.87 
   0  -8   8    0.40    0.88 
   1  -8   8    2.92    0.57 
   2  -8   8    1.44    0.55 
  -5  -7   8    2.32    1.37 
  -4  -7   8   14.14    2.02 
  -3  -7   8    2.93    1.21 
  -2  -7   8   17.87    2.09 
  -1  -7   8    3.66    1.19 
   0  -7   8    9.24    0.77 
   0  -7   8    7.56    1.21 
   1  -7   8    1.98    0.51 
   2  -7   8   -0.49    0.46 
   3  -7   8    4.78    0.66 
   4  -7   8    0.40    0.59 
  -6  -6   8   -0.38    1.39 
  -5  -6   8   -0.27    1.05 
  -4  -6   8   -1.10    1.01 
  -3  -6   8    1.30    0.92 
  -2  -6   8   -1.59    0.73 
  -1  -6   8    4.96    0.51 
  -1  -6   8    5.40    1.07 
   0  -6   8    4.08    0.85 
   0  -6   8    4.39    0.51 
   1  -6   8   13.40    0.94 
   1  -6   8   12.11    1.44 
   2  -6   8    0.75    0.43 
   3  -6   8   28.97    1.82 
   4  -6   8    4.72    0.67 
   5  -6   8    8.93    0.93 
  -6  -5   8   -0.39    1.01 
  -5  -5   8   24.74    2.55 
  -4  -5   8   -0.01    0.80 
  -3  -5   8   75.63    5.83 
  -2  -5   8   33.12    2.88 
  -1  -5   8    4.18    0.90 
  -1  -5   8    4.64    0.47 
   0  -5   8  136.01    9.84 
   0  -5   8  133.62    7.38 
   1  -5   8    1.45    0.37 
   1  -5   8    1.18    0.59 
   2  -5   8    8.58    0.74 
   3  -5   8    0.44    0.41 
   4  -5   8    0.18    0.46 
   5  -5   8    0.18    0.51 
   6  -5   8    2.08    0.64 
  -7  -4   8    1.37    1.17 
  -6  -4   8    0.08    0.94 
  -5  -4   8    0.65    0.87 
  -4  -4   8    2.80    0.88 
  -3  -4   8    6.53    1.11 
  -2  -4   8   18.38    1.10 
  -2  -4   8   17.09    1.75 
  -1  -4   8    7.11    0.55 
  -1  -4   8    6.41    0.95 
   0  -4   8   18.30    1.15 
   0  -4   8   19.67    1.74 
   1  -4   8    6.23    0.52 
   1  -4   8    5.23    0.78 
   2  -4   8   37.53    2.19 
   2  -4   8   38.08    2.90 
   3  -4   8   20.56    1.32 
   4  -4   8   12.26    0.97 
  -5   4  -8   32.53    1.92 
   5  -4   8   27.39    1.88 
  -6   4  -8    0.29    0.56 
   6  -4   8    0.31    0.51 
  -7  -3   8    1.82    1.09 
  -6  -3   8   18.46    2.03 
  -5  -3   8    7.43    1.21 
  -4  -3   8   21.46    2.03 
  -3  -3   8   27.71    2.52 
  -3  -3   8   31.94    1.74 
  -2  -3   8    3.27    0.36 
  -2  -3   8    3.90    0.75 
  -1  -3   8   18.82    1.16 
  -1  -3   8   20.56    1.75 
   0  -3   8    9.23    0.66 
   0  -3   8    9.70    1.03 
   1  -3   8   37.03    1.99 
   1  -3   8   32.36    2.68 
   2  -3   8    7.39    0.88 
   2  -3   8    9.56    0.66 
   3  -3   8    0.04    0.29 
   4  -3   8   10.41    0.87 
   5  -3   8    2.42    0.51 
   5  -3   8    1.37    0.51 
   6  -3   8    6.31    0.69 
   6  -3   8    6.21    0.73 
   7  -3   8    1.19    0.63 
   7  -3   8    1.15    0.52 
  -7  -2   8    2.99    1.10 
  -6  -2   8    5.92    1.18 
  -5  -2   8    0.43    0.65 
  -4  -2   8    4.60    0.88 
  -3  -2   8   49.05    3.68 
  -3  -2   8   45.80    2.62 
  -2  -2   8    8.21    0.57 
  -2  -2   8    7.79    0.95 
   1   2  -8   25.45    2.21 
  -1  -2   8   29.32    1.59 
   0   2  -8    4.52    0.65 
   0  -2   8    5.91    0.46 
  -1   2  -8   68.55    4.82 
   1  -2   8   62.48    3.61 
  -2   2  -8    3.73    0.52 
   2  -2   8    5.30    0.44 
   3  -2   8   19.37    1.21 
   4  -2   8    1.50    0.36 
   5  -2   8   -0.19    0.39 
   5  -2   8    0.65    0.37 
   6  -2   8   17.90    1.25 
   6  -2   8   17.46    1.26 
   7  -2   8   -0.31    0.55 
   7  -2   8    1.37    0.47 
  -7  -1   8   15.34    1.77 
  -6  -1   8    0.38    0.75 
  -5  -1   8   37.20    3.05 
  -4  -1   8   13.41    1.37 
  -4  -1   8   13.47    0.85 
   3   1  -8    6.94    0.88 
  -3  -1   8    5.85    0.48 
   2   1  -8   25.98    2.10 
  -2  -1   8   25.35    1.46 
   1   1  -8    0.56    0.35 
  -1  -1   8    0.53    0.19 
   0   1  -8   14.39    1.34 
   0  -1   8   16.34    0.95 
  -1   1  -8   15.10    1.38 
   1  -1   8   17.45    1.00 
  -2   1  -8    0.07    0.25 
   2  -1   8    0.23    0.18 
  -3   1  -8    0.30    0.25 
   3  -1   8    0.00    0.22 
   4  -1   8   42.10    2.36 
   4  -1   8   40.41    2.44 
   5  -1   8    4.21    0.54 
   5  -1   8    4.52    0.51 
   6  -1   8    4.80    0.65 
   6  -1   8    5.36    0.60 
   7  -1   8    9.71    0.91 
   7  -1   8    9.78    0.86 
  -7   0   8   12.59    1.50 
  -6   0   8    2.24    0.75 
  -5   0   8    0.98    0.27 
  -5   0   8    0.56    0.52 
   4   0  -8   56.03    4.10 
  -4   0   8   51.88    2.97 
   3   0  -8    2.76    0.56 
  -3   0   8    3.43    0.30 
   2   0  -8   33.75    3.04 
  -2   0   8   44.15    2.22 
   1   0  -8    4.28    0.60 
  -1   0   8    4.74    0.38 
   0   0  -8   25.70    2.14 
   0   0   8   27.54    1.53 
  -1   0  -8  107.51    7.69 
   1   0   8  104.43    5.78 
  -2   0  -8   29.67    2.23 
   2   0   8   27.56    1.62 
  -3   0  -8   19.16    1.48 
   3   0   8   16.75    1.08 
   4   0   8    2.24    0.33 
   4   0   8    3.05    0.34 
   5   0   8   26.64    1.64 
   5   0   8   28.11    1.71 
   6   0   8    0.73    0.42 
   6   0   8    0.80    0.37 
   7   0   8    5.56    0.68 
   8   0   8   -0.57    0.62 
   8  -1  -8    7.06    0.84 
   7  -1  -8    3.95    0.62 
   6  -1  -8    9.63    0.82 
   6  -1  -8   11.44    0.80 
  -6   1   8    7.16    1.12 
   5  -1  -8    0.83    0.51 
   5  -1  -8    0.78    0.34 
   5  -1  -8    1.48    0.34 
   4  -1  -8    8.77    1.02 
   3  -1  -8   20.44    1.81 
  -3   1   8   21.54    1.23 
   2  -1  -8    0.53    0.35 
  -2   1   8    0.28    0.16 
   1  -1  -8   55.73    4.15 
  -1   1   8   54.73    3.04 
   0  -1  -8   16.41    1.41 
   0   1   8   16.05    0.95 
  -1  -1  -8   63.68    4.62 
   1   1   8   61.16    3.43 
  -2  -1  -8   12.18    1.09 
   2   1   8   11.86    0.75 
  -3  -1  -8    7.23    0.77 
   3   1   8    6.88    0.50 
   3   1   8    6.34    0.51 
  -4  -1  -8   43.91    3.19 
   4   1   8   43.96    2.47 
   4   1   8   39.23    2.37 
   5   1   8    8.82    0.66 
   5   1   8    6.98    0.64 
   6   1   8   40.32    2.19 
   6   1   8   34.53    2.26 
   7   1   8    5.14    0.66 
   8   1   8   10.65    1.02 
   7  -2  -8    2.94    0.60 
   6  -2  -8    5.73    0.65 
   6  -2  -8    7.50    0.62 
   6  -2  -8    5.47    0.88 
   5  -2  -8   38.82    3.16 
   5  -2  -8   41.22    2.30 
   4  -2  -8    1.88    0.59 
   4  -2  -8    2.25    0.31 
   3  -2  -8   64.34    3.71 
   3  -2  -8   71.23    5.04 
   2  -2  -8   50.71    3.96 
  -2   2   8   53.60    2.89 
   1  -2  -8   46.66    3.47 
  -1   2   8   44.90    2.52 
   0  -2  -8   51.06    3.69 
   0   2   8   46.90    2.69 
  -1  -2  -8   15.16    1.28 
   1   2   8   13.81    0.86 
  -2  -2  -8   26.97    2.10 
   2   2   8   26.01    1.50 
  -3  -2  -8   38.53    2.81 
   3   2   8   34.56    2.03 
   3   2   8   36.26    2.11 
  -4  -2  -8   48.29    3.67 
   4   2   8   48.47    2.83 
   4   2   8   49.17    2.71 
   5   2   8   31.71    1.81 
   5   2   8   31.01    1.90 
   6   2   8    0.11    0.34 
   7   2   8    1.47    0.47 
   8   2   8    0.79    0.59 
   7  -3  -8   -0.26    0.47 
  -7   3   8    0.03    0.56 
   6  -3  -8   18.28    1.19 
  -6   3   8   17.87    1.26 
   5  -3  -8    1.32    0.53 
   5  -3  -8    1.13    0.34 
  -5   3   8    1.56    0.43 
   4  -3  -8    0.49    0.26 
   4  -3  -8    1.00    0.50 
  -4   3   8    0.32    0.32 
   3  -3  -8    2.43    0.30 
   3  -3  -8    2.45    0.54 
  -3   3   8    2.77    0.35 
   2  -3  -8    5.98    0.80 
   2  -3  -8    6.42    0.48 
  -2   3   8    6.59    0.51 
   1  -3  -8    7.76    0.96 
  -1   3   8    9.03    0.59 
  -1   3   8    8.41    0.56 
   0  -3  -8    5.23    0.72 
   0   3   8    5.13    0.40 
   0   3   8    5.49    0.42 
  -1  -3  -8    0.23    0.33 
   1   3   8    0.43    0.19 
   1   3   8    0.14    0.16 
  -2  -3  -8   71.71    5.06 
   2   3   8   64.20    3.73 
   2   3   8   68.89    3.88 
  -3  -3  -8    2.32    0.49 
   3   3   8    2.50    0.27 
   3   3   8    2.91    0.31 
  -4  -3  -8   31.06    2.37 
   4   3   8   27.81    1.67 
   4   3   8   30.02    1.77 
  -5  -3  -8   37.11    3.00 
   5   3   8   39.76    2.30 
   6   3   8    0.01    0.34 
   7   3   8   24.73    1.63 
   8   3   8    3.82    0.68 
   7  -4  -8    3.44    0.59 
  -7   4   8    3.09    0.67 
   6  -4  -8   39.90    2.30 
  -6   4   8   38.46    2.41 
   5  -4  -8    1.59    0.37 
   5  -4  -8    1.25    0.54 
  -5   4   8    1.59    0.43 
   4  -4  -8   87.23    4.93 
   4  -4  -8   94.18    6.64 
  -4   4   8   87.69    5.12 
   3  -4  -8   26.29    2.26 
   3  -4  -8   27.76    1.59 
  -3   4   8   28.16    1.67 
   2  -4  -8   28.37    1.59 
   2  -4  -8   26.55    2.26 
  -2   4   8   28.00    1.66 
   1  -4  -8  104.03    5.78 
   1  -4  -8  102.98    7.74 
  -1   4   8  110.47    6.01 
   0  -4  -8    4.17    0.71 
   0   4   8    5.34    0.41 
   0   4   8    5.40    0.46 
  -1  -4  -8   27.05    2.06 
   1   4   8   25.35    1.47 
   1   4   8   22.61    1.39 
  -2  -4  -8   12.06    1.20 
   2   4   8   13.64    0.83 
   2   4   8   11.86    0.77 
  -3  -4  -8    0.63    0.42 
   3   4   8    0.90    0.25 
   3   4   8    0.61    0.19 
  -4  -4  -8    2.48    0.56 
   4   4   8    3.82    0.41 
  -5  -4  -8    0.42    0.44 
   5   4   8    0.41    0.31 
   6   4   8   -0.16    0.36 
   7   4   8    2.86    0.54 
   7  -5  -8    0.83    0.51 
  -7   5   8    0.89    0.65 
   6  -5  -8    0.62    0.44 
  -6   5   8    0.27    0.54 
   5  -5  -8    0.08    0.37 
  -5   5   8    0.27    0.46 
   4  -5  -8   10.70    0.77 
   4  -5  -8   11.93    1.24 
  -4   5   8    9.64    0.85 
   3  -5  -8   -0.11    0.40 
   3  -5  -8    0.16    0.23 
  -3   5   8   -1.00    0.33 
   2  -5  -8    0.59    0.43 
   2  -5  -8    0.81    0.22 
  -2   5   8    0.38    0.29 
   1  -5  -8   17.47    1.48 
   1  -5  -8   14.91    0.92 
  -1   5   8   14.86    1.01 
   0  -5  -8    0.53    0.19 
   0  -5  -8    0.27    0.42 
   0   5   8    0.36    0.28 
  -1  -5  -8   32.73    2.40 
   1   5   8   29.36    1.65 
   1   5   8   26.81    1.74 
  -2  -5  -8    6.74    0.90 
   2   5   8    7.44    0.55 
   2   5   8    6.24    0.49 
  -3  -5  -8   20.04    1.83 
   3   5   8   21.59    1.32 
  -4  -5  -8   50.30    3.83 
   4   5   8   49.11    2.92 
  -5  -5  -8    5.19    0.85 
   5   5   8    6.14    0.61 
  -6  -5  -8   43.14    3.24 
   6   5   8   38.29    2.45 
   7   5   8   -0.66    0.42 
   6  -6  -8    0.37    0.45 
  -6   6   8    0.60    0.61 
   5  -6  -8   31.16    1.85 
  -5   6   8   30.25    1.96 
   4  -6  -8    7.11    0.61 
   4  -6  -8    8.10    1.00 
  -4   6   8    6.51    0.69 
   3  -6  -8   13.25    1.34 
   3  -6  -8   11.28    0.80 
  -3   6   8   11.70    0.91 
   2  -6  -8   75.62    4.16 
   2  -6  -8   76.24    5.64 
  -2   6   8   74.41    4.34 
   1  -6  -8   26.03    2.12 
   1  -6  -8   22.92    1.39 
  -1   6   8   24.42    1.50 
   0  -6  -8   47.74    2.78 
   0  -6  -8   54.62    3.89 
   0   6   8   49.74    2.93 
  -1  -6  -8   20.60    2.02 
   1   6   8   25.67    1.40 
   1   6   8   25.13    1.51 
  -2  -6  -8    8.55    1.02 
   2   6   8    6.69    0.52 
   2   6   8    7.64    0.62 
  -3  -6  -8   17.69    1.61 
   3   6   8   16.46    1.11 
  -4  -6  -8    2.01    0.60 
   4   6   8    1.18    0.36 
  -5  -6  -8    0.40    0.59 
   5   6   8    1.01    0.38 
  -6  -6  -8    2.89    0.70 
   6   6   8    3.33    0.54 
   7   6   8    0.88    0.52 
   6  -7  -8   -0.27    0.46 
  -6   7   8   -1.17    0.61 
   5  -7  -8    3.16    0.50 
  -5   7   8    2.89    0.64 
   4  -7  -8    7.28    0.65 
  -4   7   8    8.80    0.81 
   3  -7  -8    6.40    0.57 
   3  -7  -8    6.72    0.98 
  -3   7   8    6.30    0.66 
   2  -7  -8   20.27    1.26 
   2  -7  -8   24.21    1.98 
  -2   7   8   19.85    1.37 
   1  -7  -8    1.75    0.64 
   1  -7  -8    1.03    0.27 
  -1   7   8    1.02    0.39 
   0  -7  -8   23.19    1.39 
   0  -7  -8   25.08    2.14 
   0   7   8   24.68    1.54 
  -1  -7  -8   12.85    1.39 
   1   7   8   11.71    0.90 
  -2  -7  -8    5.90    0.93 
   2   7   8    5.63    0.59 
   2   7   8    5.66    0.49 
  -3  -7  -8   32.12    2.48 
   3   7   8   26.51    1.76 
  -4  -7  -8    1.31    0.69 
   4   7   8    0.97    0.39 
  -5  -7  -8   13.69    1.57 
   5   7   8   13.98    1.03 
  -6  -7  -8    5.89    1.03 
   6   7   8    7.61    0.78 
   5  -8  -8    9.61    0.83 
  -5   8   8   10.11    1.00 
   4  -8  -8    5.11    0.56 
  -4   8   8    4.92    0.71 
   3  -8  -8   17.15    1.70 
   3  -8  -8   16.69    1.07 
  -3   8   8   15.40    1.21 
   2  -8  -8   -0.42    0.27 
   2  -8  -8   -0.49    0.54 
  -2   8   8    0.18    0.46 
   1  -8  -8    3.86    0.88 
   1  -8  -8    4.94    0.45 
  -1   8   8    4.54    0.59 
   0  -8  -8    7.40    1.12 
   0  -8  -8    8.13    0.59 
   0   8   8    7.65    0.74 
  -1  -8  -8    0.53    0.64 
  -1  -8  -8    0.65    0.24 
   1   8   8    0.91    0.42 
  -2  -8  -8   10.11    1.29 
   2   8   8    8.34    0.78 
  -3  -8  -8    3.13    0.81 
   3   8   8    3.45    0.51 
  -4  -8  -8   -0.01    0.63 
   4   8   8    0.38    0.42 
  -5  -8  -8   26.75    2.32 
   5   8   8   20.41    1.51 
  -6  -8  -8    1.26    0.79 
   6   8   8    1.71    0.56 
   4  -9  -8    0.70    0.44 
  -4   9   8    1.61    0.66 
   3  -9  -8   19.91    1.22 
  -3   9   8   16.91    1.36 
   2  -9  -8    3.97    0.99 
   2  -9  -8    5.58    0.54 
  -2   9   8    5.34    0.69 
   1  -9  -8   13.10    1.62 
   1  -9  -8   16.50    1.00 
  -1   9   8   14.65    1.15 
   0  -9  -8   15.44    1.80 
   0  -9  -8   16.23    1.01 
   0   9   8   16.09    1.19 
  -1  -9  -8    9.04    1.36 
   1   9   8    9.56    0.86 
  -2  -9  -8   15.08    1.76 
   2   9   8   14.32    1.12 
  -3  -9  -8    0.01    0.67 
   3   9   8   -0.84    0.43 
  -4  -9  -8   16.55    1.79 
   4   9   8   13.67    1.11 
  -5  -9  -8    0.51    0.80 
   5   9   8    0.07    0.50 
   3 -10  -8   -0.67    0.40 
  -3  10   8   -0.13    0.64 
   2 -10  -8    4.76    0.54 
   2 -10  -8    5.25    1.09 
  -2  10   8    3.66    0.72 
   1 -10  -8    5.61    0.53 
   1 -10  -8    4.00    1.03 
  -1  10   8    4.88    0.74 
   0 -10  -8    1.45    0.84 
   0  10   8    0.42    0.55 
  -1 -10  -8    3.28    0.93 
   1  10   8    2.06    0.60 
  -2 -10  -8    7.18    1.28 
   2  10   8    7.76    0.83 
  -3 -10  -8    1.67    0.91 
   3  10   8    1.77    0.59 
  -4 -10  -8   12.31    1.70 
   1 -11  -8    8.63    1.35 
   0 -11  -8    0.92    1.04 
  -1 -11  -8   34.40    3.25 
  -2 -11  -8    0.22    1.02 
  -3  -8   9   -0.21    1.20 
  -2  -8   9    1.22    1.10 
  -1  -8   9   -1.04    0.97 
   1  -8   9    0.69    0.53 
  -4  -7   9   17.15    2.31 
  -3  -7   9    9.71    1.74 
  -2  -7   9   13.49    1.84 
  -1  -7   9   20.15    2.23 
   0  -7   9    0.39    0.44 
   0  -7   9   -1.53    0.78 
   1  -7   9   12.04    0.96 
   2  -7   9    0.30    0.52 
   3  -7   9    5.71    0.75 
  -5  -6   9    0.80    1.14 
  -4  -6   9   -0.87    1.04 
  -3  -6   9   -1.22    1.04 
  -2  -6   9    0.19    0.87 
  -1  -6   9    1.39    0.93 
  -1  -6   9    2.58    0.45 
   0  -6   9    0.48    0.75 
   0  -6   9   -0.30    0.39 
   1  -6   9    6.92    1.11 
   1  -6   9    7.06    0.70 
   2  -6   9   17.05    1.19 
   3  -6   9   12.24    1.02 
   4  -6   9   18.79    1.37 
  -6  -5   9    2.56    1.27 
  -5  -5   9   18.32    2.19 
  -4  -5   9   13.17    1.77 
  -3  -5   9   18.91    2.12 
  -2  -5   9   16.28    1.87 
  -1  -5   9    0.36    0.70 
  -1  -5   9    0.69    0.35 
   0  -5   9    8.99    0.73 
   0  -5   9    9.54    1.25 
   1  -5   9    0.93    0.39 
   1  -5   9    1.13    0.62 
   2  -5   9    3.34    0.51 
   3  -5   9    1.10    0.46 
   4  -5   9   -0.40    0.48 
   5  -5   9    0.53    0.60 
  -7  -4   9    0.48    1.07 
  -6  -4   9    1.16    1.02 
  -5  -4   9    5.77    1.30 
  -4  -4   9   -0.10    0.81 
  -3  -4   9    9.78    1.39 
  -2  -4   9   10.06    1.28 
  -2  -4   9    9.57    0.70 
  -1  -4   9   -0.07    0.28 
  -1  -4   9   -0.07    0.53 
   0  -4   9    2.43    0.37 
   0  -4   9    2.34    0.63 
   1  -4   9    0.71    0.49 
   1  -4   9    0.03    0.31 
   2  -4   9    0.40    0.35 
   2  -4   9    0.76    0.45 
   3  -4   9   19.52    1.28 
   4  -4   9    2.90    0.55 
   5  -4   9   13.20    1.09 
   6  -4   9    8.81    0.89 
  -7  -3   9   -0.51    0.93 
  -6  -3   9   20.66    2.23 
  -5  -3   9   12.49    1.59 
  -4  -3   9    6.65    1.04 
  -3  -3   9   17.53    1.07 
  -3  -3   9   16.58    1.75 
  -2  -3   9   11.63    1.28 
  -2  -3   9    8.90    0.69 
  -1  -3   9   14.46    0.93 
  -1  -3   9   15.40    1.51 
   0  -3   9    3.56    0.39 
   0  -3   9    4.80    0.79 
   1  -3   9    8.94    0.67 
   1  -3   9    9.41    1.05 
   2  -3   9   15.21    1.37 
   2  -3   9   15.41    1.00 
   3  -3   9    1.09    0.34 
   4  -3   9    2.09    0.47 
   5  -3   9    3.23    0.57 
   6  -3   9    3.26    0.65 
   6  -3   9    5.25    0.67 
  -7  -2   9   -0.41    1.02 
  -6  -2   9   13.62    1.70 
  -5  -2   9    5.86    1.08 
  -4  -2   9    4.45    0.93 
  -3  -2   9   34.42    1.98 
  -3  -2   9   35.27    2.86 
   2   2  -9    7.32    0.92 
  -2  -2   9    6.76    0.54 
  -2  -2   9    6.23    0.90 
   1   2  -9   45.87    3.29 
  -1  -2   9   39.43    2.35 
   0   2  -9   35.38    2.76 
   0  -2   9   35.10    2.00 
  -1   2  -9    0.22    0.35 
   1  -2   9    0.18    0.22 
   2  -2   9   45.24    2.55 
   3  -2   9    2.60    0.39 
   4  -2   9   16.67    1.14 
   5  -2   9    0.93    0.44 
   5  -2   9    0.53    0.44 
   6  -2   9   18.15    1.31 
   6  -2   9   18.80    1.32 
   7  -2   9   20.83    1.44 
   7  -2   9   21.58    1.52 
  -7  -1   9    7.53    1.34 
  -6  -1   9   17.76    1.97 
  -5  -1   9    7.21    1.11 
  -4  -1   9   11.31    1.28 
  -4  -1   9   11.54    0.77 
   3   1  -9    1.45    0.53 
  -3  -1   9    1.70    0.28 
   2   1  -9    3.17    0.63 
  -2  -1   9    5.80    0.45 
   1   1  -9   19.00    1.68 
  -1  -1   9   19.47    1.15 
   0   1  -9    3.17    0.59 
   0  -1   9    4.39    0.37 
  -1   1  -9    0.82    0.35 
   1  -1   9    0.12    0.20 
  -2   1  -9   43.62    3.30 
   2  -1   9   43.28    2.45 
  -3   1  -9    6.95    0.82 
   3  -1   9   10.09    0.66 
   4  -1   9   14.86    1.01 
   5  -1   9   18.46    1.24 
   5  -1   9   17.67    1.20 
   6  -1   9    1.06    0.45 
   6  -1   9   -0.26    0.49 
   7  -1   9   22.21    1.48 
  -7   0   9    3.57    0.95 
  -6   0   9   16.36    1.75 
   5   0  -9   14.24    1.43 
  -5   0   9   12.43    1.45 
  -5   0   9   14.34    0.90 
   4   0  -9   55.24    4.17 
  -4   0   9   53.22    3.00 
   3   0  -9   12.62    1.36 
  -3   0   9   15.59    0.91 
   2   0  -9    9.05    1.02 
  -2   0   9    8.30    0.60 
   1   0  -9  109.61    7.81 
  -1   0   9  104.26    5.82 
   0   0  -9    0.82    0.41 
   0   0   9    1.98    0.25 
  -1   0  -9   84.02    5.85 
   1   0   9   75.09    4.34 
  -2   0  -9    0.43    0.37 
   2   0   9    1.19    0.25 
  -3   0  -9   30.21    2.34 
   3   0   9   29.56    1.73 
   4   0   9   30.40    1.78 
   5   0   9   34.93    2.11 
   5   0   9   34.47    2.04 
   6   0   9    0.15    0.42 
   6   0   9    1.25    0.41 
   7   0   9   -0.13    0.50 
  -6   1   9   -0.47    0.62 
  -6   1   9    0.28    0.35 
   5  -1  -9   14.51    1.49 
  -5   1   9   15.19    0.97 
   4  -1  -9    2.02    0.62 
  -4   1   9    3.12    0.34 
   3  -1  -9   16.20    1.48 
  -3   1   9   14.64    0.93 
   2  -1  -9    1.92    0.50 
  -2   1   9    3.06    0.29 
   1  -1  -9    1.21    0.47 
  -1   1   9    1.62    0.24 
   0  -1  -9    0.31    0.36 
   0   1   9    0.09    0.17 
  -1  -1  -9    7.96    0.87 
   1   1   9    7.40    0.55 
  -2  -1  -9    2.86    0.52 
   2   1   9    3.36    0.32 
  -3  -1  -9    3.50    0.61 
   3   1   9    4.57    0.40 
  -4  -1  -9    0.07    0.31 
   4   1   9   -0.06    0.22 
   4   1   9   -0.21    0.23 
   5   1   9    3.86    0.43 
   5   1   9    2.83    0.42 
   6   1   9   27.76    1.84 
   6   1   9   31.81    1.80 
   7   1   9   -0.17    0.47 
   6  -2  -9    1.26    0.44 
   6  -2  -9    1.00    0.63 
   5  -2  -9   73.04    5.44 
   5  -2  -9   75.48    4.02 
  -5   2   9   68.23    4.15 
   4  -2  -9   44.02    3.26 
   4  -2  -9   38.41    2.30 
   3  -2  -9   45.33    3.44 
  -3   2   9   43.25    2.46 
   2  -2  -9   73.43    5.51 
  -2   2   9   73.72    4.04 
   1  -2  -9   14.07    1.36 
  -1   2   9   14.33    0.86 
   0  -2  -9  200.54   13.80 
   0   2   9  183.41   10.39 
  -1  -2  -9    1.13    0.44 
   1   2   9    1.05    0.22 
  -2  -2  -9   40.47    3.12 
   2   2   9   40.65    2.27 
  -3  -2  -9   25.55    2.23 
   3   2   9   30.70    1.67 
   3   2   9   27.41    1.62 
  -4  -2  -9    1.60    0.49 
   4   2   9    2.63    0.32 
   4   2   9    1.70    0.30 
   5   2   9   28.69    1.59 
   5   2   9   25.18    1.65 
   6   2   9    3.56    0.49 
   7   2   9   -0.41    0.42 
   7  -3  -9    1.32    0.53 
  -7   3   9    0.82    0.58 
   6  -3  -9    8.06    1.14 
   6  -3  -9   10.49    0.83 
  -6   3   9   11.46    0.89 
   5  -3  -9    4.28    0.84 
   5  -3  -9    5.41    0.52 
  -5   3   9    5.69    0.60 
   4  -3  -9    1.10    0.58 
   4  -3  -9    1.27    0.31 
  -4   3   9    1.07    0.34 
   3  -3  -9   14.34    1.50 
   3  -3  -9   16.81    0.99 
  -3   3   9   15.76    1.02 
   2  -3  -9    6.53    0.91 
   2  -3  -9    6.96    0.52 
   1  -3  -9    7.13    0.87 
  -1   3   9    6.53    0.49 
   0  -3  -9    2.93    0.61 
   0   3   9    4.22    0.33 
  -1  -3  -9    1.51    0.44 
   1   3   9    2.01    0.26 
  -2  -3  -9   42.55    3.29 
   2   3   9   40.44    2.37 
   2   3   9   44.15    2.46 
  -3  -3  -9    8.08    0.99 
   3   3   9    9.83    0.66 
   3   3   9    8.90    0.63 
  -4  -3  -9   22.97    2.08 
   4   3   9   27.44    1.54 
   4   3   9   24.37    1.46 
  -5  -3  -9    8.07    1.05 
   5   3   9    9.93    0.77 
   5   3   9   11.54    0.73 
   6   3   9   -0.35    0.34 
   7   3   9    9.27    0.86 
   7  -4  -9    0.67    0.51 
  -7   4   9    0.64    0.60 
   6  -4  -9   39.64    2.28 
  -6   4   9   37.56    2.38 
   5  -4  -9    6.06    0.55 
   5  -4  -9    4.04    0.83 
  -5   4   9    5.38    0.60 
   4  -4  -9   30.84    1.82 
   4  -4  -9   33.68    2.64 
  -4   4   9   30.45    1.90 
   3  -4  -9   38.73    2.19 
   3  -4  -9   36.76    3.08 
  -3   4   9   39.89    2.28 
   2  -4  -9    1.19    0.50 
   2  -4  -9    1.00    0.23 
  -2   4   9    0.78    0.30 
   1  -4  -9  103.07    8.17 
  -1   4   9  119.34    6.34 
   0  -4  -9   15.00    1.43 
   0   4   9   14.53    0.92 
   0   4   9   16.06    0.97 
  -1  -4  -9   11.22    1.14 
   1   4   9    9.51    0.68 
   1   4   9   11.06    0.71 
  -2  -4  -9   16.42    1.53 
   2   4   9   17.55    1.03 
   2   4   9   15.19    0.98 
  -3  -4  -9    0.40    0.47 
   3   4   9    0.41    0.20 
   3   4   9    1.07    0.25 
  -4  -4  -9    0.85    0.48 
   4   4   9    0.29    0.28 
   4   4   9    0.46    0.21 
  -5  -4  -9    3.95    0.73 
   5   4   9    4.42    0.50 
   6   4   9    0.40    0.38 
   7   4   9    1.83    0.51 
   7  -5  -9    5.47    0.70 
  -7   5   9    5.38    0.83 
   6  -5  -9    0.60    0.46 
  -6   5   9    1.39    0.59 
   5  -5  -9    1.84    0.42 
   5  -5  -9    1.88    0.67 
  -5   5   9    0.91    0.49 
   4  -5  -9    3.75    0.45 
   4  -5  -9    4.36    0.85 
  -4   5   9    3.69    0.54 
   3  -5  -9    5.57    0.92 
   3  -5  -9    7.57    0.57 
  -3   5   9    7.62    0.64 
   2  -5  -9    1.84    0.28 
   2  -5  -9    1.76    0.60 
  -2   5   9    2.34    0.37 
   1  -5  -9   21.24    1.26 
   1  -5  -9   20.81    1.90 
  -1   5   9   22.23    1.34 
   0  -5  -9    6.53    0.96 
   0   5   9    7.69    0.55 
   0   5   9    7.55    0.61 
  -1  -5  -9   33.73    2.58 
   1   5   9   30.02    1.77 
   1   5   9   30.98    1.86 
  -2  -5  -9   21.10    1.86 
   2   5   9   20.16    1.23 
   2   5   9   22.01    1.31 
  -3  -5  -9    1.44    0.52 
   3   5   9    0.80    0.25 
   3   5   9    1.05    0.32 
  -4  -5  -9   63.66    4.56 
   4   5   9   56.06    3.45 
  -5  -5  -9    1.24    0.60 
   5   5   9    0.91    0.39 
  -6  -5  -9   16.84    1.68 
   6   5   9   18.01    1.23 
   7   5   9    2.68    0.57 
   6  -6  -9   19.63    1.30 
  -6   6   9   18.17    1.40 
   5  -6  -9   13.18    0.96 
  -5   6   9   13.04    1.06 
   4  -6  -9   15.53    1.00 
   4  -6  -9   16.10    1.60 
  -4   6   9   13.14    1.07 
   3  -6  -9    0.28    0.53 
   3  -6  -9    0.43    0.28 
  -3   6   9   -0.39    0.41 
   2  -6  -9   52.45    2.98 
   2  -6  -9   53.30    4.13 
  -2   6   9   54.49    3.13 
   1  -6  -9    1.66    0.62 
   1  -6  -9    1.54    0.26 
  -1   6   9    1.22    0.37 
   0  -6  -9   14.68    1.48 
   0  -6  -9   14.35    0.90 
   0   6   9   14.63    1.00 
  -1  -6  -9   25.68    2.17 
   1   6   9   24.39    1.55 
   1   6   9   25.53    1.46 
  -2  -6  -9   -0.07    0.46 
   2   6   9    0.00    0.22 
   2   6   9   -0.29    0.28 
  -3  -6  -9   12.75    1.38 
   3   6   9   12.71    0.90 
  -4  -6  -9    1.64    0.62 
   4   6   9    0.52    0.35 
  -5  -6  -9    2.44    0.73 
   5   6   9    1.70    0.45 
  -6  -6  -9    3.49    0.82 
   6   6   9    3.74    0.56 
   7   6   9    2.50    0.61 
   6  -7  -9    1.77    0.54 
  -6   7   9    0.50    0.67 
   5  -7  -9    2.53    0.50 
  -5   7   9    1.77    0.62 
   4  -7  -9   28.08    2.18 
   4  -7  -9   22.45    1.42 
  -4   7   9   20.32    1.53 
   3  -7  -9    2.47    0.40 
   3  -7  -9    3.19    0.80 
  -3   7   9    2.63    0.53 
   2  -7  -9   26.98    1.64 
   2  -7  -9   34.95    2.54 
  -2   7   9   26.04    1.76 
   1  -7  -9   26.61    2.45 
   1  -7  -9   29.45    1.62 
  -1   7   9   26.63    1.73 
   0  -7  -9    0.78    0.25 
   0  -7  -9    0.25    0.56 
   0   7   9    0.96    0.41 
  -1  -7  -9   40.90    3.14 
   1   7   9   34.14    2.27 
   1   7   9   39.32    2.14 
  -2  -7  -9   -0.04    0.51 
   2   7   9   -0.08    0.22 
   2   7   9    0.18    0.36 
  -3  -7  -9   23.23    2.01 
   3   7   9   19.98    1.36 
  -4  -7  -9    1.17    0.66 
   4   7   9    0.89    0.40 
  -5  -7  -9   12.47    1.45 
   5   7   9   11.78    0.95 
  -6  -7  -9   10.36    1.36 
   6   7   9    9.91    0.93 
   5  -8  -9   10.52    0.87 
  -5   8   9    8.84    0.97 
   4  -8  -9   -0.61    0.36 
  -4   8   9    0.93    0.57 
   3  -8  -9   17.14    1.16 
   3  -8  -9   20.80    1.92 
  -3   8   9   17.89    1.31 
   2  -8  -9    4.71    0.48 
   2  -8  -9    4.44    0.98 
  -2   8   9    4.70    0.63 
   1  -8  -9    0.52    0.28 
   1  -8  -9    1.40    0.78 
  -1   8   9    0.76    0.46 
   0  -8  -9    7.01    0.55 
   0  -8  -9    5.51    1.03 
   0   8   9    7.10    0.70 
  -1  -8  -9    1.53    0.74 
   1   8   9    1.53    0.48 
  -2  -8  -9    6.72    1.10 
   2   8   9    6.89    0.69 
  -3  -8  -9    3.50    0.82 
   3   8   9    3.69    0.54 
  -4  -8  -9    3.11    0.85 
   4   8   9    2.54    0.53 
  -5  -8  -9    8.43    1.21 
   5   8   9    7.40    0.78 
  -6  -8  -9    7.55    1.25 
   4  -9  -9   -0.98    0.42 
  -4   9   9    0.05    0.66 
   3  -9  -9   12.82    0.93 
   3  -9  -9   13.53    1.55 
  -3   9   9   12.43    1.11 
   2  -9  -9   18.24    1.16 
   2  -9  -9   19.57    2.01 
  -2   9   9   16.82    1.31 
   1  -9  -9   16.58    1.80 
   1  -9  -9   13.79    0.92 
  -1   9   9   12.88    1.08 
   0  -9  -9   39.36    2.21 
   0  -9  -9   40.58    3.30 
   0   9   9   36.95    2.40 
  -1  -9  -9    0.14    0.70 
   1   9   9   -0.70    0.45 
  -2  -9  -9   22.82    2.24 
   2   9   9   21.14    1.48 
  -3  -9  -9    9.48    1.39 
   3   9   9    9.63    0.87 
  -4  -9  -9    9.00    1.32 
   4   9   9    8.52    0.84 
  -5  -9  -9    3.01    1.03 
   2 -10  -9    0.24    0.38 
   2 -10  -9    0.58    0.78 
  -2  10   9    0.75    0.63 
   1 -10  -9    1.93    0.95 
   1 -10  -9    2.07    0.40 
  -1  10   9    1.64    0.64 
   0 -10  -9    3.34    1.01 
   0  10   9    4.38    0.71 
  -1 -10  -9    2.08    0.92 
   1  10   9    1.53    0.59 
  -2 -10  -9    2.00    0.95 
   2  10   9    2.30    0.61 
  -3 -10  -9    5.38    1.18 
   3  10   9    4.90    0.71 
  -4 -10  -9    6.18    1.27 
   1 -11  -9   17.75    2.05 
   0 -11  -9   -0.33    0.83 
  -1 -11  -9   21.78    2.38 
  -2 -11  -9    6.45    1.33 
  -1  -8  10   -0.20    0.96 
  -4  -7  10   10.77    1.97 
  -3  -7  10   20.49    2.52 
  -2  -7  10    2.13    1.12 
  -1  -7  10   13.67    1.81 
   0  -7  10    0.97    0.50 
   0  -7  10    0.52    1.00 
   1  -7  10    5.40    0.69 
   2  -7  10    0.02    0.56 
  -5  -6  10   -0.40    1.22 
  -4  -6  10    0.24    1.19 
  -3  -6  10   -0.74    1.00 
  -2  -6  10    2.05    1.13 
  -1  -6  10    3.63    1.06 
   0  -6  10   -0.23    0.41 
   0  -6  10    0.65    0.78 
   1  -6  10    0.76    0.48 
   2  -6  10    7.84    0.78 
   3  -6  10   -0.32    0.51 
   4  -6  10   11.07    1.04 
  -6  -5  10    1.60    1.36 
  -5  -5  10    7.70    1.54 
  -4  -5  10   33.93    3.23 
  -3  -5  10    0.29    0.98 
  -2  -5  10   24.12    2.47 
  -1  -5  10   -0.06    0.35 
  -1  -5  10    2.05    0.84 
   0  -5  10    7.73    1.16 
   0  -5  10    7.86    0.71 
   1  -5  10    7.14    1.08 
   1  -5  10    7.83    0.70 
   2  -5  10   13.56    1.01 
   3  -5  10    1.92    0.56 
   4  -5  10    0.59    0.56 
   5  -5  10    0.00    0.64 
  -6  -4  10    1.47    1.19 
  -5  -4  10    7.58    1.48 
  -4  -4  10    3.45    1.10 
  -3  -4  10    5.68    1.18 
  -2  -4  10    8.07    0.64 
  -2  -4  10    7.88    1.21 
  -1  -4  10   33.52    2.83 
  -1  -4  10   33.40    1.94 
   0  -4  10    5.34    0.94 
   0  -4  10    7.17    0.58 
   1  -4  10   10.78    1.27 
   1  -4  10   11.95    0.85 
   2  -4  10    0.84    0.41 
   3  -4  10   22.29    1.44 
   4  -4  10    2.60    0.60 
   5  -4  10   12.51    1.07 
   6  -4  10    6.65    0.85 
  -7  -3  10    1.57    1.24 
  -6  -3  10    2.13    1.26 
  -5  -3  10    7.34    1.34 
  -4  -3  10    1.19    0.85 
  -3  -3  10   30.77    2.70 
  -3  -3  10   30.59    1.77 
  -2  -3  10    7.82    0.62 
  -2  -3  10    7.06    1.14 
  -1  -3  10   31.39    2.56 
  -1  -3  10   28.86    1.72 
   0  -3  10   47.97    3.69 
   0  -3  10   46.69    2.66 
   1  -3  10    4.91    0.81 
   1  -3  10    5.13    0.49 
   2  -3  10    5.87    0.57 
   2  -3  10    7.12    0.85 
   3  -3  10    8.66    0.73 
   4  -3  10    5.85    0.67 
   5  -3  10    0.71    0.53 
   6  -3  10   -0.26    0.56 
  -7  -2  10    3.14    1.17 
  -6  -2  10    1.16    0.94 
  -5  -2  10    6.65    1.23 
  -4  -2  10    8.70    1.28 
  -3  -2  10   45.64    2.59 
  -3  -2  10   47.01    3.69 
   2   2 -10   19.43    1.71 
  -2  -2  10   16.94    1.09 
   1   2 -10    1.48    0.52 
  -1  -2  10    0.87    0.28 
   0   2 -10   78.69    5.86 
   0  -2  10   79.10    4.36 
  -1   2 -10   15.28    1.42 
   1  -2  10   15.78    1.00 
   2  -2  10   32.81    1.91 
   3  -2  10    0.99    0.36 
   4  -2  10    0.21    0.40 
   5  -2  10   11.31    0.93 
   6  -2  10    6.41    0.74 
   7  -2  10    4.05    0.62 
  -7  -1  10    1.10    1.06 
  -6  -1  10   18.22    2.02 
  -5  -1  10    4.52    1.03 
   4   1 -10   11.57    1.28 
  -4  -1  10   10.42    0.72 
  -4  -1  10    8.49    1.21 
   3   1 -10    0.37    0.53 
  -3  -1  10    0.47    0.27 
   2   1 -10    4.86    0.86 
  -2  -1  10    6.29    0.51 
   1   1 -10   20.30    1.85 
  -1  -1  10   21.48    1.25 
   0   1 -10    1.80    0.54 
   0  -1  10    2.90    0.33 
  -1   1 -10    0.52    0.45 
   1  -1  10    0.42    0.24 
  -2   1 -10    1.70    0.49 
   2  -1  10    2.33    0.33 
  -3   1 -10    0.19    0.34 
   3  -1  10   -0.15    0.28 
   4  -1  10    0.52    0.35 
   5  -1  10   10.68    0.86 
   6  -1  10    0.45    0.47 
   6  -1  10    0.17    0.47 
   7  -1  10    2.59    0.56 
   7  -1  10    1.58    0.59 
  -7   0  10    1.27    0.98 
  -6   0  10    4.00    1.00 
   5   0 -10    2.32    0.78 
  -5   0  10    1.36    0.34 
   4   0 -10   13.54    1.47 
  -4   0  10   13.96    0.91 
   3   0 -10   42.76    3.45 
  -3   0  10   44.17    2.45 
   2   0 -10   42.68    3.17 
  -2   0  10   37.53    2.22 
   1   0 -10   24.91    1.93 
  -1   0  10   20.46    1.30 
   0   0 -10    0.33    0.38 
   0   0  10    0.08    0.21 
  -1   0 -10   98.37    7.05 
   1   0  10   93.42    5.25 
  -2   0 -10    7.19    0.91 
   2   0  10    7.66    0.60 
  -3   0 -10   18.62    1.65 
   3   0  10   19.40    1.18 
   4   0  10   16.91    1.09 
   5   0  10    1.13    0.39 
   5   0  10    0.40    0.36 
   6   0  10    8.06    0.70 
   6   0  10    5.85    0.68 
   7   0  10   10.97    1.02 
   7   0  10   11.83    0.98 
  -6   1  10    0.52    0.72 
   5  -1 -10   48.04    3.91 
  -5   1  10   50.81    2.80 
   4  -1 -10   10.56    1.34 
  -4   1  10   13.62    0.84 
   3  -1 -10    5.65    0.93 
  -3   1  10    6.46    0.51 
   2  -1 -10   21.06    1.90 
  -2   1  10   21.48    1.27 
   1  -1 -10    0.19    0.40 
  -1   1  10    0.07    0.22 
   0  -1 -10    1.72    0.55 
   0   1  10    1.79    0.27 
  -1  -1 -10    1.15    0.47 
   1   1  10    1.12    0.25 
  -2  -1 -10    0.05    0.40 
   2   1  10    0.26    0.23 
  -3  -1 -10   13.92    1.30 
   3   1  10   13.58    0.90 
  -4  -1 -10    8.22    0.95 
   4   1  10    9.82    0.71 
   5   1  10   -0.54    0.29 
   5   1  10    0.13    0.32 
   6   1  10   27.78    1.82 
   6   1  10   30.60    1.78 
   7   1  10   12.06    1.03 
   6  -2 -10    0.27    0.68 
   5  -2 -10   29.56    2.52 
   4  -2 -10   22.91    2.01 
  -4   2  10   21.14    1.31 
   3  -2 -10   11.31    1.35 
  -3   2  10   14.29    0.86 
   2  -2 -10   46.38    3.55 
  -2   2  10   44.08    2.51 
   1  -2 -10   12.82    1.37 
  -1   2  10   13.77    0.85 
   0  -2 -10   79.74    5.66 
   0   2  10   72.52    4.16 
  -1  -2 -10   48.52    3.63 
   1   2  10   45.94    2.63 
  -2  -2 -10    0.34    0.38 
   2   2  10    0.45    0.23 
  -3  -2 -10    3.72    0.65 
   3   2  10    4.07    0.40 
  -4  -2 -10    9.75    1.08 
   4   2  10   10.63    0.75 
   4   2  10   10.65    0.74 
   5   2  10    0.11    0.30 
   5   2  10    0.69    0.30 
   6   2  10   -0.03    0.37 
   7   2  10    0.25    0.46 
   7  -3 -10    3.29    0.61 
  -7   3  10    2.95    0.65 
   6  -3 -10    1.62    0.49 
   6  -3 -10    2.04    0.74 
  -6   3  10    1.82    0.54 
   5  -3 -10    0.40    0.57 
   5  -3 -10    0.91    0.40 
  -5   3  10    0.17    0.41 
   4  -3 -10    0.45    0.54 
   4  -3 -10   -0.55    0.30 
  -4   3  10   -0.01    0.32 
   3  -3 -10    1.80    0.64 
   2  -3 -10    2.05    0.62 
  -2   3  10    1.85    0.27 
   1  -3 -10    3.05    0.61 
  -1   3  10    2.65    0.30 
   0  -3 -10    9.57    1.15 
   0   3  10    9.89    0.67 
  -1  -3 -10   13.04    1.34 
   1   3  10   14.07    0.87 
  -2  -3 -10    0.46    0.46 
   2   3  10    0.10    0.19 
   2   3  10    0.22    0.23 
  -3  -3 -10   48.96    3.73 
   3   3  10   48.55    2.80 
   3   3  10   47.37    2.70 
  -4  -3 -10   11.58    1.29 
   4   3  10   13.34    0.88 
   4   3  10   12.96    0.85 
  -5  -3 -10   10.46    1.26 
   5   3  10   13.10    0.82 
   5   3  10   11.26    0.85 
   6   3  10    4.64    0.55 
   7   3  10    2.31    0.53 
   7  -4 -10    4.87    0.67 
  -7   4  10    2.54    0.68 
   6  -4 -10   11.57    0.89 
  -6   4  10    9.15    0.90 
   5  -4 -10   14.71    1.02 
   5  -4 -10   14.51    1.58 
  -5   4  10   14.98    1.08 
   4  -4 -10   25.20    1.50 
   4  -4 -10   23.13    2.21 
  -4   4  10   25.91    1.56 
   3  -4 -10   30.39    1.72 
   3  -4 -10   32.67    2.55 
  -3   4  10   27.11    1.77 
   2  -4 -10    0.29    0.22 
   2  -4 -10    0.13    0.47 
  -2   4  10    0.01    0.30 
   1  -4 -10   75.98    5.48 
  -1   4  10   71.34    4.13 
  -1   4  10   70.76    3.98 
   0  -4 -10    1.22    0.58 
   0   4  10    2.72    0.30 
   0   4  10    2.16    0.33 
  -1  -4 -10    0.29    0.41 
   1   4  10    0.20    0.25 
   1   4  10    0.28    0.22 
  -2  -4 -10   16.74    1.55 
   2   4  10   15.33    0.98 
   2   4  10   16.02    1.01 
  -3  -4 -10   -0.18    0.42 
   3   4  10    0.04    0.21 
   3   4  10   -0.09    0.24 
  -4  -4 -10    8.81    1.12 
   4   4  10    9.79    0.73 
   4   4  10    8.62    0.67 
  -5  -4 -10    0.40    0.48 
   5   4  10    0.37    0.35 
   6   4  10    7.53    0.71 
   7   4  10    3.43    0.59 
   6  -5 -10    6.55    0.66 
  -6   5  10    3.88    0.70 
   5  -5 -10    1.20    0.69 
   5  -5 -10    2.77    0.47 
  -5   5  10    2.25    0.55 
   4  -5 -10    0.16    0.34 
   4  -5 -10    0.27    0.65 
  -4   5  10    0.48    0.44 
   3  -5 -10    9.07    1.20 
   3  -5 -10   10.10    0.71 
  -3   5  10   10.01    0.80 
   2  -5 -10   12.56    1.43 
   2  -5 -10   13.00    0.84 
  -2   5  10   13.17    0.91 
   1  -5 -10    5.97    0.95 
  -1   5  10    6.39    0.56 
   0  -5 -10   44.74    3.64 
   0   5  10   47.72    2.69 
   0   5  10   45.34    2.57 
  -1  -5 -10    5.06    0.86 
   1   5  10    5.66    0.44 
   1   5  10    4.74    0.47 
  -2  -5 -10   33.80    2.70 
   2   5  10   29.39    1.84 
   2   5  10   34.58    1.94 
  -3  -5 -10   13.32    1.48 
   3   5  10   16.00    1.00 
   3   5  10   14.22    0.95 
  -4  -5 -10   29.21    2.51 
   4   5  10   30.58    1.84 
  -5  -5 -10   30.33    2.52 
   5   5  10   28.92    1.85 
   6   5  10    9.19    0.82 
   7   5  10   12.83    1.04 
   6  -6 -10   22.70    1.46 
  -6   6  10   21.43    1.58 
   5  -6 -10    2.90    0.50 
  -5   6  10    2.19    0.60 
   4  -6 -10   34.08    2.86 
   4  -6 -10   34.68    1.98 
  -4   6  10   32.58    2.09 
   3  -6 -10    5.61    0.92 
   3  -6 -10    3.97    0.44 
  -3   6  10    3.82    0.53 
   2  -6 -10   44.33    3.36 
   2  -6 -10   39.38    2.32 
  -2   6  10   40.85    2.44 
   1  -6 -10   25.62    1.50 
   1  -6 -10   28.06    2.30 
  -1   6  10   24.38    1.59 
   0  -6 -10   14.35    1.57 
   0   6  10   14.87    0.95 
   0   6  10   15.12    1.02 
  -1  -6 -10   10.57    1.38 
   1   6  10   15.10    0.89 
   1   6  10   14.10    0.95 
  -2  -6 -10    6.79    1.01 
   2   6  10    6.00    0.58 
   2   6  10    7.61    0.56 
  -3  -6 -10    6.91    1.07 
   3   6  10    8.22    0.67 
  -4  -6 -10    8.10    1.14 
   4   6  10    7.52    0.68 
  -5  -6 -10    4.21    0.82 
   5   6  10    3.46    0.53 
  -6  -6 -10   -0.26    0.62 
   6   6  10    0.64    0.47 
   5  -7 -10    1.42    0.47 
  -5   7  10    0.23    0.61 
   4  -7 -10   16.49    1.10 
   4  -7 -10   18.32    1.79 
  -4   7  10   15.42    1.22 
   3  -7 -10    6.56    0.58 
   3  -7 -10    5.65    1.04 
  -3   7  10    6.86    0.71 
   2  -7 -10    7.65    1.18 
   2  -7 -10    7.95    0.62 
  -2   7  10    8.66    0.78 
   1  -7 -10   34.38    2.02 
   1  -7 -10   37.49    3.02 
  -1   7  10   35.37    2.16 
   0  -7 -10    4.44    0.94 
   0   7  10    4.60    0.56 
  -1  -7 -10   34.94    2.89 
   1   7  10   32.17    2.07 
   1   7  10   35.60    1.96 
  -2  -7 -10    7.53    1.13 
   2   7  10    7.41    0.68 
   2   7  10    8.25    0.63 
  -3  -7 -10   10.51    1.30 
   3   7  10    8.74    0.76 
  -4  -7 -10   11.23    1.38 
   4   7  10   10.86    0.87 
  -5  -7 -10    4.59    0.93 
   5   7  10    5.54    0.63 
  -6  -7 -10   11.91    1.49 
   6   7  10   12.55    1.05 
   5  -8 -10    2.98    0.57 
  -5   8  10    3.73    0.77 
   4  -8 -10    6.67    0.66 
  -4   8  10    7.64    0.83 
   3  -8 -10   13.36    1.53 
   3  -8 -10   13.78    0.93 
  -3   8  10   12.81    1.08 
   2  -8 -10    7.81    0.65 
   2  -8 -10    9.76    1.30 
  -2   8  10    7.87    0.78 
   1  -8 -10    3.54    0.92 
   1  -8 -10    3.23    0.39 
  -1   8  10    2.99    0.55 
   0  -8 -10    9.55    1.39 
   0  -8 -10   11.01    0.75 
   0   8  10   10.54    0.89 
  -1  -8 -10    6.45    1.17 
   1   8  10    8.82    0.81 
   1   8  10   10.71    0.73 
  -2  -8 -10    8.00    1.22 
   2   8  10    8.02    0.75 
  -3  -8 -10    2.66    0.86 
   3   8  10    4.09    0.56 
  -4  -8 -10    6.37    1.11 
   4   8  10    6.17    0.69 
  -5  -8 -10    0.12    0.71 
   5   8  10    0.32    0.49 
  -6  -8 -10    4.89    1.03 
   4  -9 -10    1.23    0.48 
  -4   9  10    0.07    0.69 
   3  -9 -10    6.50    0.64 
   3  -9 -10    6.47    1.20 
  -3   9  10    7.83    0.85 
   2  -9 -10   23.50    2.23 
   2  -9 -10   23.76    1.41 
  -2   9  10   21.63    1.57 
   1  -9 -10    4.89    0.49 
   1  -9 -10    4.99    1.09 
  -1   9  10    4.29    0.68 
   0  -9 -10   38.64    2.18 
   0  -9 -10   42.00    3.33 
   0   9  10   34.78    2.35 
  -1  -9 -10    6.76    1.21 
   1   9  10    6.13    0.73 
  -2  -9 -10   12.55    1.58 
   2   9  10   11.95    1.00 
  -3  -9 -10   16.47    1.92 
   3   9  10   17.54    1.25 
  -4  -9 -10    1.54    0.84 
   4   9  10    0.57    0.52 
  -5  -9 -10    6.67    1.21 
   2 -10 -10   -0.41    0.71 
   2 -10 -10   -0.07    0.38 
  -2  10  10    0.24    0.62 
   1 -10 -10    0.41    0.35 
   1 -10 -10   -0.40    0.83 
  -1  10  10    0.41    0.61 
   0 -10 -10    1.64    0.94 
   0  10  10    1.84    0.65 
  -1 -10 -10    1.68    0.89 
   1  10  10    0.32    0.58 
  -2 -10 -10    2.02    0.90 
   2  10  10    0.86    0.57 
  -3 -10 -10    7.01    1.28 
   3  10  10    6.78    0.81 
  -4 -10 -10    1.52    0.97 
   0 -11 -10    6.21    1.31 
  -1 -11 -10    7.56    1.46 
  -3  -7  11    8.14    1.67 
  -2  -7  11    1.73    1.27 
  -1  -7  11    7.81    1.42 
   1  -7  11    2.77    0.62 
  -4  -6  11    0.13    1.43 
  -3  -6  11    0.12    1.14 
  -2  -6  11    3.40    1.27 
  -1  -6  11   -0.33    0.96 
   0  -6  11    4.56    0.63 
   0  -6  11    5.45    1.14 
   1  -6  11    0.80    0.51 
   2  -6  11    9.88    0.91 
   3  -6  11    9.47    0.94 
  -5  -5  11    0.14    1.20 
  -4  -5  11   21.89    2.52 
  -3  -5  11    0.58    1.13 
  -2  -5  11   20.44    2.29 
  -1  -5  11    3.97    0.53 
  -1  -5  11    5.89    1.17 
   0  -5  11    5.51    1.05 
   0  -5  11    5.30    0.60 
   1  -5  11    7.11    1.08 
   1  -5  11    6.28    0.68 
   2  -5  11    0.01    0.47 
   3  -5  11    2.71    0.61 
   4  -5  11    0.03    0.57 
  -6  -4  11    2.56    1.39 
  -5  -4  11    4.21    1.39 
  -4  -4  11    0.73    1.08 
  -3  -4  11    1.13    1.02 
  -2  -4  11    0.01    0.34 
  -2  -4  11   -0.24    0.77 
  -1  -4  11    7.69    1.19 
  -1  -4  11    7.13    0.63 
   0  -4  11    0.70    0.73 
   0  -4  11   -0.39    0.31 
   1  -4  11    4.37    0.52 
   1  -4  11    3.77    0.80 
   2  -4  11   13.49    1.00 
   3  -4  11   12.32    0.99 
   4  -4  11    3.77    0.66 
   5  -4  11    1.09    0.62 
  -6  -3  11    0.91    1.17 
  -5  -3  11   10.63    1.61 
  -4  -3  11    2.40    1.00 
  -3  -3  11   22.81    1.42 
  -3  -3  11   25.38    2.40 
  -2  -3  11   17.54    1.12 
  -2  -3  11   17.29    1.91 
  -1  -3  11    7.80    1.13 
  -1  -3  11    6.52    0.58 
   0  -3  11   52.57    2.98 
   0  -3  11   53.16    4.12 
   1  -3  11    0.65    0.34 
   1  -3  11    0.81    0.58 
   2  -3  11   -0.82    0.34 
   2  -3  11    1.14    0.50 
   3  -3  11    8.72    0.76 
   4  -3  11   -0.40    0.50 
   5  -3  11   -0.10    0.54 
   6  -3  11    0.15    0.61 
  -7  -2  11    4.10    1.31 
  -6  -2  11    0.58    0.98 
  -5  -2  11    4.80    1.21 
  -4  -2  11    6.17    1.19 
  -3  -2  11   12.64    0.83 
  -3  -2  11    9.84    1.37 
   2   2 -11   12.61    1.42 
  -2  -2  11   12.18    0.84 
   1   2 -11    2.79    0.72 
  -1  -2  11    2.54    0.37 
   0   2 -11    5.68    0.90 
   0  -2  11    6.76    0.57 
  -1   2 -11    3.54    0.68 
   1  -2  11    4.89    0.47 
   2  -2  11   28.32    1.69 
   3  -2  11   11.07    0.87 
   4  -2  11    9.21    0.81 
   5  -2  11   12.86    1.05 
   6  -2  11   -0.01    0.52 
  -7  -1  11   -0.27    0.96 
  -6  -1  11   21.30    2.32 
  -5  -1  11   11.44    1.55 
   4   1 -11   16.93    1.84 
  -4  -1  11   18.96    1.15 
   3   1 -11    1.27    0.64 
  -3  -1  11    0.73    0.32 
   2   1 -11    0.70    0.54 
  -2  -1  11   -0.23    0.28 
   1   1 -11    0.85    0.52 
  -1  -1  11   -0.24    0.24 
   0   1 -11    0.65    0.48 
   0  -1  11    0.69    0.27 
  -1   1 -11   13.84    1.47 
   1  -1  11   17.42    1.03 
  -2   1 -11    0.63    0.45 
   2  -1  11    0.43    0.31 
   3  -1  11    4.86    0.51 
   4  -1  11    7.21    0.66 
   5  -1  11   15.44    1.14 
   6  -1  11   10.35    0.91 
   7  -1  11    2.50    0.61 
  -7   0  11   -0.18    1.05 
  -6   0  11    4.21    1.12 
   5   0 -11    2.92    0.85 
  -5   0  11    3.20    0.45 
   4   0 -11    2.32    0.72 
  -4   0  11    1.18    0.34 
   3   0 -11   70.33    5.23 
  -3   0  11   66.86    3.79 
   2   0 -11    0.87    0.59 
  -2   0  11    2.62    0.33 
   1   0 -11   89.48    6.41 
  -1   0  11   82.46    4.71 
   0   0 -11   31.65    2.51 
   0   0  11   29.51    1.75 
  -1   0 -11   36.36    2.84 
   1   0  11   34.51    2.02 
  -2   0 -11   43.31    3.31 
   2   0  11   41.02    2.39 
  -3   0 -11    0.47    0.47 
   3   0  11    0.64    0.31 
   4   0  11   12.17    0.88 
   5   0  11   -0.11    0.39 
   6   0  11    6.49    0.74 
   6   0  11    9.99    0.78 
   7   0  11   -0.40    0.56 
   7   0  11    0.12    0.50 
  -7   1  11    9.14    1.48 
   6  -1 -11    4.71    0.95 
   5  -1 -11   -0.11    0.63 
  -5   1  11    0.56    0.36 
   4  -1 -11   11.33    1.36 
  -4   1  11   10.89    0.77 
   3  -1 -11    0.06    0.54 
  -3   1  11    0.03    0.27 
   2  -1 -11    0.46    0.50 
  -2   1  11    0.20    0.25 
   1  -1 -11    1.94    0.60 
  -1   1  11    1.72    0.29 
   0  -1 -11    2.59    0.67 
   0   1  11    2.08    0.32 
  -1  -1 -11    1.52    0.56 
   1   1  11    1.17    0.28 
  -2  -1 -11    3.88    0.80 
   2   1  11    5.57    0.47 
  -3  -1 -11    0.83    0.47 
   3   1  11    0.26    0.29 
   4   1  11   13.23    0.92 
   5   1  11    6.05    0.56 
   5   1  11    4.68    0.53 
   6   1  11    0.80    0.43 
   6   1  11    1.49    0.45 
   7   1  11   19.49    1.41 
   6  -2 -11   10.92    1.43 
  -6   2  11   13.14    0.92 
   5  -2 -11    0.07    0.64 
  -5   2  11    0.04    0.35 
   4  -2 -11   24.78    2.31 
  -4   2  11   25.75    1.51 
   3  -2 -11   -0.16    0.54 
  -3   2  11   -0.02    0.26 
   2  -2 -11   12.26    1.45 
  -2   2  11   14.40    0.87 
   1  -2 -11   82.07    5.72 
  -1   2  11   70.48    4.14 
   0  -2 -11   23.33    2.27 
   0   2  11   29.34    1.58 
  -1  -2 -11   66.18    5.16 
   1   2  11   70.04    3.80 
  -2  -2 -11    0.62    0.45 
   2   2  11    0.53    0.27 
  -3  -2 -11   15.62    1.62 
   3   2  11   18.43    1.10 
  -4  -2 -11    1.59    0.53 
   4   2  11    1.97    0.33 
   4   2  11    2.62    0.38 
   5   2  11   11.15    0.85 
   5   2  11   12.09    0.85 
   6   2  11    0.45    0.38 
   7   2  11   -0.33    0.44 
   6  -3 -11   -0.08    0.48 
   6  -3 -11    0.16    0.69 
   5  -3 -11    0.32    0.66 
   4  -3 -11    2.86    0.79 
  -4   3  11    2.96    0.42 
   3  -3 -11    0.26    0.59 
  -3   3  11    0.03    0.27 
   2  -3 -11    6.42    0.99 
  -2   3  11    4.99    0.45 
   1  -3 -11    2.35    0.71 
  -1   3  11    3.09    0.34 
   0  -3 -11    8.20    1.08 
   0   3  11    8.89    0.64 
  -1  -3 -11   33.46    2.77 
   1   3  11   34.04    1.94 
  -2  -3 -11    0.62    0.47 
   2   3  11    0.40    0.27 
  -3  -3 -11    5.32    0.82 
   3   3  11    5.31    0.48 
   3   3  11    5.53    0.50 
  -4  -3 -11   12.17    1.39 
   4   3  11   13.56    0.93 
   4   3  11   14.45    0.91 
   5   3  11   14.14    0.89 
   5   3  11   11.20    0.90 
   6   3  11    3.71    0.52 
   7   3  11    1.63    0.52 
   6  -4 -11    1.24    0.51 
  -6   4  11    1.49    0.57 
   5  -4 -11   42.32    2.31 
   5  -4 -11   36.78    3.23 
  -5   4  11   38.46    2.38 
   4  -4 -11    1.25    0.38 
   4  -4 -11    0.94    0.75 
   3  -4 -11   39.37    2.19 
   3  -4 -11   39.89    3.19 
  -3   4  11   35.98    2.25 
   2  -4 -11   34.80    2.73 
  -2   4  11   30.23    1.83 
   1  -4 -11   21.08    2.02 
  -1   4  11   22.47    1.31 
   0  -4 -11   19.50    1.80 
   0   4  11   18.43    1.13 
  -1  -4 -11    6.43    1.00 
   1   4  11    7.67    0.58 
   1   4  11    6.76    0.54 
  -2  -4 -11   43.15    3.47 
   2   4  11   44.74    2.47 
   2   4  11   42.87    2.54 
  -3  -4 -11   20.35    1.87 
   3   4  11   18.97    1.22 
   3   4  11   19.15    1.18 
  -4  -4 -11   35.18    2.95 
   4   4  11   38.15    2.17 
   4   4  11   34.06    2.05 
  -5  -4 -11    5.08    0.90 
   5   4  11    6.01    0.59 
   6   4  11    8.00    0.74 
   7   4  11    0.49    0.49 
   6  -5 -11    7.24    0.76 
  -6   5  11    7.41    0.81 
   5  -5 -11    5.54    0.59 
   5  -5 -11    3.94    0.97 
  -5   5  11    4.06    0.64 
   4  -5 -11    3.84    0.49 
   4  -5 -11    2.69    0.91 
  -4   5  11    3.49    0.54 
   3  -5 -11   10.36    1.37 
   3  -5 -11    8.72    0.69 
  -3   5  11    8.52    0.75 
   2  -5 -11   23.61    2.19 
   2  -5 -11   23.95    1.42 
  -2   5  11   23.86    1.48 
   1  -5 -11    1.75    0.68 
  -1   5  11    1.83    0.33 
  -1   5  11    1.97    0.36 
   0  -5 -11   47.55    3.72 
   0   5  11   45.72    2.61 
   0   5  11   46.67    2.72 
  -1  -5 -11    4.36    0.89 
   1   5  11    7.83    0.57 
   1   5  11    6.75    0.57 
  -2  -5 -11   31.33    2.75 
   2   5  11   32.64    1.88 
   2   5  11   33.39    1.95 
  -3  -5 -11    2.26    0.67 
   3   5  11    2.08    0.34 
   3   5  11    1.55    0.36 
  -4  -5 -11    3.84    0.81 
   4   5  11    4.37    0.50 
  -5  -5 -11   17.23    1.83 
   5   5  11   19.03    1.25 
   6   5  11    1.92    0.50 
   6  -6 -11   26.77    1.62 
  -6   6  11   22.62    1.69 
   5  -6 -11    0.68    0.44 
  -5   6  11    0.74    0.56 
   4  -6 -11   15.96    1.07 
   4  -6 -11   16.33    1.79 
  -4   6  11   15.72    1.16 
   3  -6 -11   22.69    2.09 
   3  -6 -11   20.78    1.28 
  -3   6  11   20.09    1.37 
   2  -6 -11    6.96    0.58 
   2  -6 -11    7.68    1.21 
  -2   6  11    7.01    0.66 
   1  -6 -11   64.02    4.77 
  -1   6  11   58.82    3.53 
   0  -6 -11    3.70    0.82 
   0   6  11    3.41    0.39 
   0   6  11    3.02    0.46 
  -1  -6 -11   14.48    1.56 
   1   6  11   13.14    0.95 
   1   6  11   14.48    0.90 
  -2  -6 -11    8.23    1.14 
   2   6  11    7.75    0.62 
   2   6  11    7.18    0.64 
  -3  -6 -11    0.72    0.55 
   3   6  11    0.01    0.28 
   3   6  11   -0.62    0.32 
  -4  -6 -11    1.09    0.61 
   4   6  11    1.58    0.41 
  -5  -6 -11    0.57    0.57 
   5   6  11   -0.48    0.40 
  -6  -6 -11    0.26    0.68 
   6   6  11   -0.64    0.43 
   5  -7 -11    0.23    0.46 
  -5   7  11   -0.96    0.58 
   4  -7 -11    6.94    1.25 
   4  -7 -11    7.27    0.66 
  -4   7  11    7.61    0.78 
   3  -7 -11    4.99    1.10 
   3  -7 -11    4.87    0.51 
  -3   7  11    5.34    0.66 
   2  -7 -11    0.54    0.71 
   2  -7 -11    0.09    0.29 
  -2   7  11    0.63    0.45 
   1  -7 -11   16.28    1.02 
   1  -7 -11   13.40    1.71 
  -1   7  11   16.95    1.13 
   0  -7 -11    4.15    1.02 
   0   7  11    6.98    0.54 
   0   7  11    4.93    0.62 
  -1  -7 -11    8.67    1.27 
   1   7  11    8.59    0.76 
   1   7  11    9.46    0.71 
  -2  -7 -11   17.57    1.85 
   2   7  11   20.51    1.16 
   2   7  11   17.03    1.22 
  -3  -7 -11    7.59    1.15 
   3   7  11    7.17    0.67 
  -4  -7 -11   15.96    1.81 
   4   7  11   18.27    1.21 
  -5  -7 -11    0.05    0.63 
   5   7  11   -0.28    0.41 
  -6  -7 -11    6.71    1.08 
   6   7  11    6.39    0.77 
   4  -8 -11    7.95    0.71 
  -4   8  11    7.62    0.86 
   3  -8 -11    0.52    0.37 
   3  -8 -11    0.47    0.80 
  -3   8  11    1.13    0.58 
   2  -8 -11    6.27    0.55 
   2  -8 -11    5.38    1.11 
  -2   8  11    5.73    0.71 
   1  -8 -11   -0.72    0.70 
   1  -8 -11    0.20    0.29 
  -1   8  11    0.64    0.48 
   0  -8 -11    2.22    0.91 
   0   8  11    2.20    0.53 
   0   8  11    2.27    0.42 
  -1  -8 -11   16.52    1.93 
   1   8  11   18.74    1.11 
   1   8  11   15.17    1.20 
  -2  -8 -11    3.21    0.87 
   2   8  11    2.85    0.50 
  -3  -8 -11    0.64    0.75 
   3   8  11    0.52    0.42 
  -4  -8 -11    5.17    1.05 
   4   8  11    4.92    0.64 
  -5  -8 -11    0.14    0.72 
   5   8  11    0.37    0.49 
   3  -9 -11    1.35    0.44 
   3  -9 -11    3.69    1.03 
  -3   9  11    1.58    0.65 
   2  -9 -11   24.93    1.52 
   2  -9 -11   24.13    2.45 
  -2   9  11   25.56    1.70 
   1  -9 -11    3.95    0.46 
   1  -9 -11    3.02    1.04 
  -1   9  11    3.64    0.66 
   0  -9 -11   27.28    2.48 
   0   9  11   20.14    1.51 
  -1  -9 -11   15.53    1.81 
   1   9  11   14.52    1.15 
  -2  -9 -11    1.69    0.84 
   2   9  11    0.61    0.50 
  -3  -9 -11   14.17    1.76 
   3   9  11   15.09    1.14 
  -4  -9 -11    0.31    0.82 
   4   9  11    0.63    0.54 
  -5  -9 -11    5.01    1.13 
   2 -10 -11    0.30    0.39 
   2 -10 -11    0.17    0.88 
  -2  10  11   -0.08    0.63 
   1 -10 -11   -0.15    0.35 
   1 -10 -11    0.90    1.00 
  -1  10  11    0.14    0.63 
   0 -10 -11    0.42    1.01 
   0  10  11    0.03    0.61 
  -1 -10 -11    1.09    0.87 
   1  10  11    0.50    0.57 
  -2 -10 -11   -1.11    0.81 
   2  10  11   -0.21    0.53 
  -3 -10 -11    4.73    1.17 
  -1  -7  12    1.19    1.15 
  -3  -6  12    1.88    1.30 
  -2  -6  12    1.89    1.27 
  -1  -6  12    1.25    1.07 
   0  -6  12    6.11    1.29 
   0  -6  12    6.67    0.73 
   1  -6  12    0.72    0.55 
   2  -6  12   -0.32    0.57 
  -5  -5  12    3.41    1.58 
  -4  -5  12   22.78    2.68 
  -3  -5  12   10.79    1.78 
  -2  -5  12   21.67    2.42 
  -1  -5  12   17.17    1.23 
  -1  -5  12   22.27    2.16 
   0  -5  12   -0.42    0.44 
   0  -5  12    0.46    0.87 
   1  -5  12   23.18    1.51 
   2  -5  12    1.42    0.55 
   3  -5  12   10.38    0.96 
   4  -5  12    0.38    0.64 
  -5  -4  12    1.89    1.40 
  -4  -4  12    0.44    1.18 
  -3  -4  12    4.99    1.28 
  -2  -4  12    0.19    0.38 
  -2  -4  12    0.15    0.90 
  -1  -4  12   11.64    1.59 
  -1  -4  12   10.03    0.82 
   0  -4  12    5.07    0.97 
   0  -4  12    2.32    0.45 
   1  -4  12    8.34    1.18 
   1  -4  12    9.39    0.79 
   2  -4  12   12.63    0.99 
   3  -4  12    2.83    0.60 
   4  -4  12   12.09    1.06 
   5  -4  12   -1.11    0.63 
  -6  -3  12   -0.91    1.33 
  -5  -3  12    3.94    1.27 
  -4  -3  12    8.98    1.50 
  -3  -3  12    0.72    1.01 
  -2  -3  12    7.40    1.31 
  -2  -3  12    7.98    0.69 
  -1  -3  12    2.37    0.89 
  -1  -3  12    2.40    0.43 
   0  -3  12    1.18    0.39 
   0  -3  12    1.88    0.80 
   1  -3  12   -0.15    0.36 
   1  -3  12    0.85    0.66 
   2  -3  12    2.46    0.47 
   3  -3  12    0.70    0.47 
   4  -3  12    0.42    0.55 
   5  -3  12   -0.22    0.60 
  -6  -2  12    0.12    1.06 
  -5  -2  12    2.79    1.18 
  -4  -2  12   12.04    1.63 
  -3  -2  12    5.52    1.08 
  -3  -2  12    4.86    0.52 
   2   2 -12   43.42    3.51 
  -2  -2  12   41.80    2.42 
   1   2 -12    1.30    0.66 
  -1  -2  12    1.20    0.36 
   0   2 -12    1.05    0.64 
   0  -2  12    0.63    0.33 
  -1   2 -12   15.97    1.66 
   1  -2  12   19.45    1.17 
  -2   2 -12    2.55    0.64 
   2  -2  12    2.13    0.42 
   3  -2  12    7.99    0.72 
   4  -2  12   -0.51    0.48 
   5  -2  12    3.24    0.65 
   6  -2  12    4.32    0.72 
  -7  -1  12    2.54    1.29 
  -6  -1  12   12.58    1.82 
  -5  -1  12   10.47    1.54 
   4   1 -12    0.48    0.78 
  -4  -1  12    2.07    0.41 
   3   1 -12    1.06    0.71 
  -3  -1  12    0.93    0.37 
   2   1 -12    9.31    1.27 
  -2  -1  12    9.71    0.73 
   1   1 -12    0.08    0.54 
  -1  -1  12    0.30    0.31 
   0   1 -12    4.74    0.86 
   0  -1  12    5.14    0.49 
  -1   1 -12    0.35    0.56 
   1  -1  12   -0.08    0.30 
  -2   1 -12    1.12    0.50 
   2  -1  12    0.11    0.33 
   3  -1  12   -0.36    0.36 
   4  -1  12    5.30    0.61 
   5  -1  12    1.49    0.53 
   6  -1  12    1.68    0.57 
  -7   0  12    0.53    1.03 
  -6   0  12    2.57    1.02 
   5   0 -12    1.59    0.84 
  -5   0  12    2.14    0.43 
   4   0 -12    0.17    0.70 
  -4   0  12   -0.32    0.32 
   3   0 -12   40.96    3.37 
  -3   0  12   40.33    2.32 
   2   0 -12   24.81    2.28 
  -2   0  12   25.70    1.52 
   1   0 -12   38.18    3.42 
  -1   0  12   45.76    2.44 
   0   0 -12   86.32    6.46 
  -1   0 -12    1.57    0.56 
   1   0  12    0.88    0.30 
  -2   0 -12   29.67    2.48 
   2   0  12   29.74    1.76 
  -3   0 -12    0.91    0.50 
   3   0  12    0.65    0.36 
   4   0  12    2.93    0.46 
   5   0  12    2.56    0.51 
   6   0  12   16.54    1.21 
  -7   1  12    2.61    1.19 
   6  -1 -12   10.98    1.44 
   5  -1 -12    0.60    0.74 
  -5   1  12    0.28    0.36 
   4  -1 -12    3.86    1.00 
  -4   1  12    3.40    0.46 
   3  -1 -12    4.08    0.93 
  -3   1  12    4.22    0.46 
   2  -1 -12   15.59    1.74 
  -2   1  12   19.09    1.13 
   1  -1 -12   -0.15    0.49 
  -1   1  12    0.23    0.26 
   0  -1 -12    0.92    0.61 
   0   1  12    1.16    0.31 
  -1  -1 -12    9.41    1.25 
   1   1  12   10.57    0.75 
  -2  -1 -12    8.89    1.23 
   2   1  12   10.56    0.76 
  -3  -1 -12    2.45    0.67 
   3   1  12    2.25    0.40 
   4   1  12    0.24    0.36 
   5   1  12   14.15    1.02 
   6   1  12    0.30    0.45 
   6   1  12   -0.03    0.44 
   7   1  12   11.33    1.03 
   6  -2 -12   14.06    1.71 
  -6   2  12   14.58    1.03 
   5  -2 -12    0.53    0.83 
  -5   2  12    1.19    0.42 
   4  -2 -12   31.55    2.76 
  -4   2  12   30.97    1.83 
   3  -2 -12    0.09    0.63 
  -3   2  12    0.36    0.30 
   2  -2 -12    0.01    0.57 
  -2   2  12    0.03    0.27 
   1  -2 -12   38.11    3.38 
  -1   2  12   44.59    2.39 
   0  -2 -12    3.14    0.78 
   0   2  12    2.45    0.34 
  -1  -2 -12   45.11    3.50 
   1   2  12   42.24    2.46 
  -2  -2 -12    2.94    0.74 
   2   2  12    3.05    0.40 
  -3  -2 -12    6.92    1.05 
   3   2  12    9.21    0.69 
  -4  -2 -12   29.95    2.44 
   4   2  12   27.58    1.70 
   5   2  12    1.56    0.38 
   5   2  12    0.68    0.36 
   6   2  12    0.66    0.41 
   7   2  12   -0.65    0.46 
   6  -3 -12    0.76    0.81 
  -6   3  12   -0.23    0.44 
   5  -3 -12   19.43    2.01 
  -5   3  12   18.15    1.21 
   4  -3 -12    3.97    1.01 
  -4   3  12    4.12    0.49 
   3  -3 -12    1.28    0.73 
  -3   3  12   -0.06    0.29 
   2  -3 -12   17.90    1.87 
  -2   3  12   18.15    1.12 
   1  -3 -12   15.50    1.70 
  -1   3  12   18.07    1.08 
   0  -3 -12    0.27    0.54 
   0   3  12    0.35    0.28 
  -1  -3 -12    1.99    0.70 
   1   3  12    2.85    0.37 
  -2  -3 -12    3.95    0.85 
   2   3  12    6.38    0.52 
  -3  -3 -12    0.58    0.50 
   3   3  12    0.53    0.32 
  -4  -3 -12    3.69    0.74 
   4   3  12    3.43    0.44 
   4   3  12    4.39    0.46 
   5   3  12    1.52    0.38 
   5   3  12    2.11    0.40 
   6   3  12   13.31    1.00 
   7   3  12   -0.59    0.46 
   6  -4 -12    0.71    0.71 
   6  -4 -12    0.26    0.54 
   5  -4 -12   44.72    2.62 
   5  -4 -12   46.06    3.76 
   4  -4 -12   10.99    1.45 
   3  -4 -12   27.39    2.43 
  -3   4  12   25.14    1.54 
   2  -4 -12   19.85    1.90 
  -2   4  12   16.80    1.10 
   1  -4 -12    2.15    0.75 
  -1   4  12    2.75    0.36 
   0  -4 -12   37.34    3.21 
   0   4  12   39.44    2.21 
  -1  -4 -12    1.54    0.60 
   1   4  12    1.53    0.33 
  -2  -4 -12    1.18    0.62 
   2   4  12    1.25    0.35 
  -3  -4 -12   14.29    1.66 
   3   4  12   17.76    1.11 
   3   4  12   17.73    1.10 
  -4  -4 -12    1.20    0.56 
   4   4  12    0.71    0.34 
   4   4  12    0.21    0.33 
  -5  -4 -12    0.46    0.59 
   5   4  12    0.65    0.38 
   6   4  12    0.43    0.42 
   6  -5 -12    4.80    0.68 
  -6   5  12    4.28    0.73 
   5  -5 -12    3.47    1.01 
   5  -5 -12    3.58    0.57 
  -5   5  12    3.15    0.60 
   4  -5 -12    0.91    0.41 
   4  -5 -12    0.87    0.85 
  -4   5  12    0.10    0.47 
   3  -5 -12    4.20    1.00 
   3  -5 -12    4.54    0.50 
  -3   5  12    3.98    0.53 
   2  -5 -12    6.14    1.16 
  -2   5  12    9.40    0.69 
   1  -5 -12    6.31    1.13 
  -1   5  12    6.94    0.58 
  -1   5  12    6.23    0.57 
   0  -5 -12   12.87    1.51 
   0   5  12   12.64    0.85 
   0   5  12   12.89    0.89 
  -1  -5 -12   39.08    3.15 
   1   5  12   36.98    2.23 
   1   5  12   37.65    2.16 
  -2  -5 -12    7.32    1.14 
   2   5  12    8.05    0.63 
   2   5  12    7.99    0.65 
  -3  -5 -12   21.37    2.07 
   3   5  12   20.01    1.32 
   3   5  12   21.25    1.30 
  -4  -5 -12    0.30    0.57 
   4   5  12    0.06    0.35 
  -5  -5 -12    8.69    1.23 
   5   5  12    9.38    0.78 
   6   5  12    1.02    0.46 
   5  -6 -12    2.84    0.55 
   5  -6 -12    2.70    1.00 
  -5   6  12    2.45    0.64 
   4  -6 -12    5.90    1.17 
   4  -6 -12    4.17    0.54 
  -4   6  12    4.38    0.63 
   3  -6 -12   19.53    1.20 
   3  -6 -12   18.26    1.98 
  -3   6  12   18.33    1.28 
   2  -6 -12    0.50    0.74 
  -2   6  12    0.25    0.40 
   1  -6 -12   40.66    3.44 
  -1   6  12   42.55    2.34 
  -1   6  12   39.23    2.43 
   0  -6 -12    1.79    0.83 
   0   6  12    3.22    0.48 
   0   6  12    3.70    0.42 
  -1  -6 -12    2.02    0.78 
   1   6  12    2.27    0.42 
   1   6  12    3.05    0.40 
  -2  -6 -12    2.37    0.80 
   2   6  12    2.74    0.39 
   2   6  12    2.29    0.42 
  -3  -6 -12    0.64    0.64 
   3   6  12    0.45    0.37 
   3   6  12    0.97    0.34 
  -4  -6 -12    2.86    0.82 
   4   6  12    3.13    0.49 
  -5  -6 -12    0.21    0.63 
   5   6  12    0.21    0.44 
   6   6  12   -0.03    0.48 
   5  -7 -12    0.43    0.48 
  -5   7  12   -0.33    0.62 
   4  -7 -12    1.87    0.44 
   4  -7 -12    0.75    0.83 
  -4   7  12    1.65    0.58 
   3  -7 -12    9.04    0.74 
   3  -7 -12    8.90    1.43 
  -3   7  12    9.98    0.86 
   2  -7 -12    1.44    0.36 
   2  -7 -12    1.66    0.84 
  -2   7  12    1.01    0.49 
   1  -7 -12   17.07    1.92 
  -1   7  12   17.57    1.11 
  -1   7  12   15.89    1.17 
   0  -7 -12    5.72    1.06 
   0   7  12    5.65    0.63 
   0   7  12    6.67    0.56 
  -1  -7 -12    1.37    0.76 
   1   7  12    1.66    0.42 
   1   7  12    2.01    0.35 
  -2  -7 -12   42.82    3.38 
   2   7  12   36.00    2.37 
   2   7  12   41.64    2.28 
  -3  -7 -12    3.06    0.87 
   3   7  12    2.77    0.49 
  -4  -7 -12   38.11    2.95 
   4   7  12   30.24    2.04 
  -5  -7 -12    3.26    0.94 
   5   7  12    4.42    0.61 
  -6  -7 -12    0.16    0.66 
   4  -8 -12    5.79    0.65 
   4  -8 -12    6.85    1.29 
  -4   8  12    6.37    0.82 
   3  -8 -12    0.08    0.79 
   3  -8 -12    0.53    0.39 
  -3   8  12    0.71    0.59 
   2  -8 -12    4.70    1.23 
   2  -8 -12    5.67    0.54 
  -2   8  12    5.12    0.68 
   1  -8 -12   -0.52    0.76 
  -1   8  12    0.58    0.51 
   0  -8 -12    2.80    0.94 
   0   8  12    0.62    0.49 
   0   8  12    1.20    0.40 
  -1  -8 -12    7.72    1.39 
   1   8  12    8.70    0.81 
   1   8  12   10.49    0.77 
  -2  -8 -12    0.42    0.75 
   2   8  12   -0.33    0.41 
  -3  -8 -12    1.85    0.89 
   3   8  12    1.39    0.49 
  -4  -8 -12    1.27    0.81 
   4   8  12    0.42    0.47 
  -5  -8 -12    2.60    1.01 
   5   8  12    3.31    0.61 
   3  -9 -12    2.29    1.03 
   3  -9 -12   -0.09    0.40 
  -3   9  12    0.48    0.63 
   2  -9 -12   17.24    2.08 
   2  -9 -12   18.48    1.20 
  -2   9  12   18.96    1.37 
   1  -9 -12   27.39    2.82 
   1  -9 -12   31.91    1.82 
  -1   9  12   30.42    1.99 
   0  -9 -12    6.53    1.32 
   0   9  12    9.28    0.70 
   0   9  12    5.56    0.80 
  -1  -9 -12   27.71    2.63 
   1   9  12   24.58    1.69 
  -2  -9 -12    0.89    0.83 
   2   9  12   -0.20    0.48 
  -3  -9 -12    6.91    1.20 
   3   9  12    4.76    0.68 
  -4  -9 -12    5.07    1.17 
   4   9  12    5.82    0.74 
   2 -10 -12    1.79    1.09 
   1 -10 -12   -0.39    0.38 
   1 -10 -12   -0.45    0.91 
  -1  10  12    1.12    0.68 
   0 -10 -12   -0.39    0.90 
   0  10  12    0.17    0.63 
  -1 -10 -12    0.74    1.11 
   1  10  12    2.16    0.64 
  -2 -10 -12    0.25    0.89 
   2  10  12    0.17    0.55 
  -3 -10 -12    2.36    1.15 
  -2  -6  13    2.48    1.28 
  -1  -6  13   -0.51    1.01 
   0  -6  13    3.57    0.66 
   0  -6  13    3.41    1.22 
   1  -6  13    9.23    0.91 
  -4  -5  13    6.78    1.77 
  -3  -5  13   20.38    2.50 
  -2  -5  13    1.85    1.23 
  -1  -5  13   10.76    0.90 
  -1  -5  13   10.58    1.57 
   0  -5  13    0.00    0.47 
   0  -5  13   -1.15    0.81 
   1  -5  13    7.14    0.76 
   2  -5  13    2.04    0.60 
   3  -5  13    0.93    0.62 
  -5  -4  13    0.15    1.39 
  -4  -4  13    1.69    1.37 
  -3  -4  13    1.65    1.18 
  -2  -4  13    8.57    1.47 
  -2  -4  13    8.08    0.72 
  -1  -4  13    2.21    1.01 
  -1  -4  13    1.65    0.47 
   0  -4  13    3.09    0.51 
   0  -4  13    2.37    0.95 
   1  -4  13    2.61    0.84 
   1  -4  13    1.74    0.52 
   2  -4  13   15.43    1.15 
   3  -4  13    9.06    0.89 
   4  -4  13    7.48    0.88 
  -5  -3  13    1.51    1.24 
  -4  -3  13    7.26    1.50 
  -3  -3  13   -0.39    1.08 
  -2  -3  13    2.50    0.47 
  -2  -3  13    3.89    1.15 
  -1  -3  13   -0.23    0.38 
  -1  -3  13    0.98    0.87 
   0  -3  13    5.40    0.59 
   0  -3  13    6.28    1.15 
   1  -3  13    0.28    0.41 
   1  -3  13    1.17    0.71 
   2  -3  13    2.44    0.50 
   3  -3  13    1.16    0.52 
   4  -3  13   -0.53    0.58 
   5  -3  13    1.90    0.69 
  -6  -2  13    1.23    1.23 
  -5  -2  13    1.10    1.12 
  -4  -2  13    9.89    1.57 
  -3  -2  13    1.55    0.42 
  -3  -2  13    0.79    0.97 
   2   2 -13   24.79    2.28 
  -2  -2  13   21.96    1.40 
   1   2 -13   12.83    1.59 
  -1  -2  13   13.01    0.92 
   0   2 -13    6.46    1.05 
   0  -2  13    6.79    0.62 
  -1   2 -13   19.02    1.91 
   1  -2  13   21.60    1.32 
  -2   2 -13    1.50    0.60 
   2  -2  13    0.64    0.40 
   3  -2  13   20.62    1.37 
   4  -2  13    1.66    0.57 
   5  -2  13    2.06    0.65 
  -6  -1  13   -0.11    1.05 
  -5  -1  13   13.31    1.78 
   4   1 -13    0.10    0.81 
  -4  -1  13    0.46    0.41 
   3   1 -13   18.18    1.94 
  -3  -1  13   17.06    1.14 
   2   1 -13    1.21    0.77 
  -2  -1  13    0.94    0.39 
   1   1 -13    8.45    1.30 
  -1  -1  13   10.70    0.77 
   0   1 -13   21.85    2.08 
   0  -1  13   22.23    1.37 
  -1   1 -13    2.48    0.77 
   1  -1  13    3.17    0.45 
  -2   1 -13    0.57    0.52 
   2  -1  13   -0.45    0.36 
   3  -1  13    9.00    0.77 
   4  -1  13    4.15    0.61 
   5  -1  13    2.87    0.61 
   6  -1  13    1.11    0.60 
  -6   0  13    1.08    1.02 
   5   0 -13    3.27    1.02 
   4   0 -13    8.56    1.32 
  -4   0  13    8.25    0.72 
   3   0 -13   22.27    2.30 
  -3   0  13   23.90    1.43 
   2   0 -13   23.70    2.30 
  -2   0  13   24.95    1.50 
   1   0 -13    1.52    0.73 
  -1   0  13    0.36    0.33 
   0   0 -13  127.84    9.13 
   0   0  13  119.56    6.75 
  -1   0 -13    0.74    0.66 
   1   0  13    0.87    0.34 
  -2   0 -13   38.45    3.10 
   2   0  13   37.55    2.21 
   3   0  13    5.58    0.59 
   4   0  13    3.72    0.54 
   5   0  13   10.18    0.91 
   6   0  13    4.95    0.69 
  -7   1  13   -0.35    1.01 
   6  -1 -13    8.73    1.35 
   5  -1 -13    0.47    0.81 
  -5   1  13    0.46    0.42 
   4  -1 -13    3.49    0.97 
  -4   1  13    1.61    0.42 
   3  -1 -13   17.86    1.81 
  -3   1  13   13.88    1.00 
   2  -1 -13    0.00    0.53 
  -2   1  13    0.24    0.31 
   1  -1 -13    6.89    1.08 
  -1   1  13    5.73    0.54 
   0  -1 -13    0.68    0.65 
   0   1  13    0.14    0.31 
  -1  -1 -13    1.48    0.67 
   1   1  13    0.41    0.34 
  -2  -1 -13    1.16    0.72 
   2   1  13    1.87    0.39 
  -3  -1 -13    0.70    0.61 
   3   1  13    0.34    0.38 
   4   1  13    0.08    0.39 
   5   1  13    6.60    0.66 
   6   1  13    3.67    0.59 
   6  -2 -13    0.61    0.89 
  -6   2  13    0.62    0.46 
   5  -2 -13    9.31    1.39 
  -5   2  13    9.68    0.78 
   4  -2 -13    9.10    1.35 
  -4   2  13    8.12    0.68 
   3  -2 -13    8.00    1.24 
  -3   2  13    7.60    0.68 
   2  -2 -13   14.57    1.64 
  -2   2  13   13.27    0.92 
   1  -2 -13    3.81    0.93 
  -1   2  13    4.48    0.46 
   0  -2 -13    3.29    0.91 
   0   2  13    4.16    0.45 
  -1  -2 -13   89.51    6.60 
   1   2  13   84.80    4.80 
  -2  -2 -13    8.67    1.24 
   2   2  13    8.71    0.73 
  -3  -2 -13    7.19    1.13 
   3   2  13   10.10    0.75 
   4   2  13   15.09    1.04 
   5   2  13    0.50    0.38 
   6  -3 -13    0.98    0.91 
  -6   3  13    1.74    0.50 
   5  -3 -13   11.69    1.64 
  -5   3  13   12.96    0.94 
   4  -3 -13    4.36    1.08 
  -4   3  13    4.82    0.54 
   3  -3 -13   11.02    1.46 
  -3   3  13    9.49    0.75 
   2  -3 -13   -0.20    0.72 
  -2   3  13    0.03    0.30 
   1  -3 -13   34.49    2.99 
  -1   3  13   34.18    1.98 
   0  -3 -13    2.20    0.81 
   0   3  13    2.84    0.40 
  -1  -3 -13    1.35    0.69 
   1   3  13    3.00    0.43 
  -2  -3 -13    6.27    1.07 
   2   3  13    7.69    0.63 
  -3  -3 -13    1.63    0.76 
   3   3  13    3.01    0.43 
  -4  -3 -13    4.63    0.97 
   4   3  13    7.44    0.62 
   5   3  13    0.36    0.38 
   5   3  13    0.11    0.35 
   6   3  13    5.47    0.62 
   6  -4 -13    6.54    1.17 
  -6   4  13    7.56    0.76 
   5  -4 -13    5.14    1.16 
  -5   4  13    7.72    0.70 
   4  -4 -13    8.23    1.38 
  -4   4  13   10.63    0.80 
   3  -4 -13    0.40    0.81 
  -3   4  13    1.49    0.37 
   2  -4 -13   42.89    3.39 
  -2   4  13   37.00    2.23 
   1  -4 -13   -0.13    0.65 
  -1   4  13   -0.18    0.28 
   0  -4 -13   42.59    3.59 
   0   4  13   44.17    2.49 
  -1  -4 -13    5.30    1.03 
   1   4  13    5.62    0.53 
  -2  -4 -13   -0.04    0.59 
   2   4  13    0.52    0.36 
  -3  -4 -13    5.82    1.02 
   3   4  13    7.07    0.61 
  -4  -4 -13    0.01    0.54 
   4   4  13    0.36    0.36 
   4   4  13    0.13    0.33 
   5   4  13    0.12    0.37 
   6   4  13    0.36    0.42 
   6  -5 -13    0.16    0.59 
   5  -5 -13    0.21    0.86 
   4  -5 -13    2.34    0.96 
  -4   5  13    1.09    0.46 
   3  -5 -13    0.32    0.86 
  -3   5  13   -0.21    0.36 
   2  -5 -13    1.06    0.79 
  -2   5  13    0.43    0.36 
   1  -5 -13   16.30    1.80 
  -1   5  13   14.84    1.01 
   0  -5 -13   12.08    1.56 
   0   5  13   12.70    0.88 
  -1  -5 -13   45.32    3.81 
   1   5  13   47.87    2.67 
  -2  -5 -13    0.57    0.66 
   2   5  13   -0.38    0.32 
   2   5  13   -0.37    0.29 
  -3  -5 -13   41.81    3.46 
   3   5  13   40.74    2.44 
  -4  -5 -13   15.00    1.67 
   4   5  13   13.10    0.99 
  -5  -5 -13    5.76    1.03 
   5   5  13    5.24    0.61 
   6   5  13    3.22    0.57 
   5  -6 -13   12.54    1.70 
   5  -6 -13   14.50    1.03 
  -5   6  13   11.01    1.07 
   4  -6 -13    0.17    0.90 
   4  -6 -13    0.13    0.44 
  -4   6  13   -0.33    0.49 
   3  -6 -13   12.42    1.66 
  -3   6  13   11.74    0.93 
   2  -6 -13   10.15    1.43 
  -2   6  13    9.71    0.76 
  -2   6  13    8.24    0.77 
   1  -6 -13   18.31    1.94 
  -1   6  13   14.84    1.09 
  -1   6  13   15.81    1.04 
   0  -6 -13    1.95    0.93 
   0   6  13    3.54    0.43 
   0   6  13    3.70    0.48 
  -1  -6 -13    2.12    0.81 
   1   6  13    1.46    0.41 
   1   6  13    1.69    0.38 
  -2  -6 -13   13.10    1.71 
   2   6  13   14.81    1.01 
   2   6  13   15.11    1.00 
  -3  -6 -13    6.06    1.11 
   3   6  13    6.25    0.58 
   3   6  13    6.04    0.60 
  -4  -6 -13    3.19    0.88 
   4   6  13    2.59    0.49 
  -5  -6 -13    0.86    0.73 
   5   6  13    0.89    0.48 
   4  -7 -13    0.36    0.43 
   4  -7 -13   -0.56    1.01 
  -4   7  13   -0.33    0.56 
   3  -7 -13    9.94    0.79 
   3  -7 -13    9.67    1.51 
  -3   7  13    9.83    0.91 
   2  -7 -13    6.03    1.28 
  -2   7  13    6.95    0.71 
  -2   7  13    7.60    0.68 
   1  -7 -13    6.32    1.29 
  -1   7  13    6.96    0.72 
  -1   7  13    8.23    0.67 
   0  -7 -13   21.43    2.22 
   0   7  13   21.92    1.32 
   0   7  13   19.59    1.38 
  -1  -7 -13   -0.23    0.72 
   1   7  13   -0.04    0.41 
   1   7  13   -0.19    0.35 
  -2  -7 -13   17.89    2.11 
   2   7  13   19.09    1.32 
   2   7  13   21.83    1.28 
  -3  -7 -13   17.28    1.99 
   3   7  13   18.37    1.24 
  -4  -7 -13   11.97    1.58 
   4   7  13   11.21    0.92 
  -5  -7 -13   14.35    1.77 
   5   7  13   15.68    1.17 
   4  -8 -13    4.96    1.18 
   4  -8 -13    4.52    0.62 
  -4   8  13    5.89    0.81 
   3  -8 -13    6.61    0.66 
   3  -8 -13    7.81    1.31 
  -3   8  13    6.48    0.78 
   2  -8 -13    4.93    1.25 
   2  -8 -13    4.07    0.52 
  -2   8  13    3.96    0.65 
   1  -8 -13    2.45    1.04 
  -1   8  13    3.47    0.50 
  -1   8  13    2.23    0.59 
   0  -8 -13    0.03    0.83 
   0   8  13   -0.10    0.37 
   0   8  13   -0.50    0.48 
  -1  -8 -13    1.11    0.92 
   1   8  13    0.71    0.38 
   1   8  13    0.34    0.47 
  -2  -8 -13    8.44    1.37 
   2   8  13    7.62    0.74 
  -3  -8 -13    3.64    1.10 
   3   8  13    2.78    0.54 
  -4  -8 -13    0.53    0.81 
   4   8  13    0.83    0.49 
  -5  -8 -13    1.58    0.96 
   3  -9 -13    3.29    1.09 
   2  -9 -13    3.29    0.50 
   2  -9 -13    2.59    1.08 
  -2   9  13    3.41    0.68 
   1  -9 -13   32.92    3.10 
  -1   9  13   35.80    1.98 
  -1   9  13   29.08    2.09 
   0  -9 -13   -0.27    0.90 
   0   9  13    0.29    0.41 
   0   9  13    0.07    0.57 
  -1  -9 -13   22.35    2.51 
   1   9  13   23.48    1.58 
  -2  -9 -13    1.62    1.02 
   2   9  13    0.05    0.49 
  -3  -9 -13    1.98    1.03 
   3   9  13    2.69    0.59 
  -4  -9 -13    5.01    1.25 
   1 -10 -13    0.80    0.96 
   0 -10 -13    1.14    1.10 
  -1 -10 -13    0.10    1.04 
  -2 -10 -13    1.50    1.07 
  -3  -5  14    8.22    1.97 
  -2  -5  14    0.95    1.25 
  -1  -5  14    3.69    1.19 
  -1  -5  14    2.37    0.58 
   0  -5  14    0.86    1.02 
   0  -5  14   -0.12    0.53 
   1  -5  14    8.99    0.89 
   2  -5  14   15.86    1.26 
  -4  -4  14    0.86    1.46 
  -3  -4  14   -1.12    1.16 
  -2  -4  14    4.60    1.46 
  -1  -4  14   -0.45    0.45 
  -1  -4  14    1.03    1.01 
   0  -4  14    4.99    1.13 
   0  -4  14    4.62    0.60 
   1  -4  14   -0.49    0.47 
   2  -4  14    9.42    0.89 
   3  -4  14    5.56    0.79 
  -5  -3  14   -0.47    1.48 
  -4  -3  14    3.42    1.48 
  -3  -3  14    1.34    1.24 
  -2  -3  14    2.11    1.14 
  -2  -3  14    1.96    0.48 
  -1  -3  14    3.88    1.13 
  -1  -3  14    4.75    0.58 
   0  -3  14    0.10    0.78 
   0  -3  14   -0.70    0.41 
   1  -3  14    2.92    0.55 
   1  -3  14    3.31    0.96 
   2  -3  14    0.38    0.48 
   3  -3  14    1.31    0.58 
   4  -3  14   -0.55    0.63 
  -5  -2  14    0.01    1.19 
  -4  -2  14    0.76    1.14 
  -3  -2  14   11.22    0.89 
  -3  -2  14   11.29    1.68 
   2   2 -14    9.98    1.49 
  -2  -2  14   11.07    0.84 
   1   2 -14    6.64    1.23 
  -1  -2  14    6.94    0.65 
   0   2 -14   -0.53    0.65 
   0  -2  14    0.03    0.40 
  -1   2 -14   15.13    1.72 
   1  -2  14   15.11    1.07 
   2  -2  14    8.27    0.76 
   3  -2  14   12.93    1.04 
   4  -2  14    0.16    0.56 
   5  -2  14   -0.95    0.62 
  -6  -1  14    2.92    1.33 
  -5  -1  14   12.06    1.78 
   4   1 -14   -0.78    0.86 
  -4  -1  14    0.34    0.45 
   3   1 -14    5.18    1.20 
  -3  -1  14    5.92    0.61 
   2   1 -14    1.82    0.93 
  -2  -1  14    2.63    0.46 
   1   1 -14    0.49    0.77 
  -1  -1  14    1.66    0.44 
   0   1 -14    0.47    0.72 
   0  -1  14    0.08    0.37 
  -1   1 -14    1.82    0.73 
   1  -1  14    2.06    0.45 
  -2   1 -14    4.16    0.87 
   2  -1  14    5.75    0.61 
   3  -1  14    1.44    0.51 
   4  -1  14    1.94    0.56 
   5  -1  14    3.68    0.70 
  -6   0  14    0.41    1.10 
   5   0 -14    0.60    0.95 
   4   0 -14    8.16    1.42 
  -4   0  14    8.28    0.74 
   3   0 -14    0.15    0.84 
  -3   0  14   -0.13    0.40 
   2   0 -14    7.08    1.29 
  -2   0  14    9.09    0.75 
   1   0 -14    0.92    0.76 
  -1   0  14   -0.39    0.35 
   0   0 -14    2.38    0.92 
   0   0  14    3.49    0.47 
  -1   0 -14    2.37    0.77 
   1   0  14    2.06    0.42 
  -2   0 -14   16.12    1.77 
   2   0  14   18.31    1.19 
   3   0  14    8.71    0.77 
   4   0  14    2.26    0.53 
   5   0  14   11.78    1.01 
   6   0  14   -0.74    0.54 
   6  -1 -14   11.77    1.70 
   5  -1 -14    8.81    1.48 
  -5   1  14   10.09    0.84 
   4  -1 -14    3.40    1.10 
  -4   1  14    3.41    0.51 
   3  -1 -14    0.40    0.79 
  -3   1  14   -0.34    0.37 
   2  -1 -14    2.29    0.89 
  -2   1  14    1.99    0.41 
   1  -1 -14    1.35    0.80 
  -1   1  14    2.36    0.44 
   0  -1 -14   11.49    1.51 
   0   1  14   12.50    0.90 
  -1  -1 -14   -0.16    0.66 
   1   1  14    0.44    0.38 
  -2  -1 -14    8.14    1.28 
   2   1  14   10.43    0.80 
  -3  -1 -14    1.92    0.74 
   3   1  14    1.60    0.46 
   4   1  14    2.72    0.52 
   5   1  14    1.55    0.49 
   6   1  14   13.38    1.09 
   6  -2 -14    0.33    0.86 
  -6   2  14   -0.39    0.47 
   5  -2 -14    7.28    1.43 
  -5   2  14    7.81    0.72 
   4  -2 -14    0.61    0.90 
  -4   2  14    0.78    0.43 
   3  -2 -14   19.43    2.20 
  -3   2  14   20.64    1.29 
   2  -2 -14    3.38    1.04 
  -2   2  14    5.23    0.53 
   1  -2 -14   16.40    1.86 
  -1   2  14   15.50    1.04 
   0  -2 -14   20.32    2.15 
   0   2  14   20.13    1.29 
  -1  -2 -14    6.83    1.21 
   1   2  14    7.10    0.64 
  -2  -2 -14   15.93    1.92 
   2   2  14   17.34    1.15 
  -3  -2 -14    0.33    0.72 
   3   2  14    0.70    0.41 
   4   2  14    8.21    0.73 
   5   2  14    1.55    0.48 
   6  -3 -14    3.53    1.07 
  -6   3  14    4.29    0.63 
   5  -3 -14   -0.11    0.83 
  -5   3  14    0.21    0.46 
   4  -3 -14    5.01    1.18 
  -4   3  14    4.64    0.55 
   3  -3 -14    0.15    0.83 
  -3   3  14    0.52    0.36 
   2  -3 -14    4.76    1.18 
  -2   3  14    4.35    0.52 
   1  -3 -14    1.32    0.85 
  -1   3  14    0.98    0.36 
   0  -3 -14   19.23    2.07 
   0   3  14   18.82    1.21 
  -1  -3 -14   -0.73    0.64 
   1   3  14    0.23    0.37 
  -2  -3 -14    7.06    1.25 
   2   3  14   10.46    0.78 
  -3  -3 -14    7.74    1.26 
   3   3  14    9.17    0.76 
  -4  -3 -14    3.20    0.85 
   4   3  14    3.62    0.51 
   5   3  14    8.42    0.75 
   6  -4 -14   25.59    2.57 
   5  -4 -14    0.25    0.91 
  -5   4  14   -0.36    0.46 
   4  -4 -14   10.52    1.56 
  -4   4  14    9.88    0.82 
   3  -4 -14    6.33    1.31 
  -3   4  14    7.01    0.64 
   2  -4 -14   17.21    1.95 
  -2   4  14   13.83    0.97 
   1  -4 -14   19.35    2.11 
  -1   4  14   18.79    1.22 
   0  -4 -14   20.00    2.17 
   0   4  14   22.55    1.37 
  -1  -4 -14    0.29    0.70 
   1   4  14    0.46    0.36 
  -2  -4 -14    1.27    0.76 
   2   4  14    0.87    0.40 
  -3  -4 -14    6.08    1.13 
   3   4  14    6.29    0.62 
  -4  -4 -14    0.93    0.73 
   4   4  14    0.90    0.42 
   5   4  14    1.17    0.42 
   6   4  14    0.38    0.46 
   5  -5 -14   -0.63    0.99 
  -5   5  14    0.72    0.52 
   4  -5 -14    2.17    1.05 
  -4   5  14    1.55    0.49 
   3  -5 -14    0.31    0.93 
  -3   5  14    1.21    0.41 
   2  -5 -14    0.58    0.94 
  -2   5  14    1.07    0.40 
   1  -5 -14    5.41    1.21 
  -1   5  14    7.31    0.60 
   0  -5 -14    0.18    0.74 
   0   5  14   -0.01    0.35 
  -1  -5 -14   29.51    2.82 
   1   5  14   32.04    1.86 
  -2  -5 -14    8.12    1.30 
   2   5  14    9.56    0.80 
  -3  -5 -14    7.24    1.21 
   3   5  14    8.60    0.70 
   3   5  14    7.88    0.69 
  -4  -5 -14   14.71    1.74 
   4   5  14   15.21    1.08 
   5   5  14    2.51    0.49 
   5  -6 -14   41.69    3.69 
   4  -6 -14    2.84    1.13 
  -4   6  14    4.32    0.61 
   3  -6 -14    3.67    1.15 
  -3   6  14    4.45    0.57 
   2  -6 -14   17.90    2.10 
  -2   6  14   15.93    1.19 
  -2   6  14   18.94    1.17 
   1  -6 -14   -0.37    0.86 
  -1   6  14    0.16    0.39 
   0  -6 -14    4.57    1.15 
   0   6  14    5.44    0.58 
   0   6  14    7.23    0.60 
  -1  -6 -14    4.19    1.02 
   1   6  14    2.39    0.43 
   1   6  14    4.40    0.50 
  -2  -6 -14   11.03    1.45 
   2   6  14   11.57    0.82 
   2   6  14    8.76    0.78 
  -3  -6 -14   -0.16    0.70 
   3   6  14    0.61    0.38 
   3   6  14    0.54    0.40 
  -4  -6 -14    6.37    1.21 
   4   6  14    6.51    0.66 
  -5  -6 -14    0.43    0.79 
   5   6  14   -0.17    0.43 
   4  -7 -14    1.33    1.11 
  -4   7  14   -0.07    0.58 
   3  -7 -14    9.28    1.47 
  -3   7  14    5.92    0.74 
  -3   7  14    7.99    0.75 
   2  -7 -14   10.38    1.58 
  -2   7  14    9.28    0.90 
  -2   7  14   12.59    0.89 
   1  -7 -14    0.87    0.92 
  -1   7  14   -0.15    0.39 
  -1   7  14   -0.45    0.45 
   0  -7 -14   19.39    2.20 
   0   7  14   19.33    1.23 
   0   7  14   18.25    1.27 
  -1  -7 -14    5.22    1.17 
   1   7  14    5.64    0.58 
   1   7  14    5.37    0.61 
  -2  -7 -14    4.81    1.20 
   2   7  14    7.46    0.63 
   2   7  14    6.29    0.66 
  -3  -7 -14    7.37    1.32 
   3   7  14    8.46    0.76 
  -4  -7 -14    0.20    0.80 
   4   7  14   -0.12    0.44 
  -5  -7 -14    9.70    1.51 
   5   7  14   12.83    1.03 
   4  -8 -14    3.13    1.22 
   3  -8 -14   12.94    1.83 
  -3   8  14   13.07    1.12 
   2  -8 -14    1.90    1.07 
  -2   8  14    2.49    0.53 
  -2   8  14    1.91    0.59 
   1  -8 -14    3.48    1.34 
  -1   8  14    5.39    0.60 
  -1   8  14    4.86    0.69 
   0  -8 -14    0.81    0.98 
   0   8  14    0.70    0.50 
   0   8  14    0.05    0.41 
  -1  -8 -14    0.38    0.86 
   1   8  14    0.84    0.44 
   1   8  14    0.05    0.50 
  -2  -8 -14    4.25    1.16 
   2   8  14    4.06    0.60 
  -3  -8 -14    1.38    0.94 
   3   8  14    0.65    0.48 
  -4  -8 -14    0.53    0.89 
   4   8  14    0.67    0.53 
   3  -9 -14    7.02    1.51 
   2  -9 -14   -0.82    1.12 
  -2   9  14    0.36    0.62 
  -2   9  14   -0.63    0.50 
   1  -9 -14   13.37    1.81 
  -1   9  14   10.69    1.08 
  -1   9  14   14.70    1.04 
   0  -9 -14    2.04    1.11 
   0   9  14    3.12    0.53 
   0   9  14    1.87    0.63 
  -1  -9 -14   12.52    1.78 
   1   9  14   11.47    1.03 
  -2  -9 -14    9.59    1.60 
   2   9  14    8.57    0.86 
  -3  -9 -14    4.92    1.28 
   0 -10 -14    0.59    1.08 
  -1 -10 -14    1.33    1.29 
  -2  -5  15    3.07    1.50 
  -1  -5  15    0.05    1.24 
   0  -5  15    0.28    1.16 
  -3  -4  15   -0.04    1.46 
  -2  -4  15    2.82    1.30 
  -1  -4  15   -0.40    0.48 
  -1  -4  15    0.28    1.05 
   0  -4  15    8.60    1.48 
   0  -4  15    7.09    0.74 
   1  -4  15    2.99    0.63 
   2  -4  15    2.38    0.66 
  -4  -3  15   16.84    2.35 
  -3  -3  15    1.46    1.38 
  -2  -3  15    1.61    1.23 
  -2  -3  15    2.79    0.54 
  -1  -3  15    4.93    0.64 
  -1  -3  15    7.24    1.45 
   0  -3  15   -0.35    0.47 
   0  -3  15    1.04    1.00 
   1  -3  15    1.27    0.91 
   1  -3  15    1.40    0.52 
   2  -3  15    7.42    0.78 
   3  -3  15   -0.03    0.59 
  -5  -2  15    0.76    1.36 
  -4  -2  15    0.18    1.19 
  -3  -2  15    7.95    1.61 
  -3  -2  15    9.72    0.83 
   2   2 -15    0.13    0.94 
  -2  -2  15    0.14    0.44 
  -2  -2  15   -0.33    0.96 
   1   2 -15   10.19    1.57 
  -1  -2  15   12.00    0.91 
   0   2 -15    0.60    0.91 
   0  -2  15    1.30    0.47 
  -1   2 -15    8.69    1.32 
   1  -2  15   11.37    0.88 
   2  -2  15   13.16    1.04 
   3  -2  15    2.37    0.61 
   4  -2  15    9.16    0.94 
  -5  -1  15    3.59    1.40 
   4   1 -15   19.48    2.15 
  -4  -1  15   14.20    1.94 
   3   1 -15    1.37    1.00 
  -3  -1  15    1.23    0.48 
   2   1 -15    0.79    0.92 
  -2  -1  15    1.49    0.48 
   1   1 -15    0.81    0.83 
  -1  -1  15   -0.15    0.43 
   0   1 -15   -0.22    0.80 
   0  -1  15    0.16    0.42 
  -1   1 -15    1.00    0.80 
   1  -1  15    0.33    0.43 
  -2   1 -15   -0.41    0.64 
   2  -1  15   -0.70    0.44 
   3  -1  15    3.25    0.62 
   4  -1  15   -0.32    0.55 
   5  -1  15    4.93    0.79 
  -6   0  15   -0.37    1.22 
   5   0 -15    0.70    1.03 
   4   0 -15    9.80    1.63 
  -4   0  15   10.46    0.89 
   3   0 -15    7.16    1.40 
  -3   0  15    7.08    0.71 
   2   0 -15   18.41    2.25 
  -2   0  15   21.15    1.33 
   1   0 -15    9.24    1.52 
  -1   0  15   10.92    0.83 
   0   0 -15    3.44    1.12 
   0   0  15    3.40    0.52 
  -1   0 -15   34.75    3.08 
   1   0  15   35.29    2.08 
  -2   0 -15    6.85    1.16 
   2   0  15    7.42    0.72 
   3   0  15   14.86    1.11 
   4   0  15    0.20    0.50 
   5   0  15   14.47    1.15 
   6  -1 -15    8.25    1.47 
   5  -1 -15    8.95    1.57 
  -5   1  15    7.07    0.75 
   4  -1 -15    0.89    0.96 
  -4   1  15    0.26    0.44 
   3  -1 -15    2.98    0.99 
  -3   1  15    2.63    0.48 
   2  -1 -15    1.70    0.97 
  -2   1  15    0.80    0.43 
   1  -1 -15    0.31    0.77 
  -1   1  15   -0.15    0.39 
   0  -1 -15    2.60    0.93 
   0   1  15    1.14    0.43 
  -1  -1 -15    2.43    0.92 
   1   1  15    3.05    0.52 
  -2  -1 -15   -0.07    0.72 
   2   1  15    0.20    0.43 
   3   1  15    0.71    0.48 
   4   1  15    1.45    0.52 
   5   1  15    2.32    0.55 
   6  -2 -15    3.14    1.13 
   5  -2 -15    4.18    1.23 
  -5   2  15    4.79    0.63 
   4  -2 -15    1.68    1.11 
  -4   2  15    0.29    0.45 
   3  -2 -15   23.91    2.52 
  -3   2  15   23.00    1.47 
   2  -2 -15   14.19    1.83 
  -2   2  15   14.52    1.02 
   1  -2 -15    9.45    1.47 
  -1   2  15    8.73    0.75 
   0  -2 -15   70.41    5.29 
   0   2  15   62.60    3.68 
  -1  -2 -15   -0.59    0.88 
   1   2  15    0.18    0.42 
  -2  -2 -15   13.75    1.74 
   2   2  15   14.92    1.07 
  -3  -2 -15    1.94    0.92 
   3   2  15    2.40    0.51 
   4   2  15    2.77    0.55 
   5   2  15    1.88    0.52 
   6  -3 -15    3.20    1.24 
   5  -3 -15    0.70    1.07 
  -5   3  15   -0.25    0.45 
   4  -3 -15   -0.62    1.00 
  -4   3  15    1.03    0.45 
   3  -3 -15    4.60    1.31 
  -3   3  15    6.69    0.65 
   2  -3 -15    1.81    1.02 
  -2   3  15    1.47    0.44 
   1  -3 -15    1.51    0.97 
  -1   3  15    1.59    0.41 
   0  -3 -15   18.46    2.21 
   0   3  15   19.75    1.27 
  -1  -3 -15   -0.26    0.80 
   1   3  15   -0.21    0.41 
  -2  -3 -15   13.79    1.77 
   2   3  15   15.26    1.06 
  -3  -3 -15    2.30    0.92 
   3   3  15    3.37    0.52 
   4   3  15    0.38    0.45 
   5   3  15    7.39    0.73 
   5  -4 -15    2.32    1.26 
  -5   4  15    2.27    0.57 
   4  -4 -15   10.69    1.78 
  -4   4  15   10.80    0.88 
   3  -4 -15    4.90    1.28 
  -3   4  15    4.22    0.55 
   2  -4 -15   -1.49    0.86 
  -2   4  15    0.11    0.40 
   1  -4 -15   21.80    2.38 
  -1   4  15   20.86    1.35 
   0  -4 -15   10.14    1.58 
   0   4  15   11.72    0.88 
  -1  -4 -15    8.90    1.50 
   1   4  15   10.92    0.86 
  -2  -4 -15    0.98    0.78 
   2   4  15    1.36    0.45 
  -3  -4 -15    5.49    1.20 
   3   4  15    6.95    0.69 
  -4  -4 -15    2.23    0.89 
   4   4  15    2.05    0.51 
   5  -5 -15    2.64    1.25 
  -5   5  15    2.17    0.60 
   4  -5 -15    1.21    1.16 
  -4   5  15    0.39    0.48 
   3  -5 -15    4.47    1.24 
  -3   5  15    2.20    0.50 
   2  -5 -15   12.68    1.86 
  -2   5  15   13.70    0.97 
   1  -5 -15    9.11    1.57 
  -1   5  15   10.78    0.84 
   0  -5 -15    5.15    1.24 
   0   5  15    7.49    0.66 
  -1  -5 -15   10.18    1.57 
   1   5  15   10.78    0.85 
  -2  -5 -15   15.98    2.12 
   2   5  15   23.56    1.38 
  -3  -5 -15    1.81    0.88 
   3   5  15    3.25    0.51 
  -4  -5 -15    7.91    1.30 
   5  -6 -15   16.12    2.06 
   4  -6 -15    8.24    1.59 
  -4   6  15   10.12    0.88 
   3  -6 -15    3.57    1.27 
  -3   6  15    3.30    0.55 
   2  -6 -15    7.49    1.44 
  -2   6  15    6.42    0.67 
   1  -6 -15    1.27    0.99 
  -1   6  15    0.50    0.39 
   0  -6 -15    9.77    1.61 
   0   6  15   10.48    0.85 
  -1  -6 -15   -0.19    0.82 
   1   6  15   -0.30    0.40 
  -2  -6 -15    1.42    0.84 
   2   6  15    1.15    0.41 
   2   6  15    2.48    0.48 
  -3  -6 -15    0.87    0.84 
   3   6  15    1.50    0.46 
  -4  -6 -15    1.25    0.89 
   4   6  15    0.53    0.45 
  -5  -6 -15    2.11    0.83 
   5   6  15    0.25    0.46 
   4  -7 -15   -0.60    1.09 
  -4   7  15   -0.42    0.57 
   3  -7 -15    1.04    1.09 
  -3   7  15   -0.06    0.52 
   2  -7 -15   10.04    1.62 
  -2   7  15    9.62    0.85 
   1  -7 -15    2.58    1.16 
  -1   7  15    1.76    0.51 
  -1   7  15    1.44    0.47 
   0  -7 -15   10.85    1.72 
   0   7  15   13.58    0.92 
   0   7  15   10.22    0.90 
  -1  -7 -15   10.13    1.59 
   1   7  15   11.70    0.88 
   1   7  15    9.84    0.82 
  -2  -7 -15    1.46    0.89 
   2   7  15    0.05    0.40 
   2   7  15    0.51    0.42 
  -3  -7 -15   16.20    1.97 
   3   7  15   17.13    1.18 
  -4  -7 -15    3.78    1.11 
   4   7  15    2.66    0.55 
  -5  -7 -15    7.28    1.34 
   3  -8 -15   12.86    2.02 
  -3   8  15   17.79    1.22 
   2  -8 -15   -0.64    1.03 
  -2   8  15   -0.12    0.57 
  -2   8  15    0.14    0.49 
   1  -8 -15    3.48    1.21 
  -1   8  15    2.33    0.52 
  -1   8  15    2.39    0.58 
   0  -8 -15    1.02    1.04 
   0   8  15    1.77    0.54 
   0   8  15    2.26    0.46 
  -1  -8 -15    0.90    1.04 
   1   8  15    3.03    0.54 
   1   8  15    3.62    0.53 
  -2  -8 -15    1.35    1.01 
   2   8  15    0.04    0.46 
  -3  -8 -15    0.38    0.94 
   3   8  15   -0.54    0.46 
  -4  -8 -15    2.31    1.13 
   2  -9 -15    3.11    1.25 
   1  -9 -15    4.41    1.39 
  -1   9  15    5.44    0.78 
  -1   9  15    5.48    0.66 
   0  -9 -15    4.64    1.37 
   0   9  15    4.72    0.73 
   0   9  15    6.37    0.65 
  -1  -9 -15    2.77    1.23 
   1   9  15    3.70    0.66 
  -2  -9 -15   23.84    2.67 
  -2  -4  16    0.94    1.25 
  -1  -4  16   -0.08    1.19 
   0  -4  16    2.95    0.63 
   0  -4  16    3.26    1.20 
  -3  -3  16    8.05    1.95 
  -2  -3  16    0.92    1.30 
  -2  -3  16    0.47    0.52 
  -1  -3  16    2.29    0.59 
  -1  -3  16    2.21    1.20 
   0  -3  16   -0.75    0.51 
   0  -3  16    0.00    1.05 
   1  -3  16    1.71    0.57 
   2  -3  16    0.72    0.59 
  -4  -2  16    4.37    1.57 
  -3  -2  16   -1.03    0.50 
  -3  -2  16    0.92    1.28 
  -2  -2  16    7.49    1.56 
  -2  -2  16    6.49    0.70 
   1   2 -16    1.56    1.03 
  -1  -2  16    0.75    0.51 
   0   2 -16    0.64    0.98 
   0  -2  16    0.45    0.50 
  -1   2 -16    0.23    0.83 
   1  -2  16    0.61    0.52 
   2  -2  16   23.49    1.57 
   3  -2  16   -1.12    0.58 
  -5  -1  16    0.43    1.40 
  -4  -1  16    6.10    1.46 
   3   1 -16    0.85    1.13 
  -3  -1  16   -0.37    0.50 
   2   1 -16    1.25    1.04 
  -2  -1  16    0.86    0.51 
   1   1 -16    1.01    1.04 
  -1  -1  16    0.23    0.46 
   0   1 -16   -0.18    0.89 
   0  -1  16    0.04    0.46 
  -1   1 -16    1.98    0.88 
   1  -1  16    2.89    0.56 
   2  -1  16   -0.25    0.50 
   3  -1  16    3.46    0.68 
   4  -1  16    2.89    0.68 
   5   0 -16    0.64    1.17 
   4   0 -16    1.68    1.19 
  -4   0  16    2.42    0.58 
   3   0 -16    1.39    1.11 
  -3   0  16    1.53    0.53 
   2   0 -16    3.48    1.20 
  -2   0  16    3.87    0.59 
   1   0 -16    3.58    1.15 
  -1   0  16    3.93    0.58 
   0   0 -16    1.86    0.96 
   0   0  16    0.48    0.46 
  -1   0 -16   11.92    1.72 
   1   0  16   14.36    1.02 
  -2   0 -16    0.20    0.85 
   2   0  16   -0.64    0.50 
   3   0  16   11.53    0.99 
   4   0  16    2.10    0.62 
   5  -1 -16    7.60    1.70 
  -5   1  16    8.11    0.79 
   4  -1 -16    0.40    1.11 
  -4   1  16    1.89    0.53 
   3  -1 -16    6.32    1.38 
  -3   1  16    4.89    0.63 
   2  -1 -16    1.92    1.19 
  -2   1  16    2.68    0.55 
   1  -1 -16    4.52    1.27 
  -1   1  16    5.93    0.64 
   0  -1 -16    2.12    1.01 
   0   1  16    2.75    0.51 
  -1  -1 -16    0.89    0.96 
   1   1  16    0.80    0.49 
  -2  -1 -16    7.39    1.34 
   2   1  16    9.16    0.80 
   3   1  16    0.45    0.52 
   4   1  16    4.76    0.68 
   5   1  16    0.62    0.56 
   5  -2 -16    2.37    1.26 
  -5   2  16    2.73    0.60 
   4  -2 -16    8.40    1.51 
  -4   2  16    6.29    0.72 
   3  -2 -16    6.07    1.47 
  -3   2  16    5.89    0.66 
   2  -2 -16    3.92    1.18 
  -2   2  16    1.97    0.49 
   1  -2 -16    0.91    0.97 
  -1   2  16    1.69    0.48 
   0  -2 -16   10.04    1.74 
   0   2  16   12.60    0.95 
  -1  -2 -16    0.16    0.90 
   1   2  16    0.22    0.45 
  -2  -2 -16    4.97    1.32 
   2   2  16    7.48    0.72 
  -3  -2 -16    0.68    0.88 
   3   2  16    0.77    0.50 
   4   2  16    0.73    0.53 
   5   2  16    2.03    0.56 
   5  -3 -16    1.66    1.24 
  -5   3  16    1.01    0.58 
   4  -3 -16    0.66    1.13 
  -4   3  16    1.10    0.53 
   3  -3 -16    1.26    1.13 
  -3   3  16    0.36    0.47 
   2  -3 -16    0.41    1.07 
  -2   3  16    0.35    0.45 
   1  -3 -16    0.67    1.00 
  -1   3  16    0.29    0.41 
   0  -3 -16    0.90    0.98 
   0   3  16    1.43    0.49 
  -1  -3 -16    3.46    1.18 
   1   3  16    4.18    0.59 
  -2  -3 -16   -0.30    0.99 
   2   3  16   -0.15    0.46 
  -3  -3 -16    8.22    1.47 
   3   3  16    9.74    0.82 
   4   3  16    0.16    0.48 
   5   3  16   16.25    1.20 
   5  -4 -16   10.79    1.75 
   4  -4 -16    3.81    1.40 
  -4   4  16    5.93    0.66 
   3  -4 -16    1.92    1.22 
  -3   4  16    1.91    0.52 
   2  -4 -16    1.24    1.16 
  -2   4  16    0.42    0.44 
   1  -4 -16    3.35    1.26 
  -1   4  16    3.26    0.54 
   0  -4 -16    1.04    1.06 
   0   4  16   -0.60    0.40 
  -1  -4 -16   15.67    2.15 
   1   4  16   20.49    1.31 
  -2  -4 -16    0.87    0.98 
   2   4  16    0.24    0.46 
  -3  -4 -16    0.65    0.91 
   3   4  16    1.57    0.51 
  -4  -4 -16    2.75    1.02 
   4   4  16    2.52    0.55 
   5  -5 -16    4.16    1.43 
   4  -5 -16    0.59    1.10 
  -4   5  16    0.21    0.53 
   3  -5 -16    7.38    1.61 
  -3   5  16    7.49    0.72 
   2  -5 -16    2.02    1.23 
  -2   5  16    0.86    0.48 
   1  -5 -16    6.79    1.56 
  -1   5  16    7.62    0.71 
   0  -5 -16   11.74    1.76 
   0   5  16   11.58    0.93 
  -1  -5 -16    0.32    0.90 
   1   5  16   -0.46    0.42 
  -2  -5 -16   23.62    2.63 
   2   5  16   23.91    1.54 
  -3  -5 -16    0.71    0.89 
   3   5  16    0.37    0.47 
  -4  -5 -16    9.14    1.46 
   4  -6 -16   14.32    2.02 
  -4   6  16   12.74    1.08 
   3  -6 -16   -1.07    1.07 
  -3   6  16   -0.66    0.49 
   2  -6 -16   22.92    2.56 
  -2   6  16   18.28    1.28 
   1  -6 -16    1.52    1.17 
  -1   6  16    0.36    0.46 
   0  -6 -16    5.15    1.28 
   0   6  16    3.86    0.59 
  -1  -6 -16    3.74    1.19 
   1   6  16    3.36    0.54 
  -2  -6 -16    0.36    0.91 
   2   6  16   -0.75    0.45 
  -3  -6 -16    1.16    0.93 
   3   6  16    2.29    0.53 
  -4  -6 -16    0.72    0.84 
   4  -7 -16    1.15    1.31 
   3  -7 -16    1.15    1.28 
  -3   7  16    2.80    0.61 
   2  -7 -16    0.49    1.11 
  -2   7  16   -0.70    0.48 
   1  -7 -16    7.47    1.57 
  -1   7  16    8.12    0.73 
   0  -7 -16    7.10    1.55 
   0   7  16    6.97    0.70 
  -1  -7 -16    8.39    1.66 
   1   7  16   12.46    0.94 
  -2  -7 -16   -0.38    0.90 
   2   7  16    0.96    0.48 
  -3  -7 -16   14.57    1.93 
  -4  -7 -16    7.57    1.43 
   3  -8 -16    5.74    1.66 
   2  -8 -16    8.23    1.73 
  -2   8  16   11.85    0.97 
   1  -8 -16    0.77    1.24 
  -1   8  16    0.93    0.49 
   0  -8 -16    0.16    1.11 
   0   8  16   -0.35    0.47 
  -1  -8 -16    0.29    1.05 
   1   8  16    1.70    0.50 
   1   8  16    1.11    0.49 
  -2  -8 -16    0.65    1.06 
   2   8  16    0.27    0.47 
  -3  -8 -16    0.15    1.01 
   1  -9 -16   -0.19    1.22 
   0  -9 -16   12.40    1.96 
  -1  -9 -16   -1.06    1.08 
  -2  -3  17    2.48    1.48 
  -1  -3  17   -0.04    0.58 
  -1  -3  17    0.20    1.27 
   0  -3  17    0.53    1.07 
   0  -3  17    1.33    0.62 
  -3  -2  17   -0.12    1.41 
  -2  -2  17    2.73    0.62 
  -2  -2  17    3.75    1.32 
   1   2 -17    3.24    1.21 
  -1  -2  17    2.69    0.61 
   0   2 -17    0.28    1.06 
   0  -2  17    0.82    0.57 
   1  -2  17   -1.62    0.52 
   2  -2  17    7.21    0.84 
  -4  -1  17    5.59    1.54 
   3   1 -17    1.07    1.30 
  -3  -1  17    0.72    0.59 
   2   1 -17    2.68    1.27 
  -2  -1  17    2.08    0.61 
   1   1 -17    1.55    1.10 
  -1  -1  17    0.18    0.51 
   0   1 -17    0.93    1.00 
   0  -1  17    0.92    0.54 
  -1   1 -17    0.08    0.77 
   1  -1  17   -0.91    0.51 
   2  -1  17    4.61    0.70 
   3  -1  17   -0.67    0.62 
   4   0 -17   -0.05    1.42 
  -4   0  17    1.38    0.60 
   3   0 -17   10.97    1.90 
  -3   0  17   13.64    1.05 
   2   0 -17    1.10    1.19 
  -2   0  17    2.53    0.57 
   1   0 -17    9.57    1.79 
  -1   0  17   10.16    0.90 
   0   0 -17   -0.37    0.92 
   0   0  17   -0.14    0.49 
  -1   0 -17   32.08    2.95 
   1   0  17   28.12    1.83 
  -2   0 -17    0.53    0.91 
   2   0  17    0.98    0.58 
   3   0  17   12.15    1.07 
   4   0  17    1.58    0.65 
   4  -1 -17    0.83    1.22 
  -4   1  17   -0.63    0.53 
   3  -1 -17    2.04    1.25 
  -3   1  17    1.78    0.57 
   2  -1 -17    1.90    1.19 
  -2   1  17    1.83    0.58 
   1  -1 -17   -0.45    1.02 
  -1   1  17    0.63    0.51 
   0  -1 -17    0.67    1.10 
   0   1  17    0.24    0.48 
  -1  -1 -17    0.08    0.88 
   1   1  17    0.25    0.50 
  -2  -1 -17    2.02    1.05 
   2   1  17    4.15    0.64 
   3   1  17    0.15    0.56 
   4   1  17    2.08    0.64 
   5  -2 -17    0.59    1.21 
   4  -2 -17   16.70    2.39 
  -4   2  17   21.72    1.40 
   3  -2 -17    0.33    1.24 
  -3   2  17    1.26    0.51 
   2  -2 -17    6.88    1.55 
  -2   2  17    6.91    0.73 
   1  -2 -17    4.86    1.35 
  -1   2  17    3.80    0.62 
   0  -2 -17    0.22    1.04 
   0   2  17    1.13    0.51 
  -1  -2 -17    3.68    1.25 
   1   2  17    3.90    0.63 
  -2  -2 -17    6.53    1.43 
   2   2  17    9.35    0.81 
   3   2  17    2.43    0.61 
   4   2  17    5.22    0.72 
   5  -3 -17   -0.17    1.19 
   4  -3 -17    2.81    1.50 
  -4   3  17    0.05    0.56 
   3  -3 -17    0.29    1.17 
  -3   3  17   -0.35    0.51 
   2  -3 -17    1.67    1.23 
  -2   3  17    2.64    0.54 
   1  -3 -17    1.99    1.22 
  -1   3  17    1.69    0.50 
   0  -3 -17    0.62    1.15 
   0   3  17   -0.86    0.49 
  -1  -3 -17    2.60    1.20 
   1   3  17    2.35    0.58 
  -2  -3 -17    0.64    1.01 
   2   3  17    0.21    0.51 
  -3  -3 -17    2.66    1.15 
   3   3  17    2.79    0.59 
   4   3  17    3.37    0.63 
   4  -4 -17    1.18    1.26 
  -4   4  17    1.32    0.61 
   3  -4 -17    9.15    1.84 
  -3   4  17   11.08    0.93 
   2  -4 -17    1.06    1.29 
  -2   4  17    1.58    0.52 
   1  -4 -17   12.80    2.00 
  -1   4  17   13.35    1.02 
   0  -4 -17   12.74    2.13 
   0   4  17   16.22    1.13 
  -1  -4 -17    1.62    1.15 
   1   4  17    1.67    0.56 
  -2  -4 -17    0.83    1.01 
   2   4  17    0.64    0.50 
  -3  -4 -17    0.88    0.94 
   3   4  17    0.57    0.51 
   4   4  17    2.63    0.59 
   4  -5 -17   -0.78    1.26 
   3  -5 -17    1.53    1.32 
  -3   5  17    0.12    0.52 
   2  -5 -17    2.85    1.40 
  -2   5  17    4.04    0.61 
   1  -5 -17    2.28    1.22 
  -1   5  17    0.73    0.51 
   0  -5 -17   12.65    1.99 
   0   5  17   14.17    1.05 
  -1  -5 -17    0.66    1.03 
   1   5  17    0.19    0.50 
  -2  -5 -17   10.72    1.84 
   2   5  17   12.27    1.01 
  -3  -5 -17    3.56    1.25 
   3   5  17    5.32    0.67 
  -4  -5 -17    2.64    1.15 
   4  -6 -17   11.84    2.11 
   3  -6 -17   16.98    2.19 
  -3   6  17   11.96    1.03 
   2  -6 -17   10.01    1.87 
  -2   6  17    9.35    0.85 
   1  -6 -17    8.37    1.73 
  -1   6  17    8.47    0.79 
   0  -6 -17    2.28    1.22 
   0   6  17    1.81    0.54 
  -1  -6 -17    0.30    1.07 
   1   6  17    0.18    0.45 
  -2  -6 -17    1.00    1.17 
   2   6  17    0.60    0.51 
  -3  -6 -17    1.91    1.20 
   3   6  17    1.83    0.55 
  -4  -6 -17    1.49    0.95 
   3  -7 -17    0.11    1.33 
   2  -7 -17    2.20    1.32 
  -2   7  17    0.32    0.51 
   1  -7 -17    3.38    1.40 
  -1   7  17    3.93    0.63 
   0  -7 -17    1.21    1.15 
   0   7  17   -0.91    0.47 
  -1  -7 -17   10.45    1.81 
   1   7  17   10.73    0.93 
  -2  -7 -17    1.75    1.15 
   2   7  17    1.75    0.55 
  -3  -7 -17    3.32    1.19 
   2  -8 -17    8.06    1.79 
   1  -8 -17   -0.64    1.21 
   0  -8 -17    0.04    1.23 
   0   8  17   -0.02    0.49 
  -1  -8 -17   -0.03    1.17 
   1   8  17    0.34    0.50 
  -2  -8 -17    0.78    1.12 
  -2  -2  18    3.06    1.47 
  -1  -2  18    1.60    1.18 
   0   2 -18    3.40    1.32 
   0  -2  18    5.02    0.73 
   3   1 -18    0.31    1.39 
   2   1 -18    3.55    1.46 
  -2  -1  18    3.43    0.67 
   1   1 -18   -0.23    1.13 
  -1  -1  18   -0.45    0.56 
   0   1 -18    2.28    1.25 
   0  -1  18    2.13    0.64 
  -1   1 -18    1.33    0.98 
   1  -1  18    1.50    0.63 
   2  -1  18    1.21    0.67 
   3   0 -18    6.54    1.69 
  -3   0  18    5.39    0.77 
   2   0 -18    5.41    1.56 
  -2   0  18    3.03    0.67 
   1   0 -18    2.54    1.26 
  -1   0  18    1.70    0.61 
   0   0 -18    5.69    1.41 
   0   0  18    6.46    0.74 
  -1   0 -18    1.97    1.18 
   1   0  18    3.48    0.65 
   2   0  18    7.55    0.87 
   3   0  18   -0.46    0.65 
   4  -1 -18    6.80    1.75 
   3  -1 -18    0.84    1.36 
  -3   1  18    1.62    0.64 
   2  -1 -18    0.82    1.23 
  -2   1  18    1.86    0.60 
   1  -1 -18   -0.59    1.15 
  -1   1  18    0.55    0.54 
   0  -1 -18    1.07    1.16 
   0   1  18    0.99    0.57 
  -1  -1 -18    2.63    1.13 
   1   1  18    1.71    0.58 
  -2  -1 -18    0.79    1.05 
   2   1  18    1.97    0.65 
   3   1  18    6.18    0.81 
   4  -2 -18    6.86    1.73 
   3  -2 -18    1.56    1.34 
  -3   2  18    2.36    0.62 
   2  -2 -18    0.34    1.29 
  -2   2  18    1.35    0.60 
   1  -2 -18    4.29    1.44 
  -1   2  18    5.23    0.71 
   0  -2 -18    0.31    1.12 
   0   2  18    0.53    0.54 
  -1  -2 -18    6.92    1.50 
   1   2  18    7.74    0.82 
  -2  -2 -18    1.26    1.09 
   2   2  18    1.48    0.58 
   3   2  18    3.35    0.67 
   4  -3 -18    1.21    1.34 
   3  -3 -18    3.40    1.44 
  -3   3  18    1.13    0.59 
   2  -3 -18   -0.62    1.22 
  -2   3  18    0.34    0.52 
   1  -3 -18    0.86    1.24 
  -1   3  18    0.66    0.55 
   0  -3 -18    3.00    1.42 
   0   3  18    3.53    0.65 
  -1  -3 -18    8.01    1.65 
   1   3  18    7.68    0.80 
  -2  -3 -18   -0.31    1.17 
   2   3  18   -0.60    0.55 
  -3  -3 -18    3.78    1.26 
   3   3  18    3.96    0.67 
   4  -4 -18   -0.28    1.37 
   3  -4 -18   13.40    2.03 
  -3   4  18    8.76    0.91 
   2  -4 -18    7.18    1.80 
  -2   4  18    6.58    0.76 
   1  -4 -18    1.10    1.41 
  -1   4  18    4.16    0.62 
   0  -4 -18   13.20    2.16 
   0   4  18   15.87    1.17 
  -1  -4 -18    0.93    1.25 
   1   4  18    1.23    0.57 
  -2  -4 -18    0.44    1.23 
   2   4  18   -0.67    0.53 
  -3  -4 -18    0.31    1.06 
   3   4  18    0.92    0.57 
   3  -5 -18    0.97    1.59 
  -3   5  18   -0.22    0.60 
   2  -5 -18    0.37    1.39 
  -2   5  18    0.73    0.55 
   1  -5 -18    0.20    1.34 
  -1   5  18    0.19    0.55 
   0  -5 -18    5.20    1.61 
   0   5  18    4.37    0.63 
  -1  -5 -18   -0.16    1.18 
   1   5  18    0.84    0.58 
  -2  -5 -18    4.67    1.43 
   2   5  18    7.39    0.77 
  -3  -5 -18    4.06    1.32 
   3   5  18    5.92    0.73 
   3  -6 -18    3.98    1.79 
   2  -6 -18    0.82    1.40 
  -2   6  18    0.08    0.57 
   1  -6 -18    7.48    1.86 
  -1   6  18    7.44    0.79 
   0  -6 -18    3.78    1.41 
   0   6  18    1.86    0.57 
  -1  -6 -18    2.32    1.34 
   1   6  18    1.66    0.58 
  -2  -6 -18    1.42    1.15 
   2   6  18   -0.15    0.54 
  -3  -6 -18    1.41    1.30 
   2  -7 -18    2.48    1.53 
   1  -7 -18    2.07    1.52 
  -1   7  18    1.99    0.60 
   0  -7 -18    5.97    1.62 
   0   7  18    7.06    0.77 
  -1  -7 -18    2.23    1.36 
   1   7  18    1.55    0.54 
  -2  -7 -18    7.40    1.65 
   1   1 -19    3.02    1.56 
   0   1 -19    0.14    1.11 
   2   0 -19    8.59    1.86 
   1   0 -19   -0.52    1.23 
  -1   0  19    0.27    0.63 
   0   0 -19    4.77    1.58 
   0   0  19    5.42    0.76 
  -1   0 -19   -0.50    1.11 
   1   0  19   -0.63    0.63 
   3  -1 -19    0.88    1.49 
   2  -1 -19    1.03    1.42 
  -2   1  19    0.94    0.64 
   1  -1 -19    4.82    1.55 
  -1   1  19    4.22    0.73 
   0  -1 -19    1.35    1.35 
   0   1  19    1.10    0.63 
  -1  -1 -19   -0.66    1.08 
   1   1  19   -0.10    0.59 
   2   1  19    0.09    0.67 
   3  -2 -19    4.25    1.76 
   2  -2 -19    1.24    1.48 
  -2   2  19    1.64    0.66 
   1  -2 -19    1.46    1.37 
  -1   2  19    1.43    0.63 
   0  -2 -19   -1.20    1.16 
   0   2  19   -0.24    0.55 
  -1  -2 -19    8.70    1.63 
   1   2  19    7.21    0.85 
  -2  -2 -19    0.59    1.21 
   2   2  19   -0.38    0.61 
   3  -3 -19   -1.03    1.54 
   2  -3 -19    0.49    1.41 
  -2   3  19   -0.01    0.59 
   1  -3 -19   -0.72    1.33 
  -1   3  19   -0.25    0.60 
   0  -3 -19   -0.13    1.30 
   0   3  19    0.70    0.60 
  -1  -3 -19    3.67    1.59 
   1   3  19    3.98    0.69 
  -2  -3 -19    1.58    1.25 
   2   3  19    0.74    0.61 
   3  -4 -19    5.57    1.72 
   2  -4 -19    6.79    1.83 
  -2   4  19    6.80    0.80 
   1  -4 -19   -0.39    1.43 
  -1   4  19    0.33    0.60 
   0  -4 -19    7.58    1.88 
   0   4  19    6.74    0.82 
  -1  -4 -19    2.39    1.37 
   1   4  19    1.92    0.65 
  -2  -4 -19    0.07    1.37 
   2   4  19   -0.56    0.59 
  -3  -4 -19    1.82    1.35 
   2  -5 -19   -0.26    1.50 
   1  -5 -19    4.57    1.94 
  -1   5  19    4.69    0.70 
   0  -5 -19   -0.59    1.62 
   0   5  19    1.26    0.61 
  -1  -5 -19    6.18    1.84 
   1   5  19    3.22    0.70 
  -2  -5 -19    1.34    1.47 
   2   5  19    0.46    0.58 
  -3  -5 -19    5.62    1.52 
   2  -6 -19   -0.03    1.59 
   1  -6 -19    9.97    2.10 
   0  -6 -19    2.91    1.75 
   0   6  19    0.62    0.57 
  -1  -6 -19    3.17    1.50 
  -2  -6 -19   -0.40    1.24 
   1  -1 -20   -0.13    1.63 
   0  -1 -20   -0.82    1.27 
  -1  -1 -20   -0.17    1.37 
   1  -2 -20    4.82    1.83 
   0  -2 -20    0.27    1.39 
  -1  -2 -20    0.61    1.30 
   1  -3 -20    1.25    1.59 
   0  -3 -20    1.42    1.50 
  -1  -3 -20   -0.10    1.42 
  -2  -3 -20    0.72    1.50 
   1  -4 -20    7.84    2.32 
   0  -4 -20   -0.28    1.62 
  -1  -4 -20   -0.03    1.45 
  -2  -4 -20    1.37    1.59 
   1  -5 -20    0.28    1.87 
   0  -5 -20    0.25    1.60 
  -1  -5 -20    2.53    1.68 
   0   0   0    0.00    0.00 
;
_shelx_hkl_checksum              13131
#END Tags that were not found in dictionaries
loop_
_space_group_symop_operation_xyz
'x, y, z'
'-x, -y, -z'
loop_
_atom_site_label
_atom_site_type_symbol
_atom_site_fract_x
_atom_site_fract_y
_atom_site_fract_z
_atom_site_U_iso_or_equiv
_atom_site_adp_type
_atom_site_occupancy
_atom_site_site_symmetry_order
_atom_site_calc_flag
_atom_site_refinement_flags_posn
_atom_site_refinement_flags_adp
_atom_site_refinement_flags_occupancy
_atom_site_disorder_assembly
_atom_site_disorder_group
C16 C 0.7592(8) 0.5175(9) 0.3959(4) 0.021(2) Uani 0.682(15) 1 d D . P A 1
F1 F 0.6904(8) 0.3778(9) 0.4435(4) 0.0541(15) Uani 0.682(15) 1 d D U P A 1
F2 F 0.9419(8) 0.4854(9) 0.3749(4) 0.0541(15) Uani 0.682(15) 1 d D U P A 1
F3 F 0.7692(8) 0.6087(10) 0.4536(4) 0.0541(15) Uani 0.682(15) 1 d D U P A 1
C16A C 0.7560(13) 0.5769(13) 0.4046(6) 0.021(2) Uani 0.318(15) 1 d D . P A 2
F1A F 0.6927(14) 0.4423(14) 0.4611(7) 0.035(3) Uiso 0.318(15) 1 d D . P A 2
F2A F 0.9442(13) 0.5471(15) 0.3894(7) 0.035(3) Uiso 0.318(15) 1 d D . P A 2
F3A F 0.7557(15) 0.6854(16) 0.4530(7) 0.035(3) Uiso 0.318(15) 1 d D . P A 2
Br1 Br 0.30560(7) 1.41771(6) 0.07615(4) 0.0285(2) Uani 1 1 d . . . . .
S1 S 0.25605(15) 0.86528(13) 0.07750(7) 0.0102(3) Uani 1 1 d . . . . .
O1 O 0.3569(4) 0.8577(4) -0.0044(2) 0.0132(7) Uani 1 1 d . . . . .
O2 O 0.0620(4) 0.8055(4) 0.0948(2) 0.0139(7) Uani 1 1 d . . . . .
N1 N 0.2430(5) 1.0548(5) 0.0775(2) 0.0116(8) Uani 1 1 d D . . . .
H1N H 0.348(5) 1.102(6) 0.063(3) 0.014 Uiso 1 1 d D U . . .
C1 C 0.0628(7) 1.2950(6) 0.0982(4) 0.0206(11) Uani 1 1 d . . . . .
H1 H -0.0019 1.3079 0.0383 0.025 Uiso 1 1 calc R U . . .
C2 C 0.1084(6) 1.1137(6) 0.1387(3) 0.0144(9) Uani 1 1 d . . . . .
H2 H -0.0180 1.0585 0.1378 0.017 Uiso 1 1 calc R U . . .
C3 C 0.1769(7) 1.0672(6) 0.2366(3) 0.0203(11) Uani 1 1 d . . . . .
C4 C 0.0454(8) 1.0041(7) 0.3040(4) 0.0296(12) Uani 1 1 d . . . . .
H4 H -0.0874 0.9934 0.2888 0.035 Uiso 1 1 calc R U . . .
C5 C 0.1039(10) 0.9556(9) 0.3946(4) 0.0426(16) Uani 1 1 d . . . . .
H5 H 0.0115 0.9133 0.4406 0.051 Uiso 1 1 calc R U . . .
C6 C 0.2965(11) 0.9698(11) 0.4163(4) 0.0510(19) Uani 1 1 d . . . . .
H6 H 0.3383 0.9360 0.4776 0.061 Uiso 1 1 calc R U . . .
C7 C 0.4289(9) 1.0330(10) 0.3496(4) 0.0439(17) Uani 1 1 d . . . . .
H7 H 0.5616 1.0437 0.3652 0.053 Uiso 1 1 calc R U . . .
C8 C 0.3723(8) 1.0808(7) 0.2606(4) 0.0272(12) Uani 1 1 d . . . . .
H8 H 0.4658 1.1232 0.2152 0.033 Uiso 1 1 calc R U . . .
C9 C -0.0782(8) 1.3709(7) 0.1550(4) 0.0294(13) Uani 1 1 d . . . . .
H9A H -0.0201 1.3586 0.2148 0.044 Uiso 1 1 calc R U . . .
H9B H -0.2032 1.3160 0.1617 0.044 Uiso 1 1 calc R U . . .
H9C H -0.1018 1.4868 0.1251 0.044 Uiso 1 1 calc R U . . .
C10 C 0.4067(6) 0.7587(6) 0.1697(3) 0.0143(9) Uani 1 1 d . . . . .
C11 C 0.6085(7) 0.7792(5) 0.1655(3) 0.0144(9) Uani 1 1 d . . . . .
H11 H 0.6668 0.8446 0.1125 0.017 Uiso 1 1 calc R U . . .
C12 C 0.7224(7) 0.7023(6) 0.2400(3) 0.0208(11) Uani 1 1 d . . . . .
H12 H 0.8605 0.7152 0.2386 0.025 Uiso 1 1 calc R U . . .
C13 C 0.6362(7) 0.6064(7) 0.3169(4) 0.0263(12) Uani 1 1 d D . . . .
C14 C 0.4354(8) 0.5848(8) 0.3190(4) 0.0347(14) Uani 1 1 d . . . . .
H14 H 0.3775 0.5167 0.3711 0.042 Uiso 1 1 calc R U . . .
C15 C 0.3197(7) 0.6616(7) 0.2458(4) 0.0253(12) Uani 1 1 d . . . . .
H15 H 0.1817 0.6482 0.2474 0.030 Uiso 1 1 calc R U . . .
loop_
_atom_site_aniso_label
_atom_site_aniso_U_11
_atom_site_aniso_U_22
_atom_site_aniso_U_33
_atom_site_aniso_U_23
_atom_site_aniso_U_13
_atom_site_aniso_U_12
C16 0.011(3) 0.025(6) 0.017(3) 0.009(3) 0.003(2) 0.004(3)
F1 0.0500(17) 0.058(2) 0.0474(18) -0.0032(13) -0.0120(12) 0.0081(13)
F2 0.0500(17) 0.058(2) 0.0474(18) -0.0032(13) -0.0120(12) 0.0081(13)
F3 0.0500(17) 0.058(2) 0.0474(18) -0.0032(13) -0.0120(12) 0.0081(13)
C16A 0.011(3) 0.025(6) 0.017(3) 0.009(3) 0.003(2) 0.004(3)
Br1 0.0175(3) 0.0172(3) 0.0535(4) -0.0140(3) 0.0065(2) -0.0009(2)
S1 0.0060(5) 0.0128(6) 0.0107(5) -0.0017(4) -0.0010(4) 0.0019(4)
O1 0.0097(15) 0.0164(16) 0.0142(16) -0.0057(13) 0.0001(12) 0.0018(12)
O2 0.0064(15) 0.0165(16) 0.0176(17) -0.0023(13) 0.0006(12) -0.0024(12)
N1 0.0074(18) 0.016(2) 0.0113(19) -0.0037(15) 0.0011(15) 0.0009(15)
C1 0.013(2) 0.020(3) 0.030(3) -0.010(2) 0.001(2) 0.0053(19)
C2 0.007(2) 0.017(2) 0.021(2) -0.0092(19) 0.0032(18) 0.0011(17)
C3 0.020(3) 0.023(3) 0.020(3) -0.010(2) 0.002(2) 0.004(2)
C4 0.026(3) 0.042(3) 0.025(3) -0.017(3) 0.006(2) -0.004(2)
C5 0.046(4) 0.065(4) 0.020(3) -0.018(3) 0.013(3) -0.011(3)
C6 0.053(4) 0.083(5) 0.019(3) -0.017(3) -0.006(3) -0.002(4)
C7 0.032(3) 0.080(5) 0.028(3) -0.027(3) -0.007(3) 0.000(3)
C8 0.017(3) 0.047(3) 0.021(3) -0.015(3) -0.002(2) -0.001(2)
C9 0.016(3) 0.029(3) 0.048(4) -0.020(3) 0.002(2) 0.007(2)
C10 0.010(2) 0.017(2) 0.015(2) -0.0030(19) -0.0020(18) 0.0043(18)
C11 0.011(2) 0.016(2) 0.012(2) 0.0025(18) 0.0037(18) 0.0009(18)
C12 0.010(2) 0.026(3) 0.022(3) 0.001(2) -0.0015(19) 0.0041(19)
C13 0.013(2) 0.040(3) 0.019(3) 0.004(2) -0.003(2) 0.003(2)
C14 0.012(3) 0.052(4) 0.024(3) 0.017(3) 0.004(2) 0.000(2)
C15 0.012(2) 0.033(3) 0.023(3) 0.005(2) 0.001(2) -0.001(2)
loop_
_atom_type_symbol
_atom_type_description
_atom_type_scat_dispersion_real
_atom_type_scat_dispersion_imag
_atom_type_scat_source
C C 0.0033 0.0016 'International Tables Vol C Tables 4.2.6.8 and 6.1.1.4'
H H 0.0000 0.0000 'International Tables Vol C Tables 4.2.6.8 and 6.1.1.4'
N N 0.0061 0.0033 'International Tables Vol C Tables 4.2.6.8 and 6.1.1.4'
S S 0.1246 0.1234 'International Tables Vol C Tables 4.2.6.8 and 6.1.1.4'
Br Br -0.2901 2.4595 'International Tables Vol C Tables 4.2.6.8 and 6.1.1.4'
O O 0.0106 0.0060 'International Tables Vol C Tables 4.2.6.8 and 6.1.1.4'
F F 0.0171 0.0103 'International Tables Vol C Tables 4.2.6.8 and 6.1.1.4'
loop_
_geom_angle_atom_site_label_1
_geom_angle_atom_site_label_2
_geom_angle_atom_site_label_3
_geom_angle
F2 C16 F1 106.4(4)
F2 C16 F3 106.5(4)
F1 C16 F3 105.2(4)
F2 C16 C13 113.7(5)
F1 C16 C13 115.2(5)
F3 C16 C13 109.1(5)
F2A C16A F1A 106.5(5)
F2A C16A F3A 105.1(5)
F1A C16A F3A 104.7(5)
F2A C16A C13 110.3(7)
F1A C16A C13 107.2(7)
F3A C16A C13 122.1(8)
O2 S1 O1 120.12(19)
O2 S1 N1 107.19(19)
O1 S1 N1 106.4(2)
O2 S1 C10 107.2(2)
O1 S1 C10 107.55(19)
N1 S1 C10 107.9(2)
C2 N1 S1 121.1(3)
C2 N1 H1N 118(4)
S1 N1 H1N 114(4)
C2 C1 C9 113.7(4)
C2 C1 Br1 111.3(3)
C9 C1 Br1 109.4(3)
C2 C1 H1 107.4
C9 C1 H1 107.4
Br1 C1 H1 107.4
N1 C2 C3 113.9(4)
N1 C2 C1 108.5(4)
C3 C2 C1 115.0(4)
N1 C2 H2 106.3
C3 C2 H2 106.3
C1 C2 H2 106.3
C4 C3 C8 118.4(5)
C4 C3 C2 119.4(5)
C8 C3 C2 122.1(5)
C3 C4 C5 121.2(5)
C3 C4 H4 119.4
C5 C4 H4 119.4
C6 C5 C4 119.2(6)
C6 C5 H5 120.4
C4 C5 H5 120.4
C5 C6 C7 120.1(6)
C5 C6 H6 120.0
C7 C6 H6 120.0
C8 C7 C6 120.9(6)
C8 C7 H7 119.6
C6 C7 H7 119.6
C7 C8 C3 120.2(5)
C7 C8 H8 119.9
C3 C8 H8 119.9
C1 C9 H9A 109.5
C1 C9 H9B 109.5
H9A C9 H9B 109.5
C1 C9 H9C 109.5
H9A C9 H9C 109.5
H9B C9 H9C 109.5
C15 C10 C11 121.5(4)
C15 C10 S1 119.2(4)
C11 C10 S1 119.3(4)
C12 C11 C10 118.5(4)
C12 C11 H11 120.7
C10 C11 H11 120.7
C11 C12 C13 120.3(4)
C11 C12 H12 119.8
C13 C12 H12 119.8
C14 C13 C12 120.2(5)
C14 C13 C16 119.1(5)
C12 C13 C16 120.6(4)
C14 C13 C16A 121.0(5)
C12 C13 C16A 115.7(5)
C15 C14 C13 120.2(5)
C15 C14 H14 119.9
C13 C14 H14 119.9
C14 C15 C10 119.2(5)
C14 C15 H15 120.4
C10 C15 H15 120.4
loop_
_geom_bond_atom_site_label_1
_geom_bond_atom_site_label_2
_geom_bond_distance
C16 F2 1.318(5)
C16 F1 1.324(5)
C16 F3 1.329(5)
C16 C13 1.491(8)
C16A F2A 1.326(5)
C16A F1A 1.328(5)
C16A F3A 1.333(5)
C16A C13 1.537(10)
Br1 C1 1.973(5)
S1 O2 1.434(3)
S1 O1 1.443(3)
S1 N1 1.615(4)
S1 C10 1.772(4)
N1 C2 1.475(5)
N1 H1N 0.83(2)
C1 C2 1.525(7)
C1 C9 1.529(7)
C1 H1 1.0000
C2 C3 1.522(7)
C2 H2 1.0000
C3 C4 1.376(8)
C3 C8 1.400(7)
C4 C5 1.398(8)
C4 H4 0.9500
C5 C6 1.373(10)
C5 H5 0.9500
C6 C7 1.374(10)
C6 H6 0.9500
C7 C8 1.371(8)
C7 H7 0.9500
C8 H8 0.9500
C9 H9A 0.9800
C9 H9B 0.9800
C9 H9C 0.9800
C10 C15 1.386(7)
C10 C11 1.390(6)
C11 C12 1.383(7)
C11 H11 0.9500
C12 C13 1.388(8)
C12 H12 0.9500
C13 C14 1.385(7)
C14 C15 1.375(7)
C14 H14 0.9500
C15 H15 0.9500
loop_
_geom_hbond_atom_site_label_D
_geom_hbond_atom_site_label_H
_geom_hbond_atom_site_label_A
_geom_hbond_distance_DH
_geom_hbond_distance_HA
_geom_hbond_distance_DA
_geom_hbond_angle_DHA
_geom_hbond_site_symmetry_A
N1 H1N O1 0.83(2) 2.20(3) 2.985(5) 157(5) 2_675
