#------------------------------------------------------------------------------
#$Date: 2016-02-16 22:30:59 +0200 (Tue, 16 Feb 2016) $
#$Revision: 176467 $
#$URL: svn://www.crystallography.net/cod/cif/4/03/00/4030026.cif $
#------------------------------------------------------------------------------
#
# This file is available in the Crystallography Open Database (COD),
# http://www.crystallography.net/
#
# All data on this site have been placed in the public domain by the
# contributors.
#
data_4030026
loop_
_publ_author_name
'Lenk, Romaric'
'Tessier, Arnaud'
'Lefranc, Pierre'
'Silvestre, Virginie'
'Planchat, Aur\'elien'
'Blot, Virginie'
'Dubreuil, Didier'
'Lebreton, Jacques'
_publ_section_title
;
 1-Oxo-1H-phenalene-2,3-dicarbonitrile Heteroaromatic Scaffold: Revised
 Structure and Mechanistic Studies.
;
_journal_issue                   20
_journal_name_full               'The Journal of organic chemistry'
_journal_page_first              9754
_journal_page_last               9761
_journal_paper_doi               10.1021/jo5016932
_journal_volume                  79
_journal_year                    2014
_chemical_formula_moiety         'C15 H7 N1 O3'
_chemical_formula_sum            'C15 H7 N O3'
_chemical_formula_weight         249.2
_chemical_name_systematic        ' ?'
_space_group_IT_number           4
_symmetry_cell_setting           monoclinic
_symmetry_Int_Tables_number      4
_symmetry_space_group_name_Hall  'P 2yb'
_symmetry_space_group_name_H-M   'P 1 21 1'
_cell_angle_alpha                90
_cell_angle_beta                 90.073(4)
_cell_angle_gamma                90
_cell_formula_units_Z            2
_cell_length_a                   12.8326(2)
_cell_length_b                   5.3196(4)
_cell_length_c                   7.7207(6)
_cell_measurement_temperature    293
_cell_volume                     527.05(6)
_diffrn_ambient_temperature      293
_diffrn_measured_fraction_theta_full 0.98
_diffrn_measured_fraction_theta_max 0.98
_diffrn_measurement_device       'four-cycle diffractometer'
_diffrn_measurement_device_type  'Nonius CCD'
_diffrn_radiation_monochromator  graphite
_diffrn_radiation_probe          x-ray
_diffrn_radiation_source         'X-ray tube'
_diffrn_radiation_type           'Mo K\a'
_diffrn_radiation_wavelength     0.71069
_diffrn_reflns_av_R_equivalents  0.0509
_diffrn_reflns_av_sigmaI/netI    0.047
_diffrn_reflns_limit_h_max       19
_diffrn_reflns_limit_h_min       -19
_diffrn_reflns_limit_k_max       7
_diffrn_reflns_limit_k_min       -8
_diffrn_reflns_limit_l_max       11
_diffrn_reflns_limit_l_min       -11
_diffrn_reflns_number            9960
_diffrn_reflns_theta_full        32.84
_diffrn_reflns_theta_max         33.4
_diffrn_reflns_theta_min         6.53
_exptl_absorpt_coefficient_mu    0.112
_exptl_absorpt_correction_T_max  0.992
_exptl_absorpt_correction_T_min  0.9707
_exptl_absorpt_correction_type   gaussian
_exptl_absorpt_process_details
'Jana2006  (Petricek, Dusek & Palatinus, 2000)'
_exptl_crystal_density_diffrn    1.5699
_exptl_crystal_F_000             256
_exptl_crystal_size_max          0.39
_exptl_crystal_size_mid          0.07
_exptl_crystal_size_min          0.07
_refine_diff_density_max         0.39
_refine_diff_density_min         -0.31
_refine_ls_abs_structure_details
'  1350 of Friedel pairs used in the refinement'
_refine_ls_extinction_method     none
_refine_ls_goodness_of_fit_gt    1.55
_refine_ls_goodness_of_fit_ref   1.55
_refine_ls_hydrogen_treatment    mixed
_refine_ls_number_constraints    25
_refine_ls_number_parameters     176
_refine_ls_number_reflns         3542
_refine_ls_number_restraints     0
_refine_ls_R_factor_all          0.1015
_refine_ls_R_factor_gt           0.0627
_refine_ls_shift/su_max          0.0347
_refine_ls_shift/su_mean         0.0070
_refine_ls_structure_factor_coef Fsqd
_refine_ls_weighting_details     w=1/(\s^2^(I)+0.0025000002I^2^)
_refine_ls_weighting_scheme      sigma
_refine_ls_wR_factor_gt          0.1216
_refine_ls_wR_factor_ref         0.1421
_reflns_number_gt                2631
_reflns_number_total             3542
_reflns_threshold_expression     I>2\s(I)
_cod_data_source_file            jo5016932_si_003.cif
_cod_data_source_block           I
_cod_depositor_comments
;
The following automatic conversions were performed:

'_diffrn_radiation_probe' value 'X-ray' changed to 'x-ray' according
to
/home/saulius/struct/COD-crude-data--automatic-downloads/rss-feeds/ACS/lib/dictionaries/cif_core.dic
dictionary named 'cif_core.dic' version 2.4.2 from 2011-04-26.

Automatic conversion script
Id: cif_fix_values 2827 2014-09-09 07:05:25Z andrius 

 Adding full bibliography for 4030023--4030026.cif.
;
_cod_original_formula_sum        'C15 H7 N1 O3'
_cod_database_code               4030026
loop_
_symmetry_equiv_pos_site_id
_symmetry_equiv_pos_as_xyz
1 x,y,z
2 -x,y+1/2,-z
loop_
_atom_site_label
_atom_site_type_symbol
_atom_site_fract_x
_atom_site_fract_y
_atom_site_fract_z
_atom_site_adp_type
_atom_site_U_iso_or_equiv
_atom_site_symmetry_multiplicity
_atom_site_occupancy
_atom_site_calc_flag
O1 O 0.70849(15) -0.4940(4) 0.2447(2) Uani 0.0520(6) 2 1 d
O2 O 0.89689(13) -0.2609(3) 0.0457(2) Uani 0.0386(5) 2 1 d
O3 O 0.95637(12) 0.3991(3) 0.4084(2) Uani 0.0378(5) 2 1 d
N9 N 0.94599(14) 0.0908(4) 0.1994(2) Uani 0.0314(5) 2 1 d
C1 C 0.81340(16) 0.2504(4) 0.7177(3) Uani 0.0312(6) 2 1 d
C2 C 0.76321(17) 0.2621(5) 0.8789(3) Uani 0.0342(7) 2 1 d
C3 C 0.68559(16) 0.0969(5) 0.9168(3) Uani 0.0333(7) 2 1 d
C4 C 0.57212(16) -0.2593(5) 0.8331(3) Uani 0.0348(7) 2 1 d
C5 C 0.54293(17) -0.4389(5) 0.7140(3) Uani 0.0369(7) 2 1 d
C6 C 0.59473(16) -0.4557(4) 0.5553(3) Uani 0.0311(6) 2 1 d
C7 C 0.73078(16) -0.3256(4) 0.3473(3) Uani 0.0283(6) 2 1 d
C8 C 0.88716(15) -0.1212(4) 0.1686(2) Uani 0.0280(6) 2 1 d
C10 C 0.91995(15) 0.2080(4) 0.3533(3) Uani 0.0266(6) 2 1 d
Cb C 0.70504(14) -0.1035(4) 0.6345(2) Uani 0.0238(5) 2 1 d
Ce C 0.81316(15) -0.1406(4) 0.3177(2) Uani 0.0253(6) 2 1 d
Cc C 0.65321(14) -0.0890(4) 0.7970(3) Uani 0.0286(6) 2 1 d
Cf C 0.83549(14) 0.0437(4) 0.4310(2) Uani 0.0237(5) 2 1 d
Ca C 0.78579(14) 0.0711(4) 0.5963(3) Uani 0.0238(5) 2 1 d
Cd C 0.67487(15) -0.2941(4) 0.5140(3) Uani 0.0250(5) 2 1 d
H1 H 0.994(2) 0.146(5) 0.131(4) Uiso 0.046(8) 2 1 d
H1c1 H 0.86767 0.368473 0.691318 Uiso 0.0375 2 1 d
H1c2 H 0.783627 0.3866 0.962325 Uiso 0.0411 2 1 d
H1c3 H 0.651923 0.106599 1.027548 Uiso 0.04 2 1 d
H1c4 H 0.536642 -0.25006 0.942283 Uiso 0.0418 2 1 d
H1c5 H 0.486993 -0.552554 0.740047 Uiso 0.0443 2 1 d
H1c6 H 0.574098 -0.582229 0.473467 Uiso 0.0374 2 1 d
loop_
_atom_site_aniso_label
_atom_site_aniso_type_symbol
_atom_site_aniso_U_11
_atom_site_aniso_U_22
_atom_site_aniso_U_33
_atom_site_aniso_U_12
_atom_site_aniso_U_13
_atom_site_aniso_U_23
O1 O 0.0590(11) 0.0556(12) 0.0414(10) -0.0271(9) 0.0197(8) -0.0257(9)
O2 O 0.0441(8) 0.0423(9) 0.0294(8) -0.0017(8) 0.0141(6) -0.0096(7)
O3 O 0.0415(8) 0.0331(9) 0.0389(9) -0.0102(7) 0.0030(6) -0.0016(7)
N9 N 0.0302(9) 0.0362(11) 0.0278(9) -0.0041(8) 0.0106(7) 0.0008(8)
C1 C 0.0322(10) 0.0317(12) 0.0297(10) -0.0039(10) 0.0021(8) -0.0061(10)
C2 C 0.0370(11) 0.0390(13) 0.0267(10) 0.0032(10) 0.0001(8) -0.0120(10)
C3 C 0.0335(10) 0.0444(13) 0.0221(10) 0.0067(10) 0.0062(8) -0.0075(9)
C4 C 0.0328(10) 0.0450(13) 0.0268(10) 0.0007(11) 0.0097(8) 0.0007(11)
C5 C 0.0305(10) 0.0448(14) 0.0355(12) -0.0076(10) 0.0067(9) 0.0043(11)
C6 C 0.0297(10) 0.0337(12) 0.0300(11) -0.0052(9) 0.0028(8) -0.0010(9)
C7 C 0.0302(10) 0.0298(11) 0.0250(10) -0.0030(8) 0.0053(8) -0.0052(9)
C8 C 0.0282(9) 0.0333(11) 0.0226(9) 0.0034(9) 0.0050(7) 0.0013(9)
C10 C 0.0260(9) 0.0274(11) 0.0264(10) -0.0001(8) 0.0019(7) 0.0043(9)
Cb C 0.0249(8) 0.0276(10) 0.0189(8) 0.0031(8) 0.0030(6) -0.0004(8)
Ce C 0.0262(8) 0.0277(11) 0.0220(9) 0.0009(8) 0.0066(7) -0.0044(8)
Cc C 0.0278(9) 0.0350(12) 0.0229(9) 0.0030(9) 0.0035(7) -0.0027(9)
Cf C 0.0253(9) 0.0242(10) 0.0216(9) 0.0022(8) 0.0036(7) -0.0009(8)
Ca C 0.0250(9) 0.0256(10) 0.0210(9) 0.0013(8) 0.0036(7) -0.0042(8)
Cd C 0.0256(8) 0.0267(11) 0.0226(9) -0.0011(8) 0.0035(7) -0.0033(8)
loop_
_atom_type_symbol
_atom_type_scat_dispersion_real
_atom_type_scat_dispersion_imag
_atom_type_scat_source
C 0.0033 0.0016 'International Tables Vol C tables 4.2.6.8 and 6.1.1.1'
H 0.0000 0.0000 'International Tables Vol C tables 4.2.6.8 and 6.1.1.1'
N 0.0066 0.0034 'International Tables Vol C tables 4.2.6.8 and 6.1.1.1'
O 0.0114 0.0062 'International Tables Vol C tables 4.2.6.8 and 6.1.1.1'
loop_
_geom_angle_atom_site_label_1
_geom_angle_atom_site_label_2
_geom_angle_atom_site_label_3
_geom_angle
C8 N9 C10 112.62(17)
C8 N9 H1 124.3(19)
C10 N9 H1 123.1(19)
C2 C1 Ca 121.0(2)
C2 C1 H1c1 119.52
Ca C1 H1c1 119.52
C1 C2 C3 119.9(2)
C1 C2 H1c2 120.04
C3 C2 H1c2 120.04
C2 C3 Cc 121.7(2)
C2 C3 H1c3 119.17
Cc C3 H1c3 119.17
C5 C4 Cc 121.0(2)
C5 C4 H1c4 119.51
Cc C4 H1c4 119.51
C4 C5 C6 120.0(2)
C4 C5 H1c5 119.99
C6 C5 H1c5 119.99
C5 C6 Cd 121.2(2)
C5 C6 H1c6 119.38
Cd C6 H1c6 119.38
O1 C7 Ce 123.88(19)
O1 C7 Cd 121.93(19)
Ce C7 Cd 114.19(17)
O2 C8 N9 125.48(19)
O2 C8 Ce 128.8(2)
N9 C8 Ce 105.74(17)
O3 C10 N9 126.39(19)
O3 C10 Cf 128.91(19)
N9 C10 Cf 104.69(17)
Cc Cb Ca 119.27(18)
Cc Cb Cd 119.07(18)
Ca Cb Cd 121.66(17)
C7 Ce C8 128.75(18)
C7 Ce Cf 122.86(18)
C8 Ce Cf 108.38(17)
C3 Cc C4 122.44(19)
C3 Cc Cb 118.47(19)
C4 Cc Cb 119.09(19)
C10 Cf Ce 108.34(17)
C10 Cf Ca 127.74(17)
Ce Cf Ca 123.92(18)
C1 Ca Cb 119.70(18)
C1 Ca Cf 123.99(18)
Cb Ca Cf 116.30(17)
C6 Cd C7 119.45(18)
C6 Cd Cb 119.60(18)
C7 Cd Cb 120.92(17)
loop_
_geom_bond_atom_site_label_1
_geom_bond_atom_site_label_2
_geom_bond_distance
O1 C7 1.229(3)
O2 C8 1.211(3)
O3 C10 1.197(3)
N9 C8 1.378(3)
N9 C10 1.383(3)
N9 H1 0.86(3)
C1 C2 1.404(3)
C1 Ca 1.383(3)
C1 H1c1 0.96
C2 C3 1.360(3)
C2 H1c2 0.96
C3 Cc 1.416(3)
C3 H1c3 0.96
C4 C5 1.378(3)
C4 Cc 1.408(3)
C4 H1c4 0.96
C5 C6 1.398(3)
C5 H1c5 0.96
C6 Cd 1.378(3)
C6 H1c6 0.96
C7 Ce 1.462(3)
C7 Cd 1.484(3)
C8 Ce 1.497(3)
C10 Cf 1.517(3)
Cb Cc 1.423(3)
Cb Ca 1.423(3)
Cb Cd 1.429(3)
Ce Cf 1.345(3)
Cf Ca 1.434(3)
loop_
_geom_hbond_atom_site_label_D
_geom_hbond_atom_site_label_H
_geom_hbond_atom_site_label_A
_geom_hbond_site_symmetry_A
_geom_hbond_distance_DH
_geom_hbond_distance_HA
_geom_hbond_distance_DA
_geom_hbond_angle_DHA
N9 H1 O2 2_755 0.86(3) 2.02(3) 2.877(2) 173(3)
C1 H1c1 O3 . 0.96 2.47 3.115(3) 124.47
C2 H1c2 O1 1_566 0.96 2.47 3.187(3) 131.57
C2 H1c2 O2 1_566 0.96 2.46 3.322(3) 149.63
loop_
_refln_index_h
_refln_index_k
_refln_index_l
_refln_F_squared_calc
_refln_F_squared_meas
_refln_F_squared_sigma
_refln_observed_status
5 0 0 317.79 306.19 3.53 o
6 0 0 66.94 59.53 1.03 o
7 0 0 0.00 -0.39 0.38 <
8 0 0 655.77 695.09 7.76 o
9 0 0 0.57 2.00 0.51 o
10 0 0 21.90 22.99 0.85 o
11 0 0 0.18 0.11 0.66 <
12 0 0 1.76 2.47 0.87 o
13 0 0 19.29 15.87 1.09 o
14 0 0 18.88 20.99 1.25 o
15 0 0 1.15 0.46 0.86 <
16 0 0 1.44 1.24 0.88 <
17 0 0 10.85 8.09 1.43 o
18 0 0 3.67 8.41 1.43 o
4 1 0 7.50 6.01 0.35 o
4 -1 0 7.51 7.06 0.39 o
5 1 0 728.89 752.19 8.10 o
5 -1 0 728.49 771.82 8.31 o
6 1 0 1031.06 1089.68 11.62 o
6 -1 0 1031.06 1091.11 11.65 o
7 1 0 121.11 124.35 1.78 o
7 -1 0 121.50 125.87 1.83 o
8 1 0 119.86 120.56 1.91 o
8 -1 0 119.61 121.85 1.86 o
9 1 0 27.10 27.63 0.84 o
9 -1 0 27.02 29.08 0.87 o
10 1 0 11.89 13.68 0.68 o
10 -1 0 11.89 14.64 0.75 o
11 1 0 18.27 16.06 0.82 o
11 -1 0 18.23 14.54 0.83 o
12 1 0 91.30 89.11 1.71 o
12 -1 0 91.26 91.29 1.98 o
13 1 0 7.14 8.47 0.84 o
13 -1 0 7.17 6.64 1.12 o
14 1 0 14.18 13.94 0.99 o
14 -1 0 14.18 15.66 1.37 o
15 1 0 0.43 -0.58 0.68 <
15 -1 0 0.43 2.45 1.97 <
16 1 0 12.76 7.58 1.06 o
16 -1 0 12.75 11.75 1.71 o
17 1 0 2.66 3.37 1.79 <
17 -1 0 2.65 2.91 1.44 o
18 1 0 0.40 6.30 1.89 o
18 -1 0 0.40 -0.67 1.43 <
19 -1 0 3.89 -1.03 2.72 <
0 -2 0 63.91 65.89 2.43 o
1 2 0 262.93 236.04 6.80 o
1 -2 0 263.00 255.12 3.54 o
2 2 0 1.52 1.21 0.34 o
2 -2 0 1.49 1.05 0.26 o
3 2 0 131.54 126.14 2.30 o
3 -2 0 131.27 129.39 1.86 o
4 2 0 51.61 48.69 1.20 o
4 -2 0 51.38 52.29 1.05 o
5 2 0 16.88 16.01 0.73 o
5 -2 0 16.85 19.57 0.61 o
6 2 0 133.35 140.07 2.71 o
6 -2 0 133.37 143.26 2.19 o
7 2 0 38.95 40.83 1.27 o
7 -2 0 38.95 39.79 0.95 o
8 2 0 42.79 48.20 1.46 o
8 -2 0 42.65 44.79 1.01 o
9 2 0 93.45 95.64 2.25 o
9 -2 0 93.35 99.93 1.73 o
10 2 0 9.87 11.68 0.98 o
10 -2 0 9.81 10.93 0.73 o
11 2 0 30.23 26.40 1.37 o
11 -2 0 30.17 26.69 1.02 o
12 2 0 76.08 66.29 2.50 o
12 -2 0 76.09 75.44 1.86 o
13 2 0 69.98 69.35 2.56 o
13 -2 0 69.98 69.72 2.23 o
14 2 0 3.46 10.02 1.83 o
14 -2 0 3.47 5.37 1.61 o
15 2 0 14.75 14.28 2.00 o
15 -2 0 14.74 17.24 1.98 o
16 2 0 18.64 18.49 2.03 o
16 -2 0 18.61 15.38 2.21 o
17 2 0 23.37 15.80 2.35 o
17 -2 0 23.41 27.36 2.29 o
18 2 0 6.67 0.11 2.00 <
18 -2 0 6.67 13.84 2.58 o
19 -2 0 14.59 16.80 2.77 o
1 3 0 17.69 18.73 1.54 o
1 -3 0 17.63 19.18 0.65 o
2 3 0 86.19 82.35 3.26 o
2 -3 0 86.14 91.98 1.41 o
3 3 0 122.91 122.45 4.36 o
3 -3 0 122.49 126.28 1.80 o
4 3 0 107.23 106.26 2.21 o
4 -3 0 107.25 110.59 1.50 o
5 3 0 40.10 42.35 1.30 o
5 -3 0 40.09 38.83 1.01 o
6 3 0 34.58 38.58 1.27 o
6 -3 0 34.53 41.61 1.03 o
7 3 0 27.35 24.94 1.09 o
7 -3 0 27.35 28.15 0.89 o
8 3 0 20.14 18.54 1.05 o
8 -3 0 20.18 23.11 0.96 o
9 3 0 56.98 54.34 1.74 o
9 -3 0 57.04 54.02 1.48 o
10 3 0 56.95 49.82 1.76 o
10 -3 0 56.88 56.17 1.57 o
11 3 0 29.70 27.55 1.79 o
11 -3 0 29.67 30.27 1.27 o
12 3 0 11.62 7.03 1.44 o
12 -3 0 11.64 12.74 1.26 o
13 3 0 8.55 6.81 1.85 o
13 -3 0 8.57 11.25 1.53 o
14 3 0 0.87 -3.66 1.72 <
14 -3 0 0.88 4.08 1.54 o
15 3 0 1.30 2.03 1.92 <
15 -3 0 1.29 1.38 2.12 <
16 3 0 1.21 3.83 2.01 <
16 -3 0 1.20 -0.57 2.45 <
17 -3 0 9.34 9.67 2.11 o
18 3 0 73.94 69.41 4.55 o
18 -3 0 73.93 79.15 3.65 o
0 -4 0 0.80 0.79 0.59 <
1 -4 0 32.47 33.05 0.76 o
2 -4 0 6.46 6.19 0.53 o
3 4 0 160.72 150.15 5.55 o
3 -4 0 160.62 165.12 2.20 o
4 4 0 6.54 1.21 2.36 <
4 -4 0 6.55 4.43 0.53 o
5 4 0 127.47 116.08 4.66 o
5 -4 0 127.83 134.46 1.88 o
6 4 0 38.82 40.74 1.81 o
6 -4 0 38.80 41.61 1.12 o
7 4 0 5.93 6.01 1.01 o
7 -4 0 5.93 5.42 0.62 o
8 4 0 7.45 6.34 0.99 o
8 -4 0 7.48 5.90 0.76 o
9 4 0 3.66 5.08 0.98 o
9 -4 0 3.66 4.66 0.82 o
10 4 0 4.51 7.19 1.45 o
10 -4 0 4.48 4.98 1.06 o
11 4 0 18.23 17.72 2.32 o
11 -4 0 18.30 17.60 1.30 o
12 4 0 42.86 39.05 3.12 o
12 -4 0 42.88 37.53 1.73 o
13 4 0 20.61 17.29 2.54 o
13 -4 0 20.61 23.92 2.33 o
14 -4 0 2.87 5.48 1.96 o
15 -4 0 1.20 0.33 2.71 <
16 4 0 0.59 6.19 2.90 o
16 -4 0 0.58 2.59 2.35 <
17 4 0 3.89 3.75 2.40 <
17 -4 0 3.88 0.55 2.82 <
1 -5 0 219.68 236.44 2.60 o
2 -5 0 140.20 142.15 1.91 o
3 -5 0 136.33 136.12 1.98 o
4 -5 0 42.39 40.64 1.12 o
5 5 0 9.96 11.50 2.04 o
5 -5 0 9.99 11.25 0.80 o
6 5 0 50.02 52.81 3.47 o
6 -5 0 49.94 52.31 1.53 o
7 5 0 6.19 10.52 2.12 o
7 -5 0 6.16 6.95 0.84 o
8 5 0 1.24 1.35 1.35 <
8 -5 0 1.24 3.10 1.20 o
9 5 0 10.05 4.59 2.16 o
9 -5 0 10.07 11.98 1.42 o
10 5 0 25.54 19.35 2.73 o
10 -5 0 25.61 29.70 1.92 o
11 5 0 6.40 2.43 1.72 <
11 -5 0 6.43 6.69 2.15 o
12 5 0 0.95 1.66 1.77 <
12 -5 0 0.96 0.71 2.21 <
13 5 0 1.96 4.23 2.02 o
13 -5 0 1.95 -1.87 2.30 <
14 5 0 2.69 1.52 2.64 <
14 -5 0 2.67 3.16 1.62 <
15 5 0 1.98 -10.32 3.43 <
15 -5 0 1.97 4.71 2.11 o
0 -6 0 275.36 288.73 4.74 o
1 -6 0 6.23 7.01 0.77 o
2 -6 0 2.69 2.59 0.77 o
3 -6 0 0.79 2.44 0.71 o
4 -6 0 13.63 13.40 1.00 o
5 -6 0 1.69 1.01 0.94 <
6 -6 0 1.02 1.25 1.04 <
7 -6 0 14.69 18.06 1.57 o
8 -6 0 25.23 31.07 1.98 o
9 6 0 8.04 2.54 1.94 <
9 -6 0 8.04 12.97 2.30 o
10 6 0 5.14 4.44 2.94 <
10 -6 0 5.12 7.07 1.89 o
11 6 0 7.35 14.09 3.31 o
11 -6 0 7.33 10.48 1.75 o
12 6 0 1.90 3.05 3.15 <
12 -6 0 1.89 2.80 1.79 <
13 6 0 0.06 -0.13 3.28 <
13 -6 0 0.06 3.76 2.30 <
1 -7 0 0.65 2.43 1.13 o
2 -7 0 2.91 4.71 1.07 o
3 -7 0 3.00 2.91 1.17 o
4 -7 0 4.72 3.50 1.59 o
5 -7 0 12.05 10.83 1.85 o
6 -7 0 10.74 15.11 1.67 o
7 -7 0 2.31 2.85 1.96 <
8 -7 0 1.82 1.81 3.07 <
9 -7 0 0.15 -4.84 2.35 <
10 -7 0 1.70 0.76 2.95 <
1 -8 0 2.35 3.05 2.72 <
2 -8 0 0.59 1.45 2.94 <
3 -8 0 0.77 4.61 3.06 <
4 -8 0 0.24 5.05 3.03 <
-19 0 1 1.44 -1.52 2.48 <
-18 0 1 3.06 4.83 2.07 o
-17 0 1 6.84 5.38 1.56 o
-16 0 1 19.83 21.51 1.59 o
-15 0 1 1.23 0.83 1.07 <
-14 0 1 7.31 5.89 1.22 o
-13 0 1 2.27 3.16 1.01 o
-12 0 1 3.82 5.79 0.83 o
-11 0 1 0.85 0.69 0.60 <
-10 0 1 124.75 123.68 2.01 o
-9 0 1 254.94 252.54 3.30 o
-8 0 1 0.01 0.84 0.43 <
-7 0 1 5.63 5.11 0.46 o
-6 0 1 67.94 73.42 1.21 o
-5 0 1 767.08 754.15 8.14 o
-4 0 1 2435.87 2357.79 24.45 o
4 0 1 867.28 810.91 8.56 o
5 0 1 57.96 62.74 1.09 o
6 0 1 65.47 70.16 1.24 o
7 0 1 47.34 52.50 1.10 o
8 0 1 608.86 643.27 7.13 o
9 0 1 199.45 216.79 2.83 o
10 0 1 88.78 95.90 1.62 o
11 0 1 9.16 8.60 0.67 o
12 0 1 2.45 2.97 0.63 o
13 0 1 0.46 0.37 0.81 <
14 0 1 13.35 15.45 1.17 o
15 0 1 36.39 35.65 1.75 o
16 0 1 9.76 12.22 1.45 o
17 0 1 1.12 0.60 1.43 <
18 0 1 7.17 8.84 1.95 o
-19 1 1 0.55 -5.62 2.72 <
-18 1 1 1.02 -1.09 1.77 <
-18 -1 1 1.03 -2.94 1.83 <
-17 1 1 1.77 -1.19 1.66 <
-17 -1 1 1.79 -1.45 2.35 <
-16 1 1 12.04 7.64 1.15 o
-16 -1 1 12.08 14.00 2.37 o
-15 1 1 14.36 14.05 1.20 o
-15 -1 1 14.35 13.58 2.07 o
-14 1 1 128.71 135.51 3.08 o
-14 -1 1 128.77 130.53 2.98 o
-13 1 1 31.43 30.09 1.22 o
-13 -1 1 31.40 34.33 1.39 o
-12 1 1 23.33 22.59 1.04 o
-12 -1 1 23.35 27.24 1.12 o
-11 1 1 30.58 29.16 0.93 o
-11 -1 1 30.53 28.07 1.01 o
-10 1 1 49.39 49.36 1.13 o
-10 -1 1 49.29 48.90 1.24 o
-9 1 1 13.47 11.22 0.62 o
-9 -1 1 13.45 12.68 0.70 o
-8 1 1 18.90 19.31 0.69 o
-8 -1 1 18.96 19.07 0.74 o
-7 1 1 81.75 87.04 1.40 o
-7 -1 1 81.76 84.12 1.43 o
-6 1 1 41.11 49.53 1.04 o
-6 -1 1 41.20 50.75 1.00 o
-5 1 1 426.83 449.17 5.02 o
-5 -1 1 427.19 452.87 5.61 o
-4 1 1 55.59 59.54 1.04 o
-4 -1 1 55.48 60.32 1.11 o
-3 1 1 236.26 227.59 2.86 o
-3 -1 1 236.38 232.21 2.68 o
3 1 1 6481.33 5952.16 74.98 o
3 -1 1 6481.13 6008.72 67.73 o
4 1 1 915.76 941.91 10.88 o
4 -1 1 914.46 958.04 11.05 o
5 1 1 16.15 17.14 0.51 o
5 -1 1 16.20 17.41 0.53 o
6 1 1 48.26 48.61 0.82 o
6 -1 1 48.17 50.48 1.07 o
7 1 1 60.89 59.20 0.98 o
7 -1 1 60.75 60.79 1.25 o
8 1 1 137.79 140.70 1.89 o
8 -1 1 137.77 147.74 2.35 o
9 1 1 12.07 11.03 0.49 o
9 -1 1 12.11 12.01 0.76 o
10 1 1 144.37 144.95 2.05 o
10 -1 1 144.31 153.43 2.57 o
11 1 1 7.59 6.69 0.58 o
11 -1 1 7.59 7.80 0.88 o
12 1 1 50.04 52.37 1.24 o
12 -1 1 49.95 51.99 1.51 o
13 1 1 5.02 6.50 0.71 o
13 -1 1 5.00 3.94 0.93 o
14 1 1 37.21 31.69 1.14 o
14 -1 1 37.18 39.44 1.69 o
15 1 1 27.31 26.02 1.14 o
15 -1 1 27.27 28.41 1.53 o
16 1 1 20.36 17.24 1.13 o
16 -1 1 20.40 21.54 1.81 o
17 -1 1 2.44 7.18 1.62 o
18 -1 1 2.48 1.08 2.68 <
19 -1 1 2.28 -4.83 2.15 <
-19 -2 1 3.55 8.49 3.44 o
-18 2 1 6.16 4.78 2.26 o
-18 -2 1 6.14 7.67 3.31 o
-17 2 1 20.97 21.41 2.65 o
-17 -2 1 20.99 21.91 2.45 o
-16 2 1 69.67 64.01 3.66 o
-16 -2 1 69.62 71.62 3.06 o
-15 2 1 86.22 81.04 4.18 o
-15 -2 1 86.25 82.73 3.07 o
-14 2 1 1.85 1.29 1.59 <
-14 -2 1 1.86 3.50 1.11 o
-13 2 1 5.25 2.82 1.16 o
-13 -2 1 5.19 7.58 1.10 o
-12 2 1 7.06 5.15 1.26 o
-12 -2 1 7.07 5.63 0.92 o
-11 2 1 23.05 17.75 1.22 o
-11 -2 1 23.08 16.65 0.94 o
-10 2 1 27.19 22.52 1.12 o
-10 -2 1 27.23 25.81 0.94 o
-9 2 1 42.31 40.56 1.41 o
-9 -2 1 42.28 44.24 1.12 o
-8 2 1 293.31 298.61 4.70 o
-8 -2 1 293.05 308.98 3.90 o
-7 2 1 99.68 99.49 2.05 o
-7 -2 1 99.78 104.02 1.87 o
-6 2 1 101.67 99.46 1.98 o
-6 -2 1 101.59 102.29 1.78 o
-5 2 1 132.11 146.85 2.52 o
-5 -2 1 132.08 155.48 2.33 o
-4 2 1 199.77 227.65 3.48 o
-4 -2 1 199.78 239.35 3.62 o
-3 2 1 882.15 896.86 11.78 o
-3 -2 1 882.09 917.00 12.04 o
-2 2 1 297.79 300.01 4.23 o
-2 -2 1 297.58 306.15 3.86 o
-1 2 1 177.77 175.78 3.06 o
-1 -2 1 177.68 182.31 2.40 o
0 2 1 383.80 365.20 9.98 o
0 -2 1 383.34 373.90 4.55 o
1 2 1 130.69 119.79 3.78 o
1 -2 1 130.89 128.01 1.80 o
2 2 1 18.04 13.53 1.03 o
2 -2 1 18.04 16.77 0.45 o
3 2 1 141.59 144.45 2.80 o
3 -2 1 141.78 146.68 1.65 o
4 2 1 555.15 600.58 7.97 o
4 -2 1 554.17 612.40 6.59 o
5 2 1 53.08 56.88 1.15 o
5 -2 1 53.24 55.22 0.92 o
6 2 1 175.18 177.11 2.73 o
6 -2 1 175.00 185.90 2.46 o
7 2 1 5.43 4.41 0.52 o
7 -2 1 5.42 3.79 0.51 o
8 2 1 36.18 35.81 0.97 o
8 -2 1 36.15 42.10 1.18 o
9 2 1 20.48 19.08 0.78 o
9 -2 1 20.47 22.23 0.96 o
10 2 1 21.92 23.48 0.94 o
10 -2 1 21.84 24.46 1.01 o
11 2 1 63.50 63.64 1.69 o
11 -2 1 63.50 69.00 1.75 o
12 2 1 34.14 33.50 1.80 o
12 -2 1 34.10 35.04 1.33 o
13 2 1 8.07 10.54 1.56 o
13 -2 1 8.06 11.00 1.44 o
14 2 1 0.51 1.23 1.33 <
14 -2 1 0.52 -3.16 1.39 <
15 2 1 4.24 0.48 1.42 <
15 -2 1 4.21 3.88 1.82 o
16 2 1 7.97 9.12 1.93 o
16 -2 1 7.98 8.29 1.71 o
17 2 1 2.03 8.43 2.14 o
17 -2 1 2.03 1.74 2.15 <
18 -2 1 3.60 5.35 3.45 <
19 -2 1 0.87 -2.98 2.60 <
-18 3 1 13.50 10.66 3.24 o
-18 -3 1 13.52 14.66 2.78 o
-17 3 1 36.17 34.65 3.46 o
-17 -3 1 36.20 37.77 2.70 o
-16 3 1 6.55 4.01 2.12 <
-16 -3 1 6.56 10.76 1.73 o
-15 3 1 1.58 3.17 2.19 <
-15 -3 1 1.58 3.58 1.93 <
-14 3 1 2.23 4.43 1.57 o
-14 -3 1 2.22 4.58 1.55 o
-13 3 1 0.08 -2.03 1.76 <
-13 -3 1 0.08 -4.31 1.17 <
-12 3 1 1.07 0.55 1.30 <
-12 -3 1 1.08 0.18 0.90 <
-11 3 1 19.42 15.37 1.50 o
-11 -3 1 19.44 16.09 1.00 o
-10 3 1 150.68 133.88 3.04 o
-10 -3 1 150.63 144.54 2.39 o
-9 3 1 246.32 223.11 4.30 o
-9 -3 1 246.55 230.10 3.53 o
-8 3 1 3.90 2.79 0.72 o
-8 -3 1 3.86 3.78 0.72 o
-7 3 1 57.51 59.61 1.66 o
-7 -3 1 57.42 64.55 1.44 o
-6 3 1 54.01 53.90 1.51 o
-6 -3 1 53.87 57.25 1.32 o
-5 3 1 27.86 25.93 0.98 o
-5 -3 1 27.75 29.22 1.08 o
-4 3 1 61.47 60.47 1.48 o
-4 -3 1 61.56 63.48 1.52 o
-3 3 1 272.81 292.30 4.83 o
-3 -3 1 273.05 290.33 4.35 o
-2 3 1 17.06 12.14 1.42 o
-2 -3 1 17.22 16.07 0.59 o
-1 3 1 123.56 118.71 4.20 o
-1 -3 1 123.21 128.42 1.77 o
0 3 1 243.51 252.53 7.58 o
0 -3 1 243.54 259.91 3.09 o
1 -3 1 17.74 20.27 0.59 o
2 -3 1 42.91 47.47 0.90 o
3 3 1 28.14 23.90 1.70 o
3 -3 1 28.11 24.59 0.56 o
4 3 1 52.23 55.07 2.58 o
4 -3 1 52.31 55.56 0.90 o
5 3 1 2.27 1.69 0.75 o
5 -3 1 2.23 1.43 0.36 o
6 3 1 132.34 122.55 3.19 o
6 -3 1 132.22 127.36 1.74 o
7 3 1 57.33 52.38 1.55 o
7 -3 1 57.48 51.85 1.06 o
8 3 1 23.35 21.01 1.06 o
8 -3 1 23.47 23.85 0.87 o
9 3 1 8.16 6.77 0.89 o
9 -3 1 8.13 9.92 1.06 o
10 3 1 24.29 19.30 1.51 o
10 -3 1 24.29 21.74 1.06 o
11 3 1 3.35 1.99 0.96 o
11 -3 1 3.36 2.80 0.91 o
12 3 1 13.70 19.35 1.82 o
12 -3 1 13.70 15.63 1.21 o
13 3 1 4.00 7.02 1.60 o
13 -3 1 3.97 2.40 1.37 <
14 3 1 5.69 7.01 1.86 o
14 -3 1 5.69 8.93 1.90 o
15 3 1 1.45 0.99 1.87 <
15 -3 1 1.45 3.09 2.04 <
16 3 1 4.56 8.68 2.37 o
16 -3 1 4.56 0.69 2.33 <
17 3 1 5.53 -0.57 1.86 <
17 -3 1 5.53 -1.25 3.66 <
18 -3 1 2.47 -7.36 4.25 <
-17 4 1 5.55 1.75 3.07 <
-17 -4 1 5.54 6.31 2.68 o
-16 4 1 34.99 38.35 3.57 o
-16 -4 1 35.02 46.60 3.23 o
-15 4 1 49.88 62.20 4.44 o
-15 -4 1 49.89 62.26 2.87 o
-14 4 1 8.84 8.95 2.17 o
-14 -4 1 8.84 8.62 1.85 o
-13 4 1 0.30 -2.56 2.01 <
-13 -4 1 0.31 -0.84 1.71 <
-12 4 1 0.25 3.49 2.04 <
-12 -4 1 0.24 -2.44 1.47 <
-11 4 1 0.60 1.01 1.28 <
-11 -4 1 0.61 -1.50 1.03 <
-10 4 1 10.72 13.93 1.56 o
-10 -4 1 10.73 12.02 0.92 o
-9 4 1 0.88 0.47 0.87 <
-9 -4 1 0.88 0.75 0.91 <
-8 4 1 35.04 34.30 1.43 o
-8 -4 1 35.04 31.91 1.22 o
-7 4 1 28.93 26.92 1.19 o
-7 -4 1 28.95 31.45 1.18 o
-6 4 1 10.64 8.87 0.86 o
-6 -4 1 10.69 9.75 0.80 o
-5 4 1 24.65 20.25 0.98 o
-5 -4 1 24.67 19.99 1.00 o
-4 4 1 24.44 21.38 1.93 o
-4 -4 1 24.42 26.12 0.80 o
-3 4 1 130.16 133.38 5.11 o
-3 -4 1 129.96 140.67 2.13 o
-2 4 1 83.10 83.62 3.74 o
-2 -4 1 83.17 87.95 1.51 o
-1 4 1 41.72 41.42 2.54 o
-1 -4 1 41.71 42.61 0.98 o
0 -4 1 19.52 18.11 0.54 o
1 -4 1 3.48 3.21 0.41 o
2 -4 1 50.83 54.20 1.10 o
3 -4 1 146.45 144.66 2.02 o
4 -4 1 233.56 219.95 2.74 o
5 4 1 315.42 298.04 9.43 o
5 -4 1 315.11 323.57 3.46 o
6 4 1 153.96 141.33 5.50 o
6 -4 1 154.06 153.73 2.12 o
7 4 1 16.66 12.83 1.38 o
7 -4 1 16.72 14.35 0.73 o
8 4 1 0.36 0.00 0.97 <
8 -4 1 0.35 0.20 0.69 <
9 4 1 0.89 0.56 1.06 <
9 -4 1 0.88 1.92 0.99 <
10 4 1 4.03 2.90 1.10 o
10 -4 1 4.04 4.81 0.89 o
11 4 1 9.59 6.85 1.95 o
11 -4 1 9.60 13.93 1.15 o
12 4 1 28.37 24.36 2.60 o
12 -4 1 28.44 27.39 1.51 o
13 4 1 10.21 6.66 2.18 o
13 -4 1 10.22 11.90 2.11 o
14 4 1 18.55 7.88 2.43 o
14 -4 1 18.55 18.31 2.57 o
15 4 1 5.72 1.22 1.99 <
15 -4 1 5.72 7.52 2.15 o
16 4 1 0.64 -5.60 2.79 <
16 -4 1 0.64 3.52 3.28 <
17 4 1 0.65 -6.83 2.83 <
17 -4 1 0.64 -2.21 4.01 <
-15 5 1 0.19 -0.49 2.55 <
-15 -5 1 0.18 0.31 2.23 <
-14 -5 1 3.29 6.69 1.90 o
-13 5 1 3.39 6.40 2.87 o
-13 -5 1 3.38 4.64 1.56 o
-12 -5 1 4.56 9.88 2.39 o
-11 -5 1 7.30 12.06 1.80 o
-10 5 1 0.15 0.78 2.05 <
-10 -5 1 0.15 4.80 1.53 o
-9 5 1 1.47 -1.72 1.24 <
-9 -5 1 1.47 1.33 1.00 <
-8 5 1 2.59 -4.16 1.92 <
-8 -5 1 2.57 3.05 0.91 o
-7 5 1 11.03 11.14 1.81 o
-7 -5 1 11.03 12.38 0.89 o
-6 5 1 0.85 0.41 1.66 <
-6 -5 1 0.84 0.41 0.87 <
-5 5 1 1.17 4.07 1.74 o
-5 -5 1 1.16 -1.95 0.85 <
-4 5 1 14.92 11.67 2.04 o
-4 -5 1 14.92 17.85 0.86 o
-3 5 1 14.67 13.74 1.75 o
-3 -5 1 14.72 13.22 0.85 o
-2 -5 1 35.98 38.88 1.13 o
-1 -5 1 39.45 40.34 1.03 o
0 -5 1 24.87 25.76 0.90 o
1 -5 1 9.68 7.22 0.73 o
2 -5 1 95.01 94.85 1.63 o
3 -5 1 98.42 99.73 1.83 o
4 -5 1 14.44 12.89 0.83 o
5 -5 1 18.99 22.32 1.00 o
6 -5 1 16.30 14.74 0.90 o
7 -5 1 33.58 37.09 1.46 o
8 5 1 6.77 5.76 1.60 o
8 -5 1 6.81 8.77 1.13 o
9 5 1 23.06 24.64 2.73 o
9 -5 1 23.04 26.47 1.80 o
10 5 1 25.40 23.41 2.54 o
10 -5 1 25.37 27.46 1.85 o
11 5 1 11.46 19.19 2.67 o
11 -5 1 11.45 11.96 1.55 o
12 5 1 11.18 17.16 2.94 o
12 -5 1 11.18 15.08 2.49 o
13 5 1 10.77 25.64 3.42 o
13 -5 1 10.75 13.76 2.22 o
14 5 1 4.41 5.80 2.48 o
14 -5 1 4.42 6.58 3.20 o
15 5 1 5.87 6.46 2.88 o
15 -5 1 5.88 -5.19 3.57 <
-13 -6 1 11.75 7.63 2.31 o
-12 6 1 26.18 28.58 3.82 o
-12 -6 1 26.14 32.66 2.29 o
-11 6 1 4.47 12.46 3.37 o
-11 -6 1 4.48 7.19 1.76 o
-10 6 1 1.55 3.18 2.80 <
-10 -6 1 1.55 1.28 1.70 <
-9 6 1 8.08 6.58 2.78 o
-9 -6 1 8.10 7.83 2.14 o
-8 6 1 16.73 29.25 3.28 o
-8 -6 1 16.77 19.94 1.77 o
-7 6 1 3.25 1.40 2.46 <
-7 -6 1 3.26 5.02 1.07 o
-6 6 1 12.42 18.74 2.90 o
-6 -6 1 12.45 18.26 1.36 o
-5 -6 1 6.38 5.55 0.93 o
-4 -6 1 21.79 21.41 1.11 o
-3 -6 1 23.90 23.87 0.91 o
-2 -6 1 25.52 25.61 0.90 o
-1 -6 1 50.01 52.92 1.32 o
0 -6 1 62.72 64.31 1.45 o
1 -6 1 67.36 75.07 1.72 o
2 -6 1 54.59 57.62 1.49 o
3 -6 1 32.23 36.98 1.28 o
4 -6 1 3.72 6.66 1.15 o
5 -6 1 8.79 9.31 1.15 o
6 -6 1 2.45 3.93 1.00 o
7 -6 1 0.69 -0.62 1.54 <
8 -6 1 12.77 10.64 1.73 o
9 -6 1 8.95 11.34 1.96 o
10 -6 1 1.34 -1.64 2.05 <
11 -6 1 3.72 -5.90 2.27 <
12 -6 1 0.46 5.61 2.78 o
13 -6 1 0.11 -2.93 3.42 <
-10 -7 1 6.12 3.64 3.68 <
-9 -7 1 4.17 3.45 3.41 <
-8 -7 1 0.10 -5.13 3.28 <
-7 -7 1 15.89 13.84 3.27 o
-6 -7 1 6.10 0.91 2.22 <
-5 -7 1 13.94 13.75 1.77 o
-4 -7 1 7.19 9.20 1.34 o
-3 -7 1 2.59 1.05 1.20 <
-2 -7 1 1.68 5.20 1.20 o
-1 -7 1 1.48 2.57 1.17 o
0 -7 1 0.06 1.43 1.05 <
1 -7 1 1.17 2.53 1.15 o
2 -7 1 22.62 21.65 1.19 o
3 -7 1 46.20 46.06 1.79 o
4 -7 1 4.37 1.78 1.42 <
5 -7 1 0.12 0.61 1.69 <
6 -7 1 3.92 5.21 1.92 o
7 -7 1 2.78 4.59 1.64 o
8 -7 1 1.46 2.37 1.65 <
9 -7 1 1.54 3.12 2.09 <
10 -7 1 2.14 -0.89 3.46 <
-4 -8 1 0.66 0.80 3.28 <
-3 -8 1 2.26 15.10 3.28 o
-1 -8 1 0.47 5.15 2.89 <
1 -8 1 1.60 5.59 2.66 o
2 -8 1 0.98 8.34 2.93 o
3 -8 1 0.59 2.32 2.47 <
4 -8 1 1.38 -2.45 3.16 <
-19 0 2 14.36 15.08 2.93 o
-18 0 2 0.20 -6.33 2.71 <
-17 0 2 0.13 2.92 1.57 <
-16 0 2 3.69 0.22 2.04 <
-15 0 2 1.11 1.29 1.73 <
-14 0 2 5.89 3.45 1.54 o
-13 0 2 88.14 87.79 2.30 o
-12 0 2 68.86 67.57 1.97 o
-11 0 2 610.88 642.03 8.27 o
-10 0 2 0.45 -0.65 0.71 <
-9 0 2 120.89 115.49 2.10 o
-8 0 2 181.77 187.56 2.89 o
-7 0 2 52.80 56.95 1.26 o
-6 0 2 72.53 74.78 1.43 o
-5 0 2 111.74 100.39 1.68 o
-4 0 2 160.67 179.77 2.51 o
-3 0 2 3.74 3.32 0.43 o
3 0 2 142.40 143.62 2.13 o
4 0 2 246.06 237.10 3.01 o
5 0 2 30.10 28.06 0.76 o
6 0 2 96.11 94.14 1.46 o
7 0 2 95.19 85.81 1.33 o
8 0 2 0.35 1.74 0.41 o
9 0 2 1.44 0.26 0.44 <
10 0 2 48.51 52.37 1.13 o
11 0 2 10.96 8.78 0.66 o
12 0 2 14.22 13.40 0.76 o
13 0 2 0.10 0.30 0.74 <
14 0 2 19.17 18.25 1.03 o
15 0 2 3.14 4.47 1.02 o
16 0 2 11.33 14.19 1.39 o
17 0 2 37.03 41.09 3.92 o
18 0 2 6.86 6.84 3.21 o
19 0 2 4.68 -4.78 3.38 <
-19 1 2 5.13 5.22 2.37 o
-19 -1 2 5.12 4.98 2.83 <
-18 1 2 2.34 0.32 2.49 <
-18 -1 2 2.33 2.14 2.42 <
-17 1 2 1.09 6.34 1.99 o
-17 -1 2 1.09 3.25 2.26 <
-16 1 2 2.17 1.72 1.13 <
-16 -1 2 2.19 1.64 1.69 <
-15 1 2 32.18 31.44 1.79 o
-15 -1 2 32.12 36.53 2.27 o
-14 1 2 112.83 119.08 2.82 o
-14 -1 2 112.92 107.53 3.22 o
-13 1 2 144.93 146.09 2.76 o
-13 -1 2 144.76 143.12 3.15 o
-12 1 2 93.51 94.64 2.06 o
-12 -1 2 93.58 100.27 2.48 o
-11 1 2 14.82 13.52 0.91 o
-11 -1 2 14.83 14.10 1.00 o
-10 1 2 22.49 22.46 1.00 o
-10 -1 2 22.44 20.83 1.00 o
-9 1 2 3.07 3.34 0.63 o
-9 -1 2 3.10 2.76 0.55 o
-8 1 2 16.44 19.09 0.78 o
-8 -1 2 16.50 15.86 0.73 o
-7 1 2 34.95 29.80 0.93 o
-7 -1 2 35.04 29.57 0.94 o
-6 1 2 890.61 939.92 11.18 o
-6 -1 2 890.31 935.18 12.57 o
-5 1 2 562.14 600.55 7.30 o
-5 -1 2 562.12 598.78 8.22 o
-4 1 2 131.70 137.60 2.20 o
-4 -1 2 131.70 138.46 2.34 o
-3 1 2 402.83 410.81 4.99 o
-3 -1 2 402.85 413.86 5.77 o
-2 1 2 307.13 310.66 3.82 o
-2 -1 2 307.18 314.31 5.09 o
-1 1 2 1007.19 980.99 12.64 o
-1 -1 2 1007.11 1004.01 15.01 o
0 1 2 279.10 275.76 4.44 o
0 -1 2 279.21 280.01 4.51 o
1 1 2 490.58 480.81 7.33 o
1 -1 2 490.48 501.54 9.44 o
2 1 2 150.76 151.61 1.91 o
2 -1 2 150.38 154.15 2.56 o
3 1 2 797.05 822.81 9.49 o
3 -1 2 797.43 814.95 8.58 o
4 1 2 648.36 671.80 7.83 o
4 -1 2 648.52 672.95 7.19 o
5 1 2 243.40 250.84 2.91 o
5 -1 2 243.27 259.63 3.31 o
6 1 2 87.86 81.30 1.10 o
6 -1 2 87.63 86.02 1.40 o
7 1 2 38.08 37.85 0.70 o
7 -1 2 38.20 35.92 0.94 o
8 1 2 38.92 42.09 0.79 o
8 -1 2 38.79 39.78 1.08 o
9 1 2 68.34 72.78 1.16 o
9 -1 2 68.34 75.02 1.58 o
10 1 2 20.59 20.90 0.67 o
10 -1 2 20.55 23.15 0.98 o
11 1 2 51.30 54.71 1.13 o
11 -1 2 51.39 56.57 1.27 o
12 1 2 63.30 64.92 1.37 o
12 -1 2 63.15 66.13 1.44 o
13 1 2 14.65 14.92 0.76 o
13 -1 2 14.60 15.03 1.01 o
14 1 2 13.82 14.68 0.87 o
14 -1 2 13.83 15.74 1.09 o
15 1 2 7.71 8.01 0.78 o
15 -1 2 7.72 7.07 1.26 o
16 1 2 7.61 4.47 1.10 o
16 -1 2 7.61 3.01 1.30 o
17 1 2 1.19 2.55 2.37 <
17 -1 2 1.19 0.63 1.89 <
18 -1 2 6.20 3.72 3.30 <
19 -1 2 2.94 3.45 2.71 <
-18 2 2 5.51 9.13 2.92 o
-17 2 2 4.74 7.81 2.56 o
-17 -2 2 4.75 6.81 2.85 o
-16 2 2 0.50 1.70 2.04 <
-16 -2 2 0.50 -3.35 2.79 <
-15 2 2 7.33 5.89 1.75 o
-15 -2 2 7.30 7.54 2.36 o
-14 2 2 11.12 4.16 1.74 o
-14 -2 2 11.13 12.86 1.77 o
-13 2 2 3.16 3.64 1.68 o
-13 -2 2 3.18 4.44 1.22 o
-12 2 2 53.02 51.79 2.29 o
-12 -2 2 53.01 55.57 1.72 o
-11 2 2 3.75 3.96 1.25 o
-11 -2 2 3.77 3.05 0.73 o
-10 2 2 10.86 11.46 1.10 o
-10 -2 2 10.94 11.02 0.74 o
-9 2 2 20.65 22.86 1.17 o
-9 -2 2 20.64 21.62 0.82 o
-8 2 2 27.21 32.09 1.22 o
-8 -2 2 27.24 31.44 0.98 o
-7 2 2 122.64 130.45 2.50 o
-7 -2 2 122.36 129.42 2.01 o
-6 2 2 181.31 177.94 3.03 o
-6 -2 2 181.49 180.41 2.79 o
-5 2 2 81.27 79.66 1.67 o
-5 -2 2 81.47 82.96 1.36 o
-4 2 2 34.79 34.21 1.00 o
-4 -2 2 34.74 36.35 0.82 o
-3 2 2 214.97 231.35 3.47 o
-3 -2 2 215.41 233.32 3.08 o
-2 2 2 487.70 496.47 6.71 o
-2 -2 2 488.12 507.90 6.87 o
-1 2 2 78.69 79.62 1.25 o
-1 -2 2 78.86 83.72 1.52 o
0 2 2 149.55 150.22 2.76 o
0 -2 2 150.07 163.69 2.97 o
1 2 2 197.56 195.10 3.35 o
1 -2 2 197.37 206.65 3.07 o
2 2 2 250.18 263.67 4.28 o
2 -2 2 250.16 270.46 3.09 o
3 2 2 259.49 274.74 4.29 o
3 -2 2 259.54 285.86 3.02 o
4 2 2 398.96 427.58 8.26 o
4 -2 2 398.79 430.60 4.40 o
5 2 2 1555.79 1564.96 20.09 o
5 -2 2 1556.48 1606.38 15.56 o
6 2 2 883.82 954.38 12.47 o
6 -2 2 883.35 968.22 10.35 o
7 2 2 110.45 124.05 1.91 o
7 -2 2 110.35 123.62 1.71 o
8 2 2 9.01 8.17 0.51 o
8 -2 2 8.94 7.64 0.54 o
9 2 2 147.39 144.38 2.23 o
9 -2 2 147.24 154.71 2.59 o
10 2 2 68.02 66.75 1.39 o
10 -2 2 68.23 74.64 1.74 o
11 2 2 2.23 2.55 0.54 o
11 -2 2 2.20 3.40 0.82 o
12 2 2 11.75 12.64 0.84 o
12 -2 2 11.74 11.62 0.97 o
13 2 2 23.35 20.52 1.01 o
13 -2 2 23.36 27.86 1.55 o
14 2 2 22.11 19.04 0.98 o
14 -2 2 22.11 21.04 1.59 o
15 2 2 7.74 5.03 1.45 o
15 -2 2 7.73 11.23 1.55 o
16 2 2 3.07 3.73 1.66 o
16 -2 2 3.05 2.40 1.98 <
17 2 2 2.68 0.90 1.62 <
17 -2 2 2.67 0.00 2.29 <
18 -2 2 0.17 -3.14 3.38 <
-18 3 2 3.08 0.73 3.05 <
-18 -3 2 3.08 0.50 2.43 <
-17 3 2 6.44 9.31 2.99 o
-17 -3 2 6.43 -0.58 2.44 <
-16 3 2 0.96 0.23 1.94 <
-16 -3 2 0.95 -1.26 3.28 <
-15 3 2 0.67 0.40 2.22 <
-15 -3 2 0.67 -0.62 2.88 <
-14 3 2 21.03 21.36 2.76 o
-14 -3 2 21.03 16.88 2.09 o
-13 3 2 23.83 21.62 2.56 o
-13 -3 2 23.88 26.89 1.50 o
-12 3 2 38.68 36.77 1.98 o
-12 -3 2 38.68 41.44 1.64 o
-11 3 2 18.94 20.50 1.57 o
-11 -3 2 18.92 18.48 1.10 o
-10 3 2 4.07 2.58 0.95 o
-10 -3 2 4.10 2.25 0.81 o
-9 3 2 11.42 7.63 1.03 o
-9 -3 2 11.42 9.76 0.75 o
-8 3 2 39.55 30.33 1.21 o
-8 -3 2 39.62 35.38 1.13 o
-7 3 2 48.33 44.63 1.46 o
-7 -3 2 48.36 46.12 1.17 o
-6 3 2 71.45 72.49 1.75 o
-6 -3 2 71.33 74.45 1.60 o
-5 3 2 41.71 41.79 1.23 o
-5 -3 2 41.76 41.21 1.06 o
-4 3 2 9.36 7.89 0.61 o
-4 -3 2 9.32 9.41 0.54 o
-3 3 2 26.13 30.41 0.93 o
-3 -3 2 26.09 31.77 0.79 o
-2 3 2 15.77 17.51 0.94 o
-2 -3 2 15.82 19.58 0.72 o
-1 3 2 795.45 801.15 15.46 o
-1 -3 2 795.06 872.94 11.61 o
0 3 2 83.54 84.46 3.33 o
0 -3 2 83.55 88.87 1.52 o
1 3 2 182.32 183.78 5.81 o
1 -3 2 182.22 199.61 2.52 o
2 3 2 87.78 84.07 3.20 o
2 -3 2 87.85 87.28 1.37 o
3 -3 2 25.55 24.17 0.68 o
4 3 2 60.98 60.96 2.29 o
4 -3 2 61.19 60.09 0.95 o
5 3 2 119.81 123.55 3.85 o
5 -3 2 119.91 119.28 1.53 o
6 3 2 30.84 26.14 1.25 o
6 -3 2 30.86 26.62 0.66 o
7 3 2 690.93 668.37 10.46 o
7 -3 2 690.73 697.10 7.27 o
8 3 2 218.02 204.94 3.78 o
8 -3 2 218.10 216.14 2.76 o
9 3 2 73.97 71.24 1.86 o
9 -3 2 74.00 71.17 1.34 o
10 3 2 12.79 11.68 1.36 o
10 -3 2 12.83 14.21 0.86 o
11 3 2 1.24 -2.17 1.24 <
11 -3 2 1.23 -0.98 0.87 <
12 3 2 0.61 -0.49 1.33 <
12 -3 2 0.61 0.81 0.94 <
13 3 2 3.53 0.54 1.45 <
13 -3 2 3.53 -0.84 1.02 <
14 3 2 1.28 -1.13 1.60 <
14 -3 2 1.28 3.52 1.98 <
15 3 2 20.29 17.32 2.02 o
15 -3 2 20.30 26.29 2.58 o
16 3 2 4.17 8.94 2.32 o
16 -3 2 4.19 11.45 2.63 o
17 -3 2 0.40 -8.35 3.83 <
18 -3 2 4.07 4.21 3.90 <
-17 -4 2 3.42 -0.07 3.39 <
-16 4 2 27.84 21.26 3.27 o
-16 -4 2 27.88 42.73 4.48 o
-15 4 2 13.80 19.72 3.33 o
-15 -4 2 13.84 24.48 3.64 o
-14 4 2 35.62 40.04 3.32 o
-14 -4 2 35.67 44.78 2.39 o
-13 4 2 13.34 13.56 2.68 o
-13 -4 2 13.33 19.28 1.94 o
-12 4 2 9.28 7.15 2.23 o
-12 -4 2 9.26 8.60 1.59 o
-11 4 2 6.24 5.06 1.44 o
-11 -4 2 6.24 6.59 1.23 o
-10 4 2 5.11 6.63 1.34 o
-10 -4 2 5.12 5.59 0.93 o
-9 4 2 10.05 9.97 1.05 o
-9 -4 2 10.08 7.95 0.84 o
-8 4 2 30.70 23.50 1.15 o
-8 -4 2 30.67 24.56 1.06 o
-7 4 2 78.79 61.31 1.81 o
-7 -4 2 78.92 70.53 1.59 o
-6 4 2 56.05 46.17 1.48 o
-6 -4 2 56.02 47.73 1.36 o
-5 4 2 35.25 31.31 1.14 o
-5 -4 2 35.18 34.57 1.06 o
-4 4 2 84.70 83.71 2.41 o
-4 -4 2 84.62 91.10 1.56 o
-3 4 2 38.93 39.54 2.62 o
-3 -4 2 38.75 39.75 1.10 o
-2 4 2 25.07 21.63 1.95 o
-2 -4 2 25.04 25.21 0.83 o
-1 4 2 46.67 43.92 2.61 o
-1 -4 2 46.62 49.19 1.24 o
0 4 2 9.20 6.30 1.43 o
0 -4 2 9.15 10.29 0.62 o
1 4 2 9.86 10.35 1.31 o
1 -4 2 9.81 9.46 0.54 o
2 -4 2 23.54 22.47 0.69 o
3 -4 2 11.64 11.62 0.65 o
4 -4 2 31.22 31.90 0.86 o
5 -4 2 171.42 172.15 2.36 o
6 -4 2 27.62 25.42 0.87 o
7 -4 2 2.72 1.79 0.55 o
8 4 2 22.54 20.75 2.12 o
8 -4 2 22.60 22.12 0.94 o
9 4 2 9.92 12.84 1.95 o
9 -4 2 9.98 9.16 0.86 o
10 4 2 4.00 4.59 1.75 o
10 -4 2 3.99 2.75 1.02 o
11 4 2 1.40 -3.60 1.77 <
11 -4 2 1.40 1.10 0.99 <
12 4 2 21.61 24.04 2.55 o
12 -4 2 21.56 26.29 1.92 o
13 4 2 13.05 12.79 2.31 o
13 -4 2 13.05 16.97 1.92 o
14 4 2 20.13 24.19 2.86 o
14 -4 2 20.14 22.04 2.55 o
15 4 2 2.47 -0.65 2.33 <
15 -4 2 2.47 14.75 3.74 o
16 -4 2 1.49 -0.18 2.39 <
17 -4 2 0.75 1.25 4.00 <
-15 5 2 2.46 -0.83 2.90 <
-15 -5 2 2.45 4.23 3.67 <
-14 5 2 29.26 36.07 3.82 o
-14 -5 2 29.24 38.26 2.91 o
-13 5 2 22.12 23.92 3.47 o
-13 -5 2 22.12 28.16 2.03 o
-12 5 2 52.10 57.64 4.31 o
-12 -5 2 52.06 65.09 2.54 o
-11 5 2 26.07 21.84 3.05 o
-11 -5 2 26.13 27.62 1.98 o
-10 5 2 19.01 10.50 1.81 o
-10 -5 2 19.02 18.69 1.74 o
-9 5 2 46.73 42.01 2.16 o
-9 -5 2 46.65 50.05 1.78 o
-8 5 2 39.97 42.07 1.73 o
-8 -5 2 40.04 42.77 1.42 o
-7 5 2 7.91 4.86 1.51 o
-7 -5 2 7.91 11.12 1.02 o
-6 5 2 21.32 17.39 2.38 o
-6 -5 2 21.38 19.40 1.19 o
-5 5 2 23.24 28.48 2.70 o
-5 -5 2 23.26 22.81 0.92 o
-4 5 2 6.44 11.93 2.07 o
-4 -5 2 6.46 7.22 0.72 o
-3 5 2 0.17 -2.14 1.66 <
-3 -5 2 0.18 -1.00 0.68 <
-2 5 2 6.32 5.68 1.62 o
-2 -5 2 6.32 5.55 1.05 o
-1 5 2 40.47 38.76 2.84 o
-1 -5 2 40.49 41.90 1.43 o
0 -5 2 62.35 64.92 1.45 o
1 -5 2 90.93 96.58 1.72 o
2 -5 2 66.78 71.15 1.41 o
3 -5 2 5.43 4.66 0.59 o
4 -5 2 0.78 -0.82 0.78 <
5 -5 2 0.19 1.92 0.70 o
6 -5 2 11.30 10.08 0.94 o
7 -5 2 17.00 18.07 1.09 o
8 -5 2 0.46 -1.53 1.06 <
9 -5 2 0.92 1.03 1.15 <
10 -5 2 0.07 1.14 1.64 <
11 -5 2 1.35 3.76 2.14 <
12 -5 2 0.40 -0.17 1.85 <
13 -5 2 3.62 10.51 2.53 o
14 -5 2 1.49 -2.93 3.00 <
15 -5 2 3.05 -0.36 3.61 <
-13 6 2 3.60 -3.39 3.62 <
-13 -6 2 3.60 12.83 3.99 o
-12 6 2 14.50 10.50 3.49 o
-12 -6 2 14.46 16.30 3.85 o
-11 6 2 43.68 31.35 3.84 o
-11 -6 2 43.67 40.86 2.22 o
-10 6 2 39.84 33.00 3.76 o
-10 -6 2 39.80 39.50 2.00 o
-9 6 2 3.83 -2.56 2.34 <
-9 -6 2 3.82 4.31 1.69 o
-8 6 2 2.85 2.08 2.56 <
-8 -6 2 2.86 3.90 1.61 o
-7 -6 2 10.16 14.56 1.55 o
-6 6 2 15.44 16.42 2.82 o
-6 -6 2 15.46 18.99 1.55 o
-5 6 2 8.45 5.24 2.18 o
-5 -6 2 8.46 9.85 1.24 o
-4 6 2 4.54 1.85 1.52 <
-4 -6 2 4.53 4.69 0.96 o
-3 -6 2 16.70 18.49 1.30 o
-2 -6 2 29.48 30.81 1.28 o
-1 -6 2 2.38 3.66 0.84 o
0 -6 2 1.80 2.91 0.86 o
1 -6 2 14.28 14.84 0.97 o
2 -6 2 13.82 14.19 1.05 o
3 -6 2 4.97 6.85 1.00 o
4 -6 2 0.01 -0.15 0.95 <
5 -6 2 2.16 2.57 0.97 o
6 -6 2 11.69 10.94 1.54 o
7 -6 2 8.49 7.29 2.79 o
8 -6 2 3.58 -2.04 2.17 <
9 -6 2 5.45 5.19 2.17 o
10 -6 2 7.46 -2.69 3.20 <
11 -6 2 5.29 9.49 2.36 o
12 -6 2 1.05 0.97 3.32 <
13 -6 2 0.40 -1.95 3.34 <
-9 7 2 0.14 -1.70 3.28 <
-9 -7 2 0.14 -3.20 2.91 <
-8 7 2 4.79 3.77 2.83 <
-8 -7 2 4.77 7.15 2.60 o
-7 -7 2 4.11 0.63 3.03 <
-6 -7 2 2.61 1.87 2.64 <
-5 -7 2 22.63 21.46 2.47 o
-4 -7 2 3.82 2.01 1.85 <
-3 -7 2 6.20 9.36 1.86 o
-2 -7 2 1.03 1.19 1.26 <
-1 -7 2 2.50 -0.33 1.18 <
0 -7 2 1.90 1.00 1.15 <
1 -7 2 1.37 1.76 1.44 <
2 -7 2 32.17 39.07 1.96 o
3 -7 2 8.23 7.69 1.65 o
4 -7 2 53.20 61.21 3.02 o
5 -7 2 16.23 12.01 1.87 o
6 -7 2 1.18 1.84 1.72 <
7 -7 2 0.71 -2.94 2.13 <
8 -7 2 1.42 7.93 2.39 o
9 -7 2 1.09 -5.27 2.97 <
-3 -8 2 3.21 -3.80 2.66 <
-2 -8 2 5.93 9.98 2.67 o
2 -8 2 7.11 12.83 2.96 o
3 -8 2 3.73 0.75 3.00 <
-19 0 3 7.11 0.71 3.24 <
-18 0 3 10.40 20.07 3.25 o
-17 0 3 0.00 2.44 2.43 <
-16 0 3 0.84 -5.92 2.18 <
-15 0 3 6.64 6.03 1.86 o
-14 0 3 0.02 0.19 1.74 <
-13 0 3 2.73 3.62 1.53 o
-12 0 3 229.84 237.15 4.33 o
-11 0 3 428.28 445.47 6.94 o
-10 0 3 233.69 233.22 3.66 o
-9 0 3 303.06 301.09 4.35 o
-8 0 3 3.52 2.32 0.58 o
-7 0 3 21.79 19.66 0.80 o
-6 0 3 20.03 19.34 0.74 o
-5 0 3 0.13 -0.40 0.51 <
-4 0 3 299.27 336.33 4.97 o
-3 0 3 2011.75 2285.45 29.33 o
-2 0 3 1413.30 1471.84 19.10 o
-1 0 3 656.48 732.05 11.24 o
0 0 3 2.57 2.39 0.51 o
1 0 3 1.69 1.57 0.37 o
2 0 3 220.23 240.10 3.95 o
3 0 3 142.17 138.76 2.14 o
4 0 3 25.75 27.19 0.75 o
5 0 3 130.96 133.56 2.18 o
6 0 3 4.85 4.85 0.48 o
7 0 3 14.01 14.39 0.62 o
8 0 3 25.70 26.72 0.78 o
9 0 3 2.15 1.85 0.53 o
10 0 3 0.00 -1.26 0.49 <
11 0 3 43.23 45.23 1.16 o
12 0 3 23.02 21.79 1.02 o
13 0 3 21.81 24.44 1.13 o
14 0 3 0.48 -2.64 1.06 <
15 0 3 0.03 0.52 1.29 <
16 0 3 0.03 -1.29 1.61 <
17 0 3 10.74 13.09 3.27 o
18 0 3 8.36 9.53 3.37 o
19 0 3 6.39 8.52 2.88 o
-19 1 3 5.95 3.68 3.24 <
-18 1 3 6.45 16.56 2.60 o
-18 -1 3 6.45 0.81 3.70 <
-17 1 3 25.23 28.82 3.15 o
-17 -1 3 25.23 27.80 3.30 o
-16 1 3 9.22 9.03 1.49 o
-16 -1 3 9.20 9.88 2.68 o
-15 1 3 6.79 7.41 1.35 o
-15 -1 3 6.79 4.78 2.08 o
-14 1 3 13.49 15.48 1.61 o
-14 -1 3 13.52 13.83 1.92 o
-13 1 3 1.58 1.30 1.71 <
-13 -1 3 1.57 -2.34 1.37 <
-12 1 3 31.94 30.34 1.58 o
-12 -1 3 31.85 30.49 1.68 o
-11 1 3 59.13 59.75 1.88 o
-11 -1 3 59.04 63.77 2.04 o
-10 1 3 68.67 70.72 1.73 o
-10 -1 3 68.38 66.47 1.69 o
-9 1 3 380.78 377.43 5.19 o
-9 -1 3 380.94 375.99 5.25 o
-8 1 3 214.51 211.26 3.25 o
-8 -1 3 214.53 213.54 3.80 o
-7 1 3 119.42 108.25 1.96 o
-7 -1 3 119.39 108.07 1.97 o
-6 1 3 108.06 118.86 2.20 o
-6 -1 3 108.19 116.93 2.29 o
-5 1 3 5.39 4.99 0.50 o
-5 -1 3 5.32 3.08 0.62 o
-4 1 3 317.89 351.80 4.47 o
-4 -1 3 317.70 365.01 5.37 o
-3 1 3 286.65 302.99 4.38 o
-3 -1 3 286.83 302.41 4.53 o
-2 1 3 389.35 404.57 5.60 o
-2 -1 3 389.59 412.46 5.88 o
-1 1 3 92.60 93.44 1.97 o
-1 -1 3 92.79 90.97 1.94 o
0 1 3 61.96 67.64 1.99 o
0 -1 3 62.03 67.66 1.58 o
1 1 3 115.63 130.50 2.03 o
1 -1 3 115.65 137.66 2.61 o
2 1 3 205.31 221.12 3.14 o
2 -1 3 205.71 230.06 3.88 o
3 1 3 290.60 308.09 3.77 o
3 -1 3 291.04 322.45 4.49 o
4 1 3 49.31 60.57 1.04 o
4 -1 3 49.13 60.35 1.08 o
5 1 3 253.83 276.90 3.54 o
5 -1 3 254.09 270.07 3.89 o
6 1 3 46.50 50.31 1.11 o
6 -1 3 46.42 49.54 1.11 o
7 1 3 59.98 62.00 1.18 o
7 -1 3 59.89 63.04 1.21 o
8 1 3 12.66 12.24 0.52 o
8 -1 3 12.61 12.48 0.77 o
9 1 3 30.89 31.11 0.83 o
9 -1 3 30.82 30.96 1.04 o
10 1 3 19.88 20.96 0.68 o
10 -1 3 19.96 20.22 0.94 o
11 1 3 21.60 21.63 0.74 o
11 -1 3 21.53 22.69 1.06 o
12 1 3 94.49 96.38 1.76 o
12 -1 3 94.46 95.34 2.08 o
13 1 3 11.22 11.62 0.73 o
13 -1 3 11.24 11.32 1.19 o
14 1 3 1.29 0.07 0.79 <
14 -1 3 1.29 4.91 1.28 o
15 1 3 4.63 3.82 1.16 o
15 -1 3 4.63 2.19 1.61 <
16 1 3 6.95 6.34 1.88 o
16 -1 3 6.95 6.28 1.56 o
17 1 3 1.82 0.51 2.55 <
17 -1 3 1.83 0.81 2.03 <
18 1 3 0.31 0.71 2.96 <
18 -1 3 0.31 0.86 3.11 <
19 1 3 5.59 -4.57 3.51 <
19 -1 3 5.58 13.52 3.98 o
-18 2 3 1.17 -0.34 2.27 <
-18 -2 3 1.17 1.58 2.91 <
-17 2 3 2.86 4.94 2.05 o
-17 -2 3 2.85 -7.27 3.35 <
-16 2 3 13.30 15.20 2.31 o
-16 -2 3 13.25 17.52 3.26 o
-15 2 3 0.06 1.52 2.12 <
-15 -2 3 0.06 2.02 2.58 <
-14 2 3 8.69 12.52 2.33 o
-14 -2 3 8.74 11.65 2.00 o
-13 2 3 8.65 10.76 2.11 o
-13 -2 3 8.66 12.49 1.93 o
-12 2 3 10.38 6.26 2.23 o
-12 -2 3 10.43 10.11 1.38 o
-11 2 3 25.23 23.66 1.76 o
-11 -2 3 25.17 24.90 1.53 o
-10 2 3 50.09 45.84 1.66 o
-10 -2 3 50.11 44.33 1.50 o
-9 2 3 59.88 58.17 1.42 o
-9 -2 3 59.99 65.96 1.94 o
-8 2 3 118.86 122.39 2.17 o
-8 -2 3 118.91 125.23 2.73 o
-7 2 3 14.70 13.59 0.77 o
-7 -2 3 14.73 12.46 0.98 o
-6 2 3 27.91 32.47 1.16 o
-6 -2 3 28.02 29.90 1.16 o
-5 2 3 36.87 40.69 1.19 o
-5 -2 3 37.05 38.91 1.28 o
-4 2 3 273.48 278.95 4.23 o
-4 -2 3 273.53 290.63 4.53 o
-3 2 3 17.28 18.11 0.67 o
-3 -2 3 17.30 16.15 0.88 o
-2 2 3 3.47 2.88 0.38 o
-2 -2 3 3.47 3.62 0.59 o
-1 2 3 15.91 16.67 0.65 o
-1 -2 3 15.86 15.33 0.84 o
0 2 3 52.40 48.09 1.34 o
0 -2 3 52.42 54.06 1.46 o
1 2 3 739.19 765.25 11.74 o
1 -2 3 739.13 821.67 15.50 o
2 2 3 30.44 35.77 0.83 o
2 -2 3 30.51 38.28 1.17 o
3 2 3 83.11 84.71 1.44 o
3 -2 3 83.08 84.91 1.15 o
4 2 3 215.58 221.79 3.65 o
4 -2 3 215.44 223.45 2.70 o
5 2 3 81.87 80.81 1.75 o
5 -2 3 81.95 83.26 1.27 o
6 2 3 306.15 326.31 5.38 o
6 -2 3 306.67 331.63 3.86 o
7 2 3 112.64 113.83 2.34 o
7 -2 3 112.56 116.88 1.68 o
8 2 3 102.44 108.79 2.32 o
8 -2 3 102.47 112.34 1.89 o
9 2 3 306.42 316.07 5.44 o
9 -2 3 306.36 313.14 4.46 o
10 2 3 104.54 110.67 2.51 o
10 -2 3 104.50 110.93 2.21 o
11 2 3 159.79 161.12 3.28 o
11 -2 3 159.81 165.59 2.90 o
12 2 3 23.49 25.30 1.10 o
12 -2 3 23.50 25.67 1.23 o
13 2 3 6.90 5.54 0.73 o
13 -2 3 6.92 8.59 1.46 o
14 2 3 18.73 18.96 2.28 o
14 -2 3 18.76 16.16 1.69 o
15 2 3 8.67 10.98 2.26 o
15 -2 3 8.65 7.40 1.89 o
16 2 3 3.68 -0.78 2.11 <
16 -2 3 3.69 8.65 2.16 o
17 -2 3 1.99 1.21 3.06 <
18 -2 3 5.93 7.61 3.95 <
-17 -3 3 0.63 -5.70 3.31 <
-15 3 3 9.54 12.72 2.76 o
-15 -3 3 9.52 14.35 5.86 o
-14 3 3 17.99 17.75 2.30 o
-14 -3 3 18.02 24.75 3.32 o
-13 3 3 7.01 8.84 2.24 o
-13 -3 3 7.01 4.18 2.00 o
-12 3 3 12.40 15.14 1.67 o
-12 -3 3 12.45 14.07 1.93 o
-11 3 3 7.19 7.67 1.42 o
-11 -3 3 7.20 8.31 1.36 o
-10 3 3 36.16 43.79 2.16 o
-10 -3 3 36.14 41.37 2.23 o
-9 3 3 4.70 2.64 1.34 <
-9 -3 3 4.72 3.67 0.86 o
-8 3 3 1.36 1.34 0.75 <
-8 -3 3 1.34 0.18 0.86 <
-7 3 3 33.16 33.54 1.29 o
-7 -3 3 33.26 33.49 1.36 o
-6 3 3 33.83 34.64 1.29 o
-6 -3 3 33.85 34.14 1.17 o
-5 3 3 40.06 42.14 1.32 o
-5 -3 3 39.96 43.77 1.24 o
-4 3 3 3.84 3.27 0.53 o
-4 -3 3 3.85 4.08 0.69 o
-3 3 3 11.04 10.69 0.71 o
-3 -3 3 11.12 9.46 0.65 o
-2 3 3 64.23 64.48 1.75 o
-2 -3 3 64.17 69.10 1.52 o
-1 3 3 32.16 29.93 1.07 o
-1 -3 3 32.11 31.95 1.24 o
0 3 3 122.27 125.03 2.67 o
0 -3 3 122.56 131.26 2.78 o
1 3 3 63.33 60.26 1.61 o
1 -3 3 63.35 63.25 1.31 o
2 3 3 23.93 26.26 0.99 o
2 -3 3 23.91 27.32 0.82 o
3 3 3 15.60 15.83 0.90 o
3 -3 3 15.57 14.80 0.61 o
4 3 3 20.51 23.29 1.49 o
4 -3 3 20.55 19.72 0.58 o
5 3 3 25.69 26.87 1.58 o
5 -3 3 25.77 26.84 0.75 o
6 3 3 28.12 28.72 1.61 o
6 -3 3 28.14 28.77 0.78 o
7 3 3 425.73 433.30 8.75 o
7 -3 3 425.61 439.71 5.09 o
8 3 3 93.10 94.27 2.75 o
8 -3 3 93.16 89.52 1.51 o
9 3 3 209.71 214.60 4.95 o
9 -3 3 209.55 213.73 2.77 o
10 3 3 14.78 14.39 1.37 o
10 -3 3 14.81 14.90 0.86 o
11 3 3 23.64 21.97 1.29 o
11 -3 3 23.67 21.13 0.97 o
12 3 3 3.36 0.70 0.68 <
12 -3 3 3.40 7.52 1.21 o
13 -3 3 1.99 -2.10 1.46 <
14 -3 3 2.91 1.86 1.62 <
15 -3 3 25.56 27.13 2.40 o
16 -3 3 0.06 2.22 2.99 <
17 -3 3 20.09 26.27 4.43 o
-16 4 3 0.42 -2.22 2.93 <
-16 -4 3 0.43 2.38 3.34 <
-15 4 3 6.15 6.59 3.05 o
-15 -4 3 6.13 6.43 3.13 o
-14 4 3 24.04 27.07 3.47 o
-14 -4 3 24.01 27.37 3.25 o
-13 4 3 5.49 5.93 1.92 o
-13 -4 3 5.47 2.66 2.96 <
-12 4 3 8.26 4.86 2.18 o
-12 -4 3 8.26 15.52 3.07 o
-11 4 3 1.25 2.95 1.98 <
-11 -4 3 1.24 1.36 1.49 <
-10 4 3 14.12 15.75 1.46 o
-10 -4 3 14.12 15.71 1.40 o
-9 4 3 85.79 80.91 2.30 o
-9 -4 3 85.76 86.28 2.52 o
-8 4 3 43.80 48.99 1.69 o
-8 -4 3 43.95 56.36 1.72 o
-7 4 3 59.25 59.59 1.85 o
-7 -4 3 59.23 58.47 1.94 o
-6 4 3 195.37 188.59 3.47 o
-6 -4 3 195.41 206.39 3.92 o
-5 4 3 38.56 35.70 1.36 o
-5 -4 3 38.52 37.21 1.28 o
-4 4 3 16.81 14.88 1.25 o
-4 -4 3 16.74 19.59 1.02 o
-3 4 3 7.81 6.05 0.92 o
-3 -4 3 7.80 7.33 0.72 o
-2 4 3 0.28 3.18 1.38 o
-2 -4 3 0.28 -0.98 0.61 <
-1 4 3 28.69 33.23 2.19 o
-1 -4 3 28.71 28.12 0.99 o
0 4 3 11.79 10.04 1.34 o
0 -4 3 11.84 10.66 0.87 o
1 4 3 196.45 177.87 6.09 o
1 -4 3 196.33 204.62 3.12 o
2 4 3 147.75 141.30 5.04 o
2 -4 3 147.61 150.27 2.24 o
3 -4 3 12.47 11.70 0.66 o
4 -4 3 124.88 131.29 1.80 o
5 -4 3 83.06 85.40 1.48 o
6 -4 3 8.58 7.69 0.61 o
7 -4 3 3.95 2.56 0.58 o
8 -4 3 0.84 0.98 0.91 <
9 -4 3 100.11 91.43 2.11 o
10 -4 3 19.93 17.24 1.29 o
11 -4 3 7.72 5.10 1.99 o
12 -4 3 2.27 1.48 1.28 <
13 -4 3 0.18 -6.56 2.40 <
14 -4 3 0.82 3.37 2.41 <
15 -4 3 0.39 1.86 3.32 <
16 -4 3 0.46 3.36 2.82 <
-15 -5 3 2.70 5.92 3.90 <
-14 -5 3 7.64 24.95 4.10 o
-13 5 3 9.44 15.22 2.73 o
-13 -5 3 9.46 4.96 3.51 <
-12 5 3 36.49 44.37 3.62 o
-12 -5 3 36.60 44.12 2.71 o
-11 5 3 33.13 39.17 3.34 o
-11 -5 3 33.18 43.08 2.84 o
-10 5 3 13.67 11.03 1.64 o
-10 -5 3 13.64 16.71 2.29 o
-9 5 3 106.36 105.78 3.56 o
-9 -5 3 106.17 108.25 2.95 o
-8 5 3 99.27 92.52 2.50 o
-8 -5 3 99.29 101.86 2.87 o
-7 5 3 34.78 29.32 1.67 o
-7 -5 3 34.74 37.61 1.89 o
-6 5 3 28.95 25.86 1.65 o
-6 -5 3 28.94 24.52 1.60 o
-5 5 3 5.94 4.18 1.86 o
-5 -5 3 5.92 6.75 1.06 o
-4 5 3 87.27 84.94 4.37 o
-4 -5 3 87.40 91.83 2.23 o
-3 5 3 106.27 101.67 4.78 o
-3 -5 3 106.30 113.82 2.46 o
-2 5 3 13.29 13.17 2.00 o
-2 -5 3 13.32 12.81 1.26 o
-1 5 3 29.69 20.53 2.31 o
-1 -5 3 29.60 29.66 1.23 o
0 5 3 94.91 84.29 3.95 o
0 -5 3 94.84 94.19 2.11 o
1 -5 3 19.41 16.83 0.86 o
2 -5 3 18.56 18.68 0.81 o
3 -5 3 15.30 15.37 0.69 o
4 -5 3 1.23 0.82 0.54 <
5 -5 3 4.27 4.40 0.55 o
6 -5 3 3.76 3.66 0.87 o
7 -5 3 0.33 1.12 0.78 <
8 -5 3 18.47 21.82 1.23 o
9 -5 3 8.77 6.12 1.91 o
10 -5 3 5.66 4.56 1.68 o
11 -5 3 1.36 2.29 2.36 <
12 -5 3 2.40 2.14 2.41 <
13 -5 3 0.11 -11.17 3.46 <
14 -5 3 2.04 -8.98 3.80 <
-12 -6 3 17.20 11.72 3.66 o
-11 6 3 17.31 20.81 3.24 o
-11 -6 3 17.29 23.89 3.38 o
-10 6 3 24.91 31.83 3.32 o
-10 -6 3 24.94 31.55 3.45 o
-9 6 3 15.64 17.80 3.21 o
-9 -6 3 15.60 17.83 3.45 o
-8 6 3 4.78 6.53 2.67 o
-8 -6 3 4.78 4.91 2.05 o
-7 6 3 11.74 14.52 2.70 o
-7 -6 3 11.74 8.72 2.00 o
-6 6 3 5.98 3.85 2.31 <
-6 -6 3 5.99 7.51 2.35 o
-5 6 3 0.10 -0.74 2.19 <
-5 -6 3 0.10 0.96 1.02 <
-4 6 3 6.08 3.11 2.22 <
-4 -6 3 6.02 6.13 1.39 o
-3 6 3 29.72 27.22 3.01 o
-3 -6 3 29.71 31.76 1.77 o
-2 6 3 14.02 5.77 2.23 o
-2 -6 3 14.04 11.72 1.22 o
-1 -6 3 3.22 3.88 1.10 o
0 -6 3 5.79 6.18 0.91 o
1 -6 3 6.02 7.50 0.84 o
2 -6 3 11.06 10.71 1.12 o
3 -6 3 4.21 3.24 0.98 o
4 -6 3 12.39 15.95 1.18 o
5 -6 3 7.39 10.30 1.25 o
6 -6 3 5.14 10.80 1.65 o
7 -6 3 3.76 5.45 2.11 o
8 -6 3 1.18 2.26 3.28 <
9 -6 3 0.55 6.80 2.17 o
10 -6 3 2.01 3.11 2.33 <
11 -6 3 0.09 3.48 3.11 <
12 -6 3 0.21 -6.39 3.68 <
-9 7 3 2.50 -3.29 2.51 <
-9 -7 3 2.50 9.51 4.01 o
-8 7 3 0.23 -7.49 3.50 <
-8 -7 3 0.23 -0.13 3.56 <
-7 7 3 1.57 4.25 2.39 <
-7 -7 3 1.57 0.67 2.33 <
-6 7 3 0.43 6.22 3.09 o
-6 -7 3 0.43 1.49 3.12 <
-5 -7 3 0.97 1.97 2.48 <
-4 -7 3 0.07 -2.19 2.38 <
-3 -7 3 0.25 0.67 1.39 <
-2 -7 3 1.03 1.52 1.29 <
-1 -7 3 1.24 0.35 1.48 <
0 -7 3 3.07 3.08 1.39 o
1 -7 3 2.08 0.39 2.04 <
2 -7 3 0.57 1.94 1.65 <
3 -7 3 0.07 -0.59 2.76 <
4 -7 3 28.48 36.03 2.47 o
5 -7 3 0.58 -0.64 2.01 <
6 -7 3 4.83 -0.34 2.10 <
7 -7 3 4.62 5.68 2.74 o
8 -7 3 2.03 -0.91 2.75 <
9 -7 3 3.43 9.17 3.37 o
-18 0 4 0.96 -6.33 4.65 <
-17 0 4 1.30 6.61 5.19 <
-16 0 4 8.95 8.25 1.69 o
-15 0 4 18.49 23.63 2.61 o
-14 0 4 0.11 -3.61 1.81 <
-13 0 4 21.91 22.86 2.12 o
-12 0 4 45.51 43.89 1.92 o
-11 0 4 18.51 14.66 1.34 o
-10 0 4 4.00 0.89 1.08 <
-9 0 4 71.07 65.91 1.70 o
-8 0 4 28.14 24.01 1.04 o
-7 0 4 308.13 312.45 4.03 o
-6 0 4 86.32 82.10 1.98 o
-5 0 4 0.07 3.69 0.65 o
-4 0 4 1.46 2.14 0.65 o
-3 0 4 1.88 2.22 0.58 o
-2 0 4 226.78 291.84 5.10 o
-1 0 4 261.82 292.32 5.07 o
0 0 4 59.53 57.78 1.54 o
1 0 4 67.88 65.99 1.40 o
2 0 4 80.05 81.09 1.77 o
3 0 4 0.03 0.40 0.49 <
4 0 4 249.22 273.89 3.99 o
5 0 4 43.31 37.31 0.99 o
6 0 4 177.84 200.50 3.15 o
7 0 4 178.56 189.92 3.08 o
8 0 4 79.05 89.63 1.87 o
9 0 4 19.00 24.19 1.00 o
10 0 4 0.82 0.93 0.62 <
11 0 4 0.39 0.68 0.68 <
12 0 4 33.25 37.81 1.31 o
13 0 4 0.06 0.06 1.02 <
14 0 4 40.98 42.51 1.97 o
15 0 4 81.19 86.65 2.78 o
16 0 4 13.15 11.14 2.17 o
17 0 4 0.86 -1.44 2.99 <
18 0 4 0.68 2.55 3.06 <
-18 1 4 10.04 12.59 2.94 o
-17 1 4 1.20 1.25 2.77 <
-17 -1 4 1.20 -5.31 3.38 <
-16 1 4 14.95 12.37 2.78 o
-16 -1 4 14.92 14.99 2.74 o
-15 1 4 0.43 1.92 1.25 <
-15 -1 4 0.44 0.95 2.43 <
-14 1 4 1.65 -0.25 1.18 <
-14 -1 4 1.62 -1.95 2.06 <
-13 1 4 8.51 11.16 2.02 o
-13 -1 4 8.50 8.24 2.21 o
-12 1 4 9.17 9.02 1.33 o
-12 -1 4 9.19 14.68 1.55 o
-11 1 4 5.40 5.90 1.15 o
-11 -1 4 5.45 5.48 1.09 o
-10 1 4 32.33 31.95 1.29 o
-10 -1 4 32.42 29.27 1.54 o
-9 1 4 196.83 182.57 3.07 o
-9 -1 4 196.73 199.71 3.37 o
-8 1 4 311.30 301.43 4.78 o
-8 -1 4 311.46 301.08 4.41 o
-7 1 4 100.83 99.30 2.11 o
-7 -1 4 100.71 95.38 2.26 o
-6 1 4 260.39 268.17 3.76 o
-6 -1 4 260.82 267.80 4.44 o
-5 1 4 54.08 56.30 1.22 o
-5 -1 4 54.21 59.18 1.67 o
-4 1 4 69.47 69.81 1.58 o
-4 -1 4 69.48 68.87 1.75 o
-3 1 4 72.05 74.06 1.57 o
-3 -1 4 72.18 78.67 1.81 o
-2 1 4 40.49 38.76 1.31 o
-2 -1 4 40.27 39.14 1.23 o
-1 1 4 416.76 467.81 7.64 o
-1 -1 4 417.34 470.32 6.77 o
0 1 4 713.88 791.19 12.30 o
0 -1 4 714.11 796.46 12.39 o
1 1 4 129.31 139.19 2.65 o
1 -1 4 129.08 139.89 3.31 o
2 1 4 47.20 51.28 1.09 o
2 -1 4 47.32 54.02 1.42 o
3 1 4 85.32 91.74 1.44 o
3 -1 4 85.26 90.92 1.99 o
4 1 4 179.19 200.57 3.07 o
4 -1 4 179.20 194.77 2.45 o
5 1 4 19.44 20.79 0.66 o
5 -1 4 19.49 20.34 0.63 o
6 1 4 48.85 48.96 1.05 o
6 -1 4 48.80 51.96 1.10 o
7 1 4 40.50 44.12 1.03 o
7 -1 4 40.44 42.99 1.03 o
8 1 4 8.87 10.56 0.69 o
8 -1 4 8.87 9.55 0.76 o
9 1 4 15.47 16.79 0.72 o
9 -1 4 15.53 16.95 0.93 o
10 1 4 33.43 37.32 1.08 o
10 -1 4 33.48 36.58 1.18 o
11 1 4 81.32 82.16 1.68 o
11 -1 4 81.38 84.73 2.16 o
12 1 4 86.75 84.67 1.74 o
12 -1 4 86.68 93.92 2.41 o
13 1 4 70.26 70.09 2.00 o
13 -1 4 70.27 77.47 2.25 o
14 1 4 49.63 52.87 3.49 o
14 -1 4 49.67 52.54 2.30 o
15 1 4 3.87 5.39 2.35 o
15 -1 4 3.88 2.33 1.74 <
16 1 4 0.21 1.23 2.17 <
16 -1 4 0.21 1.57 1.81 <
17 1 4 2.33 3.73 2.81 <
17 -1 4 2.33 5.19 3.24 <
18 1 4 0.50 2.90 2.90 <
18 -1 4 0.51 2.91 3.50 <
-18 2 4 17.44 24.27 4.04 o
-18 -2 4 17.44 15.67 3.55 o
-17 2 4 15.24 16.10 3.34 o
-17 -2 4 15.27 3.16 2.94 <
-16 2 4 3.43 9.10 2.62 o
-16 -2 4 3.43 0.74 3.07 <
-15 2 4 24.69 28.76 2.88 o
-15 -2 4 24.67 19.42 2.68 o
-14 2 4 40.94 44.70 3.59 o
-14 -2 4 40.93 44.47 2.92 o
-13 2 4 4.46 -3.14 1.98 <
-13 -2 4 4.44 2.87 2.10 <
-12 2 4 29.79 30.64 1.83 o
-12 -2 4 29.74 36.23 2.36 o
-11 2 4 54.82 53.87 1.81 o
-11 -2 4 54.93 48.87 2.08 o
-10 2 4 36.62 36.48 1.39 o
-10 -2 4 36.72 33.79 2.03 o
-9 2 4 20.08 21.30 1.04 o
-9 -2 4 20.12 21.82 1.35 o
-8 2 4 24.50 24.94 1.06 o
-8 -2 4 24.38 22.93 1.31 o
-7 2 4 253.80 247.53 3.62 o
-7 -2 4 253.62 245.04 4.26 o
-6 2 4 341.14 330.77 4.52 o
-6 -2 4 341.28 335.38 5.34 o
-5 2 4 85.95 84.06 1.89 o
-5 -2 4 85.91 84.79 2.08 o
-4 2 4 184.69 184.37 2.78 o
-4 -2 4 184.80 190.48 3.43 o
-3 2 4 157.89 161.34 2.46 o
-3 -2 4 157.90 168.36 3.11 o
-2 2 4 52.52 55.19 1.15 o
-2 -2 4 52.57 55.94 1.71 o
-1 2 4 18.39 21.55 1.06 o
-1 -2 4 18.42 19.63 1.08 o
0 2 4 59.61 55.58 1.55 o
0 -2 4 59.70 58.48 1.68 o
1 2 4 153.27 147.46 2.90 o
1 -2 4 153.14 164.09 3.25 o
2 2 4 125.39 127.46 2.13 o
2 -2 4 125.61 126.98 2.30 o
3 2 4 88.05 83.99 1.54 o
3 -2 4 87.98 89.81 1.78 o
4 2 4 2.10 1.02 0.35 o
4 -2 4 2.10 2.27 0.39 o
5 2 4 49.30 51.22 1.28 o
5 -2 4 49.27 51.26 1.11 o
6 2 4 0.94 0.47 0.43 <
6 -2 4 0.93 0.78 0.50 <
7 2 4 62.46 64.85 1.66 o
7 -2 4 62.64 65.45 1.49 o
8 2 4 7.80 7.71 0.79 o
8 -2 4 7.79 7.09 0.76 o
9 2 4 2.15 3.04 0.78 o
9 -2 4 2.15 2.17 0.74 o
10 2 4 17.32 15.39 1.06 o
10 -2 4 17.31 16.35 1.21 o
11 2 4 23.67 20.79 1.12 o
11 -2 4 23.64 25.01 1.39 o
12 2 4 7.68 6.24 0.96 o
12 -2 4 7.65 4.92 1.23 o
13 2 4 2.16 2.54 0.98 o
13 -2 4 2.16 3.27 1.44 o
14 2 4 10.21 3.33 1.79 <
14 -2 4 10.24 6.10 1.87 o
15 2 4 0.31 -4.66 1.97 <
15 -2 4 0.31 0.52 1.87 <
16 -2 4 1.55 -3.31 2.22 <
17 2 4 2.99 -3.94 2.61 <
17 -2 4 2.98 10.15 3.54 o
18 -2 4 2.07 5.07 2.94 <
-17 3 4 1.63 -4.52 3.26 <
-17 -3 4 1.63 2.46 3.35 <
-16 3 4 2.01 4.24 2.14 <
-16 -3 4 2.01 -0.08 2.76 <
-15 3 4 2.98 -2.04 2.64 <
-15 -3 4 2.98 4.78 2.70 <
-14 3 4 5.77 13.82 2.78 o
-14 -3 4 5.77 10.48 2.92 o
-13 3 4 3.88 4.22 2.14 <
-13 -3 4 3.89 0.93 2.24 <
-12 3 4 38.73 39.34 2.26 o
-12 -3 4 38.64 43.22 2.66 o
-11 3 4 20.76 19.00 1.53 o
-11 -3 4 20.76 21.36 2.09 o
-10 3 4 32.88 33.50 1.89 o
-10 -3 4 32.85 33.05 2.11 o
-9 3 4 81.20 77.22 2.14 o
-9 -3 4 81.16 81.29 2.97 o
-8 3 4 12.08 11.57 1.19 o
-8 -3 4 12.12 10.88 1.22 o
-7 3 4 24.10 21.23 1.23 o
-7 -3 4 24.04 25.38 1.37 o
-6 3 4 127.18 122.00 2.48 o
-6 -3 4 127.32 131.43 2.84 o
-5 3 4 196.07 192.66 3.37 o
-5 -3 4 196.41 205.87 3.77 o
-4 3 4 103.60 95.47 2.00 o
-4 -3 4 103.70 105.88 2.69 o
-3 3 4 188.22 187.57 3.14 o
-3 -3 4 188.13 196.12 3.97 o
-2 3 4 1.93 2.33 0.65 o
-2 -3 4 1.92 3.60 0.91 o
-1 3 4 28.57 28.39 0.97 o
-1 -3 4 28.59 30.08 1.36 o
0 3 4 2.91 4.14 0.76 o
0 -3 4 2.92 2.78 0.77 o
1 3 4 22.03 17.08 0.98 o
1 -3 4 22.11 19.58 0.95 o
2 3 4 40.12 38.38 1.29 o
2 -3 4 40.12 42.34 1.28 o
3 3 4 58.03 59.20 1.57 o
3 -3 4 57.96 57.46 1.44 o
4 3 4 45.02 44.55 1.58 o
4 -3 4 45.08 43.61 1.28 o
5 3 4 20.71 20.94 1.55 o
5 -3 4 20.75 20.87 0.97 o
6 3 4 13.37 11.40 0.72 o
6 -3 4 13.34 13.64 0.73 o
7 3 4 93.26 93.21 2.35 o
7 -3 4 93.22 97.37 1.79 o
8 3 4 67.44 66.38 1.91 o
8 -3 4 67.55 67.62 1.71 o
9 3 4 111.93 110.96 2.52 o
9 -3 4 112.11 117.52 2.40 o
10 3 4 36.78 36.05 1.43 o
10 -3 4 36.71 32.24 1.39 o
11 3 4 16.09 12.65 0.97 o
11 -3 4 16.04 15.63 1.45 o
12 3 4 2.73 2.30 1.21 <
12 -3 4 2.73 0.25 1.33 <
13 -3 4 6.29 6.93 2.12 o
14 -3 4 2.57 3.04 2.06 <
15 -3 4 1.58 -2.97 1.98 <
16 -3 4 1.30 -2.29 2.87 <
17 -3 4 5.30 5.26 2.97 <
-16 4 4 3.19 -0.98 2.85 <
-16 -4 4 3.19 4.16 3.64 <
-15 4 4 1.01 4.87 3.10 <
-14 4 4 6.45 9.36 2.41 o
-14 -4 4 6.45 10.28 3.34 o
-13 4 4 2.43 3.63 2.69 <
-13 -4 4 2.44 -2.56 2.40 <
-12 4 4 2.36 4.47 2.41 <
-12 -4 4 2.35 -2.48 3.16 <
-11 4 4 2.67 2.00 1.48 <
-11 -4 4 2.68 2.59 1.88 <
-10 4 4 9.59 8.19 1.31 o
-10 -4 4 9.60 10.54 2.17 o
-9 4 4 9.70 8.95 1.17 o
-9 -4 4 9.68 9.34 1.76 o
-8 4 4 14.81 11.49 1.37 o
-8 -4 4 14.85 15.13 2.00 o
-7 4 4 135.09 132.35 2.89 o
-7 -4 4 134.93 140.61 4.04 o
-6 4 4 169.03 167.19 3.21 o
-6 -4 4 168.87 174.36 3.57 o
-5 4 4 139.33 138.96 2.78 o
-5 -4 4 139.22 154.33 3.26 o
-4 4 4 116.94 108.53 2.82 o
-4 -4 4 116.99 123.89 3.14 o
-3 4 4 53.20 48.02 1.74 o
-3 -4 4 53.19 57.42 2.04 o
-2 4 4 50.82 44.46 2.19 o
-2 -4 4 50.90 50.32 1.88 o
-1 4 4 47.86 42.91 2.15 o
-1 -4 4 47.89 45.83 1.74 o
0 4 4 62.69 57.62 2.42 o
0 -4 4 62.72 60.91 1.49 o
1 4 4 13.14 11.33 1.27 o
1 -4 4 13.20 11.90 0.97 o
2 4 4 38.62 30.00 2.12 o
2 -4 4 38.51 34.02 1.11 o
3 4 4 167.22 135.59 4.93 o
3 -4 4 167.32 152.64 2.30 o
4 4 4 88.21 87.23 3.55 o
4 -4 4 88.27 90.86 1.63 o
5 4 4 4.59 4.78 1.28 o
5 -4 4 4.58 3.41 0.71 o
6 4 4 0.14 3.62 1.21 o
6 -4 4 0.14 -0.27 0.75 <
7 4 4 2.04 3.53 1.18 o
7 -4 4 2.05 1.94 0.56 o
8 4 4 4.99 6.23 1.25 o
8 -4 4 5.00 6.10 0.73 o
9 4 4 38.03 35.20 2.03 o
9 -4 4 38.01 35.48 1.36 o
10 4 4 75.76 61.56 2.64 o
10 -4 4 75.73 75.12 2.47 o
11 -4 4 43.09 42.20 2.74 o
12 -4 4 33.41 29.51 2.26 o
13 -4 4 4.48 5.17 2.48 o
14 -4 4 1.50 0.07 3.77 <
15 -4 4 0.69 -7.40 2.90 <
16 -4 4 0.83 -2.89 4.32 <
-14 5 4 1.29 -0.21 2.37 <
-14 -5 4 1.29 -0.88 3.83 <
-13 5 4 1.17 -3.60 2.84 <
-13 -5 4 1.16 -6.21 3.62 <
-12 5 4 3.83 3.26 2.79 <
-12 -5 4 3.83 6.59 3.02 o
-11 5 4 5.42 -2.53 2.75 <
-11 -5 4 5.42 1.33 2.97 <
-10 5 4 5.04 2.63 2.44 <
-10 -5 4 5.03 11.49 3.03 o
-9 5 4 0.59 -2.20 1.32 <
-9 -5 4 0.59 -2.84 2.25 <
-8 5 4 6.91 7.28 1.34 o
-8 -5 4 6.95 9.02 2.03 o
-7 5 4 2.31 1.25 1.23 <
-7 -5 4 2.29 -0.90 2.02 <
-6 5 4 23.12 19.36 1.44 o
-6 -5 4 23.05 23.60 2.28 o
-5 5 4 13.10 12.71 1.15 o
-5 -5 4 13.04 12.87 1.67 o
-4 5 4 51.03 54.19 3.53 o
-4 -5 4 51.08 58.78 2.32 o
-3 5 4 17.02 17.04 2.28 o
-3 -5 4 17.02 18.48 1.40 o
-2 5 4 10.66 9.05 1.68 o
-2 -5 4 10.61 9.58 1.42 o
-1 5 4 44.01 38.48 2.86 o
-1 -5 4 43.82 42.62 1.60 o
0 5 4 24.81 16.27 2.09 o
0 -5 4 24.79 24.16 1.31 o
1 5 4 15.45 14.48 1.95 o
1 -5 4 15.42 14.30 1.12 o
2 -5 4 6.50 5.91 0.90 o
3 -5 4 15.82 15.45 1.03 o
4 -5 4 59.68 59.79 1.53 o
5 -5 4 15.69 14.74 1.05 o
6 -5 4 0.54 1.16 0.87 <
7 -5 4 18.31 23.50 1.26 o
8 -5 4 9.14 7.79 1.52 o
9 -5 4 1.52 12.36 3.11 o
10 -5 4 2.54 0.96 1.86 <
11 -5 4 10.54 6.79 3.47 <
12 -5 4 15.17 17.52 2.81 o
14 -5 4 2.35 2.39 3.01 <
-11 6 4 9.92 7.40 3.48 o
-11 -6 4 9.92 19.73 3.85 o
-10 6 4 12.11 9.52 3.16 o
-10 -6 4 12.14 22.28 3.80 o
-9 6 4 25.64 22.04 2.93 o
-9 -6 4 25.73 26.96 3.24 o
-8 6 4 12.16 19.75 3.23 o
-8 -6 4 12.15 23.85 3.23 o
-7 6 4 9.11 7.42 2.63 o
-7 -6 4 9.10 5.02 3.10 <
-6 6 4 2.63 3.26 2.46 <
-6 -6 4 2.62 0.48 2.60 <
-5 6 4 4.89 5.60 2.26 o
-5 -6 4 4.89 7.46 2.78 o
-4 6 4 0.20 -1.54 1.70 <
-4 -6 4 0.20 2.21 2.34 <
-3 6 4 7.11 8.44 1.98 o
-3 -6 4 7.08 4.01 1.86 o
-2 6 4 12.44 4.69 2.13 o
-2 -6 4 12.48 8.78 1.76 o
-1 6 4 20.67 23.96 2.92 o
-1 -6 4 20.68 21.23 1.78 o
0 -6 4 4.87 4.34 1.16 o
1 -6 4 6.19 7.77 1.26 o
2 -6 4 7.37 8.58 1.23 o
3 -6 4 2.72 0.94 1.31 <
4 -6 4 10.90 11.76 1.45 o
5 -6 4 2.84 1.44 1.35 <
6 -6 4 18.35 19.53 1.61 o
7 -6 4 11.50 19.35 2.51 o
8 -6 4 3.71 5.70 2.16 o
9 -6 4 1.74 0.48 2.65 <
10 -6 4 2.51 6.47 3.38 <
11 -6 4 5.95 5.17 3.00 <
-8 7 4 12.32 8.66 3.58 o
-8 -7 4 12.32 14.94 4.22 o
-7 7 4 14.40 27.38 4.14 o
-7 -7 4 14.39 20.59 3.90 o
-6 7 4 1.27 -10.75 3.49 <
-6 -7 4 1.27 2.90 3.51 <
-5 7 4 1.85 -1.15 2.17 <
-5 -7 4 1.85 -2.72 3.49 <
-4 7 4 1.31 5.27 2.86 <
-4 -7 4 1.32 2.95 3.35 <
-3 -7 4 0.45 -2.78 2.10 <
-2 -7 4 3.49 4.14 1.78 o
-1 -7 4 1.75 -1.56 1.45 <
0 -7 4 2.19 4.03 1.60 o
1 -7 4 2.14 1.48 1.36 <
2 -7 4 1.00 -0.81 2.01 <
3 -7 4 3.60 6.78 2.13 o
5 -7 4 2.43 3.04 2.56 <
6 -7 4 1.39 -5.12 2.92 <
7 -7 4 0.90 -2.47 2.98 <
8 -7 4 2.61 11.28 3.56 o
-17 0 5 12.61 2.42 7.82 <
-16 0 5 5.18 1.79 2.10 <
-15 0 5 31.69 32.56 3.07 o
-14 0 5 0.83 -0.12 1.64 <
-13 0 5 0.37 0.45 2.01 <
-12 0 5 17.02 17.88 2.15 o
-11 0 5 25.78 27.27 1.63 o
-10 0 5 38.85 42.13 1.84 o
-9 0 5 25.88 24.51 1.51 o
-8 0 5 12.42 13.87 0.91 o
-7 0 5 12.81 14.19 0.98 o
-6 0 5 0.27 -0.27 0.78 <
-5 0 5 1.73 0.48 0.75 <
-4 0 5 52.75 61.88 1.74 o
-3 0 5 103.42 100.29 2.48 o
-2 0 5 94.69 93.54 2.35 o
-1 0 5 115.55 121.91 2.76 o
0 0 5 66.79 75.58 2.04 o
1 0 5 164.29 168.94 2.91 o
2 0 5 114.68 123.12 2.31 o
3 0 5 18.87 18.89 0.87 o
4 0 5 0.98 0.94 0.61 <
5 0 5 0.94 -0.83 0.64 <
6 0 5 116.04 127.49 2.32 o
7 0 5 5.62 5.20 0.69 o
8 0 5 32.78 39.21 1.23 o
9 0 5 3.34 2.40 0.71 o
10 0 5 1.63 3.07 0.75 o
11 0 5 12.58 15.07 1.08 o
12 0 5 18.23 18.20 1.24 o
13 0 5 38.61 39.89 1.64 o
14 0 5 101.44 95.86 2.94 o
15 0 5 0.31 3.87 1.71 o
16 0 5 77.82 81.92 3.69 o
17 0 5 0.66 1.82 3.25 <
18 0 5 2.34 0.43 3.30 <
-17 1 5 15.10 12.90 2.95 o
-17 -1 5 15.12 11.43 2.56 o
-16 1 5 13.50 14.44 2.55 o
-16 -1 5 13.48 8.67 2.95 o
-15 1 5 11.86 13.46 1.51 o
-15 -1 5 11.86 10.38 2.95 o
-14 1 5 25.54 27.23 1.95 o
-14 -1 5 25.50 27.11 2.58 o
-13 1 5 8.20 6.98 1.32 o
-13 -1 5 8.20 12.60 2.40 o
-12 1 5 17.75 15.27 1.70 o
-12 -1 5 17.77 19.24 2.28 o
-11 1 5 6.81 7.02 1.56 o
-11 -1 5 6.83 10.14 1.44 o
-10 1 5 62.96 66.45 2.27 o
-10 -1 5 62.88 68.84 2.25 o
-9 1 5 3.99 0.06 1.21 <
-9 -1 5 4.01 4.55 1.36 o
-8 1 5 68.74 59.52 1.68 o
-8 -1 5 68.73 63.15 1.68 o
-7 1 5 75.24 62.49 1.53 o
-7 -1 5 75.49 63.40 1.92 o
-6 1 5 96.93 97.77 1.88 o
-6 -1 5 96.94 94.61 2.34 o
-5 1 5 111.04 112.36 2.31 o
-5 -1 5 111.18 114.67 2.58 o
-4 1 5 108.11 108.91 2.15 o
-4 -1 5 108.20 111.76 2.45 o
-3 1 5 14.75 13.53 1.07 o
-3 -1 5 14.80 13.83 1.02 o
-2 1 5 14.98 13.09 0.98 o
-2 -1 5 15.03 13.52 1.02 o
-1 1 5 51.41 54.18 1.67 o
-1 -1 5 51.37 56.96 1.63 o
0 1 5 10.92 8.70 0.88 o
0 -1 5 10.86 9.13 0.92 o
1 1 5 164.80 167.65 3.27 o
1 -1 5 164.95 175.18 3.35 o
2 1 5 94.61 101.22 2.25 o
2 -1 5 94.73 102.64 2.26 o
3 1 5 31.88 31.81 0.92 o
3 -1 5 31.86 32.31 1.20 o
4 1 5 10.30 10.17 0.49 o
4 -1 5 10.31 9.03 0.71 o
5 1 5 31.77 35.09 1.03 o
5 -1 5 31.78 31.91 0.90 o
6 1 5 4.37 5.09 0.56 o
6 -1 5 4.38 4.22 0.50 o
7 1 5 31.65 33.47 0.98 o
7 -1 5 31.63 34.79 1.00 o
8 1 5 51.99 54.94 1.27 o
8 -1 5 51.83 54.37 1.50 o
9 1 5 42.24 42.48 1.14 o
9 -1 5 42.39 41.77 1.58 o
10 1 5 13.45 14.26 0.68 o
10 -1 5 13.46 13.41 1.18 o
11 1 5 3.06 1.98 0.62 o
11 -1 5 3.06 3.70 1.02 o
12 1 5 3.76 4.58 0.81 o
12 -1 5 3.75 4.01 1.17 o
13 1 5 16.00 16.77 1.00 o
13 -1 5 16.02 13.75 1.42 o
14 1 5 1.94 -4.20 2.20 <
14 -1 5 1.93 0.65 1.50 <
15 1 5 8.32 8.59 2.03 o
15 -1 5 8.30 9.54 3.16 o
16 1 5 9.85 8.64 2.94 o
16 -1 5 9.83 7.48 2.41 o
17 1 5 12.03 9.79 2.56 o
17 -1 5 12.05 14.38 3.85 o
-17 2 5 0.33 -4.84 2.51 <
-17 -2 5 0.33 3.49 3.02 <
-16 2 5 14.82 23.91 3.00 o
-16 -2 5 14.80 12.38 3.23 o
-15 2 5 9.02 13.30 3.03 o
-15 -2 5 9.04 16.07 3.52 o
-14 2 5 10.61 13.15 2.67 o
-14 -2 5 10.60 5.83 2.35 o
-13 2 5 2.01 3.66 1.12 o
-13 -2 5 2.04 1.46 2.27 <
-12 2 5 8.15 8.66 1.18 o
-12 -2 5 8.18 9.65 1.93 o
-11 2 5 5.26 2.50 0.90 o
-11 -2 5 5.26 5.58 2.78 o
-10 2 5 65.16 61.07 1.90 o
-10 -2 5 65.20 62.27 2.81 o
-9 2 5 44.77 38.30 1.43 o
-9 -2 5 44.71 40.57 1.81 o
-8 2 5 56.70 50.27 1.44 o
-8 -2 5 56.73 50.14 1.87 o
-7 2 5 190.29 184.63 3.00 o
-7 -2 5 190.15 189.95 3.71 o
-6 2 5 57.94 52.04 1.38 o
-6 -2 5 57.98 56.67 1.90 o
-5 2 5 321.48 299.79 3.83 o
-5 -2 5 321.60 328.69 5.42 o
-4 2 5 95.76 89.29 1.76 o
-4 -2 5 95.76 91.93 2.28 o
-3 2 5 321.01 308.08 4.21 o
-3 -2 5 321.53 323.51 5.28 o
-2 2 5 263.80 246.46 3.92 o
-2 -2 5 264.31 263.91 4.47 o
-1 2 5 85.47 76.98 2.11 o
-1 -2 5 85.46 85.57 2.24 o
0 2 5 168.77 166.72 3.42 o
0 -2 5 168.71 172.07 3.54 o
1 2 5 94.53 95.72 2.26 o
1 -2 5 94.42 104.40 2.17 o
2 2 5 70.54 70.97 1.85 o
2 -2 5 70.73 78.92 2.02 o
3 2 5 109.15 113.51 2.06 o
3 -2 5 109.03 111.34 2.55 o
4 2 5 68.51 75.04 1.52 o
4 -2 5 68.53 73.38 1.51 o
5 2 5 4.30 5.53 0.59 o
5 -2 5 4.28 3.89 0.72 o
6 2 5 7.63 7.03 0.64 o
6 -2 5 7.61 7.09 0.64 o
7 2 5 11.56 10.19 0.70 o
7 -2 5 11.60 9.38 0.66 o
8 2 5 15.38 15.45 1.04 o
8 -2 5 15.42 17.16 0.96 o
9 2 5 10.45 14.61 1.10 o
9 -2 5 10.43 11.59 0.92 o
10 2 5 58.31 54.73 1.80 o
10 -2 5 58.29 57.73 1.94 o
11 2 5 8.54 10.11 1.12 o
11 -2 5 8.52 9.38 1.28 o
12 2 5 9.97 7.61 1.25 o
12 -2 5 10.01 11.68 1.33 o
13 2 5 3.62 3.07 1.59 <
13 -2 5 3.61 5.01 1.85 o
14 2 5 2.98 6.31 2.02 o
14 -2 5 2.98 6.59 2.06 o
15 2 5 1.42 0.65 1.81 <
15 -2 5 1.43 -0.97 1.92 <
16 2 5 1.49 -4.47 2.57 <
16 -2 5 1.49 8.20 3.31 o
17 2 5 1.48 15.74 3.00 o
17 -2 5 1.49 5.92 3.75 <
-16 3 5 5.90 9.63 2.60 o
-16 -3 5 5.90 4.37 2.43 <
-15 3 5 6.70 6.18 2.88 o
-15 -3 5 6.72 4.66 3.03 <
-14 3 5 6.59 3.90 2.40 <
-14 -3 5 6.59 3.74 2.71 <
-13 3 5 42.33 35.95 3.60 o
-13 -3 5 42.30 42.01 3.76 o
-12 3 5 23.14 25.34 2.57 o
-12 -3 5 23.09 18.68 2.57 o
-11 3 5 12.71 16.61 1.62 o
-11 -3 5 12.72 15.52 2.21 o
-10 3 5 2.15 1.17 1.02 <
-10 -3 5 2.13 3.39 1.94 <
-9 3 5 7.25 12.71 1.98 o
-9 -3 5 7.24 7.34 1.25 o
-8 3 5 1.78 3.72 1.14 o
-8 -3 5 1.78 -0.02 1.25 <
-7 3 5 11.17 8.50 1.09 o
-7 -3 5 11.20 10.20 1.31 o
-6 3 5 23.64 24.12 1.18 o
-6 -3 5 23.63 25.04 1.44 o
-5 3 5 232.45 227.60 3.90 o
-5 -3 5 232.29 237.43 4.36 o
-4 3 5 537.70 526.05 7.57 o
-4 -3 5 537.40 569.01 8.54 o
-3 3 5 101.51 89.90 2.06 o
-3 -3 5 101.30 96.08 2.66 o
-2 3 5 476.41 462.39 6.79 o
-2 -3 5 476.33 509.42 8.71 o
-1 3 5 83.02 76.53 1.81 o
-1 -3 5 83.08 82.97 2.33 o
0 3 5 89.43 83.19 1.81 o
0 -3 5 89.59 92.42 2.47 o
1 3 5 26.95 23.54 0.79 o
1 -3 5 27.00 26.41 1.15 o
2 3 5 28.16 26.10 1.17 o
2 -3 5 28.17 26.08 1.10 o
3 3 5 137.10 128.02 2.74 o
3 -3 5 137.17 127.01 2.48 o
4 3 5 3.89 0.46 0.67 <
4 -3 5 3.94 1.12 0.71 <
5 3 5 73.37 66.64 1.61 o
5 -3 5 73.30 69.11 1.76 o
6 3 5 190.00 176.12 3.95 o
6 -3 5 190.01 184.63 3.30 o
7 3 5 48.16 47.13 1.61 o
7 -3 5 48.21 50.48 1.30 o
8 3 5 7.46 5.24 0.78 o
8 -3 5 7.46 9.86 0.90 o
9 3 5 2.63 4.05 0.81 o
9 -3 5 2.63 2.57 0.82 o
10 3 5 9.22 8.67 1.02 o
10 -3 5 9.24 10.18 1.07 o
11 3 5 10.10 7.75 1.02 o
11 -3 5 10.10 11.63 1.57 o
12 3 5 9.40 10.47 1.62 o
12 -3 5 9.39 16.10 2.21 o
13 3 5 1.33 3.34 1.52 o
13 -3 5 1.33 0.53 1.92 <
14 3 5 5.17 0.63 1.70 <
14 -3 5 5.16 12.72 2.50 o
15 -3 5 3.26 3.53 4.28 <
16 -3 5 0.12 -7.76 3.04 <
-15 4 5 1.22 7.52 3.44 o
-15 -4 5 1.22 2.31 3.37 <
-14 4 5 0.17 3.20 2.16 <
-14 -4 5 0.17 -0.41 3.27 <
-13 4 5 0.43 5.97 2.81 o
-13 -4 5 0.44 6.16 3.38 <
-12 4 5 1.24 5.17 2.71 <
-12 -4 5 1.23 -2.44 3.07 <
-11 4 5 2.33 5.43 1.47 o
-11 -4 5 2.34 2.17 2.01 <
-10 4 5 16.70 16.75 1.69 o
-10 -4 5 16.63 13.79 2.51 o
-9 4 5 6.88 8.25 1.33 o
-9 -4 5 6.94 9.34 2.30 o
-8 4 5 0.49 3.49 0.96 o
-8 -4 5 0.48 2.26 2.01 <
-7 4 5 43.32 41.71 1.95 o
-7 -4 5 43.32 43.78 1.99 o
-6 4 5 24.03 22.13 1.20 o
-6 -4 5 24.04 25.92 1.67 o
-5 4 5 3.53 1.03 0.96 <
-5 -4 5 3.54 5.80 1.39 o
-4 4 5 4.36 3.48 1.17 o
-4 -4 5 4.31 5.00 1.25 o
-3 4 5 15.71 13.59 1.25 o
-3 -4 5 15.71 18.81 1.53 o
-2 4 5 50.93 42.65 1.68 o
-2 -4 5 50.80 50.11 2.03 o
-1 4 5 68.36 68.36 2.84 o
-1 -4 5 68.39 74.95 2.40 o
0 4 5 33.18 35.12 1.89 o
0 -4 5 33.17 36.34 1.49 o
1 4 5 23.58 21.23 1.37 o
1 -4 5 23.55 22.77 1.26 o
2 4 5 9.50 6.44 1.26 o
2 -4 5 9.46 8.71 0.99 o
3 4 5 17.51 11.02 1.02 o
3 -4 5 17.49 12.14 1.02 o
4 4 5 16.55 13.36 1.88 o
4 -4 5 16.55 12.55 1.14 o
5 4 5 0.37 -1.44 1.22 <
5 -4 5 0.36 1.84 1.01 <
6 4 5 8.74 8.13 1.71 o
6 -4 5 8.73 10.65 1.14 o
7 4 5 0.31 -0.47 1.19 <
7 -4 5 0.31 4.61 1.19 o
8 4 5 3.81 7.53 1.73 o
8 -4 5 3.82 -0.78 1.21 <
9 4 5 0.42 6.60 2.38 o
9 -4 5 0.42 4.42 1.85 o
10 -4 5 14.24 19.61 2.35 o
11 -4 5 28.86 33.59 2.69 o
12 -4 5 12.75 7.14 2.39 o
13 -4 5 6.46 2.76 2.84 <
14 -4 5 2.36 -4.20 2.76 <
15 -4 5 0.78 -1.84 4.28 <
-13 5 5 2.35 -5.05 3.08 <
-13 -5 5 2.34 11.82 4.21 o
-12 5 5 2.24 -1.02 2.90 <
-12 -5 5 2.25 5.23 3.05 <
-11 5 5 6.57 13.45 3.09 o
-11 -5 5 6.58 4.44 2.35 <
-10 5 5 3.66 -2.70 2.40 <
-10 -5 5 3.65 -4.41 3.05 <
-9 5 5 0.24 -0.91 2.06 <
-9 -5 5 0.25 -6.56 3.42 <
-8 5 5 8.01 8.06 2.00 o
-8 -5 5 8.00 9.46 2.69 o
-7 5 5 4.54 9.98 2.47 o
-7 -5 5 4.55 -1.77 2.46 <
-6 5 5 2.74 1.71 1.53 <
-6 -5 5 2.76 6.14 2.18 o
-5 5 5 15.55 17.76 2.53 o
-5 -5 5 15.49 21.96 2.58 o
-4 5 5 2.18 2.40 2.31 <
-4 -5 5 2.17 7.38 2.17 o
-3 5 5 6.61 8.00 1.77 o
-3 -5 5 6.59 7.45 1.47 o
-2 5 5 1.61 -2.31 1.86 <
-2 -5 5 1.60 3.27 1.16 o
-1 5 5 17.17 21.61 2.37 o
-1 -5 5 17.20 17.40 1.31 o
0 5 5 9.23 7.13 1.86 o
0 -5 5 9.22 7.22 1.65 o
1 5 5 0.67 0.41 1.62 <
1 -5 5 0.67 0.41 1.25 <
2 5 5 0.12 4.06 1.45 o
2 -5 5 0.12 -0.01 1.03 <
3 -5 5 2.05 1.72 1.06 <
4 -5 5 5.63 4.01 1.53 o
5 -5 5 10.07 7.26 1.30 o
6 -5 5 9.60 11.17 1.34 o
7 -5 5 4.71 -1.77 1.22 <
8 -5 5 2.52 5.31 1.73 o
9 -5 5 10.53 14.91 2.25 o
10 -5 5 8.46 4.59 2.58 <
11 -5 5 4.19 11.86 3.11 o
12 -5 5 7.69 7.82 3.61 o
13 -5 5 28.96 30.97 3.93 o
-10 6 5 0.97 6.21 3.25 <
-10 -6 5 0.96 -2.91 3.83 <
-9 6 5 1.92 -1.05 2.15 <
-9 -6 5 1.93 4.39 3.08 <
-8 6 5 5.92 12.71 3.21 o
-8 -6 5 5.91 4.54 3.14 <
-7 6 5 2.33 1.44 2.56 <
-7 -6 5 2.33 6.40 5.70 <
-6 6 5 0.17 -4.16 2.74 <
-6 -6 5 0.16 1.15 2.85 <
-5 6 5 3.68 5.55 2.07 o
-5 -6 5 3.68 8.62 3.13 o
-4 6 5 1.69 0.62 1.98 <
-4 -6 5 1.69 -1.25 2.71 <
-3 6 5 5.78 4.68 2.11 o
-3 -6 5 5.76 10.42 2.55 o
-2 6 5 0.35 2.62 1.75 <
-2 -6 5 0.35 4.42 1.92 o
-1 6 5 5.93 4.16 2.32 <
-1 -6 5 5.97 6.39 1.68 o
0 6 5 13.97 8.58 2.20 o
0 -6 5 13.96 12.23 1.44 o
1 -6 5 12.20 12.43 1.48 o
2 -6 5 2.96 2.66 1.37 <
3 -6 5 5.32 3.43 1.25 o
4 -6 5 0.01 -0.86 1.28 <
5 -6 5 3.35 5.39 1.55 o
6 -6 5 3.30 -0.19 1.58 <
7 -6 5 19.82 18.14 2.74 o
8 -6 5 6.19 8.22 3.23 o
9 -6 5 0.02 0.97 3.22 <
10 -6 5 0.81 -0.08 3.22 <
-6 7 5 12.31 8.45 3.88 o
-6 -7 5 12.35 12.66 3.36 o
-5 7 5 2.73 2.85 2.52 <
-5 -7 5 2.73 -0.52 3.57 <
-4 -7 5 2.32 0.24 3.53 <
-3 7 5 3.61 14.84 3.26 o
-3 -7 5 3.60 5.25 3.43 <
-2 -7 5 7.73 15.61 2.39 o
-1 -7 5 8.51 7.81 2.02 o
0 -7 5 14.09 13.86 1.97 o
1 -7 5 31.57 44.51 2.78 o
2 -7 5 2.94 3.84 2.02 <
3 -7 5 1.67 -0.30 1.99 <
4 -7 5 1.72 -1.17 2.67 <
6 -7 5 2.27 3.53 2.58 <
-15 0 6 46.67 45.70 3.80 o
-14 0 6 3.70 4.71 2.20 o
-13 0 6 80.78 89.43 3.98 o
-12 0 6 28.92 35.15 2.86 o
-11 0 6 26.42 30.69 2.07 o
-10 0 6 0.60 1.02 1.43 <
-9 0 6 20.06 25.38 1.37 o
-8 0 6 13.68 12.78 1.15 o
-7 0 6 21.61 15.12 1.26 o
-6 0 6 23.31 24.20 1.57 o
-5 0 6 227.11 184.75 4.03 o
-4 0 6 91.26 104.84 2.82 o
-3 0 6 148.46 158.08 3.54 o
-2 0 6 14.94 14.34 1.16 o
-1 0 6 51.95 57.99 1.97 o
0 0 6 1.13 -0.80 0.89 <
1 0 6 27.53 31.47 1.17 o
2 0 6 77.89 85.03 1.94 o
3 0 6 87.26 88.88 2.01 o
4 0 6 4.87 4.71 0.71 o
5 0 6 30.82 30.47 1.15 o
6 0 6 17.16 19.14 1.02 o
7 0 6 10.95 11.99 1.13 o
8 0 6 0.07 0.27 0.95 <
9 0 6 5.67 6.83 0.89 o
10 0 6 0.09 0.94 0.93 <
11 0 6 8.71 12.23 1.13 o
12 0 6 0.62 0.85 1.07 <
13 0 6 0.53 1.36 1.40 <
14 0 6 0.30 -3.40 1.41 <
15 0 6 2.12 5.68 2.11 o
16 0 6 12.24 17.14 2.41 o
17 0 6 0.03 -2.68 3.07 <
-17 1 6 6.16 3.17 3.33 <
-16 1 6 11.81 16.15 3.40 o
-16 -1 6 11.84 10.70 2.89 o
-15 -1 6 5.84 3.34 2.26 <
-14 1 6 24.22 23.93 2.12 o
-14 -1 6 24.19 34.34 3.14 o
-13 1 6 5.18 1.41 1.46 <
-13 -1 6 5.16 3.76 2.63 <
-12 1 6 19.66 24.28 2.02 o
-12 -1 6 19.64 19.88 2.41 o
-11 1 6 2.68 2.92 1.24 o
-11 -1 6 2.67 2.16 2.29 <
-10 1 6 60.40 60.96 2.39 o
-10 -1 6 60.43 60.94 2.41 o
-9 1 6 8.25 11.19 1.61 o
-9 -1 6 8.30 10.80 1.32 o
-8 1 6 72.31 64.22 2.18 o
-8 -1 6 72.36 61.59 2.05 o
-7 1 6 118.25 103.47 2.14 o
-7 -1 6 118.40 98.87 2.61 o
-6 1 6 31.00 23.80 1.10 o
-6 -1 6 31.01 26.39 1.38 o
-5 1 6 44.28 40.26 1.45 o
-5 -1 6 44.21 41.59 1.65 o
-4 1 6 72.80 68.39 2.20 o
-4 -1 6 72.75 72.61 2.10 o
-3 1 6 64.24 61.70 2.02 o
-3 -1 6 64.30 61.00 1.84 o
-2 1 6 50.04 47.18 1.79 o
-2 -1 6 50.05 47.13 1.79 o
-1 1 6 166.40 172.01 3.71 o
-1 -1 6 166.60 165.51 3.68 o
0 1 6 186.13 176.30 3.11 o
0 -1 6 186.35 178.98 3.89 o
1 1 6 254.68 249.27 4.64 o
1 -1 6 254.93 251.33 4.22 o
2 1 6 46.33 46.85 1.54 o
2 -1 6 46.36 45.17 1.56 o
3 1 6 55.93 57.86 1.40 o
3 -1 6 55.83 53.22 1.70 o
4 1 6 33.46 34.92 0.96 o
4 -1 6 33.41 30.02 1.31 o
5 1 6 38.53 42.91 1.28 o
5 -1 6 38.45 39.66 1.13 o
6 1 6 6.45 6.85 0.72 o
6 -1 6 6.41 4.88 0.82 o
7 1 6 1.31 2.01 0.69 o
7 -1 6 1.30 1.10 0.65 <
8 1 6 2.37 3.73 0.74 o
8 -1 6 2.35 1.12 0.85 <
9 1 6 17.82 19.28 1.11 o
9 -1 6 17.82 21.62 1.31 o
10 1 6 4.56 5.48 0.88 o
10 -1 6 4.56 3.48 1.03 o
11 1 6 13.09 12.27 0.98 o
11 -1 6 13.12 13.49 1.29 o
12 1 6 8.16 8.80 0.92 o
12 -1 6 8.16 10.88 1.59 o
13 1 6 1.41 4.07 1.43 o
13 -1 6 1.40 0.46 1.46 <
14 1 6 4.99 7.85 1.55 o
14 -1 6 5.00 11.10 1.88 o
15 1 6 9.40 13.92 2.97 o
15 -1 6 9.42 14.25 2.26 o
16 1 6 12.90 11.65 3.15 o
17 1 6 4.18 -1.71 3.03 <
17 -1 6 4.18 9.60 4.15 o
-16 2 6 0.07 1.50 3.34 <
-16 -2 6 0.07 -3.16 2.94 <
-15 2 6 6.39 -3.67 2.74 <
-15 -2 6 6.38 -8.32 3.14 <
-14 2 6 13.41 16.23 2.87 o
-14 -2 6 13.42 10.09 3.32 o
-13 2 6 5.89 7.43 2.61 o
-13 -2 6 5.87 13.59 3.16 o
-12 2 6 0.62 -0.38 0.92 <
-12 -2 6 0.59 5.41 2.14 o
-11 2 6 0.14 0.20 0.86 <
-11 -2 6 0.13 0.16 2.24 <
-10 2 6 12.92 13.45 0.97 o
-10 -2 6 12.93 16.02 2.28 o
-9 2 6 8.29 7.09 1.40 o
-9 -2 6 8.32 10.84 1.66 o
-8 2 6 0.83 1.21 1.04 <
-8 -2 6 0.84 1.01 1.40 <
-7 2 6 60.55 56.72 1.56 o
-7 -2 6 60.40 62.18 2.13 o
-6 2 6 4.71 2.91 0.74 o
-6 -2 6 4.68 2.81 1.20 o
-5 2 6 8.99 7.11 0.86 o
-5 -2 6 9.00 12.06 1.25 o
-4 2 6 4.66 3.37 0.70 o
-4 -2 6 4.65 4.96 1.03 o
-3 2 6 58.01 54.80 1.57 o
-3 -2 6 57.94 52.03 1.76 o
-2 2 6 266.34 261.15 4.24 o
-2 -2 6 266.11 266.80 4.69 o
-1 2 6 211.57 206.12 4.22 o
-1 -2 6 211.77 205.15 3.88 o
0 2 6 237.81 238.80 4.67 o
0 -2 6 237.49 246.61 4.90 o
1 2 6 149.52 143.17 3.19 o
1 -2 6 149.40 145.65 3.15 o
2 2 6 13.84 9.49 0.94 o
2 -2 6 13.79 15.37 1.11 o
3 2 6 72.19 69.87 1.58 o
3 -2 6 72.43 74.05 2.02 o
4 2 6 93.64 87.02 1.81 o
4 -2 6 93.72 92.86 2.03 o
5 2 6 15.14 12.46 0.60 o
5 -2 6 15.16 14.70 0.96 o
6 2 6 31.93 27.12 0.97 o
6 -2 6 32.00 29.92 1.17 o
7 2 6 6.76 5.20 0.80 o
7 -2 6 6.75 2.69 0.90 o
8 2 6 77.82 74.39 1.95 o
8 -2 6 77.74 75.15 1.77 o
9 2 6 39.82 37.45 2.33 o
9 -2 6 39.85 42.08 1.41 o
10 2 6 51.02 50.48 2.80 o
10 -2 6 51.00 52.07 2.00 o
11 2 6 5.11 2.30 1.34 <
11 -2 6 5.08 2.81 1.30 o
12 2 6 14.39 14.18 2.13 o
12 -2 6 14.43 14.19 1.61 o
13 2 6 6.38 3.56 1.97 <
13 -2 6 6.39 11.85 2.73 o
14 2 6 3.99 2.51 1.82 <
14 -2 6 3.99 2.51 1.88 <
15 2 6 2.69 0.13 2.37 <
15 -2 6 2.69 -9.76 3.33 <
16 2 6 1.81 2.11 2.57 <
16 -2 6 1.81 10.28 4.21 o
-15 3 6 1.48 -4.03 2.76 <
-15 -3 6 1.49 0.77 3.38 <
-14 3 6 2.77 1.01 2.69 <
-14 -3 6 2.78 7.62 3.28 o
-13 3 6 21.02 24.22 3.22 o
-13 -3 6 21.00 25.95 3.54 o
-12 -3 6 5.33 1.27 2.05 <
-11 3 6 15.80 17.49 1.68 o
-11 -3 6 15.82 24.64 3.25 o
-10 3 6 1.91 -0.53 1.13 <
-10 -3 6 1.92 9.91 2.83 o
-9 3 6 0.60 0.27 1.06 <
-9 -3 6 0.60 0.16 2.22 <
-8 3 6 15.03 11.81 1.24 o
-8 -3 6 15.00 16.03 1.75 o
-7 3 6 7.54 4.86 1.09 o
-7 -3 6 7.55 7.81 1.58 o
-6 3 6 5.66 6.33 1.10 o
-6 -3 6 5.74 0.98 1.43 <
-5 3 6 29.51 32.51 1.43 o
-5 -3 6 29.48 27.25 1.68 o
-4 3 6 92.13 87.29 1.98 o
-4 -3 6 92.02 101.47 2.74 o
-3 3 6 94.69 89.99 2.59 o
-3 -3 6 94.93 97.21 2.69 o
-2 3 6 185.52 183.81 3.89 o
-2 -3 6 185.34 193.90 4.26 o
-1 3 6 5.09 5.59 0.94 o
-1 -3 6 5.14 6.49 1.23 o
0 3 6 0.09 -0.51 0.72 <
0 -3 6 0.10 -2.27 0.97 <
1 3 6 63.93 60.01 2.00 o
1 -3 6 63.97 63.77 1.80 o
2 3 6 111.33 104.41 2.13 o
2 -3 6 111.33 117.48 2.89 o
3 3 6 87.59 80.31 1.74 o
3 -3 6 87.54 86.00 2.34 o
4 3 6 1.40 1.17 0.54 o
4 -3 6 1.41 2.82 0.85 o
5 3 6 62.45 51.67 1.53 o
5 -3 6 62.44 51.49 1.56 o
6 3 6 35.19 31.80 1.28 o
6 -3 6 35.13 32.86 1.33 o
7 3 6 1.79 2.59 1.17 o
7 -3 6 1.79 1.17 1.16 <
8 3 6 4.63 2.95 1.03 o
8 -3 6 4.61 4.98 1.24 o
9 3 6 0.72 0.30 0.83 <
9 -3 6 0.73 4.49 1.23 o
10 3 6 2.18 1.59 1.04 <
10 -3 6 2.19 4.03 1.88 o
11 3 6 3.71 5.05 1.28 o
11 -3 6 3.72 7.65 2.10 o
12 3 6 3.62 3.95 1.47 o
12 -3 6 3.62 2.81 2.14 <
13 3 6 12.46 10.33 1.81 o
13 -3 6 12.48 14.82 2.40 o
14 -3 6 3.95 4.40 3.49 <
15 -3 6 0.13 -9.09 4.05 <
-14 4 6 0.12 -3.39 3.19 <
-14 -4 6 0.13 -4.27 4.00 <
-13 4 6 0.16 1.48 2.02 <
-13 -4 6 0.15 8.83 3.60 o
-12 4 6 3.47 -6.00 2.70 <
-12 -4 6 3.45 1.25 3.11 <
-11 4 6 30.20 27.93 3.27 o
-11 -4 6 30.21 38.22 3.53 o
-10 4 6 7.12 6.68 2.31 o
-10 -4 6 7.11 17.11 3.45 o
-9 4 6 42.43 43.95 3.62 o
-9 -4 6 42.43 55.93 4.08 o
-8 4 6 1.45 1.89 1.20 <
-8 -4 6 1.43 4.90 2.75 <
-7 4 6 5.63 6.08 0.81 o
-7 -4 6 5.64 7.99 2.65 o
-6 4 6 0.15 -2.37 0.80 <
-6 -4 6 0.16 -3.93 1.65 <
-5 4 6 6.61 6.26 1.22 o
-5 -4 6 6.60 8.30 1.68 o
-4 4 6 3.89 2.77 1.36 o
-4 -4 6 3.88 5.23 1.67 o
-3 4 6 30.06 27.66 1.66 o
-3 -4 6 30.08 28.69 1.89 o
-2 4 6 102.81 97.73 2.66 o
-2 -4 6 102.78 120.73 3.34 o
-1 4 6 82.14 76.91 3.16 o
-1 -4 6 82.07 81.46 2.61 o
0 4 6 55.77 53.20 2.57 o
0 -4 6 55.71 54.07 2.20 o
1 4 6 31.50 29.28 1.91 o
1 -4 6 31.53 31.51 1.76 o
2 4 6 23.11 18.85 1.57 o
2 -4 6 23.14 23.36 1.55 o
3 4 6 5.11 5.11 1.23 o
3 -4 6 5.10 6.79 1.25 o
4 4 6 0.47 3.70 1.74 o
4 -4 6 0.47 0.19 1.14 <
5 -4 6 9.53 11.10 1.31 o
6 -4 6 1.70 2.03 1.20 <
7 -4 6 3.18 1.60 2.44 <
8 -4 6 21.74 24.94 1.67 o
9 -4 6 1.08 -0.42 1.74 <
10 -4 6 4.83 3.94 1.75 o
11 -4 6 3.70 5.69 2.17 o
12 -4 6 7.36 7.55 3.55 o
13 -4 6 10.14 17.09 3.85 o
14 -4 6 3.12 -0.51 3.67 <
-12 5 6 8.78 8.84 2.58 o
-11 5 6 13.55 10.05 2.49 o
-11 -5 6 13.52 15.36 3.16 o
-10 5 6 13.17 12.89 2.45 o
-10 -5 6 13.14 26.74 3.87 o
-9 5 6 5.46 6.29 2.34 o
-8 5 6 6.99 3.49 2.55 <
-7 -5 6 12.67 28.83 3.44 o
-6 5 6 2.33 6.38 2.40 o
-6 -5 6 2.32 4.40 2.37 <
-5 5 6 1.83 4.15 2.04 o
-5 -5 6 1.82 1.23 2.69 <
-4 5 6 21.61 23.50 2.87 o
-4 -5 6 21.59 24.36 2.84 o
-3 5 6 4.83 4.30 2.12 o
-3 -5 6 4.85 4.96 2.17 o
-2 5 6 1.79 -0.60 2.14 <
-2 -5 6 1.78 -4.56 2.33 <
-1 5 6 5.09 3.09 1.81 <
-1 -5 6 5.10 6.10 1.68 o
0 5 6 6.61 9.52 2.01 o
0 -5 6 6.59 6.27 1.47 o
1 5 6 2.87 3.77 1.89 <
1 -5 6 2.88 0.60 2.33 <
2 5 6 1.33 3.77 1.54 o
2 -5 6 1.34 5.52 1.25 o
3 -5 6 3.16 6.57 1.45 o
4 -5 6 0.07 0.61 1.43 <
5 -5 6 0.34 -1.49 1.60 <
6 -5 6 1.91 4.87 1.46 o
7 -5 6 1.56 0.28 1.84 <
8 -5 6 0.47 -2.36 1.54 <
10 -5 6 2.93 -2.66 2.48 <
11 -5 6 2.61 3.60 3.58 <
12 -5 6 0.54 -1.72 4.11 <
-9 6 6 3.12 10.22 3.60 o
-8 6 6 1.50 -6.00 3.29 <
-8 -6 6 1.49 2.65 2.81 <
-7 6 6 4.14 8.12 2.45 o
-7 -6 6 4.15 6.73 3.75 <
-6 6 6 5.53 6.77 3.06 o
-6 -6 6 5.54 -0.19 3.55 <
-5 6 6 27.26 21.98 3.32 o
-5 -6 6 27.31 37.31 3.51 o
-4 6 6 5.00 6.35 2.50 o
-4 -6 6 5.02 8.09 3.19 o
-3 6 6 3.53 3.06 2.16 <
-3 -6 6 3.54 8.07 2.49 o
-2 6 6 2.79 2.64 2.54 <
-2 -6 6 2.77 -4.00 1.95 <
-1 6 6 2.63 1.09 2.55 <
-1 -6 6 2.60 1.81 1.86 <
0 6 6 8.60 16.10 2.46 o
0 -6 6 8.58 12.86 1.61 o
1 -6 6 3.53 8.95 1.75 o
2 -6 6 32.76 42.38 2.32 o
3 -6 6 28.66 37.06 2.19 o
4 -6 6 8.70 13.87 1.75 o
5 -6 6 5.38 6.23 2.01 o
6 -6 6 2.68 -2.98 3.30 <
7 -6 6 5.10 10.42 3.39 o
8 -6 6 0.88 8.20 3.76 o
9 -6 6 1.00 -2.05 3.23 <
-3 7 6 4.03 7.50 3.31 o
-3 -7 6 4.04 9.09 3.10 o
-2 -7 6 5.13 7.98 3.42 o
-1 -7 6 3.73 4.14 2.32 <
0 -7 6 24.21 25.00 4.11 o
1 -7 6 18.69 31.31 2.84 o
2 -7 6 7.47 15.31 2.49 o
3 -7 6 11.41 7.58 3.61 o
-15 0 7 3.28 1.41 2.50 <
-14 0 7 7.50 6.60 2.45 o
-13 0 7 1.19 0.16 1.70 <
-12 0 7 5.17 7.76 1.73 o
-11 0 7 13.98 12.44 1.83 o
-10 0 7 0.01 -1.64 1.66 <
-9 0 7 3.08 0.85 1.24 <
-8 0 7 77.66 75.76 2.73 o
-7 0 7 35.32 43.64 2.65 o
-6 0 7 1.12 1.42 1.50 <
-5 0 7 272.44 234.97 5.01 o
-4 0 7 4.45 2.72 1.29 o
-3 0 7 180.71 156.70 3.77 o
-2 0 7 87.66 82.53 2.57 o
-1 0 7 46.98 45.11 1.95 o
0 0 7 4.36 4.83 0.88 o
1 0 7 47.07 42.13 1.47 o
2 0 7 264.73 268.86 4.53 o
3 0 7 346.37 357.49 6.58 o
4 0 7 1.12 2.22 1.25 <
5 0 7 214.68 217.62 4.45 o
6 0 7 0.02 -2.79 0.98 <
7 0 7 2.53 1.39 0.97 <
8 0 7 10.20 12.59 1.34 o
9 0 7 2.59 3.22 1.07 o
10 0 7 4.02 7.94 1.27 o
11 0 7 10.02 12.18 1.64 o
12 0 7 0.00 0.80 1.37 <
13 0 7 0.95 3.60 1.69 o
14 0 7 2.01 2.01 1.69 <
15 0 7 6.62 5.92 2.39 o
16 0 7 1.15 9.33 3.87 o
-15 1 7 0.47 -0.88 2.20 <
-15 -1 7 0.48 0.25 2.78 <
-14 -1 7 4.69 8.84 2.50 o
-13 1 7 20.88 23.83 2.26 o
-13 -1 7 20.90 28.73 3.55 o
-12 1 7 29.60 31.12 2.41 o
-12 -1 7 29.66 35.07 3.48 o
-11 1 7 25.36 26.28 2.27 o
-11 -1 7 25.36 33.02 3.23 o
-10 1 7 24.36 26.80 1.75 o
-10 -1 7 24.33 33.26 3.15 o
-9 1 7 13.39 12.22 1.34 o
-9 -1 7 13.51 17.84 1.92 o
-8 1 7 27.17 24.83 2.06 o
-8 -1 7 27.16 23.59 1.62 o
-7 1 7 8.83 9.12 1.42 o
-7 -1 7 8.83 11.80 1.63 o
-6 1 7 3.15 2.74 1.21 o
-6 -1 7 3.15 4.07 1.29 o
-5 1 7 28.22 27.32 1.62 o
-5 -1 7 28.16 28.38 1.72 o
-4 1 7 38.13 36.77 2.38 o
-4 -1 7 38.00 34.79 1.81 o
-3 1 7 43.87 35.29 2.09 o
-3 -1 7 43.87 35.98 1.89 o
-2 1 7 17.13 18.83 1.93 o
-2 -1 7 17.11 15.87 1.56 o
-1 1 7 2.89 1.25 1.13 <
-1 -1 7 2.87 3.82 1.08 o
0 1 7 174.23 173.65 3.25 o
0 -1 7 173.93 179.68 4.11 o
1 1 7 230.10 231.79 4.57 o
1 -1 7 230.09 226.42 4.07 o
2 1 7 82.55 74.95 2.59 o
2 -1 7 82.70 82.33 2.56 o
3 1 7 150.02 150.01 3.12 o
3 -1 7 149.70 159.36 3.82 o
4 1 7 44.12 46.37 1.29 o
4 -1 7 44.09 44.95 1.97 o
5 1 7 47.54 51.09 1.73 o
5 -1 7 47.56 46.01 1.38 o
6 1 7 0.82 0.75 0.82 <
6 -1 7 0.82 0.13 0.81 <
7 1 7 18.97 20.18 1.22 o
7 -1 7 19.02 18.67 1.10 o
8 1 7 26.16 25.64 1.33 o
8 -1 7 26.16 28.10 1.79 o
9 1 7 2.84 2.49 0.90 o
9 -1 7 2.86 3.87 1.51 o
10 1 7 22.15 20.34 1.33 o
10 -1 7 22.12 21.08 1.94 o
11 1 7 20.40 17.85 1.49 o
11 -1 7 20.38 23.20 2.17 o
12 1 7 15.13 14.71 1.50 o
12 -1 7 15.14 22.33 2.26 o
13 1 7 4.97 7.01 1.47 o
13 -1 7 4.97 8.80 2.04 o
14 1 7 6.84 11.03 1.92 o
14 -1 7 6.84 11.78 2.29 o
15 1 7 0.39 5.73 2.98 <
15 -1 7 0.39 3.24 2.56 <
-15 2 7 8.82 7.23 3.42 o
-15 -2 7 8.83 14.14 3.75 o
-14 2 7 7.95 7.16 2.33 o
-14 -2 7 7.93 12.42 3.30 o
-13 2 7 35.20 48.31 4.24 o
-13 -2 7 35.26 39.06 3.53 o
-12 2 7 14.53 11.94 1.48 o
-12 -2 7 14.53 12.22 3.16 o
-11 2 7 36.89 35.67 1.85 o
-11 -2 7 36.81 36.34 3.55 o
-10 2 7 9.13 9.67 1.07 o
-10 -2 7 9.11 5.85 2.78 o
-9 2 7 2.64 3.42 0.91 o
-9 -2 7 2.62 -0.75 2.47 <
-8 2 7 3.30 2.52 0.74 o
-8 -2 7 3.29 -1.90 1.65 <
-7 2 7 15.70 15.30 1.55 o
-7 -2 7 15.72 16.06 1.68 o
-6 2 7 16.13 16.23 1.13 o
-6 -2 7 16.14 15.10 1.72 o
-5 2 7 3.46 2.47 0.99 o
-5 -2 7 3.48 3.28 1.41 o
-4 2 7 32.12 33.03 1.43 o
-4 -2 7 32.19 32.49 1.79 o
-3 2 7 15.58 18.21 1.39 o
-3 -2 7 15.64 14.97 1.51 o
-2 2 7 25.60 25.81 1.42 o
-2 -2 7 25.51 26.07 1.59 o
-1 2 7 68.53 63.25 2.76 o
-1 -2 7 68.64 72.35 2.64 o
0 2 7 23.89 24.05 1.66 o
0 -2 7 23.82 24.18 1.73 o
1 2 7 40.58 44.37 2.19 o
1 -2 7 40.52 41.89 1.98 o
2 2 7 1.84 2.88 1.11 o
2 -2 7 1.83 1.56 1.06 <
3 2 7 11.78 11.51 0.87 o
3 -2 7 11.75 11.60 1.44 o
4 2 7 27.77 26.50 1.24 o
4 -2 7 27.79 30.81 1.90 o
5 2 7 65.78 64.05 2.40 o
5 -2 7 65.77 68.42 1.82 o
6 2 7 41.94 38.50 1.34 o
6 -2 7 41.86 39.90 1.40 o
7 2 7 23.22 24.40 1.48 o
7 -2 7 23.25 22.58 1.41 o
8 2 7 0.44 0.60 0.94 <
8 -2 7 0.43 4.23 1.12 o
9 2 7 11.28 8.03 0.99 o
9 -2 7 11.23 11.69 1.76 o
10 2 7 3.30 6.84 1.68 o
10 -2 7 3.31 0.40 1.59 <
11 2 7 0.04 3.01 1.79 <
11 -2 7 0.04 -1.89 1.70 <
12 2 7 5.25 6.52 2.05 o
12 -2 7 5.25 3.73 1.87 <
13 2 7 1.13 1.34 2.02 <
13 -2 7 1.13 3.55 2.30 <
14 2 7 3.67 1.20 2.13 <
14 -2 7 3.67 -3.32 3.39 <
15 -2 7 1.91 2.17 3.19 <
-14 3 7 32.74 30.45 3.50 o
-14 -3 7 32.70 34.84 4.51 o
-13 3 7 2.39 -2.44 2.85 <
-13 -3 7 2.38 4.10 3.32 <
-12 3 7 6.63 14.23 2.92 o
-12 -3 7 6.63 6.57 3.09 o
-11 3 7 4.48 5.14 2.11 o
-11 -3 7 4.48 4.21 3.30 <
-10 3 7 3.13 3.04 2.10 <
-10 -3 7 3.10 8.55 3.20 o
-9 3 7 8.63 6.39 1.31 o
-9 -3 7 8.58 7.04 2.96 o
-8 3 7 16.08 15.29 1.44 o
-8 -3 7 16.12 16.46 2.80 o
-7 3 7 29.08 29.68 1.65 o
-7 -3 7 29.19 31.79 2.22 o
-6 3 7 0.71 -0.48 0.82 <
-6 -3 7 0.72 -3.70 1.35 <
-5 3 7 5.29 5.63 1.21 o
-5 -3 7 5.28 4.31 1.83 o
-4 3 7 6.86 6.54 1.12 o
-4 -3 7 6.82 8.64 1.90 o
-3 3 7 3.48 5.64 1.30 o
-3 -3 7 3.45 2.16 1.49 <
-2 3 7 3.79 4.06 1.17 o
-2 -3 7 3.77 2.29 1.91 <
-1 3 7 6.79 7.21 1.17 o
-1 -3 7 6.77 4.21 1.41 o
0 3 7 2.09 -0.45 0.78 <
0 -3 7 2.09 3.87 1.35 o
1 3 7 4.95 3.42 1.28 o
1 -3 7 4.95 1.31 1.19 <
2 3 7 14.94 15.66 1.10 o
2 -3 7 14.92 15.13 1.62 o
3 3 7 4.75 4.12 0.76 o
3 -3 7 4.73 1.34 1.11 <
4 3 7 17.00 17.03 1.04 o
4 -3 7 16.97 17.65 1.23 o
5 3 7 0.16 0.79 0.86 <
5 -3 7 0.16 -0.89 0.92 <
6 3 7 14.94 14.73 1.16 o
6 -3 7 14.97 16.95 1.28 o
7 3 7 3.23 5.19 0.90 o
7 -3 7 3.23 3.80 1.27 o
8 3 7 4.56 5.06 1.04 o
8 -3 7 4.55 4.90 1.92 o
9 3 7 0.33 1.70 1.13 <
9 -3 7 0.32 2.79 2.06 <
10 3 7 5.81 7.66 1.46 o
10 -3 7 5.81 -1.91 2.89 <
11 3 7 1.09 0.64 1.37 <
11 -3 7 1.09 -1.55 2.22 <
12 -3 7 1.52 1.18 2.68 <
13 -3 7 9.78 11.40 2.80 o
14 -3 7 0.73 -3.79 3.90 <
-12 4 7 9.27 8.85 3.09 o
-12 -4 7 9.30 7.19 3.62 <
-11 4 7 13.03 18.05 3.21 o
-11 -4 7 13.06 4.09 3.47 <
-10 4 7 5.74 5.62 2.41 o
-10 -4 7 5.71 -1.55 3.11 <
-9 4 7 44.91 36.33 3.52 o
-9 -4 7 44.87 46.16 4.06 o
-8 4 7 6.31 1.23 2.24 <
-8 -4 7 6.28 6.96 2.91 o
-7 4 7 33.07 36.40 3.39 o
-7 -4 7 33.07 38.41 3.21 o
-6 4 7 17.72 13.38 2.13 o
-6 -4 7 17.72 21.08 3.03 o
-5 4 7 1.78 -3.67 2.03 <
-5 -4 7 1.77 2.75 2.45 <
-4 4 7 1.70 -1.04 1.84 <
-4 -4 7 1.69 5.76 2.44 o
-3 4 7 1.16 6.32 1.42 o
-3 -4 7 1.13 -3.74 2.38 <
-2 4 7 43.34 43.38 1.85 o
-2 -4 7 43.28 44.95 3.05 o
-1 4 7 13.53 9.71 1.76 o
-1 -4 7 13.51 16.86 1.72 o
0 4 7 70.83 67.83 2.99 o
0 -4 7 70.87 85.10 2.90 o
1 4 7 31.87 32.01 2.27 o
1 -4 7 31.88 32.11 1.92 o
2 4 7 6.22 4.00 2.25 <
2 -4 7 6.23 3.10 1.42 o
3 4 7 5.50 4.38 1.48 o
3 -4 7 5.53 6.04 1.23 o
4 4 7 2.90 -1.61 2.11 <
4 -4 7 2.90 4.32 1.42 o
5 4 7 4.79 2.51 1.85 <
5 -4 7 4.81 -1.60 1.31 <
6 -4 7 17.09 17.05 1.42 o
7 -4 7 7.73 6.30 1.78 o
8 -4 7 13.50 13.50 2.13 o
9 -4 7 2.70 -5.81 3.17 <
10 -4 7 1.98 7.24 3.55 o
12 -4 7 1.46 2.03 3.75 <
-10 5 7 0.06 -1.15 2.97 <
-10 -5 7 0.06 0.31 2.68 <
-9 5 7 0.77 -2.83 2.84 <
-9 -5 7 0.76 1.54 3.52 <
-8 5 7 8.53 7.35 2.27 o
-8 -5 7 8.52 17.95 3.97 o
-7 5 7 24.98 28.90 3.51 o
-7 -5 7 24.96 32.21 3.24 o
-6 5 7 1.23 -3.18 2.52 <
-6 -5 7 1.22 3.73 3.24 <
-5 5 7 0.77 3.21 2.43 <
-5 -5 7 0.77 2.31 3.05 <
-4 5 7 16.64 18.62 2.76 o
-4 -5 7 16.70 28.85 3.36 o
-3 5 7 17.51 20.34 2.67 o
-3 -5 7 17.56 19.51 2.70 o
-2 5 7 15.45 15.20 2.64 o
-2 -5 7 15.47 20.23 2.11 o
-1 5 7 3.41 4.98 3.06 <
-1 -5 7 3.42 2.46 1.73 <
0 5 7 27.28 25.32 2.52 o
0 -5 7 27.31 26.42 2.06 o
1 5 7 47.83 41.28 2.75 o
1 -5 7 47.86 51.74 2.43 o
2 5 7 37.65 27.46 2.61 o
2 -5 7 37.51 36.26 2.19 o
3 -5 7 2.58 2.39 1.48 <
4 -5 7 32.95 39.65 2.17 o
5 -5 7 45.12 57.01 2.59 o
6 -5 7 11.86 13.45 1.95 o
7 -5 7 12.47 23.34 2.45 o
8 -5 7 3.72 -1.37 1.74 <
9 -5 7 1.05 -2.58 3.61 <
10 -5 7 1.09 -1.16 3.76 <
-7 6 7 6.53 7.09 3.50 o
-7 -6 7 6.55 18.23 4.39 o
-6 6 7 1.82 0.06 3.03 <
-6 -6 7 1.85 -0.57 3.54 <
-5 6 7 15.52 20.82 3.52 o
-5 -6 7 15.52 18.81 4.17 o
-4 6 7 0.61 -0.09 2.91 <
-4 -6 7 0.61 0.76 2.91 <
-3 6 7 5.96 9.20 3.09 o
-3 -6 7 5.96 7.33 3.23 o
-2 6 7 4.53 -1.29 2.80 <
-2 -6 7 4.55 4.16 3.08 <
-1 6 7 3.69 3.27 2.33 <
-1 -6 7 3.70 10.42 3.30 o
0 6 7 1.01 -5.15 2.76 <
0 -6 7 1.01 0.19 1.88 <
1 -6 7 5.82 19.02 2.26 o
2 -6 7 21.53 29.65 2.66 o
3 -6 7 31.77 48.66 3.06 o
4 -6 7 11.36 26.21 2.73 o
5 -6 7 15.31 23.70 2.38 o
6 -6 7 3.39 5.68 4.01 <
7 -6 7 0.42 -11.24 4.08 <
-14 0 8 5.08 8.07 2.77 o
-13 0 8 0.10 -0.81 1.90 <
-12 0 8 0.23 -0.31 1.99 <
-11 0 8 10.09 11.31 2.22 o
-10 0 8 15.98 19.64 2.25 o
-9 0 8 2.31 -2.81 2.00 <
-8 0 8 7.64 7.48 1.56 o
-7 0 8 5.46 8.62 2.10 o
-6 0 8 3.66 4.01 1.45 o
-5 0 8 10.66 15.25 2.21 o
-4 0 8 1.27 2.09 1.61 <
-3 0 8 9.37 6.58 2.24 o
-2 0 8 20.70 23.51 2.40 o
-1 0 8 9.03 7.80 1.52 o
0 0 8 31.78 31.52 1.82 o
1 0 8 6.89 8.24 1.36 o
2 0 8 55.51 54.43 2.19 o
3 0 8 59.55 55.20 2.76 o
4 0 8 257.91 258.20 5.26 o
5 0 8 134.98 134.91 3.45 o
6 0 8 18.45 20.40 1.60 o
7 0 8 0.22 2.96 1.32 o
8 0 8 4.06 0.39 1.26 <
9 0 8 8.99 4.60 1.56 o
10 0 8 23.73 24.10 1.87 o
11 0 8 0.03 -3.58 1.69 <
12 0 8 6.26 5.33 1.88 o
13 0 8 27.39 27.54 2.51 o
14 0 8 4.03 9.05 2.29 o
-14 -1 8 0.73 1.78 2.83 <
-13 1 8 1.86 1.57 2.23 <
-13 -1 8 1.84 -4.08 2.27 <
-12 1 8 13.91 20.34 2.51 o
-12 -1 8 13.86 16.57 2.72 o
-11 1 8 31.90 41.09 3.02 o
-11 -1 8 31.89 43.71 3.71 o
-10 1 8 12.86 11.78 2.11 o
-10 -1 8 12.91 10.62 2.43 o
-9 1 8 13.17 15.48 1.63 o
-9 -1 8 13.20 17.79 2.75 o
-8 1 8 14.98 17.79 1.56 o
-8 -1 8 14.93 10.50 2.20 o
-7 1 8 0.57 2.25 1.15 <
-7 -1 8 0.57 -0.40 1.97 <
-6 1 8 5.50 6.45 1.06 o
-6 -1 8 5.49 5.95 1.65 o
-5 1 8 24.34 24.96 2.12 o
-5 -1 8 24.37 30.49 2.58 o
-4 1 8 17.20 21.49 2.51 o
-4 -1 8 17.14 14.95 2.58 o
-3 1 8 26.19 22.34 2.30 o
-3 -1 8 26.22 28.25 2.86 o
-2 1 8 49.27 44.84 2.68 o
-2 -1 8 49.26 51.41 3.13 o
-1 1 8 100.50 94.73 2.71 o
-1 -1 8 100.42 103.39 4.14 o
0 1 8 14.76 14.22 1.43 o
0 -1 8 14.71 9.36 1.59 o
1 1 8 50.85 45.26 2.23 o
1 -1 8 50.84 59.95 2.40 o
2 1 8 7.72 9.31 1.52 o
2 -1 8 7.66 7.07 1.29 o
3 1 8 0.59 0.13 0.90 <
3 -1 8 0.58 -1.78 1.20 <
4 1 8 78.08 76.14 1.86 o
4 -1 8 78.02 76.88 2.66 o
5 1 8 61.26 53.76 1.87 o
5 -1 8 61.16 57.51 1.79 o
6 1 8 12.79 11.80 1.26 o
6 -1 8 12.82 11.41 1.24 o
7 1 8 127.93 122.55 3.01 o
7 -1 8 127.92 123.87 3.90 o
8 1 8 13.54 17.68 1.40 o
8 -1 8 13.49 17.22 1.86 o
9 1 8 10.63 12.02 1.33 o
9 -1 8 10.62 13.46 1.85 o
10 1 8 10.39 9.59 1.27 o
10 -1 8 10.41 10.62 1.87 o
11 1 8 0.14 -2.81 1.41 <
11 -1 8 0.14 -1.58 1.83 <
12 1 8 7.55 9.63 1.65 o
12 -1 8 7.54 12.67 2.23 o
13 1 8 1.80 -1.81 2.62 <
13 -1 8 1.80 0.62 2.27 <
14 1 8 1.17 8.00 2.48 o
14 -1 8 1.17 -2.41 3.51 <
-13 2 8 54.14 59.97 4.93 o
-13 -2 8 54.19 59.39 4.78 o
-12 2 8 39.14 42.03 3.88 o
-12 -2 8 39.15 49.72 4.23 o
-11 2 8 50.63 59.51 4.48 o
-11 -2 8 50.55 60.59 4.48 o
-10 2 8 41.18 40.47 2.28 o
-10 -2 8 41.22 46.56 4.08 o
-9 2 8 36.81 38.45 1.63 o
-9 -2 8 36.85 40.93 3.79 o
-8 2 8 14.25 13.31 1.50 o
-8 -2 8 14.20 14.45 2.84 o
-7 2 8 18.36 18.35 1.50 o
-7 -2 8 18.39 22.23 2.55 o
-6 2 8 15.77 14.82 1.36 o
-6 -2 8 15.78 9.99 2.51 o
-5 2 8 55.29 55.83 2.16 o
-5 -2 8 55.43 56.06 3.46 o
-4 2 8 6.48 10.97 1.88 o
-4 -2 8 6.52 5.98 2.20 o
-3 2 8 2.28 3.17 1.37 o
-3 -2 8 2.26 6.35 2.03 o
-2 2 8 4.25 3.63 1.16 o
-2 -2 8 4.26 2.57 1.98 <
-1 2 8 28.29 27.75 2.23 o
-1 -2 8 28.22 24.01 3.10 o
0 2 8 12.53 10.24 1.47 o
0 -2 8 12.57 15.44 1.96 o
1 2 8 15.92 13.22 1.76 o
1 -2 8 15.88 12.59 1.52 o
2 2 8 12.58 10.74 1.59 o
2 -2 8 12.52 8.03 1.78 o
3 2 8 14.21 12.69 1.16 o
3 -2 8 14.20 13.57 1.68 o
4 2 8 18.21 16.96 1.10 o
4 -2 8 18.17 17.70 1.60 o
5 2 8 14.09 16.92 1.64 o
5 -2 8 14.08 13.33 1.07 o
6 2 8 2.01 3.67 1.21 o
6 -2 8 2.01 3.98 1.10 o
7 2 8 10.16 8.60 1.32 o
7 -2 8 10.17 7.79 1.74 o
8 2 8 12.72 10.47 1.78 o
8 -2 8 12.67 17.19 1.95 o
9 2 8 4.33 5.22 1.58 o
9 -2 8 4.32 6.83 1.93 o
10 2 8 0.54 1.52 1.74 <
10 -2 8 0.54 -7.67 2.07 <
11 2 8 0.71 -0.87 1.97 <
11 -2 8 0.71 5.39 2.00 o
12 2 8 1.96 6.82 2.34 o
12 -2 8 1.95 -2.22 1.71 <
13 -2 8 0.79 -4.88 3.47 <
-12 3 8 11.76 29.54 3.91 o
-12 -3 8 11.78 13.54 3.69 o
-11 3 8 8.75 12.74 2.44 o
-11 -3 8 8.79 5.69 3.33 <
-10 3 8 2.94 -1.32 2.41 <
-10 -3 8 2.94 7.38 3.40 o
-9 3 8 0.03 1.90 2.20 <
-9 -3 8 0.03 -3.58 3.52 <
-8 3 8 47.76 46.25 3.72 o
-8 -3 8 47.69 58.20 4.13 o
-7 3 8 5.14 5.53 2.14 o
-7 -3 8 5.13 -3.44 2.82 <
-6 3 8 44.72 47.49 3.38 o
-6 -3 8 44.62 40.84 3.61 o
-5 3 8 55.50 50.18 3.49 o
-5 -3 8 55.46 61.23 3.41 o
-4 3 8 21.71 21.23 1.64 o
-4 -3 8 21.73 25.87 3.01 o
-3 3 8 0.26 0.98 1.09 <
-3 -3 8 0.25 -2.35 2.22 <
-2 3 8 6.38 4.64 1.46 o
-2 -3 8 6.37 6.49 3.54 <
-1 3 8 2.45 2.89 1.75 <
-1 -3 8 2.45 1.97 1.16 <
0 3 8 2.44 5.01 1.79 o
0 -3 8 2.42 1.58 1.38 <
1 3 8 22.18 26.47 2.08 o
1 -3 8 22.11 31.12 2.08 o
2 3 8 27.20 31.36 1.59 o
2 -3 8 27.25 27.01 2.12 o
3 3 8 0.56 -1.53 0.97 <
3 -3 8 0.56 1.34 1.44 <
4 3 8 3.29 2.41 0.92 o
4 -3 8 3.27 7.99 1.42 o
5 3 8 0.73 2.04 1.19 <
5 -3 8 0.72 1.20 1.43 <
6 3 8 1.35 0.88 0.97 <
6 -3 8 1.36 0.57 1.45 <
7 3 8 1.48 -1.71 1.07 <
7 -3 8 1.48 4.67 1.48 o
8 3 8 1.90 -1.18 1.16 <
8 -3 8 1.91 5.43 2.18 o
9 -3 8 3.98 8.31 2.36 o
11 -3 8 0.61 1.16 2.45 <
12 -3 8 1.42 7.66 3.76 o
-11 4 8 5.13 1.92 2.94 <
-11 -4 8 5.15 5.79 3.96 <
-10 4 8 3.65 5.25 2.66 <
-10 -4 8 3.66 3.92 3.71 <
-9 4 8 15.46 21.50 3.22 o
-9 -4 8 15.48 33.52 4.40 o
-8 4 8 0.53 -0.48 2.35 <
-8 -4 8 0.53 1.30 2.37 <
-7 4 8 3.72 9.18 2.65 o
-7 -4 8 3.68 1.89 3.16 <
-6 4 8 0.18 0.46 1.84 <
-6 -4 8 0.17 -8.04 3.10 <
-5 4 8 0.71 -1.71 2.23 <
-5 -4 8 0.71 -3.75 2.85 <
-4 4 8 3.02 0.88 1.72 <
-4 -4 8 3.02 -2.26 2.30 <
-3 4 8 5.86 7.46 1.75 o
-3 -4 8 5.86 3.24 2.66 <
-2 4 8 9.45 9.17 1.83 o
-2 -4 8 9.45 10.70 2.36 o
-1 4 8 17.08 19.46 2.67 o
-1 -4 8 17.13 19.84 2.19 o
0 4 8 29.25 33.78 2.57 o
0 -4 8 29.28 34.85 2.46 o
1 4 8 5.00 2.14 3.76 <
1 -4 8 5.00 1.44 2.63 <
2 4 8 3.79 1.05 1.80 <
2 -4 8 3.79 2.14 1.80 <
3 4 8 0.90 4.90 1.65 o
3 -4 8 0.89 2.08 1.61 <
4 -4 8 0.39 1.82 1.49 <
5 -4 8 0.07 -4.80 1.56 <
6 -4 8 9.13 13.73 1.94 o
7 -4 8 37.86 48.09 2.57 o
8 -4 8 24.96 24.10 4.08 o
9 -4 8 9.79 20.97 3.27 o
10 -4 8 7.78 13.05 4.14 o
11 -4 8 1.49 -1.96 3.98 <
-8 5 8 2.32 0.24 2.84 <
-8 -5 8 2.32 2.01 3.98 <
-7 5 8 2.48 2.50 2.55 <
-7 -5 8 2.47 4.53 2.81 <
-6 5 8 0.31 2.65 2.85 <
-6 -5 8 0.31 12.04 3.95 o
-5 5 8 14.96 16.30 3.12 o
-5 -5 8 14.96 16.56 3.61 o
-4 5 8 7.23 11.47 2.29 o
-4 -5 8 7.26 10.19 3.19 o
-3 5 8 6.94 7.57 2.31 o
-3 -5 8 6.94 5.00 3.25 <
-2 5 8 6.94 3.23 2.00 <
-2 -5 8 6.94 8.34 3.10 o
-1 5 8 3.90 5.82 2.38 o
-1 -5 8 3.91 4.86 2.04 o
0 -5 8 3.48 -0.50 2.52 <
1 5 8 5.67 6.94 2.08 o
1 -5 8 5.67 -5.91 3.60 <
2 5 8 17.85 14.15 2.45 o
2 -5 8 17.88 20.95 2.34 o
3 -5 8 21.32 23.51 2.60 o
4 -5 8 13.40 16.64 2.23 o
5 -5 8 29.63 40.44 3.00 o
6 -5 8 11.85 16.59 2.60 o
7 -5 8 24.26 33.88 2.57 o
8 -5 8 5.96 -7.47 4.35 <
-3 -6 8 5.63 7.92 4.08 <
-2 6 8 0.46 2.97 3.21 <
-2 -6 8 0.46 -1.38 3.94 <
-1 6 8 1.14 4.73 2.81 <
-1 -6 8 1.14 -5.29 3.80 <
0 6 8 4.68 -4.12 3.20 <
0 -6 8 4.70 -2.48 2.77 <
1 -6 8 1.49 2.16 3.88 <
2 -6 8 1.80 -1.42 2.17 <
-13 0 9 2.84 0.06 2.96 <
-12 0 9 1.36 -11.54 3.03 <
-11 0 9 0.93 3.29 2.75 <
-10 0 9 8.91 2.02 2.41 <
-9 0 9 43.41 54.11 3.93 o
-8 0 9 46.29 60.65 4.06 o
-7 0 9 12.78 13.70 2.69 o
-6 0 9 18.96 14.99 2.60 o
-5 0 9 12.27 12.41 2.06 o
-4 0 9 0.28 1.72 2.08 <
-3 0 9 7.20 11.55 2.42 o
-2 0 9 0.03 -0.31 1.98 <
-1 0 9 3.44 2.10 1.21 <
0 0 9 5.24 7.25 1.32 o
1 0 9 0.65 3.45 1.81 <
2 0 9 30.82 34.10 2.83 o
3 0 9 2.72 -1.49 2.18 <
4 0 9 4.82 2.14 1.58 <
5 0 9 4.04 2.42 1.83 <
6 0 9 4.85 1.82 1.83 <
7 0 9 10.10 9.48 1.59 o
8 0 9 6.55 5.00 1.49 o
9 0 9 25.95 28.11 1.95 o
10 0 9 3.77 4.32 1.70 o
11 0 9 0.04 0.11 1.76 <
12 0 9 16.16 15.85 3.19 o
13 0 9 0.92 2.28 2.54 <
-12 1 9 5.95 2.73 2.62 <
-12 -1 9 5.99 3.42 3.12 <
-11 1 9 41.46 46.52 3.69 o
-11 -1 9 41.40 41.53 4.00 o
-10 1 9 79.44 95.70 4.97 o
-10 -1 9 79.50 85.95 4.88 o
-9 1 9 58.07 75.55 4.43 o
-9 -1 9 58.01 65.77 4.50 o
-8 1 9 57.54 59.80 3.80 o
-8 -1 9 57.57 74.18 4.76 o
-7 1 9 8.58 11.96 1.59 o
-7 -1 9 8.55 7.06 2.03 o
-6 1 9 5.49 1.46 1.32 <
-5 1 9 0.54 3.46 1.32 o
-5 -1 9 0.53 -5.34 2.52 <
-4 1 9 6.47 7.12 1.16 o
-4 -1 9 6.46 6.79 2.41 o
-3 1 9 42.83 44.45 3.20 o
-3 -1 9 42.85 47.92 3.37 o
-2 1 9 8.34 6.67 1.25 o
-2 -1 9 8.39 10.54 1.99 o
-1 1 9 2.34 4.97 1.21 o
-1 -1 9 2.35 3.20 1.43 o
0 1 9 3.45 2.22 1.78 <
0 -1 9 3.48 4.12 1.46 o
1 1 9 4.90 -0.60 2.10 <
1 -1 9 4.92 5.74 1.45 o
2 1 9 6.94 5.67 1.33 o
2 -1 9 6.96 6.84 1.47 o
3 1 9 17.19 15.49 1.43 o
3 -1 9 17.13 19.09 1.87 o
4 1 9 9.85 9.34 1.30 o
4 -1 9 9.83 8.07 1.25 o
5 1 9 7.99 7.43 1.40 o
5 -1 9 8.01 11.65 1.72 o
6 1 9 28.32 24.75 1.75 o
6 -1 9 28.35 26.52 2.17 o
7 1 9 66.67 61.21 2.30 o
7 -1 9 66.59 59.28 2.82 o
8 1 9 2.72 1.52 1.23 <
8 -1 9 2.73 2.22 1.69 <
9 -1 9 6.30 5.46 2.57 o
10 1 9 2.07 1.96 2.43 <
10 -1 9 2.08 -0.62 2.02 <
11 1 9 1.22 3.07 2.54 <
11 -1 9 1.22 1.44 2.10 <
12 1 9 2.45 0.83 2.82 <
12 -1 9 2.45 -1.67 2.18 <
-12 2 9 14.00 22.35 3.93 o
-12 -2 9 13.97 9.69 2.97 o
-11 2 9 25.53 27.66 3.65 o
-11 -2 9 25.56 27.92 3.55 o
-10 2 9 2.09 1.59 2.42 <
-10 -2 9 2.09 2.65 3.07 <
-9 2 9 0.55 3.57 2.53 <
-9 -2 9 0.55 -2.62 2.96 <
-8 2 9 1.17 1.73 2.18 <
-8 -2 9 1.19 5.38 2.66 o
-7 2 9 5.32 8.91 2.34 o
-7 -2 9 5.33 4.48 2.86 <
-6 2 9 4.56 6.67 2.12 o
-6 -2 9 4.56 2.46 2.02 <
-5 2 9 33.75 35.95 3.10 o
-5 -2 9 33.67 39.47 3.83 o
-4 2 9 26.79 31.11 2.78 o
-4 -2 9 26.76 27.74 3.45 o
-3 2 9 38.97 39.51 1.75 o
-3 -2 9 38.91 36.25 3.59 o
-2 2 9 41.21 43.61 2.87 o
-2 -2 9 41.21 46.74 3.83 o
-1 2 9 7.28 11.76 1.86 o
-1 -2 9 7.28 3.19 1.51 o
0 2 9 12.84 7.70 2.71 o
0 -2 9 12.84 11.30 1.80 o
1 2 9 39.62 34.01 2.41 o
1 -2 9 39.55 37.04 2.27 o
2 2 9 12.96 14.41 2.10 o
2 -2 9 12.97 12.45 1.97 o
3 2 9 17.02 17.47 1.43 o
3 -2 9 16.95 18.52 1.89 o
4 2 9 26.19 22.86 1.50 o
4 -2 9 26.15 29.16 1.85 o
5 2 9 0.25 -1.01 1.68 <
5 -2 9 0.26 -0.87 1.43 <
6 2 9 16.54 18.61 2.11 o
6 -2 9 16.51 22.16 2.30 o
7 2 9 15.03 13.57 2.08 o
7 -2 9 15.04 11.39 2.12 o
8 2 9 19.62 16.26 2.08 o
8 -2 9 19.61 23.63 2.48 o
9 2 9 18.87 19.43 2.49 o
9 -2 9 18.88 18.83 2.50 o
10 2 9 15.33 10.67 2.47 o
10 -2 9 15.33 15.59 2.31 o
11 -2 9 5.27 2.10 2.81 <
12 -2 9 1.06 24.42 4.50 o
-10 3 9 3.58 5.97 2.68 o
-9 3 9 21.64 21.63 2.82 o
-9 -3 9 21.64 17.22 3.82 o
-8 3 9 9.69 13.76 2.37 o
-8 -3 9 9.71 9.29 2.75 o
-7 3 9 22.37 26.06 2.95 o
-7 -3 9 22.39 33.86 4.07 o
-6 3 9 13.28 16.05 2.72 o
-6 -3 9 13.27 16.88 3.51 o
-5 3 9 10.36 11.10 2.47 o
-5 -3 9 10.36 10.03 2.68 o
-4 3 9 1.04 -1.69 2.01 <
-4 -3 9 1.03 -1.94 2.89 <
-3 3 9 9.52 11.00 2.08 o
-3 -3 9 9.55 9.34 3.09 o
-2 3 9 4.73 4.14 1.85 o
-2 -3 9 4.73 2.33 1.73 <
-1 3 9 19.74 15.95 1.90 o
-1 -3 9 19.74 15.97 2.24 o
0 3 9 3.70 3.65 1.75 o
0 -3 9 3.71 4.66 1.99 o
1 3 9 1.45 2.82 1.79 <
1 -3 9 1.45 4.90 1.79 o
2 3 9 56.36 58.05 2.18 o
2 -3 9 56.42 64.33 3.20 o
3 3 9 0.99 1.52 1.25 <
3 -3 9 0.99 2.42 1.85 <
4 3 9 9.64 7.50 1.46 o
4 -3 9 9.64 8.88 1.72 o
5 -3 9 3.16 3.62 1.53 o
6 -3 9 3.05 1.80 1.68 <
7 -3 9 1.62 -3.57 2.37 <
8 -3 9 0.36 0.41 2.47 <
9 -3 9 8.58 11.38 3.89 o
10 -3 9 40.51 53.59 4.52 o
-8 4 9 2.03 1.28 2.91 <
-8 -4 9 2.03 -8.44 4.05 <
-7 4 9 0.12 4.91 2.90 <
-6 4 9 5.64 5.34 2.57 o
-6 -4 9 5.62 16.43 3.79 o
-5 4 9 10.36 3.83 2.58 <
-5 -4 9 10.39 20.17 3.97 o
-4 4 9 5.77 0.24 2.34 <
-4 -4 9 5.75 2.86 3.17 <
-3 4 9 4.16 1.72 2.23 <
-2 4 9 11.53 18.18 2.63 o
-2 -4 9 11.56 11.71 2.21 o
-1 4 9 0.45 2.28 2.15 <
-1 -4 9 0.46 -4.55 2.07 <
0 4 9 2.54 0.80 1.95 <
0 -4 9 2.53 5.80 2.34 o
1 4 9 3.50 6.45 2.07 o
1 -4 9 3.51 4.83 2.19 o
2 -4 9 7.75 6.27 1.80 o
3 -4 9 3.83 13.12 2.49 o
4 -4 9 6.16 5.52 1.88 o
5 -4 9 0.58 -2.45 1.86 <
6 -4 9 2.94 9.34 2.25 o
7 -4 9 9.46 14.82 2.64 o
8 -4 9 16.64 13.76 4.35 o
-5 5 9 5.69 6.01 3.47 <
-5 -5 9 5.68 3.90 3.82 <
-4 5 9 0.02 3.42 2.79 <
-4 -5 9 0.02 -13.04 4.41 <
-3 5 9 2.48 -1.79 2.45 <
-3 -5 9 2.50 17.99 4.47 o
-2 5 9 4.85 14.59 3.21 o
-1 5 9 4.53 4.80 2.91 <
-1 -5 9 4.52 11.19 4.03 o
0 5 9 1.53 5.51 2.58 o
0 -5 9 1.52 1.82 3.58 <
1 -5 9 0.49 -5.16 3.33 <
2 -5 9 0.95 0.25 2.13 <
3 -5 9 2.18 6.41 2.63 o
4 -5 9 4.25 -3.81 2.45 <
5 -5 9 0.94 12.44 2.83 o
-10 0 10 9.56 3.55 2.35 <
-9 0 10 47.61 55.71 4.35 o
-8 0 10 46.11 50.31 4.29 o
-7 0 10 226.20 265.63 9.80 o
-6 0 10 73.66 84.22 5.21 o
-5 0 10 39.40 50.60 3.73 o
-4 0 10 7.45 8.70 2.84 o
-3 0 10 3.79 1.85 2.62 <
-2 0 10 2.20 1.64 1.60 <
-1 0 10 27.95 31.87 2.18 o
0 0 10 0.04 -3.03 1.55 <
1 0 10 26.17 34.42 2.63 o
2 0 10 5.00 5.48 1.80 o
3 0 10 0.07 1.87 1.54 <
4 0 10 1.91 -5.49 1.57 <
5 0 10 2.99 15.60 2.86 o
6 0 10 9.18 1.53 2.10 <
8 0 10 0.18 0.99 2.71 <
9 0 10 0.52 -3.88 3.05 <
10 0 10 16.45 20.47 3.60 o
-10 1 10 5.43 4.54 2.78 <
-10 -1 10 5.43 0.78 3.37 <
-9 1 10 19.56 23.83 3.62 o
-9 -1 10 19.59 21.82 3.61 o
-8 1 10 17.98 17.17 3.01 o
-8 -1 10 17.97 13.20 3.05 o
-7 1 10 8.33 12.15 2.38 o
-7 -1 10 8.31 5.18 3.16 <
-6 1 10 25.77 30.61 3.38 o
-6 -1 10 25.79 29.25 3.21 o
-5 1 10 12.25 8.43 2.04 o
-5 -1 10 12.26 18.02 3.40 o
-4 1 10 3.33 4.97 2.43 o
-3 1 10 3.39 3.88 1.56 o
-3 -1 10 3.35 7.26 2.87 o
-2 1 10 34.42 36.37 2.31 o
-2 -1 10 34.34 43.72 2.57 o
-1 1 10 35.26 37.75 2.25 o
-1 -1 10 35.27 40.09 2.55 o
0 1 10 12.43 13.00 1.52 o
0 -1 10 12.41 14.79 2.04 o
1 1 10 12.02 15.10 1.90 o
1 -1 10 12.05 10.85 1.88 o
2 1 10 1.09 3.14 1.47 o
2 -1 10 1.10 3.63 1.80 o
3 1 10 1.12 -5.38 2.22 <
3 -1 10 1.10 0.86 1.42 <
4 1 10 2.46 5.54 1.94 o
4 -1 10 2.45 3.49 1.49 o
5 1 10 6.32 0.84 2.16 <
5 -1 10 6.33 3.92 1.67 o
6 1 10 5.35 7.08 2.47 o
6 -1 10 5.33 0.52 1.58 <
7 1 10 5.95 -0.49 2.12 <
7 -1 10 5.95 7.23 1.69 o
8 1 10 2.32 -0.40 2.48 <
8 -1 10 2.32 1.76 1.54 <
9 1 10 3.39 2.54 2.70 <
9 -1 10 3.40 2.54 2.01 <
10 1 10 0.23 -10.77 3.29 <
10 -1 10 0.23 7.31 3.71 <
-9 2 10 0.07 -1.98 2.97 <
-9 -2 10 0.07 -7.18 3.67 <
-8 2 10 0.08 -5.08 2.82 <
-8 -2 10 0.08 -1.81 3.45 <
-7 2 10 7.73 18.58 3.09 o
-7 -2 10 7.73 7.40 2.58 o
-6 2 10 14.85 19.69 2.95 o
-6 -2 10 14.87 22.74 3.69 o
-5 2 10 3.97 4.80 2.33 o
-5 -2 10 3.96 9.83 3.11 o
-4 2 10 1.70 4.85 2.18 o
-4 -2 10 1.70 2.46 2.22 <
-3 2 10 2.51 1.43 2.09 <
-3 -2 10 2.51 2.63 2.95 <
-2 2 10 1.90 7.91 1.68 o
-2 -2 10 1.90 -0.42 1.94 <
-1 2 10 5.54 4.91 1.70 o
-1 -2 10 5.54 4.14 1.86 o
0 -2 10 4.36 7.20 1.93 o
1 2 10 6.05 3.74 1.56 o
1 -2 10 6.03 6.13 1.67 o
2 2 10 11.45 14.17 2.30 o
2 -2 10 11.44 14.01 2.23 o
3 -2 10 4.94 1.93 1.97 <
4 2 10 5.53 1.42 1.52 <
4 -2 10 5.54 4.43 1.48 o
5 -2 10 6.38 7.85 1.97 o
6 2 10 12.32 11.60 2.29 o
6 -2 10 12.32 16.78 2.44 o
7 2 10 5.13 1.98 2.24 <
7 -2 10 5.13 4.15 2.35 <
8 -2 10 4.18 5.00 2.54 <
9 -2 10 12.64 18.10 4.26 o
-8 3 10 6.35 12.57 3.55 o
-7 3 10 2.12 9.32 3.09 o
-7 -3 10 2.13 2.42 3.50 <
-6 3 10 0.50 0.56 1.95 <
-6 -3 10 0.50 3.83 3.69 <
-5 3 10 3.11 -3.26 2.58 <
-5 -3 10 3.08 -0.10 3.41 <
-4 3 10 0.63 3.14 2.10 <
-4 -3 10 0.63 -0.76 2.29 <
-3 3 10 3.30 3.67 2.36 <
-3 -3 10 3.30 5.21 3.33 <
-2 3 10 1.34 3.40 2.34 <
-2 -3 10 1.35 1.30 2.20 <
-1 3 10 2.14 1.28 1.97 <
-1 -3 10 2.13 3.39 2.39 <
0 3 10 7.24 4.26 2.03 o
0 -3 10 7.25 7.64 2.30 o
1 -3 10 0.08 2.54 1.74 <
2 -3 10 1.26 -6.47 2.37 <
3 -3 10 1.35 1.49 1.78 <
4 -3 10 25.72 25.10 2.24 o
5 -3 10 8.45 14.76 3.53 o
6 -3 10 4.37 -5.75 3.75 <
7 -3 10 0.48 -2.00 2.76 <
8 -3 10 0.84 -3.90 4.16 <
-5 4 10 1.59 -5.60 3.09 <
-5 -4 10 1.59 5.23 3.04 <
-4 4 10 16.39 12.65 2.94 o
-4 -4 10 16.37 8.37 4.16 o
-3 4 10 11.71 14.98 3.32 o
-3 -4 10 11.69 17.85 4.43 o
-2 4 10 8.17 12.81 2.80 o
-2 -4 10 8.16 7.47 3.99 <
-1 4 10 2.12 4.32 2.47 <
-1 -4 10 2.14 10.24 3.88 o
0 -4 10 12.19 17.05 4.05 o
2 -4 10 0.43 -0.08 3.06 <
3 -4 10 1.57 -3.88 2.82 <
4 -4 10 1.30 0.35 2.00 <
5 -4 10 5.67 12.10 3.00 o
-7 0 11 14.40 13.48 3.13 o
-6 0 11 10.10 4.35 3.41 <
-5 0 11 24.83 23.84 3.11 o
-4 0 11 0.00 3.56 3.13 <
-3 0 11 0.30 -10.96 3.43 <
-2 0 11 6.16 6.83 2.50 o
-1 0 11 10.46 17.18 2.90 o
3 0 11 18.95 17.25 3.33 o
4 0 11 2.21 3.47 3.08 <
5 0 11 1.29 5.26 3.03 <
6 0 11 0.00 -5.16 3.19 <
-7 1 11 4.62 8.80 2.91 o
-7 -1 11 4.57 0.51 2.58 <
-6 -1 11 16.77 18.03 3.91 o
-5 -1 11 39.94 46.70 4.06 o
-4 -1 11 72.18 85.24 3.78 o
-3 -1 11 23.14 21.46 2.40 o
-2 1 11 2.50 5.62 1.85 o
-2 -1 11 2.50 1.77 1.98 <
-1 1 11 0.31 6.54 2.30 o
-1 -1 11 0.31 -6.04 1.63 <
0 1 11 0.89 6.22 2.14 o
0 -1 11 0.88 -5.28 1.73 <
1 -1 11 2.21 5.84 1.86 o
2 -1 11 5.74 5.33 2.60 o
3 1 11 4.91 -1.78 1.89 <
3 -1 11 4.90 5.78 2.18 o
4 1 11 5.98 10.72 2.75 o
4 -1 11 5.98 -2.18 2.38 <
5 1 11 2.17 -2.90 2.71 <
5 -1 11 2.16 6.01 3.17 <
6 -1 11 2.79 0.42 3.24 <
7 1 11 1.47 7.52 3.24 o
-6 2 11 2.51 10.22 3.42 o
-6 -2 11 2.50 -0.77 2.82 <
-5 2 11 13.35 24.49 3.69 o
-5 -2 11 13.37 13.51 4.24 o
-4 2 11 13.29 10.01 2.51 o
-4 -2 11 13.28 4.49 3.67 <
-3 2 11 7.79 6.03 2.73 o
-3 -2 11 7.77 -0.38 2.20 <
-2 2 11 4.01 2.63 2.43 <
-2 -2 11 4.01 5.66 2.50 o
-1 2 11 2.04 7.99 2.54 o
-1 -2 11 2.03 -1.31 3.44 <
0 -2 11 1.42 3.49 2.38 <
1 -2 11 0.29 -3.82 2.11 <
2 2 11 0.56 -2.79 2.46 <
2 -2 11 0.56 -0.92 1.76 <
3 -2 11 1.56 2.82 1.93 <
4 -2 11 3.89 0.20 2.00 <
5 -2 11 0.61 5.07 3.57 <
6 -2 11 1.40 -8.40 4.23 <
-2 -3 11 3.57 1.05 2.82 <
-1 -3 11 6.34 9.62 3.23 o
0 -3 11 9.92 9.64 3.14 o
1 -3 11 6.82 14.59 3.90 o
2 -3 11 6.38 25.47 4.62 o
