#------------------------------------------------------------------------------
#$Date: 2016-03-04 06:03:59 +0200 (Fri, 04 Mar 2016) $
#$Revision: 177257 $
#$URL: svn://www.crystallography.net/cod/cif/4/03/19/4031920.cif $
#------------------------------------------------------------------------------
#
# This file is available in the Crystallography Open Database (COD),
# http://www.crystallography.net/
#
# All data on this site have been placed in the public domain by the
# contributors.
#
data_4031920
loop_
_publ_author_name
'Durel, Vianney'
'Lalli, Claudia'
'Roisnel, Thierry'
'Weghe, Pierre van de'
_publ_section_title
;
 Synergistic Effect of the TiCl4/p-TsOH Promoter System on the Aza-Prins
 Cyclization.
;
_journal_issue                   3
_journal_name_full               'The Journal of organic chemistry'
_journal_page_first              849
_journal_page_last               859
_journal_paper_doi               10.1021/acs.joc.5b02342
_journal_volume                  81
_journal_year                    2016
_chemical_compound_source        'synthesis as described'
_chemical_formula_moiety         'C14 H17 Cl N2 O4'
_chemical_formula_sum            'C14 H17 Cl N2 O4'
_chemical_formula_weight         312.75
_chemical_name_systematic
;
 ?
;
_space_group_IT_number           2
_symmetry_cell_setting           triclinic
_symmetry_Int_Tables_number      2
_symmetry_space_group_name_Hall  '-P 1'
_symmetry_space_group_name_H-M   'P -1'
_atom_sites_solution_hydrogens   geom
_atom_sites_solution_primary     direct
_atom_sites_solution_secondary   difmap
_audit_conform_dict_location     ftp://ftp.iucr.org/pub/cif_core.dic
_audit_conform_dict_name         cif_core.dic
_audit_conform_dict_version      2.3
_audit_creation_date             2014-11-04T10:10:16-00:00
_audit_creation_method           'WinGX routine CIF_UPDATE'
_cell_angle_alpha                98.485(3)
_cell_angle_beta                 110.240(2)
_cell_angle_gamma                103.210(3)
_cell_formula_units_Z            2
_cell_length_a                   7.6988(4)
_cell_length_b                   10.1399(6)
_cell_length_c                   10.4688(5)
_cell_measurement_reflns_used    3826
_cell_measurement_temperature    150(2)
_cell_measurement_theta_max      27.48
_cell_measurement_theta_min      2.62
_cell_measurement_wavelength     0.71073
_cell_volume                     723.16(7)
_computing_cell_refinement       'Bruker APEX2 (Bruker, 2006)'
_computing_data_collection       'Bruker APEX2 (Bruker, 2006)'
_computing_data_reduction        'Bruker APEX2 (Bruker, 2006)'
_computing_molecular_graphics    'Ortep-3 for Windows (Farrugia, 1997)'
_computing_publication_material
;
          WinGX publication routines (Farrugia, 2012),
          CRYSCALc (T. Roisnel, local program, 2014)
;
_computing_structure_refinement  'SHELXL-97 (Sheldrick, 1997)'
_computing_structure_solution    'SIR97 (Altomare et al., 1999)'
_diffrn_ambient_temperature      150(2)
_diffrn_detector                 'CCD plate'
_diffrn_measured_fraction_theta_full 0.99
_diffrn_measured_fraction_theta_max 0.99
_diffrn_measurement_device_type  'APEXII, Bruker-AXS'
_diffrn_measurement_method       'CCD rotation images, thin slices'
_diffrn_radiation_monochromator  graphite
_diffrn_radiation_probe          x-ray
_diffrn_radiation_type           MoK\a
_diffrn_radiation_wavelength     0.71073
_diffrn_reflns_av_R_equivalents  0.0253
_diffrn_reflns_av_unetI/netI     0.0308
_diffrn_reflns_limit_h_max       9
_diffrn_reflns_limit_h_min       -9
_diffrn_reflns_limit_k_max       13
_diffrn_reflns_limit_k_min       -13
_diffrn_reflns_limit_l_max       13
_diffrn_reflns_limit_l_min       -13
_diffrn_reflns_number            7986
_diffrn_reflns_theta_full        27.48
_diffrn_reflns_theta_max         27.48
_diffrn_reflns_theta_min         2.96
_exptl_absorpt_coefficient_mu    0.282
_exptl_absorpt_correction_T_max  0.891
_exptl_absorpt_correction_T_min  0.817
_exptl_absorpt_correction_type   multi-scan
_exptl_absorpt_process_details
;
  [Sheldrick, G.M. (2002). SADABS Bruker AXS Inc., Madison, Wisconsin, USA]
;
_exptl_crystal_colour            colourless
_exptl_crystal_density_diffrn    1.436
_exptl_crystal_density_method    'not measured'
_exptl_crystal_description       prism
_exptl_crystal_F_000             328
_exptl_crystal_size_max          0.55
_exptl_crystal_size_mid          0.46
_exptl_crystal_size_min          0.41
_refine_diff_density_max         0.302
_refine_diff_density_min         -0.229
_refine_diff_density_rms         0.051
_refine_ls_extinction_method     none
_refine_ls_goodness_of_fit_ref   1.034
_refine_ls_hydrogen_treatment    constr
_refine_ls_matrix_type           full
_refine_ls_number_parameters     191
_refine_ls_number_reflns         3281
_refine_ls_number_restraints     0
_refine_ls_restrained_S_all      1.034
_refine_ls_R_factor_all          0.0412
_refine_ls_R_factor_gt           0.0352
_refine_ls_shift/su_max          0.001
_refine_ls_shift/su_mean         0
_refine_ls_structure_factor_coef Fsqd
_refine_ls_weighting_details
'calc w=1/[\s^2^(Fo^2^)+(0.0393P)^2^+0.3017P] where P=(Fo^2^+2Fc^2^)/3'
_refine_ls_weighting_scheme      calc
_refine_ls_wR_factor_gt          0.0863
_refine_ls_wR_factor_ref         0.0904
_reflns_number_gt                2861
_reflns_number_total             3281
_reflns_threshold_expression     >2sigma(I)
_iucr_refine_instructions_details
;
 .res SHELXL file: job.res
.................................................................
TITL import in P -1
CELL  0.71073   7.6988  10.1399  10.4688   98.485  110.240  103.210
ZERR     2.00   0.0004   0.0006   0.0005    0.003    0.002    0.003
LATT   1
SFAC  C    H    CL   N    O
UNIT  28   34   2    4    8
MERG   2
FMAP   2
PLAN   20
ACTA
BOND   $H
CONF
LIST   4
WPDB  -2
L.S.   4
TEMP  -123.00
WGHT    0.039300    0.301700
FVAR       0.93377
C1    1    0.264042    0.788376    1.094060    11.00000    0.02414    0.02126 =
         0.01478    0.00236    0.00837    0.00081
AFIX  13
H1    2    0.349063    0.814373    1.196497    11.00000   -1.20000
AFIX   0
C2    1    0.263284    0.920943    1.043025    11.00000    0.02399    0.01805 =
         0.01706    0.00094    0.00995    0.00403
AFIX  23
H2A   2    0.398705    0.980555    1.073121    11.00000   -1.20000
H2B   2    0.195972    0.973763    1.086452    11.00000   -1.20000
AFIX   0
C3    1    0.162443    0.888526    0.883867    11.00000    0.02241    0.01769 =
         0.01747    0.00288    0.00832    0.00699
AFIX  23
H3A   2    0.022625    0.840335    0.855117    11.00000   -1.20000
H3B   2    0.174170    0.977273    0.854103    11.00000   -1.20000
AFIX   0
N4    4    0.245157    0.800118    0.812293    11.00000    0.02121    0.01611 =
         0.01229    0.00308    0.00679    0.00619
C5    1    0.144299    0.774423    0.660352    11.00000    0.02045    0.01793 =
         0.01348    0.00295    0.00522    0.00419
AFIX  23
H5A   2    0.003188    0.754232    0.636511    11.00000   -1.20000
H5B   2    0.165391    0.690730    0.613759    11.00000   -1.20000
AFIX   0
C6    1    0.211523    0.896331    0.603858    11.00000    0.01935    0.02062 =
         0.01494    0.00397    0.00630    0.00696
O7    5    0.341211    1.002394    0.669009    11.00000    0.03360    0.02723 =
         0.01892    0.00588    0.00305   -0.00532
O8    5    0.103144    0.868846    0.465661    11.00000    0.02255    0.02116 =
         0.01363    0.00475    0.00557    0.00440
C9    1    0.170228    0.967830    0.393966    11.00000    0.03140    0.02374 =
         0.01804    0.00903    0.01130    0.00984
AFIX 137
H9A   2    0.168946    1.060803    0.434892    11.00000   -1.50000
H9B   2    0.084444    0.938708    0.293977    11.00000   -1.50000
H9C   2    0.302758    0.971060    0.404441    11.00000   -1.50000
AFIX   0
C10   1    0.240143    0.666979    0.854696    11.00000    0.01837    0.01610 =
         0.01485    0.00330    0.00726    0.00442
AFIX  13
H10   2    0.102186    0.608950    0.824010    11.00000   -1.20000
AFIX   0
C11   1    0.342952    0.696273    1.014868    11.00000    0.02478    0.02068 =
         0.01561    0.00612    0.00723    0.00671
AFIX  23
H11A  2    0.328735    0.606258    1.042207    11.00000   -1.20000
H11B  2    0.483236    0.742273    1.042931    11.00000   -1.20000
AFIX   0
C12   1    0.344034    0.587538    0.786832    11.00000    0.01852    0.01832 =
         0.01333    0.00526    0.00575    0.00634
C13   1    0.521104    0.658110    0.785036    11.00000    0.02220    0.01542 =
         0.02874   -0.00019    0.01044    0.00177
AFIX  43
H13   2    0.576063    0.755711    0.826783    11.00000   -1.20000
AFIX   0
C14   1    0.617866    0.588154    0.723407    11.00000    0.01765    0.02129 =
         0.02728    0.00328    0.01047    0.00254
AFIX  43
H14   2    0.738029    0.636593    0.721846    11.00000   -1.20000
AFIX   0
C15   1    0.535219    0.445754    0.664042    11.00000    0.02001    0.02042 =
         0.01419    0.00489    0.00668    0.00921
C16   1    0.361980    0.371331    0.666251    11.00000    0.02273    0.01575 =
         0.01850    0.00358    0.00810    0.00419
AFIX  43
H16   2    0.309977    0.273224    0.626913    11.00000   -1.20000
AFIX   0
C17   1    0.265946    0.443688    0.727459    11.00000    0.01855    0.01820 =
         0.01868    0.00488    0.00863    0.00315
AFIX  43
H17   2    0.145935    0.394730    0.728893    11.00000   -1.20000
AFIX   0
N18   4    0.634865    0.372711    0.593652    11.00000    0.02223    0.02315 =
         0.01941    0.00678    0.00936    0.01020
O19   5    0.788518    0.441001    0.593375    11.00000    0.02211    0.03341 =
         0.03336    0.00269    0.01542    0.00659
O20   5    0.557442    0.247649    0.536387    11.00000    0.04103    0.01977 =
         0.04437    0.00304    0.02635    0.00987
CL1   3    0.018426    0.692998    1.069049    11.00000    0.03472    0.02691 =
         0.03055    0.00069    0.02185   -0.00241
HKLF    4

REM  import in P -1
REM R1 =  0.0352 for   2861 Fo > 4sig(Fo)  and  0.0412 for all   3281 data
REM    191 parameters refined using      0 restraints

END

WGHT      0.0398      0.2993
 REM Highest difference peak   0.30,  deepest hole  -0.23,  1-sigma level   0.05
Q1    1   0.1809  0.8385  0.6405  11.00000  0.05    0.30
Q2    1   0.2839  0.7420  1.0461  11.00000  0.05    0.28
Q3    1   0.2881  0.6256  0.8218  11.00000  0.05    0.28
Q4    1   0.5809  0.5126  0.7024  11.00000  0.05    0.27
Q5    1   0.2884  0.5237  0.7408  11.00000  0.05    0.27
Q6    1   0.2675  0.8562  1.0707  11.00000  0.05    0.26
Q7    1   0.4283  0.4105  0.6357  11.00000  0.05    0.23
Q8    1   0.1944  0.8319  0.8453  11.00000  0.05    0.23
Q9    1   0.2494  0.7347  0.8355  11.00000  0.05    0.23
Q10   1   0.5799  0.4142  0.6367  11.00000  0.05    0.22
Q11   1   0.2096  0.8973  0.9654  11.00000  0.05    0.22
Q12   1   0.2874  0.4135  0.6661  11.00000  0.05    0.22
Q13   1   0.4365  0.6170  0.8092  11.00000  0.05    0.21
Q14   1   0.5899  0.6111  0.7729  11.00000  0.05    0.21
Q15   1   0.2888  0.6900  0.9346  11.00000  0.05    0.20
Q16   1   0.2001  0.7934  0.7455  11.00000  0.05    0.20
Q17   1   0.4780  0.4088  0.6928  11.00000  0.05    0.19
Q18   1   0.3317  0.8639  0.8584  11.00000  0.05    0.18
Q19   1  -0.0013  0.7323  0.5825  11.00000  0.05    0.17
Q20   1   0.8167  0.5222  0.6786  11.00000  0.05    0.16
;
_cod_data_source_file            jo5b02342_si_001.cif
_cod_data_source_block           VD267
_cod_database_code               4031920
_shelx_hkl_file
;
 .hkl SHELXL file: job.hkl
.................................................................
  -1   0   0   77.62    3.02   3
  -1   0   0  100.60    3.12   3
   1   0   0   71.02    2.98   3
   1   0   0   98.56    3.11   3
  -2   0   0 1017.83   31.08   3
  -2   0   0 1053.52   31.05   3
   2   0   0 1044.36   31.08   3
   2   0   0 1017.06   31.03   3
  -3   0   0  150.45    5.84   3
  -3   0   0  153.14    5.93   3
  -3   0   0  148.82    5.09   1
   3   0   0  146.02    5.84   3
   3   0   0  157.48    5.92   3
  -4   0   0  103.45    4.95   3
  -4   0   0  110.54    4.19   1
   4   0   0   99.23    4.84   3
   4   0   0  109.64    4.99   3
  -5   0   0  153.04    6.92   3
  -5   0   0  152.84    5.79   1
   5   0   0  154.59    6.95   3
  -6   0   0   79.18    3.96   1
  -6   0   0   87.71    5.21   3
   6   0   0   80.39    5.02   3
  -7   0   0   12.34    2.55   3
  -7   0   0   16.49    2.05   1
   7   0   0   18.44    2.92   3
  -8   0   0  167.17    9.03   3
   8   0   0  159.71    8.91   3
   9  -1   0   73.71    6.16   3
  -9   1   0   81.34    6.37   3
   8  -1   0   25.10    3.73   3
  -8   1   0   34.81    4.22   3
  -8   1   0   34.12    3.27   1
   7  -1   0   13.20    2.38   3
  -7   1   0   16.83    2.64   3
  -7   1   0   13.75    1.97   1
   6  -1   0   25.50    2.98   3
  -6   1   0   24.85    2.96   3
  -6   1   0   24.90    2.41   1
   5  -1   0  276.54   10.79   3
  -5   1   0  289.47    9.68   1
  -5   1   0  295.56   10.96   3
   4  -1   0   68.19    3.67   3
   4  -1   0   65.05    3.60   3
  -4   1   0   68.87    3.69   3
  -4   1   0   68.96    3.14   1
  -4   1   0   71.49    3.69   3
   3  -1   0  303.39   10.58   3
  -3   1   0  322.51   10.66   3
  -3   1   0  318.62   10.64   3
  -3   1   0  312.96    9.77   1
   2  -1   0 1578.09   45.73   3
   2  -1   0 1489.05   43.02   1
  -2   1   0 1523.33   43.11   1
  -2   1   0 1564.56   45.73   3
  -2   1   0 1545.06   45.67   3
   1  -1   0 1532.67   47.89   1
   1  -1   0 1482.41   50.76   3
  -1   1   0 1984.88   51.45   3
  -1   1   0 1908.05   48.49   1
   1   1   0 9999.99  292.33   3
  -2  -1   0    4.54    0.81   3
  -2  -1   0    5.43    0.93   3
   2   1   0    6.34    0.95   3
   2   1   0    5.22    0.94   3
  -3  -1   0  287.23   10.41   3
  -3  -1   0  318.21   10.72   3
   3   1   0  305.80   10.61   3
   3   1   0  298.89   10.49   3
  -4  -1   0   79.11    4.32   3
   4   1   0   83.34    4.27   3
   4   1   0   79.92    4.31   3
  -5  -1   0    7.33    1.11   1
  -5  -1   0    4.05    1.34   3
   5   1   0    5.19    1.44   3
  -6  -1   0    3.75    1.02   1
  -6  -1   0    6.25    1.70   3
   6   1   0    2.17    1.35   3
  -7  -1   0   50.51    3.18   1
  -7  -1   0   49.05    4.92   3
   7   1   0   48.05    4.86   3
  -8  -1   0   12.19    2.85   3
   8   1   0   17.51    3.35   3
   9  -2   0    1.79    1.78   3
  -9   2   0    3.14    1.92   3
   8  -2   0   86.77    5.83   3
  -8   2   0   83.82    5.74   3
  -8   2   0   83.47    4.89   1
   7  -2   0   -0.60    0.85   3
  -7   2   0    0.36    0.88   1
  -7   2   0   -0.15    0.95   3
   6  -2   0  123.85    6.23   3
  -6   2   0  121.95    5.41   1
  -6   2   0  116.69    6.13   3
   5  -2   0    8.76    1.55   3
  -5   2   0    5.75    1.31   3
  -5   2   0    5.94    1.15   1
   4  -2   0   69.88    3.67   3
  -4   2   0   71.48    3.67   3
  -4   2   0   67.24    3.26   1
   3  -2   0   28.11    1.74   1
   3  -2   0   28.49    1.95   3
  -3   2   0   31.50    2.02   3
  -3   2   0   32.05    2.06   3
  -3   2   0   29.95    1.80   1
   2  -2   0 3063.31   84.05   1
   2  -2   0 2932.71   88.82   3
  -2   2   0 2940.99   84.07   1
  -2   2   0 3050.61   84.78   2
  -2   2   0 3131.62   88.91   3
   1  -2   0 2165.01   61.19   3
   1  -2   0 2083.06   61.16   3
   1  -2   0 2073.31   57.91   1
   1  -2   0 2087.53   58.37   2
  -1   2   0 2023.33   57.97   1
  -1   2   0 2065.18   61.17   3
  -1   2   0 2098.72   61.14   3
  -1   2   0 2033.23   58.34   2
   0  -2   0  216.65    6.92   3
   0  -2   0  214.79    6.96   3
   0   2   0  198.18    6.88   3
   0   2   0  204.91    6.90   3
  -1  -2   0  107.78    4.07   3
  -1  -2   0  101.82    4.08   3
   1   2   0  100.74    4.07   3
   1   2   0  103.79    4.03   3
  -2  -2   0  146.17    5.84   3
  -2  -2   0  148.40    5.75   3
   2   2   0  143.30    5.74   3
   2   2   0  162.37    5.98   3
  -3  -2   0  116.69    5.41   3
  -3  -2   0  129.61    5.33   3
   3   2   0  117.58    5.42   3
   3   2   0  122.96    5.31   3
  -4  -2   0  471.94   16.26   3
   4   2   0  452.74   16.16   3
  -5  -2   0   14.96    2.38   3
   5   2   0    8.75    1.83   3
  -6  -2   0   68.46    3.44   1
  -6  -2   0   70.42    4.93   3
   6   2   0   59.23    4.67   3
  -7  -2   0  273.62   12.82   3
   7   2   0  310.85   13.30   3
  -8  -2   0    9.12    2.64   3
   8   2   0   11.10    2.99   3
   9  -3   0   39.19    4.73   3
  -9   3   0   49.44    4.57   1
  -9   3   0   38.63    4.67   3
   8  -3   0  171.31    8.76   3
  -8   3   0  175.69    8.90   3
  -8   3   0  173.24    7.85   1
   7  -3   0   56.56    4.29   3
  -7   3   0   66.59    4.58   3
  -7   3   0   59.82    3.91   1
   6  -3   0  200.46    9.03   3
  -6   3   0  231.25    9.33   3
  -6   3   0  228.45    8.59   1
   5  -3   0  349.77   12.17   3
  -5   3   0  320.37   11.98   3
  -5   3   0  314.11   11.13   1
   4  -3   0    6.85    1.27   3
  -4   3   0   11.31    1.52   1
  -4   3   0    8.10    1.34   3
   3  -3   0 1777.80   55.62   3
   3  -3   0 1877.41   52.69   1
  -3   3   0 1778.08   53.13   2
  -3   3   0 2058.04   55.94   3
  -3   3   0 1811.41   52.76   1
   2  -3   0    5.85    0.91   3
   2  -3   0    1.45    0.51   1
  -2   3   0    0.61    0.47   1
  -2   3   0    0.04    0.33   2
   1  -3   0  453.27   13.62   1
   1  -3   0  436.08   14.27   3
   1  -3   0  465.92   14.33   3
  -1   3   0  479.38   14.38   3
  -1   3   0  455.06   13.73   2
  -1   3   0  414.54   14.20   3
   0  -3   0 1278.97   39.64   3
   0  -3   0 1281.28   39.56   3
   0   3   0 1366.11   39.70   3
   0   3   0 1355.04   39.67   3
  -1  -3   0    0.75    0.44   3
  -1  -3   0    1.34    0.56   3
   1   3   0   -0.29    0.28   3
   1   3   0   -0.11    0.35   3
  -2  -3   0 1098.53   33.02   3
  -2  -3   0 1047.45   32.70   3
   2   3   0 1078.34   32.97   3
   2   3   0 1027.67   32.68   3
  -3  -3   0  491.23   17.13   3
  -3  -3   0  526.17   16.93   3
   3   3   0  492.57   17.12   3
  -4  -3   0   33.75    3.40   3
   4   3   0   28.45    3.14   3
  -5  -3   0   13.79    2.38   3
   5   3   0   10.41    2.17   3
  -6  -3   0  275.96   12.10   3
  -6  -3   0  280.83    9.37   1
   6   3   0  257.67   11.93   3
  -7  -3   0    1.13    1.47   3
   7   3   0    2.15    1.62   3
  -8  -3   0   11.62    3.05   3
   8   3   0   18.54    3.77   3
   9  -4   0   -0.16    1.51   3
  -9   4   0    1.89    1.65   1
  -9   4   0    0.42    1.53   3
   8  -4   0  265.48   11.90   3
  -8   4   0  275.12   11.92   3
  -8   4   0  269.17   10.97   1
   7  -4   0  137.10    7.07   3
  -7   4   0  133.10    6.90   3
  -7   4   0  132.36    6.51   1
   6  -4   0   55.65    3.88   3
  -6   4   0   60.32    3.75   1
  -6   4   0   55.15    3.87   3
   5  -4   0   -0.03    0.77   3
  -5   4   0   -0.03    0.70   3
  -5   4   0    0.67    0.76   1
   4  -4   0    5.37    1.25   3
   4  -4   0    7.88    1.41   3
  -4   4   0    7.89    1.40   2
  -4   4   0    6.18    1.29   1
   3  -4   0   20.20    2.00   3
   3  -4   0   19.66    2.02   3
  -3   4   0   18.89    1.99   3
  -3   4   0   19.58    2.06   1
  -3   4   0   17.90    1.87   2
   2  -4   0   15.97    1.73   1
   2  -4   0   12.60    1.55   2
   2  -4   0   13.71    1.60   3
   2  -4   0   12.11    1.57   3
  -2   4   0   12.54    1.61   3
  -2   4   0   13.62    1.62   2
  -2   4   0    9.88    1.42   3
   1  -4   0  104.29    4.38   3
   1  -4   0   96.01    4.26   3
   1  -4   0  102.83    4.19   1
   1  -4   0  100.24    4.18   2
  -1   4   0   95.99    4.29   3
  -1   4   0   99.41    4.34   3
   0  -4   0   60.20    3.12   3
   0  -4   0   56.22    3.01   3
   0   4   0   55.46    3.03   3
   0   4   0   56.99    3.02   3
  -1  -4   0   -0.16    0.45   3
  -1  -4   0    0.75    0.59   3
   1   4   0    0.34    0.56   3
   1   4   0   -0.04    0.50   3
  -2  -4   0   26.88    2.67   3
  -2  -4   0   26.80    2.24   3
   2   4   0   26.72    2.30   3
  -3  -4   0    5.05    1.32   3
   3   4   0    6.25    1.45   3
  -4  -4   0  236.36   10.41   3
   4   4   0  261.39   10.67   3
  -5  -4   0    1.16    1.30   3
   5   4   0    2.72    1.52   3
  -6  -4   0   90.44    6.22   3
   6   4   0   88.58    6.20   3
  -7  -4   0   66.68    6.60   3
   7   4   0   72.36    6.89   3
   9  -5   0   28.54    4.05   3
  -9   5   0   22.46    3.66   3
  -9   5   0   25.13    3.66   1
   8  -5   0   35.53    4.10   3
  -8   5   0   40.93    4.31   3
  -8   5   0   39.57    4.27   1
   7  -5   0  260.22   11.23   3
  -7   5   0  262.04   11.13   3
  -7   5   0  276.32   10.92   1
   6  -5   0    3.91    1.43   3
  -6   5   0    4.38    1.49   1
  -6   5   0    5.03    1.53   3
   5  -5   0   66.46    4.02   3
   5  -5   0   61.76    4.05   3
  -5   5   0   56.64    3.77   1
   4  -5   0    0.37    0.76   3
   4  -5   0    1.15    0.83   3
  -4   5   0    2.21    0.98   2
  -4   5   0    1.17    0.84   1
   3  -5   0    2.67    0.96   3
   3  -5   0    5.72    1.17   3
  -3   5   0    3.60    1.04   2
   2  -5   0  336.63   11.55   3
   2  -5   0  329.04   11.09   2
   2  -5   0  324.14   11.46   3
  -2   5   0  333.93   11.57   3
  -2   5   0  305.88   11.35   3
  -2   5   0  330.81   11.14   2
   1  -5   0 1565.57   45.79   2
   1  -5   0 1579.75   48.00   3
   1  -5   0 1525.12   47.99   3
  -1   5   0 1574.19   48.02   3
  -1   5   0 1663.80   48.15   3
   0  -5   0   35.38    2.61   3
   0  -5   0   48.08    2.84   3
   0   5   0   40.91    2.77   3
   0   5   0   37.40    2.67   3
  -1  -5   0  605.72   19.03   3
  -1  -5   0  559.85   19.10   3
   1   5   0  548.53   19.06   3
  -2  -5   0  566.04   18.08   3
  -2  -5   0  509.97   18.20   3
   2   5   0  504.12   18.11   3
  -3  -5   0    4.52    1.42   3
   3   5   0    3.66    1.34   3
  -4  -5   0  713.09   25.18   3
   4   5   0  742.31   25.35   3
  -5  -5   0   15.38    2.88   3
   5   5   0   13.14    2.76   3
  -6  -5   0   53.53    5.61   3
   6   5   0   56.29    5.78   3
  -7  -5   0    0.75    1.87   3
   7   5   0    3.90    2.23   3
   9  -6   0    0.78    1.55   3
  -9   6   0    1.53    1.68   3
   8  -6   0   15.98    2.91   3
  -8   6   0   18.21    2.95   3
   7  -6   0   54.44    4.33   3
  -7   6   0   53.73    4.26   3
  -7   6   0   54.79    4.27   1
   6  -6   0  137.90    6.87   3
  -6   6   0  138.37    6.86   3
  -6   6   0  134.61    6.86   1
   5  -6   0    4.33    1.42   3
   5  -6   0    3.25    1.27   3
   4  -6   0   26.94    2.98   3
   4  -6   0   26.36    2.74   3
   3  -6   0  796.57   25.40   2
   3  -6   0  873.77   26.74   3
   3  -6   0  812.03   26.47   3
  -3   6   0  865.22   25.69   2
  -3   6   0  772.03   26.27   3
   2  -6   0  245.27    9.29   3
   2  -6   0  235.91    9.22   3
   2  -6   0  238.83    8.91   2
  -2   6   0  231.75    9.17   3
   1  -6   0  102.06    5.12   3
   1  -6   0  101.67    4.84   2
   1  -6   0  110.02    5.16   3
  -1   6   0  101.85    5.10   3
   0  -6   0   35.32    2.79   3
   0  -6   0   30.39    2.61   3
   0  -6   0   32.71    2.50   2
   0   6   0   33.49    2.70   3
  -1  -6   0  115.41    5.58   3
  -1  -6   0  110.86    5.73   3
   1   6   0  107.49    5.63   3
  -2  -6   0    8.71    1.84   3
   2   6   0   10.58    2.04   3
  -3  -6   0   21.89    3.12   3
  -4  -6   0   11.24    2.39   3
   4   6   0   14.57    2.75   3
  -5  -6   0    0.54    1.38   3
   5   6   0    1.10    1.43   3
  -6  -6   0    2.28    1.80   3
   6   6   0    0.73    1.74   3
   9  -7   0    3.18    1.88   3
   8  -7   0   37.66    4.35   3
  -8   7   0   44.11    4.68   3
   7  -7   0    4.23    1.63   3
  -7   7   0    5.09    1.78   3
   6  -7   0    1.32    1.16   3
   5  -7   0   -0.02    0.83   3
   4  -7   0   66.97    4.28   3
   4  -7   0   73.42    4.62   3
   3  -7   0  196.63    8.30   3
   3  -7   0  196.29    8.40   3
  -3   7   0  188.25    8.17   3
   2  -7   0  104.93    5.46   3
   2  -7   0  110.23    5.29   2
   2  -7   0  100.50    5.39   3
  -2   7   0  103.17    5.38   3
   1  -7   0   54.03    3.65   3
   1  -7   0   56.60    3.65   3
   1  -7   0   46.78    3.25   2
  -1   7   0   44.78    3.39   3
   0  -7   0   98.61    4.99   2
   0  -7   0   95.58    5.14   3
   0  -7   0   95.49    5.35   3
   0   7   0   96.05    5.32   3
  -1  -7   0   71.55    4.64   3
   1   7   0   65.51    4.47   3
  -2  -7   0   79.43    5.21   3
   2   7   0   72.03    4.96   3
  -3  -7   0   52.31    5.08   3
   3   7   0   47.18    4.74   3
  -4  -7   0    3.00    1.55   3
   4   7   0   -0.05    1.25   3
  -5  -7   0   36.82    4.85   3
   5   7   0   54.38    5.67   3
  -6  -7   0  172.77   10.29   3
   6   7   0  163.35    9.98   3
   8  -8   0    4.73    1.89   3
  -8   8   0    0.23    1.42   3
   7  -8   0  112.42    6.61   3
   6  -8   0    3.31    1.50   3
   5  -8   0    2.77    1.30   3
   4  -8   0 1052.84   34.16   3
   3  -8   0  259.41   10.74   3
   3  -8   0  265.38   10.74   3
   3  -8   0  261.57   10.33   2
  -3   8   0  256.52   10.62   3
   2  -8   0   22.44    2.85   3
   2  -8   0   18.42    2.49   2
   2  -8   0   24.86    3.00   3
  -2   8   0   17.65    2.55   3
   1  -8   0    3.32    1.24   2
   1  -8   0    4.53    1.51   3
  -1   8   0    2.30    1.22   3
   0  -8   0   42.15    3.36   2
   0  -8   0   52.53    3.95   3
   0   8   0   45.72    3.79   3
  -1  -8   0  342.16   12.56   2
  -1  -8   0  340.87   13.72   3
   1   8   0  327.17   13.51   3
  -2  -8   0    3.65    1.62   3
   2   8   0    5.58    1.92   3
  -3  -8   0    0.46    1.20   3
   3   8   0    0.00    1.15   3
  -4  -8   0  250.29   12.22   3
   4   8   0  235.65   11.88   3
  -5  -8   0   55.87    6.30   3
   5   8   0   51.40    5.92   3
   8  -9   0    2.17    1.49   3
   7  -9   0    9.08    2.30   3
   6  -9   0   17.92    2.93   3
   5  -9   0   16.70    2.65   3
   4  -9   0  416.71   15.86   3
   3  -9   0  525.41   18.76   2
   3  -9   0  553.86   19.76   3
  -3   9   0  559.62   19.66   3
   2  -9   0  114.61    6.38   3
   2  -9   0  117.36    6.12   2
  -2   9   0  102.76    6.13   3
   1  -9   0   61.47    4.53   3
   1  -9   0   67.95    4.42   2
  -1   9   0   57.96    4.47   3
   0  -9   0  386.35   15.18   3
   0  -9   0  390.74   14.28   2
   0   9   0  368.74   15.03   3
  -1  -9   0   21.65    2.93   2
  -1  -9   0   16.47    2.98   3
   1   9   0   20.64    3.23   3
  -2  -9   0   13.26    2.94   3
   2   9   0   10.66    2.61   3
  -3  -9   0    4.79    2.04   3
   3   9   0    3.28    1.84   3
  -4  -9   0   -0.04    1.46   3
   4   9   0    0.66    1.86   3
   7 -10   0   18.27    3.12   3
   6 -10   0   34.97    4.17   3
   5 -10   0   83.59    5.62   3
   4 -10   0    2.76    1.53   3
  -4  10   0    1.47    1.44   3
   3 -10   0  184.49    8.56   2
   3 -10   0  169.97    8.68   3
  -3  10   0  171.64    8.65   3
   2 -10   0  179.60    8.60   2
   2 -10   0  173.71    8.92   3
  -2  10   0  192.83    9.23   3
   1 -10   0   -0.73    1.15   3
   1 -10   0   -0.78    1.01   2
  -1  10   0   -0.57    1.16   3
   0 -10   0   72.94    5.41   3
   0 -10   0   73.87    4.95   2
   0  10   0   66.98    5.22   3
  -1 -10   0  262.15   12.53   3
  -1 -10   0  286.08   11.75   2
   1  10   0  276.59   12.74   3
  -2 -10   0   22.61    3.34   2
  -2 -10   0   26.79    4.09   3
   2  10   0   26.23    4.10   3
  -3 -10   0  222.15   11.74   3
   3  10   0  210.87   11.47   3
   7 -11   0   22.06    3.57   3
   6 -11   0   31.30    4.17   3
   5 -11   0    4.91    1.96   3
   4 -11   0    2.45    1.56   3
  -4  11   0    1.57    1.54   3
   3 -11   0    1.60    1.32   2
   3 -11   0   -0.23    1.27   3
  -3  11   0    0.76    1.50   3
   2 -11   0  114.79    7.28   3
   2 -11   0  136.58    7.33   2
  -2  11   0  131.03    7.59   3
   1 -11   0  233.99   11.16   3
   1 -11   0  231.84   10.41   2
  -1  11   0  218.28   10.92   3
   0 -11   0   19.72    3.21   2
   0 -11   0   21.91    3.71   3
   0  11   0   14.03    3.11   3
  -1 -11   0    5.48    2.17   3
  -1 -11   0    7.50    2.21   2
   1  11   0    9.02    2.74   3
  -2 -11   0    6.95    2.45   3
  -2 -11   0    7.00    2.29   2
   2  11   0    3.31    2.20   3
   6 -12   0   24.06    3.80   3
   5 -12   0   -1.14    1.16   3
   4 -12   0  118.02    7.61   3
  -4  12   0  142.37    8.14   3
   3 -12   0   11.78    2.72   2
   3 -12   0   11.90    2.80   3
  -3  12   0    9.94    2.68   3
   2 -12   0    1.19    1.53   2
   2 -12   0   -0.89    1.31   3
  -2  12   0    0.40    1.54   3
   1 -12   0   51.73    5.15   2
   1 -12   0   46.79    5.35   3
  -1  12   0   44.94    5.31   3
   0 -12   0   14.33    3.23   3
   0 -12   0   17.89    3.25   2
   0  12   0   18.27    3.70   3
   3 -13   0  167.00    9.66   3
  -2  13  -1    8.56    2.85   3
   2 -13   1    8.89    2.60   3
  -3  13  -1   63.01    6.37   3
   3 -13   1   59.12    6.09   3
   1  12  -1   -0.43    1.64   3
  -1 -12   1   -0.31    1.52   3
  -1 -12   1    1.07    1.67   2
   0  12  -1    0.31    1.83   3
   0 -12   1   -0.71    1.30   2
   0 -12   1   -0.18    1.33   3
  -1  12  -1   55.53    5.85   3
   1 -12   1   46.04    5.22   3
   1 -12   1   41.17    4.84   2
  -2  12  -1    5.27    2.10   3
   2 -12   1    8.87    2.38   2
   2 -12   1    3.04    1.82   3
  -3  12  -1   13.42    3.02   3
   3 -12   1   12.40    2.84   3
   3 -12   1   16.50    3.07   2
  -4  12  -1   20.74    3.57   3
   4 -12   1   19.17    3.38   3
   5 -12   1    4.28    1.97   3
   2  11  -1   44.26    5.47   3
  -2 -11   1   42.29    5.27   3
  -2 -11   1   39.04    4.66   2
   1  11  -1   -1.41    1.39   3
  -1 -11   1    1.06    1.65   3
  -1 -11   1   -0.73    1.09   2
   0  11  -1   67.52    5.53   3
   0 -11   1   70.65    5.61   3
   0 -11   1   65.02    5.06   2
  -1  11  -1   13.39    2.84   3
   1 -11   1    8.08    2.19   2
   1 -11   1    6.52    2.18   3
  -2  11  -1   34.06    4.35   3
   2 -11   1   25.98    3.79   3
   2 -11   1   35.02    4.06   2
  -3  11  -1  263.18   12.32   3
   3 -11   1  291.99   12.18   2
   3 -11   1  286.43   12.68   3
   4 -11   1    3.37    1.74   3
   5 -11   1   31.07    4.03   3
   6 -11   1   16.62    3.25   3
   3  10  -1    9.24    2.81   3
  -3 -10   1   12.36    3.03   3
   2  10  -1    2.32    1.82   3
  -2 -10   1    0.36    1.36   3
   1  10  -1   39.49    4.65   3
  -1 -10   1   32.11    3.92   2
  -1 -10   1   29.99    4.06   3
   0  10  -1  458.29   17.38   3
   0 -10   1  398.12   16.91   3
   0 -10   1  450.02   16.43   2
  -1  10  -1   28.94    3.71   3
   1 -10   1   38.42    4.30   3
   1 -10   1   29.73    3.62   2
  -2  10  -1   62.49    4.84   3
   2 -10   1   73.64    4.87   2
   2 -10   1   59.13    4.78   3
  -3  10  -1   35.52    4.07   3
   3 -10   1   31.75    3.74   2
   3 -10   1   40.41    4.36   3
   4 -10   1  120.62    6.98   3
   5 -10   1    8.45    2.26   3
   6 -10   1    3.11    1.74   3
   7 -10   1   13.38    2.91   3
   4   9  -1   18.81    3.79   3
  -4  -9   1   16.85    3.47   3
   3   9  -1    2.70    1.73   3
  -3  -9   1    2.16    1.65   3
   2   9  -1   22.09    3.47   3
  -2  -9   1   22.50    3.53   3
   1   9  -1  137.70    7.66   3
  -1  -9   1  128.29    7.48   3
  -1  -9   1  137.95    7.04   2
   0   9  -1   53.32    4.33   3
   0  -9   1   49.15    3.97   2
   0  -9   1   51.03    4.24   3
  -1   9  -1  689.88   24.57   3
   1  -9   1  693.67   24.63   3
   1  -9   1  746.20   23.70   2
  -2   9  -1   73.80    4.91   3
   2  -9   1   62.36    4.63   3
   2  -9   1   70.68    4.58   2
  -3   9  -1    5.08    1.72   3
   3  -9   1    6.40    1.81   3
   3  -9   1    5.16    1.72   2
   4  -9   1  174.09    8.54   3
   5  -9   1    3.74    1.51   3
   6  -9   1    6.59    1.94   3
   7  -9   1   11.06    2.55   3
  -8   9  -1   22.42    3.62   3
   8  -9   1   30.81    4.19   3
   5   8  -1    0.95    1.67   3
  -5  -8   1    2.85    1.96   3
   4   8  -1   49.25    5.45   3
  -4  -8   1   41.06    5.00   3
   3   8  -1   17.39    3.05   3
  -3  -8   1   25.17    3.71   3
   2   8  -1   80.35    5.52   3
  -2  -8   1   85.09    5.71   3
   1   8  -1  238.64   10.40   3
  -1  -8   1  224.86   10.31   3
   0   8  -1  940.50   30.91   3
   0  -8   1  930.40   30.88   3
   0  -8   1  930.11   29.35   2
  -1   8  -1   11.11    2.07   3
   1  -8   1    9.98    1.84   2
   1  -8   1    6.23    1.69   3
  -2   8  -1    2.22    1.12   3
   2  -8   1    2.42    1.20   3
   2  -8   1    1.90    1.16   2
  -3   8  -1   20.66    2.73   3
   3  -8   1   23.37    2.79   2
   3  -8   1   17.39    2.49   3
   4  -8   1   41.65    3.57   3
   5  -8   1   18.67    2.86   3
   6  -8   1    9.23    2.13   3
  -7   8  -1    1.51    1.40   3
   7  -8   1    4.30    1.72   3
  -8   8  -1   14.33    2.93   3
   8  -8   1   11.51    2.75   3
   6   7  -1  101.01    7.53   3
  -6  -7   1  102.79    7.60   3
   5   7  -1   89.74    6.54   3
  -5  -7   1   89.36    6.52   3
   4   7  -1   15.73    3.04   3
  -4  -7   1   12.55    2.69   3
   3   7  -1  210.35    9.94   3
  -3  -7   1  209.11    9.92   3
   2   7  -1  248.86   10.62   3
  -2  -7   1  236.23   10.51   3
   1   7  -1    3.27    1.28   3
  -1  -7   1    3.34    1.31   3
   0   7  -1  187.55    8.37   3
   0  -7   1  193.55    8.42   3
   0  -7   1  192.11    7.92   2
  -1   7  -1  102.14    5.38   3
   1  -7   1   93.81    5.00   2
   1  -7   1   99.36    5.32   3
   1  -7   1  102.48    5.35   3
  -2   7  -1   63.29    4.07   3
   2  -7   1   61.05    3.96   3
   2  -7   1   71.83    4.08   2
   2  -7   1   59.56    4.00   3
  -3   7  -1    4.37    1.32   3
   3  -7   1    3.07    1.17   2
   3  -7   1    3.44    1.32   3
   4  -7   1    1.85    1.10   3
   5  -7   1   39.63    3.40   3
   6  -7   1    6.10    1.84   3
  -7   7  -1    2.01    1.40   3
   7  -7   1    0.92    1.40   3
  -8   7  -1   16.35    3.04   3
   8  -7   1   17.83    3.14   3
   6   6  -1   54.33    5.79   3
  -6  -6   1   53.89    5.70   3
   5   6  -1   94.92    6.52   3
  -5  -6   1   96.52    6.42   3
   4   6  -1  249.17   11.12   3
  -4  -6   1  243.02   11.07   3
   3   6  -1   41.16    4.15   3
  -3  -6   1   42.96    4.22   3
   2   6  -1  575.72   20.20   3
  -2  -6   1  583.55   20.21   3
   1   6  -1   46.34    3.39   3
  -1  -6   1   51.75    3.59   3
   0   6  -1  671.31   21.53   3
   0  -6   1  639.92   21.24   3
   0  -6   1  618.57   21.29   3
  -1   6  -1   29.35    2.46   3
   1  -6   1   25.86    2.60   2
   1  -6   1   24.90    2.57   3
   1  -6   1   32.32    3.00   3
  -2   6  -1    0.31    0.70   3
   2  -6   1   -0.83    0.51   2
   2  -6   1    0.82    0.76   3
   2  -6   1    1.59    0.88   3
  -3   6  -1    0.93    0.78   2
   3  -6   1    0.54    0.82   3
   3  -6   1   -0.04    0.76   3
   3  -6   1   -0.27    0.62   2
   4  -6   1  649.11   21.77   3
   5  -6   1    1.93    1.10   3
  -6   6  -1    7.72    1.86   3
   6  -6   1   10.27    2.13   3
  -7   6  -1   38.70    4.16   3
   7  -6   1   37.72    4.12   3
  -8   6  -1   63.23    5.07   3
   8  -6   1   70.24    5.26   3
   7   5  -1  152.64    9.31   3
  -7  -5   1  150.84    9.15   3
   6   5  -1   87.08    6.43   3
  -6  -5   1   92.13    6.40   3
   5   5  -1   57.18    4.65   3
  -5  -5   1   55.36    4.57   3
   4   5  -1  323.64   12.82   3
  -4  -5   1  300.45   12.58   3
   3   5  -1   48.28    3.59   3
  -3  -5   1   43.52    3.46   3
   2   5  -1    0.81    0.80   3
  -2  -5   1    1.75    0.92   3
   1   5  -1  111.26    5.13   3
   1   5  -1  109.03    5.23   3
  -1  -5   1  106.43    5.20   3
  -1  -5   1  102.26    5.00   3
   0   5  -1 1817.05   54.13   3
   0   5  -1 1785.55   54.14   3
   0  -5   1 1698.82   54.02   3
   0  -5   1 1837.67   54.05   3
  -1   5  -1  163.01    6.81   3
  -1   5  -1  171.44    6.79   3
   1  -5   1  169.83    6.80   3
   1  -5   1  156.18    6.42   2
   1  -5   1  169.47    6.78   3
  -2   5  -1   61.64    3.45   3
  -2   5  -1   58.03    3.46   3
   2  -5   1   61.92    3.55   3
   2  -5   1   61.74    3.34   2
   2  -5   1   58.35    3.40   3
  -3   5  -1    2.12    0.90   2
   3  -5   1    3.33    1.07   3
   3  -5   1   17.94    2.08   3
  -4   5  -1  540.71   17.86   2
   4  -5   1  552.05   18.72   3
   4  -5   1  564.52   18.92   3
   5  -5   1    7.74    1.69   3
  -6   5  -1   76.56    4.78   3
   6  -5   1   76.02    4.85   3
  -7   5  -1   29.81    3.60   3
   7  -5   1   23.94    3.19   3
  -8   5  -1   12.37    2.68   3
   8  -5   1   10.19    2.46   3
  -9   5  -1   32.36    4.37   3
   9  -5   1   40.58    4.90   3
   7   4  -1    1.84    1.67   3
  -7  -4   1    2.48    1.81   3
   6   4  -1    0.27    1.35   3
  -6  -4   1    1.09    1.41   3
   5   4  -1   -0.35    0.97   3
  -5  -4   1    0.26    0.96   3
   4   4  -1   13.72    2.24   3
  -4  -4   1   17.81    2.60   3
   3   4  -1   51.71    3.54   3
  -3  -4   1   57.34    3.67   3
   2   4  -1    8.91    1.43   3
   2   4  -1    5.59    1.24   3
  -2  -4   1    8.70    1.49   3
  -2  -4   1    7.21    1.34   3
   1   4  -1   90.17    4.19   3
   1   4  -1   85.36    4.21   3
  -1  -4   1   89.42    4.17   3
  -1  -4   1   87.72    4.24   3
   0   4  -1   13.36    1.56   3
   0   4  -1   10.79    1.42   3
   0  -4   1   11.58    1.43   3
   0  -4   1   13.98    1.63   3
  -1   4  -1  311.20   10.79   3
  -1   4  -1  322.79   10.86   3
   1  -4   1  324.02   10.42   2
   1  -4   1  309.36   10.80   3
   1  -4   1  306.14   10.76   3
  -2   4  -1  320.10   11.01   3
  -2   4  -1  303.89   10.81   3
  -2   4  -1  316.42   10.48   2
   2  -4   1  317.57   10.44   2
   2  -4   1  313.87   10.96   3
   2  -4   1  296.86   10.82   3
   2  -4   1  332.19   10.44   1
  -3   4  -1   98.15    4.57   3
  -3   4  -1   86.41    4.16   2
   3  -4   1   90.00    4.38   3
   3  -4   1   89.52    4.44   3
  -4   4  -1  125.60    5.44   2
  -4   4  -1  114.56    5.30   1
   4  -4   1  127.31    5.75   3
  -5   4  -1  188.16    7.53   1
  -5   4  -1  183.34    7.98   3
   5  -4   1  187.11    8.06   3
  -6   4  -1  232.88    9.87   3
  -6   4  -1  239.85    9.26   1
   6  -4   1  227.01    9.87   3
  -7   4  -1  244.89   10.79   3
  -7   4  -1  252.15   10.00   1
   7  -4   1  250.06   10.92   3
  -8   4  -1    5.76    2.02   3
   8  -4   1   10.87    2.48   3
  -9   4  -1    0.09    1.48   3
   9  -4   1    0.69    1.51   3
   8   3  -1   78.68    6.43   3
  -8  -3   1   96.67    6.92   3
   7   3  -1    1.82    1.77   3
  -7  -3   1    6.57    2.19   3
  -7  -3   1    3.18    1.19   1
   6   3  -1    3.04    1.47   3
  -6  -3   1    2.57    1.39   3
   5   3  -1  112.21    6.07   3
  -5  -3   1  102.55    5.88   3
   4   3  -1   -0.17    0.67   3
  -4  -3   1    0.11    0.68   3
   3   3  -1  307.35   11.09   3
   3   3  -1  293.67   11.21   3
  -3  -3   1  317.32   11.08   3
  -3  -3   1  316.59   11.38   3
   2   3  -1  938.25   30.83   3
   2   3  -1 1076.52   31.22   3
  -2  -3   1 1007.80   31.09   3
  -2  -3   1  990.42   30.88   3
   1   3  -1  115.37    4.83   3
   1   3  -1  116.68    4.79   3
  -1  -3   1  120.64    4.92   3
  -1  -3   1  126.80    4.88   3
   0   3  -1  183.35    6.81   3
   0   3  -1  194.84    6.87   3
   0  -3   1  193.31    6.87   3
   0  -3   1  194.49    6.83   3
  -1   3  -1 1029.24   31.02   3
  -1   3  -1 1024.01   30.96   3
   1  -3   1  997.38   30.95   3
   1  -3   1 1059.04   29.59   2
   1  -3   1  986.87   30.92   3
  -2   3  -1  814.08   24.79   3
  -2   3  -1  786.38   23.56   2
   2  -3   1  818.47   24.81   3
   2  -3   1  822.87   23.40   1
   2  -3   1  758.67   23.46   2
   2  -3   1  793.49   24.72   3
  -3   3  -1   65.61    3.20   2
  -3   3  -1   60.72    3.11   1
  -3   3  -1   63.99    3.42   3
   3  -3   1   65.55    3.09   1
   3  -3   1   64.48    3.38   3
  -4   3  -1  308.14   10.46   2
  -4   3  -1  318.91   11.18   3
  -4   3  -1  304.73   10.33   1
   4  -3   1  290.82   11.02   3
  -5   3  -1   21.48    2.48   3
  -5   3  -1   19.32    2.14   1
  -5   3  -1   22.84    2.44   2
   5  -3   1   15.00    2.13   3
  -6   3  -1  172.65    7.15   1
  -6   3  -1  171.80    7.94   3
   6  -3   1  174.72    8.05   3
  -7   3  -1    2.39    1.23   1
  -7   3  -1    2.14    1.38   3
   7  -3   1    2.73    1.39   3
  -8   3  -1  114.66    5.91   1
  -8   3  -1  104.87    6.71   3
   8  -3   1  104.75    6.67   3
  -9   3  -1   22.17    3.65   3
   9  -3   1   12.95    3.05   3
   8   2  -1    5.91    2.31   3
  -8  -2   1    7.18    2.33   3
   7   2  -1    2.97    1.70   3
  -7  -2   1    1.27    0.98   1
  -7  -2   1    1.49    1.39   3
   6   2  -1   62.73    4.59   3
  -6  -2   1   63.66    4.61   3
   4   2  -1 1189.43   37.37   3
   4   2  -1 1187.81   37.08   3
  -4  -2   1 1179.12   37.38   3
  -4  -2   1 1217.19   34.07   4
   3   2  -1 1141.64   36.33   3
   3   2  -1 1189.21   36.19   3
  -3  -2   1 1190.77   36.41   3
  -3  -2   1 1185.15   33.44   4
  -3  -2   1 1202.67   36.17   3
   2   2  -1  126.15    4.94   3
   2   2  -1  120.13    4.98   3
  -2  -2   1  126.31    5.03   3
  -2  -2   1  126.75    3.82   4
  -2  -2   1  127.59    4.94   3
   1   2  -1    2.42    0.55   3
   1   2  -1    1.88    0.50   3
  -1  -2   1    2.03    0.51   3
  -1  -2   1    2.43    0.58   3
   0   2  -1  634.61   20.00   3
   0   2  -1  663.80   20.06   3
   0  -2   1  637.38   20.01   3
   0  -2   1  698.21   20.07   3
  -1   2  -1   16.77    1.17   3
  -1   2  -1   13.89    1.12   3
  -1   2  -1   15.04    1.07   2
   1  -2   1   15.14    1.15   3
   1  -2   1   17.45    1.13   2
   1  -2   1   15.27    1.15   3
  -2   2  -1   66.43    3.07   3
  -2   2  -1   70.02    2.87   2
  -2   2  -1   65.55    2.83   1
   2  -2   1   59.81    2.67   1
   2  -2   1   64.07    3.04   3
  -3   2  -1   11.71    1.52   3
  -3   2  -1    8.58    1.25   3
   3  -2   1    9.19    1.08   1
   3  -2   1   10.70    1.44   3
  -4   2  -1  255.30    9.82   3
  -4   2  -1  257.39    8.88   1
   4  -2   1  269.25    9.96   3
   4  -2   1  285.74    8.89   1
  -5   2  -1    0.86    0.70   1
  -5   2  -1    2.30    1.02   3
   5  -2   1   -0.33    0.68   3
  -6   2  -1    2.74    0.99   1
  -6   2  -1    0.69    0.98   3
   6  -2   1    3.25    1.28   3
  -7   2  -1   67.61    4.86   3
  -7   2  -1   66.61    3.96   1
   7  -2   1   72.39    4.96   3
  -8   2  -1   21.46    3.42   3
   8  -2   1   25.83    3.64   3
   8   1  -1  142.54    8.30   3
  -8  -1   1  141.89    6.51   1
  -8  -1   1  140.93    8.20   3
   7   1  -1   34.93    4.09   3
  -7  -1   1   33.97    2.62   1
  -7  -1   1   32.32    3.83   3
   6   1  -1   16.44    2.52   3
  -6  -1   1   16.10    2.48   3
  -6  -1   1   23.01    2.25   1
   5   1  -1   53.21    3.60   3
  -5  -1   1   50.55    3.50   3
   4   1  -1 1135.28   34.95   3
   4   1  -1 1083.57   34.64   3
  -4  -1   1 1146.92   34.98   3
   3   1  -1 2790.50   86.44   3
   3   1  -1 3039.84   86.45   3
  -3  -1   1 2936.42   86.32   3
  -3  -1   1 2917.98   86.49   3
   2   1  -1  818.61   24.45   3
   2   1  -1  845.18   24.57   3
  -2  -1   1  777.15   24.47   3
  -2  -1   1  770.71   22.88   4
  -2  -1   1  809.28   24.42   3
   1   1  -1  272.65    8.95   3
   1   1  -1  291.76    9.03   3
   1   1  -1  299.35    8.33   4
  -1  -1   1  281.25    8.31   4
  -1  -1   1  289.04    8.98   3
  -1  -1   1  283.24    9.00   3
  -1   1  -1  988.77   28.15   2
  -1   1  -1 1002.90   29.70   3
   1  -1   1  988.63   29.70   3
   1  -1   1  998.61   27.96   1
   1  -1   1 1006.05   28.15   2
  -2   1  -1  684.84   22.30   3
  -2   1  -1  781.52   22.47   3
  -2   1  -1  720.99   20.78   1
   2  -1   1  707.01   22.35   3
   2  -1   1  746.46   20.75   1
  -3   1  -1    2.03    0.68   3
  -3   1  -1    3.23    0.63   1
  -3   1  -1    2.54    0.79   3
   3  -1   1    2.20    0.72   3
  -4   1  -1  466.42   15.71   3
  -4   1  -1  451.01   13.97   1
   4  -1   1  463.77   15.71   3
  -5   1  -1    4.14    0.92   1
  -5   1  -1    6.75    1.54   3
   5  -1   1    4.29    1.27   3
  -6   1  -1   57.73    4.19   3
  -6   1  -1   61.37    3.29   1
   6  -1   1   58.70    4.18   3
  -7   1  -1    0.43    0.87   1
  -7   1  -1   -0.37    1.02   3
   7  -1   1   -0.42    0.93   3
  -8   1  -1   37.73    4.61   3
   8  -1   1   38.43    4.67   3
   9   0  -1   10.06    2.75   3
  -9   0   1   11.38    2.98   3
   8   0  -1   50.85    5.16   3
  -8   0   1   55.67    3.78   1
  -8   0   1   55.33    4.69   3
   7   0  -1  201.75    9.41   3
  -7   0   1  191.99    9.26   3
  -7   0   1  203.84    7.96   1
   6   0  -1   18.22    2.52   3
  -6   0   1   20.22    2.14   1
  -6   0   1   15.49    2.38   3
   5   0  -1  214.78    8.51   3
   5   0  -1  201.91    8.50   3
  -5   0   1  212.22    8.59   3
  -5   0   1  215.63    7.57   1
   4   0  -1  439.53   14.97   3
   4   0  -1  443.33   14.96   3
  -4   0   1  461.71   15.07   3
   3   0  -1 3341.89   98.84   3
   3   0  -1 3403.34   98.89   3
  -3   0   1 3210.41   98.85   3
  -3   0   1 3481.47   98.87   3
   2   0  -1   -0.07    0.38   3
   2   0  -1   -0.86    0.31   3
  -2   0   1   -0.64    0.34   3
  -2   0   1   -0.75    0.31   3
  -1   0  -1 2516.44   74.71   3
  -1   0  -1 2529.00   74.72   3
  -1   0  -1 2526.97   70.55   1
   1   0   1 2710.50   74.77   3
   1   0   1 2477.33   75.06   3
   1   0   1 2536.15   70.49   1
  -2   0  -1   57.58    2.10   1
  -2   0  -1   63.39    2.84   3
  -2   0  -1   57.00    2.77   3
   2   0   1   62.63    2.84   3
   2   0   1   53.93    2.72   3
  -3   0  -1   58.95    2.39   1
  -3   0  -1   53.28    3.09   3
  -3   0  -1   59.60    3.17   3
   3   0   1   65.27    3.26   3
   3   0   1   59.42    3.19   3
  -4   0  -1 1129.87   35.89   3
  -4   0  -1 1173.59   32.80   1
   4   0   1 1145.55   35.87   3
  -5   0  -1   67.98    3.11   1
  -5   0  -1   68.03    4.22   3
   5   0   1   63.22    4.15   3
  -6   0  -1   15.28    1.74   1
  -6   0  -1   14.48    2.44   3
   6   0   1   17.38    2.69   3
  -7   0  -1   19.06    3.15   3
  -7   0  -1   17.74    2.01   1
   7   0   1   16.28    2.88   3
  -8   0  -1   15.60    3.21   3
   8   0   1   19.81    3.49   3
   9  -1  -1  120.53    7.56   3
  -9   1   1   98.45    6.96   3
   8  -1  -1   12.81    2.58   3
  -8   1   1   16.44    2.39   1
  -8   1   1    9.90    2.44   3
   7  -1  -1   31.94    3.61   3
  -7   1   1   35.79    2.83   1
  -7   1   1   33.15    3.60   3
   6  -1  -1  281.87   11.01   3
  -6   1   1  281.17   11.04   3
  -6   1   1  279.22   10.00   1
   5  -1  -1   -0.10    0.59   3
  -5   1   1   -0.23    0.50   3
  -5   1   1    0.02    0.56   1
   4  -1  -1   18.59    1.91   3
   4  -1  -1   13.60    1.64   3
  -4   1   1   12.04    1.41   1
  -4   1   1   14.30    1.68   3
  -4   1   1   14.80    1.72   3
   3  -1  -1  740.68   21.73   3
  -3   1   1  666.75   21.61   3
  -3   1   1  695.18   20.54   1
  -3   1   1  703.71   21.65   3
   2  -1  -1  291.54    9.53   3
  -2   1   1  303.15    9.52   3
  -2   1   1  306.20    9.56   3
  -2   1   1  305.43    9.21   1
   1  -1  -1 1303.83   37.00   1
   1  -1  -1 1290.05   38.95   3
  -1   1   1 1303.96   39.07   3
  -1   1   1 1366.59   37.05   1
   0  -1  -1  122.69    3.77   4
   0  -1  -1  116.34    3.63   2
   0  -1  -1  117.35    3.95   3
   0  -1  -1  117.67    3.59   1
   0   1   1  120.46    3.96   3
   0   1   1  124.73    3.96   3
   0   1   1  121.18    3.74   4
   0   1   1  120.93    3.62   1
  -1  -1  -1    0.34    0.32   3
  -1  -1  -1    0.05    0.25   3
   1   1   1   -0.16    0.26   3
   1   1   1    0.22    0.27   3
  -2  -1  -1  196.08    7.17   3
  -2  -1  -1  198.67    7.08   3
   2   1   1  188.85    7.09   3
   2   1   1  203.66    7.11   3
  -3  -1  -1    5.45    0.67   1
  -3  -1  -1    7.83    1.29   3
  -3  -1  -1    7.89    1.38   3
   3   1   1    4.41    1.06   3
   3   1   1    5.79    1.12   3
  -4  -1  -1  131.12    6.18   3
  -4  -1  -1  129.51    4.62   1
   4   1   1  140.31    6.26   3
  -5  -1  -1   66.67    2.98   1
  -5  -1  -1   62.53    4.31   3
   5   1   1   61.43    4.19   3
  -6  -1  -1   44.99    2.50   1
  -6  -1  -1   39.29    4.09   3
   6   1   1   37.03    3.95   3
  -7  -1  -1   60.02    4.93   3
   7   1   1   61.65    5.02   3
  -8  -1  -1    5.01    2.21   3
   8   1   1    7.70    2.54   3
   9  -2  -1   11.85    2.77   3
  -9   2   1   10.79    2.36   1
  -9   2   1   11.80    2.78   3
   8  -2  -1   25.95    3.48   3
  -8   2   1   30.61    3.78   3
  -8   2   1   28.34    3.17   1
   7  -2  -1    1.16    1.07   3
  -7   2   1    0.60    1.00   3
  -7   2   1   -0.68    0.73   1
   6  -2  -1   65.04    4.14   3
  -6   2   1   70.17    3.93   1
  -6   2   1   73.74    4.34   3
   5  -2  -1  369.35   12.54   3
  -5   2   1  322.26   12.23   3
  -5   2   1  355.03   11.73   1
   4  -2  -1  548.38   18.86   3
  -4   2   1  614.38   19.10   3
  -4   2   1  594.89   18.97   3
  -4   2   1  607.86   18.12   1
   3  -2  -1   28.43    1.76   3
   3  -2  -1   26.12    1.68   1
  -3   2   1   26.59    1.75   3
  -3   2   1   26.49    1.73   3
  -3   2   1   26.02    1.76   1
   2  -2  -1 2120.94   62.92   3
   2  -2  -1 2108.13   59.69   1
   2  -2  -1 2039.33   62.86   3
  -2   2   1 2234.71   62.98   3
  -2   2   1 2173.53   59.83   1
   1  -2  -1  649.37   20.72   3
   1  -2  -1  686.32   20.76   3
   1  -2  -1  717.48   19.80   1
  -1   2   1  681.66   19.80   1
  -1   2   1  692.55   20.76   3
  -1   2   1  692.60   20.75   3
  -1   2   1  703.65   19.97   2
   0  -2  -1 2738.20   78.25   3
   0  -2  -1 2610.03   74.65   2
   0  -2  -1 2766.01   78.16   3
   0  -2  -1 2688.21   73.80   1
   0   2   1 2591.24   77.88   3
   0   2   1 2510.26   77.88   3
   0   2   1 2681.09   74.46   4
  -1  -2  -1 1112.85   30.61   4
  -1  -2  -1 1060.97   32.80   3
  -1  -2  -1 1089.62   32.73   3
   1   2   1 1067.68   32.70   3
   1   2   1 1092.68   32.81   3
  -2  -2  -1  213.11    7.60   3
  -2  -2  -1  209.16    6.25   4
  -2  -2  -1  200.38    7.75   3
   2   2   1  199.51    7.72   3
   2   2   1  218.52    7.68   3
  -3  -2  -1  468.08   15.94   3
  -3  -2  -1  463.72   15.65   3
   3   2   1  465.46   15.91   3
  -4  -2  -1  136.73    6.61   3
   4   2   1  140.89    6.65   3
  -5  -2  -1  177.97    6.10   1
  -5  -2  -1  162.28    8.16   3
   5   2   1  194.64    8.66   3
  -6  -2  -1  132.65    7.42   3
  -6  -2  -1  129.23    5.03   1
   6   2   1  132.46    7.45   3
  -7  -2  -1    5.29    1.99   3
   7   2   1    8.05    2.38   3
  -8  -2  -1   -0.10    1.45   3
   8   2   1    1.41    1.79   3
   9  -3  -1   66.37    5.31   3
  -9   3   1   72.34    4.97   1
  -9   3   1   74.95    5.62   3
   8  -3  -1   17.60    2.86   3
  -8   3   1   15.59    2.45   1
  -8   3   1   15.61    2.75   3
   7  -3  -1   37.55    3.80   3
  -7   3   1   41.25    3.51   3
  -7   3   1   42.63    3.30   1
   6  -3  -1   33.47    2.84   3
  -6   3   1   33.83    2.72   1
  -6   3   1   29.38    2.95   3
   5  -3  -1   46.50    3.02   3
  -5   3   1   48.48    3.01   1
  -5   3   1   41.33    2.96   3
   4  -3  -1  411.71   13.71   3
  -4   3   1  401.65   13.63   3
  -4   3   1  408.16   13.17   1
   3  -3  -1  307.64   10.32   3
   3  -3  -1  307.41   10.27   3
  -3   3   1  295.11   10.28   3
   2  -3  -1 1359.65   39.41   3
   2  -3  -1 1308.82   39.33   3
   2  -3  -1 1344.54   37.45   1
  -2   3   1 1342.66   39.41   3
  -2   3   1 1277.44   37.49   1
  -2   3   1 1286.88   39.28   3
  -2   3   1 1276.07   37.74   2
   1  -3  -1 1316.02   37.78   2
   1  -3  -1 1297.75   39.52   3
   1  -3  -1 1334.08   37.46   1
   1  -3  -1 1283.60   39.49   3
  -1   3   1 1331.65   37.59   1
  -1   3   1 1319.24   37.81   2
  -1   3   1 1353.09   39.53   3
  -1   3   1 1343.67   39.56   3
   0  -3  -1  868.82   25.75   2
   0  -3  -1  875.90   27.23   3
   0  -3  -1  912.34   25.53   1
   0  -3  -1  900.09   27.17   3
   0   3   1  889.17   27.16   3
   0   3   1  902.80   27.24   3
  -1  -3  -1  224.42    8.29   3
  -1  -3  -1  242.15    8.25   3
   1   3   1  230.13    8.31   3
   1   3   1  226.09    6.83   4
   1   3   1  229.17    8.19   3
  -2  -3  -1   93.68    4.65   3
  -2  -3  -1   99.26    4.55   3
   2   3   1   99.67    4.74   3
   2   3   1  102.68    4.66   3
  -3  -3  -1    3.55    1.13   3
  -3  -3  -1    3.23    1.03   3
   3   3   1    3.09    1.09   3
  -4  -3  -1  191.98    8.51   3
   4   3   1  185.81    8.41   3
  -5  -3  -1   48.30    4.03   3
  -5  -3  -1   47.08    2.40   1
   5   3   1   50.44    4.16   3
  -6  -3  -1   69.31    5.29   3
   6   3   1   64.74    5.15   3
  -7  -3  -1   -0.20    1.38   3
   7   3   1   -0.87    1.44   3
   9  -4  -1   12.46    2.66   3
  -9   4   1   10.27    2.52   3
  -9   4   1   11.49    2.48   1
   8  -4  -1   63.34    4.69   3
  -8   4   1   63.23    4.41   1
  -8   4   1   58.15    4.51   3
   7  -4  -1   61.47    4.31   3
  -7   4   1   65.55    4.33   1
  -7   4   1   66.72    4.45   3
   6  -4  -1    0.83    0.90   3
  -6   4   1    3.16    1.20   3
  -6   4   1    2.44    1.11   1
   5  -4  -1    9.47    1.61   3
  -5   4   1    8.15    1.52   3
  -5   4   1    6.61    1.42   1
   4  -4  -1  841.02   26.11   3
   4  -4  -1  781.31   25.87   3
  -4   4   1  819.43   24.97   1
  -4   4   1  853.52   25.24   2
   3  -4  -1  577.32   18.55   3
   3  -4  -1  551.28   18.37   3
  -3   4   1  594.95   18.04   2
  -3   4   1  588.28   18.57   3
  -3   4   1  570.16   17.85   1
   2  -4  -1  101.04    4.06   1
   2  -4  -1   88.52    4.04   3
   2  -4  -1   93.45    4.13   3
   2  -4  -1   92.09    4.05   2
  -2   4   1   93.21    4.15   1
  -2   4   1   97.25    4.14   2
  -2   4   1   94.81    4.16   3
  -2   4   1   96.89    4.12   3
   1  -4  -1   80.78    3.65   3
   1  -4  -1   84.16    3.52   1
   1  -4  -1   87.60    3.63   2
   1  -4  -1   72.99    3.60   3
  -1   4   1   78.57    3.67   3
  -1   4   1   85.20    3.77   3
   0  -4  -1    4.02    0.90   3
   0  -4  -1    4.23    0.81   1
   0  -4  -1    2.97    0.73   2
   0  -4  -1    2.07    0.73   3
   0   4   1    4.30    0.90   3
   0   4   1    4.71    0.97   3
  -1  -4  -1  896.89   26.64   3
  -1  -4  -1  835.40   26.75   3
   1   4   1  838.57   24.08   4
   1   4   1  829.73   26.65   3
   1   4   1  828.43   26.49   3
  -2  -4  -1   14.14    1.86   3
  -2  -4  -1   12.90    1.89   3
   2   4   1   15.10    2.08   3
  -3  -4  -1  752.73   24.95   3
   3   4   1  741.11   24.87   3
  -4  -4  -1   10.91    2.15   3
   4   4   1    9.15    2.02   3
  -5  -4  -1   66.38    4.99   3
   5   4   1   63.60    4.92   3
  -6  -4  -1   14.35    2.98   3
   6   4   1   13.04    2.88   3
  -7  -4  -1    0.62    1.76   3
   7   4   1   -1.06    1.48   3
   9  -5  -1   13.29    2.78   3
  -9   5   1   17.07    3.12   3
  -9   5   1   13.22    2.77   1
   8  -5  -1    6.68    1.95   3
  -8   5   1    7.88    2.13   1
  -8   5   1   10.58    2.35   3
   7  -5  -1   13.61    2.33   3
  -7   5   1    9.39    2.04   1
  -7   5   1   12.68    2.23   3
   6  -5  -1  225.35    9.26   3
   6  -5  -1  220.77    9.41   3
  -6   5   1  211.53    9.05   3
  -6   5   1  224.38    9.15   1
   5  -5  -1   63.13    4.05   3
   5  -5  -1   62.47    3.82   3
  -5   5   1   66.58    4.03   1
   4  -5  -1   54.86    3.41   3
   4  -5  -1   66.37    3.76   3
  -4   5   1   65.08    3.76   2
  -4   5   1   63.08    3.72   1
   3  -5  -1 1412.03   41.89   3
   3  -5  -1 1301.35   41.63   3
  -3   5   1 1348.00   40.04   1
  -3   5   1 1402.45   40.25   2
   2  -5  -1  162.99    6.66   3
   2  -5  -1  161.67    6.62   3
   2  -5  -1  167.25    6.49   2
  -2   5   1  177.22    6.80   3
  -2   5   1  168.15    6.59   2
  -2   5   1  171.71    6.71   3
   1  -5  -1  132.69    5.72   3
   1  -5  -1  132.86    5.42   2
   1  -5  -1  134.91    5.67   3
  -1   5   1  142.68    5.80   3
  -1   5   1  133.52    5.69   3
   0  -5  -1  122.40    5.11   2
   0  -5  -1  126.25    5.48   3
   0  -5  -1  129.97    5.68   3
   0  -5  -1  125.19    5.00   1
   0   5   1  117.32    5.48   3
  -1  -5  -1   99.35    5.13   3
  -1  -5  -1  111.78    5.11   3
   1   5   1  101.75    3.53   4
   1   5   1   99.44    5.05   3
  -2  -5  -1  257.21   10.43   3
  -2  -5  -1  271.81   10.21   3
   2   5   1  256.28   10.41   3
  -3  -5  -1  477.62   17.12   3
   3   5   1  448.94   16.87   3
  -4  -5  -1  797.47   27.50   3
   4   5   1  796.89   27.48   3
  -5  -5  -1  162.65    8.66   3
   5   5   1  145.65    8.35   3
  -6  -5  -1  226.69   11.55   3
   6   5   1  221.62   11.45   3
   9  -6  -1   47.44    4.96   3
  -9   6   1   47.79    5.11   1
   8  -6  -1   40.79    4.23   3
  -8   6   1   39.69    4.37   1
  -8   6   1   31.08    3.71   3
   7  -6  -1  137.49    7.11   3
  -7   6   1  143.56    7.12   3
  -7   6   1  137.05    7.20   1
   6  -6  -1   35.53    3.82   3
   6  -6  -1   28.07    3.03   3
  -6   6   1   22.83    3.04   1
   5  -6  -1   -0.20    0.70   3
   5  -6  -1    0.78    0.97   3
  -5   6   1   -0.84    0.73   1
   4  -6  -1    3.18    1.15   3
   4  -6  -1    4.37    1.20   3
  -4   6   1    4.58    1.42   1
   3  -6  -1  114.42    5.36   3
   3  -6  -1  110.74    5.22   3
  -3   6   1  102.94    5.12   3
  -3   6   1  113.12    5.36   2
   2  -6  -1   96.86    4.79   3
   2  -6  -1   92.49    4.58   2
   2  -6  -1  101.43    4.88   3
  -2   6   1   96.71    4.79   3
   1  -6  -1  114.19    5.26   2
   1  -6  -1  131.05    5.74   3
   1  -6  -1  118.53    5.63   3
  -1   6   1  126.09    5.73   3
   0  -6  -1   25.90    2.65   3
   0  -6  -1   26.23    2.48   2
   0  -6  -1   27.98    2.83   3
   0   6   1   28.28    2.84   3
  -1  -6  -1   32.13    3.04   3
  -1  -6  -1   26.66    2.89   3
   1   6   1   22.53    1.33   4
   1   6   1   19.05    2.51   3
  -2  -6  -1    0.94    1.03   3
   2   6   1    1.19    1.05   3
  -3  -6  -1   48.70    4.08   3
   3   6   1   54.15    4.23   3
  -4  -6  -1   16.91    3.02   3
   4   6   1   17.92    3.13   3
  -5  -6  -1  151.43    8.85   3
   5   6   1  159.24    8.94   3
  -6  -6  -1    1.82    1.96   3
   6   6   1    0.69    1.66   3
   9  -7  -1    4.70    1.98   3
   8  -7  -1    1.84    1.32   3
  -8   7   1    2.77    1.66   1
  -8   7   1    0.68    1.18   3
   7  -7  -1    8.64    2.04   3
  -7   7   1    9.81    2.33   1
  -7   7   1    8.34    1.99   3
   6  -7  -1  348.73   13.56   3
  -6   7   1  361.89   13.84   1
   5  -7  -1   54.70    3.85   3
   5  -7  -1   63.97    4.37   3
   4  -7  -1  417.29   14.48   3
   4  -7  -1  367.88   14.04   3
   3  -7  -1   43.41    3.26   3
   3  -7  -1   38.95    3.05   3
  -3   7   1   49.09    3.38   3
   2  -7  -1  617.78   21.07   3
   2  -7  -1  630.40   20.22   2
   2  -7  -1  640.25   21.08   3
  -2   7   1  625.52   21.05   3
   1  -7  -1   20.32    2.52   3
   1  -7  -1   21.15    2.58   3
   1  -7  -1   18.76    2.26   2
  -1   7   1   24.27    2.80   3
   0  -7  -1   37.81    3.15   3
   0  -7  -1   29.64    2.93   2
   0  -7  -1   38.14    3.05   3
   0   7   1   32.14    3.29   3
  -1  -7  -1  163.73    8.29   3
  -1  -7  -1  188.03    7.66   2
   1   7   1  194.63    8.64   3
   1   7   1  188.41    6.09   4
  -2  -7  -1   11.01    2.28   3
   2   7   1   11.01    2.35   3
  -3  -7  -1   91.05    6.15   3
   3   7   1   96.03    6.18   3
  -4  -7  -1   15.19    3.06   3
   4   7   1   18.82    3.40   3
  -5  -7  -1  161.93    9.58   3
   5   7   1  162.16    9.52   3
   8  -8  -1    1.97    1.42   3
   7  -8  -1  124.36    6.88   3
   6  -8  -1   24.35    3.11   3
   5  -8  -1   39.48    3.31   3
   4  -8  -1   42.01    3.58   3
   4  -8  -1   40.55    3.34   3
   3  -8  -1 1712.65   51.01   3
   3  -8  -1 1658.66   50.92   3
   3  -8  -1 1628.35   48.71   2
  -3   8   1 1537.21   50.58   3
   2  -8  -1   30.49    3.27   3
   2  -8  -1   32.64    3.35   3
   2  -8  -1   27.94    3.04   2
  -2   8   1   25.90    3.07   3
   1  -8  -1   11.36    1.93   2
   1  -8  -1   11.12    2.17   3
   1  -8  -1    9.05    1.93   3
  -1   8   1    8.79    1.87   3
   0  -8  -1  307.34   12.54   3
   0  -8  -1  303.05   11.50   2
   0   8   1  319.31   12.60   3
  -1  -8  -1    1.09    1.23   3
  -1  -8  -1    1.14    1.02   2
   1   8   1   -0.94    1.02   3
  -2  -8  -1   73.65    5.40   3
   2   8   1   74.83    5.43   3
  -3  -8  -1  119.16    7.40   3
   3   8   1  112.85    7.30   3
  -4  -8  -1    2.45    1.85   3
   4   8   1    1.43    1.74   3
   8  -9  -1    1.34    1.43   3
   7  -9  -1    1.09    1.41   3
   6  -9  -1    5.68    1.78   3
   5  -9  -1  122.92    6.61   3
   4  -9  -1   43.05    3.71   3
  -4   9   1   44.78    4.29   3
   3  -9  -1  248.71   10.67   3
   3  -9  -1  242.94   10.23   2
  -3   9   1  257.60   10.68   3
   2  -9  -1  117.63    6.62   3
   2  -9  -1  127.33    6.41   2
  -2   9   1  125.74    6.74   3
   1  -9  -1   17.81    2.62   2
   1  -9  -1   15.09    2.63   3
  -1   9   1   18.20    2.89   3
   0  -9  -1   15.01    2.49   2
   0  -9  -1   13.40    2.62   3
   0   9   1    9.77    2.22   3
  -1  -9  -1   83.46    5.79   3
  -1  -9  -1   79.01    5.02   2
   1   9   1   80.41    5.69   3
  -2  -9  -1   11.09    2.31   2
  -2  -9  -1   16.80    3.24   3
   2   9   1   15.28    3.09   3
  -3  -9  -1   20.08    3.66   3
   3   9   1   20.75    3.74   3
  -4  -9  -1   83.98    6.87   3
   4   9   1   85.09    6.85   3
   8 -10  -1    6.58    2.22   3
   7 -10  -1    0.33    1.35   3
   6 -10  -1    6.02    1.97   3
   5 -10  -1   12.96    2.55   3
   4 -10  -1  185.97    9.20   3
  -4  10   1  205.18    9.41   3
   3 -10  -1    4.46    1.75   3
   3 -10  -1    6.78    1.92   2
  -3  10   1    7.87    2.17   3
   2 -10  -1  130.15    6.91   2
   2 -10  -1  137.12    7.44   3
  -2  10   1  125.60    7.14   3
   1 -10  -1   32.48    3.70   2
   1 -10  -1   28.92    3.72   3
  -1  10   1   33.06    3.96   3
   0 -10  -1  101.71    5.96   2
   0 -10  -1   89.50    6.26   3
   0  10   1  116.76    6.97   3
  -1 -10  -1   97.32    5.80   2
  -1 -10  -1   97.84    6.67   3
   1  10   1   88.39    6.40   3
  -2 -10  -1    9.10    2.29   2
  -2 -10  -1    7.29    2.32   3
   2  10   1    5.72    2.37   3
  -3 -10  -1   11.72    3.16   3
   3  10   1   12.83    3.27   3
   7 -11  -1    1.50    1.57   3
   6 -11  -1    9.64    2.38   3
   5 -11  -1   88.94    6.02   3
   4 -11  -1   44.95    4.69   3
  -4  11   1   58.73    4.70   3
   3 -11  -1   46.70    4.69   2
   3 -11  -1   41.24    4.67   3
  -3  11   1   51.71    5.15   3
   2 -11  -1   62.93    4.60   2
   2 -11  -1   45.71    4.93   3
  -2  11   1   46.46    4.99   3
   1 -11  -1   14.01    2.70   2
   1 -11  -1   19.31    3.25   3
  -1  11   1   14.12    2.91   3
   0 -11  -1   21.07    3.21   2
   0 -11  -1   25.48    3.92   3
   0  11   1   27.93    4.12   3
  -1 -11  -1   12.37    3.07   3
  -1 -11  -1   12.25    2.67   2
   1  11   1   14.58    3.33   3
   6 -12  -1   11.31    2.61   3
   5 -12  -1    3.52    1.74   3
   4 -12  -1   66.40    5.38   3
   3 -12  -1    6.48    2.29   3
   3 -12  -1   10.16    2.61   2
   2 -12  -1   50.31    5.45   3
   2 -12  -1   56.03    5.42   2
   1 -12  -1    2.64    1.83   3
   1 -12  -1    0.84    1.56   2
   0 -12  -1    2.10    1.60   2
   0 -12  -1    2.98    1.88   3
  -1  13  -2   15.31    3.38   3
   1 -13   2   15.40    3.42   3
  -2  13  -2    5.57    2.45   3
   2 -13   2    5.71    2.26   3
  -3  13  -2    2.93    2.15   3
   3 -13   2    5.62    2.45   3
   1  12  -2   11.88    3.17   3
  -1 -12   2   14.29    3.18   2
  -1 -12   2    6.49    2.51   3
   0  12  -2   43.07    5.28   3
   0 -12   2   50.72    5.75   3
   0 -12   2   51.80    5.40   2
  -1  12  -2    0.06    1.51   3
   1 -12   2    1.44    1.65   2
   1 -12   2    1.12    1.61   3
  -2  12  -2   19.53    3.52   3
   2 -12   2   15.02    3.10   2
   2 -12   2   11.93    2.74   3
  -3  12  -2    9.84    2.72   3
   3 -12   2    5.90    2.17   2
   3 -12   2    2.42    1.85   3
   4 -12   2  101.31    6.90   2
   4 -12   2  125.90    7.71   3
   5 -12   2   27.57    4.12   3
   3  11  -2    1.64    1.91   3
  -3 -11   2    2.60    2.11   3
   2  11  -2   85.66    6.76   3
  -2 -11   2   82.27    6.07   2
  -2 -11   2   94.10    6.97   3
   1  11  -2    3.89    2.04   3
  -1 -11   2    1.99    1.70   3
  -1 -11   2    4.27    1.86   2
   0  11  -2  100.34    6.68   3
   0 -11   2   79.80    5.80   2
   0 -11   2   89.50    6.37   3
  -1  11  -2   44.14    4.86   3
   1 -11   2   34.06    4.13   2
   1 -11   2   38.66    4.53   3
  -2  11  -2   21.67    3.45   3
   2 -11   2   30.73    3.98   3
   2 -11   2   29.91    3.91   2
  -3  11  -2    8.35    2.32   3
   3 -11   2    9.19    2.49   3
   3 -11   2   10.50    2.44   2
   4 -11   2  327.75   13.86   2
   4 -11   2  346.08   14.58   3
   5 -11   2  101.90    6.71   3
   6 -11   2    5.27    2.15   3
   4  10  -2  107.41    7.85   3
  -4 -10   2  103.95    7.73   3
   3  10  -2    2.48    2.01   3
  -3 -10   2    2.35    1.70   3
   2  10  -2    4.70    2.00   3
  -2 -10   2    7.31    2.37   3
   1  10  -2  106.23    6.80   3
  -1 -10   2   97.29    6.56   3
  -1 -10   2  104.80    6.32   2
   0  10  -2    5.21    1.90   3
   0 -10   2    4.78    1.77   2
   0 -10   2    7.80    2.18   3
  -1  10  -2    1.36    1.36   3
   1 -10   2    2.23    1.39   3
   1 -10   2    1.94    1.33   2
  -2  10  -2   24.22    3.38   3
   2 -10   2   22.98    3.16   2
   2 -10   2   25.70    3.48   3
  -3  10  -2   84.75    5.66   3
   3 -10   2   81.91    5.41   2
   3 -10   2   73.66    5.38   3
   4 -10   2  179.35    8.97   3
   4 -10   2  160.16    8.32   2
   5 -10   2   96.48    6.33   3
   6 -10   2   -1.16    1.08   3
   7 -10   2   -1.39    1.17   3
   5   9  -2    6.10    2.63   3
  -5  -9   2    7.91    2.93   3
   4   9  -2    1.40    1.87   3
  -4  -9   2    4.26    2.22   3
   3   9  -2  115.38    7.46   3
  -3  -9   2  112.74    7.34   3
   2   9  -2   17.07    3.05   3
  -2  -9   2   19.04    3.31   3
   1   9  -2  110.54    6.76   3
  -1  -9   2  113.91    6.75   3
   0   9  -2  179.24    8.66   3
   0  -9   2  169.84    8.48   3
   0  -9   2  156.05    7.85   2
  -1   9  -2   17.00    2.75   3
   1  -9   2   23.49    3.05   2
   1  -9   2   28.49    3.49   3
  -2   9  -2   83.42    5.33   3
   2  -9   2   75.95    4.95   2
   2  -9   2   85.78    5.39   3
  -3   9  -2    1.85    1.34   3
   3  -9   2    2.11    1.30   3
   3  -9   2    0.02    0.89   2
   4  -9   2   33.91    3.76   2
   4  -9   2   31.19    3.68   3
   5  -9   2  158.04    8.22   3
   6  -9   2   40.13    4.48   3
   7  -9   2   -0.79    1.32   3
   5   8  -2  153.88    9.28   3
  -5  -8   2  147.88    9.02   3
   4   8  -2  119.87    7.47   3
  -4  -8   2  109.10    7.23   3
   3   8  -2  204.44   10.06   3
  -3  -8   2  195.85    9.89   3
   2   8  -2   96.66    6.13   3
  -2  -8   2  103.50    6.26   3
   1   8  -2    0.79    1.08   3
  -1  -8   2    0.08    1.03   3
   0   8  -2    2.80    1.32   3
   0  -8   2    4.25    1.43   2
   0  -8   2    4.16    1.54   3
  -1   8  -2   80.56    5.04   3
   1  -8   2   83.62    5.12   3
   1  -8   2   91.09    5.11   2
  -2   8  -2   39.42    3.35   3
   2  -8   2   35.56    3.62   3
   2  -8   2   41.46    3.26   2
  -3   8  -2   83.09    5.14   3
   3  -8   2   87.13    5.06   2
   3  -8   2   90.08    5.34   3
   4  -8   2   -1.14    0.77   3
   5  -8   2   16.69    2.74   3
   6  -8   2  115.63    6.79   3
  -7   8  -2   15.63    2.93   3
   7  -8   2   18.48    3.11   3
  -8   8  -2    9.17    2.58   3
   8  -8   2   12.14    2.88   3
   6   7  -2   15.89    3.41   3
  -6  -7   2   14.38    3.29   3
   5   7  -2    1.16    1.50   3
  -5  -7   2    1.03    1.56   3
   4   7  -2  336.74   14.16   3
  -4  -7   2  322.08   14.00   3
   3   7  -2  352.81   14.27   3
  -3  -7   2  356.71   14.34   3
   2   7  -2   69.21    4.78   3
  -2  -7   2   67.69    4.70   3
   1   7  -2    1.21    0.95   3
  -1  -7   2    1.14    1.06   3
   0   7  -2   14.27    2.18   3
   0  -7   2   22.27    2.71   3
  -1   7  -2  230.71    9.72   3
   1  -7   2  233.07    9.39   2
   1  -7   2  258.29    9.99   3
  -2   7  -2    5.53    1.49   3
   2  -7   2    7.62    1.71   3
   2  -7   2    5.46    1.47   2
   3  -7   2  214.53    8.91   2
   3  -7   2  235.50    9.57   3
   4  -7   2   19.03    2.55   3
   5  -7   2    6.19    1.83   3
   6  -7   2   92.71    5.87   3
  -7   7  -2   64.63    4.94   3
   7  -7   2   66.14    5.14   3
  -8   7  -2    6.31    2.20   3
   8  -7   2    6.59    2.35   3
   7   6  -2   30.22    4.67   3
  -7  -6   2   34.79    4.85   3
   6   6  -2   89.73    6.55   3
  -6  -6   2   95.31    6.66   3
   5   6  -2   42.52    4.57   3
  -5  -6   2   37.26    4.39   3
   4   6  -2   53.24    4.42   3
  -4  -6   2   52.70    4.32   3
   3   6  -2 1305.33   40.84   3
  -3  -6   2 1232.83   40.68   3
   2   6  -2   58.27    4.02   3
  -2  -6   2   58.27    4.01   3
   1   6  -2    4.47    1.28   3
  -1  -6   2    6.87    1.54   3
   0   6  -2   45.09    3.23   3
   0  -6   2   49.40    3.32   3
   0  -6   2   46.76    3.25   3
  -1   6  -2  595.86   20.27   3
   1  -6   2  595.90   19.39   2
   1  -6   2  587.38   20.25   3
   1  -6   2  654.89   20.47   3
  -2   6  -2  986.55   30.69   3
   2  -6   2  942.42   29.20   2
   2  -6   2  959.82   30.64   3
   2  -6   2  953.62   30.59   3
   3  -6   2  180.70    7.67   3
   3  -6   2  168.65    7.16   2
   4  -6   2   19.29    2.54   3
   5  -6   2  354.37   13.63   3
  -6   6  -2   66.82    4.71   3
   6  -6   2   67.74    4.80   3
  -7   6  -2  201.08    9.57   3
   7  -6   2  181.77    9.36   3
  -8   6  -2   36.26    4.42   3
   8  -6   2   37.64    4.71   3
   7   5  -2   35.57    4.80   3
  -7  -5   2   26.90    4.18   3
   6   5  -2  137.11    7.95   3
  -6  -5   2  136.16    7.93   3
   5   5  -2    6.18    1.90   3
  -5  -5   2    5.42    1.78   3
   4   5  -2    8.96    2.00   3
  -4  -5   2    7.75    1.93   3
   3   5  -2  951.82   31.35   3
  -3  -5   2  982.22   31.43   3
   2   5  -2   11.68    1.80   3
   2   5  -2   10.31    1.77   3
   2   5  -2   13.70    0.94   4
  -2  -5   2   10.49    1.75   3
   1   5  -2   17.49    2.15   3
   1   5  -2   16.05    2.00   3
  -1  -5   2   20.20    2.24   3
  -1  -5   2   13.98    1.85   3
   0   5  -2 1867.41   54.75   3
   0   5  -2 1708.85   54.54   3
   0  -5   2 1850.89   54.65   3
   0  -5   2 1785.09   54.62   3
  -1   5  -2   94.91    4.60   3
  -1   5  -2   88.55    4.45   3
   1  -5   2   93.18    4.35   2
   1  -5   2   87.11    4.42   3
   1  -5   2   90.61    4.50   3
  -2   5  -2  182.34    7.40   3
  -2   5  -2  198.60    7.65   3
   2  -5   2  176.48    7.02   2
   2  -5   2  180.54    7.46   3
   2  -5   2  177.62    7.38   3
  -3   5  -2  178.79    7.16   2
   3  -5   2  180.71    7.07   2
   3  -5   2  174.07    7.55   3
   3  -5   2  179.54    7.42   3
  -4   5  -2  231.49    8.90   2
   4  -5   2  231.43    9.38   3
  -5   5  -2    0.10    0.87   3
   5  -5   2    2.12    1.10   3
  -6   5  -2   33.74    3.59   3
   6  -5   2   33.67    3.68   3
  -7   5  -2   64.09    4.78   3
   7  -5   2   63.28    4.80   3
  -8   5  -2  329.41   14.10   3
   8  -5   2  320.89   14.04   3
   8   4  -2   -1.09    1.56   3
  -8  -4   2    0.47    1.57   3
   7   4  -2   43.84    5.08   3
  -7  -4   2   52.66    5.39   3
   6   4  -2    1.77    1.33   3
  -6  -4   2   -0.36    0.99   3
   5   4  -2  125.61    6.78   3
  -5  -4   2  117.41    6.56   3
   4   4  -2    6.67    1.64   3
  -4  -4   2    6.46    1.60   3
   3   4  -2   -0.55    0.61   3
   3   4  -2   -0.10    0.65   3
  -3  -4   2   -0.15    0.63   3
   2   4  -2   22.98    2.26   3
   2   4  -2   19.14    2.14   3
   2   4  -2   22.74    1.18   4
  -2  -4   2   20.20    2.20   3
  -2  -4   2   20.06    2.11   3
   1   4  -2   42.45    2.62   3
   1   4  -2   37.68    2.57   3
  -1  -4   2   42.40    2.59   3
  -1  -4   2   41.42    2.66   3
   0   4  -2  290.16   10.66   3
   0   4  -2  311.04   10.72   3
   0  -4   2  312.32   10.74   3
   0  -4   2  319.50   10.75   3
  -1   4  -2 2713.53   80.93   3
  -1   4  -2 2713.60   80.98   3
   1  -4   2 2635.61   80.87   3
   1  -4   2 2840.19   81.05   3
  -2   4  -2   63.02    3.47   3
  -2   4  -2   58.78    3.20   2
   2  -4   2   65.99    3.32   1
   2  -4   2   66.91    3.52   3
   2  -4   2   61.26    3.38   3
   2  -4   2   59.96    3.18   2
  -3   4  -2  276.62   10.40   3
  -3   4  -2  274.02    9.72   2
   3  -4   2  283.10   10.40   3
   3  -4   2  291.35   10.49   3
  -4   4  -2  613.02   19.03   2
   4  -4   2  589.23   20.10   3
  -5   4  -2   35.71    3.00   3
  -5   4  -2   42.10    2.93   2
   5  -4   2   36.00    3.08   3
  -6   4  -2    2.68    1.38   3
   6  -4   2    2.27    1.32   3
  -7   4  -2   16.46    2.86   3
   7  -4   2   11.92    2.46   3
  -8   4  -2    1.17    1.51   3
   8  -4   2   -0.21    1.48   3
   8   3  -2   23.09    3.82   3
  -8  -3   2   18.23    3.53   3
   7   3  -2   16.26    3.01   3
  -7  -3   2   18.75    3.20   3
   6   3  -2  361.95   14.57   3
  -6  -3   2  370.22   14.55   3
   5   3  -2  151.65    7.21   3
  -5  -3   2  130.35    6.79   3
  -5  -3   2  141.57    4.73   4
   4   3  -2  134.58    6.06   3
   4   3  -2  129.42    6.27   3
  -4  -3   2  137.66    4.42   4
  -4  -3   2  133.00    6.30   3
   3   3  -2  210.41    7.98   3
   3   3  -2  203.69    8.15   3
  -3  -3   2  207.21    8.15   3
   2   3  -2   98.59    4.43   3
   2   3  -2   98.23    3.34   4
   2   3  -2   95.39    4.29   3
  -2  -3   2   93.27    4.35   3
  -2  -3   2  101.18    4.34   3
   1   3  -2 2414.11   72.35   3
   1   3  -2 2526.97   72.35   3
  -1  -3   2 2310.43   72.29   3
  -1  -3   2 2501.38   72.30   3
   0   3  -2 2485.81   74.21   3
   0   3  -2 2467.43   74.17   3
   0  -3   2 2454.84   74.17   3
   0  -3   2 2624.62   74.23   3
  -1   3  -2   11.37    1.32   3
  -1   3  -2    5.35    0.95   3
   1  -3   2    3.61    0.79   3
   1  -3   2    2.42    0.67   2
   1  -3   2    4.68    0.89   3
  -2   3  -2    9.96    1.26   2
  -2   3  -2    9.57    1.36   3
   2  -3   2   13.99    1.49   1
   2  -3   2   10.80    1.42   3
   2  -3   2   12.37    1.35   2
   2  -3   2   11.01    1.39   3
  -3   3  -2  167.64    6.73   3
  -3   3  -2  157.93    6.03   2
   3  -3   2  163.49    5.91   1
   3  -3   2  155.34    6.55   3
  -4   3  -2   10.55    1.54   2
  -4   3  -2   10.18    1.67   3
   4  -3   2   10.23    1.70   3
  -5   3  -2   71.72    3.85   2
  -5   3  -2   67.60    4.26   3
   5  -3   2   71.09    4.39   3
  -6   3  -2   91.50    5.49   3
   6  -3   2   93.50    5.54   3
  -7   3  -2   90.10    5.88   3
   7  -3   2   92.38    6.01   3
  -8   3  -2    9.16    2.40   3
   8  -3   2    6.37    2.12   3
   8   2  -2  103.64    6.92   3
  -8  -2   2  106.07    6.96   3
  -8  -2   2  103.64    5.45   1
   7   2  -2    7.15    2.03   3
  -7  -2   2    8.78    2.21   3
  -7  -2   2    9.38    1.74   1
   6   2  -2   75.61    5.09   3
  -6  -2   2   92.66    3.79   4
  -6  -2   2   86.98    5.34   3
   5   2  -2    0.70    0.88   3
   5   2  -2    1.25    1.02   3
  -5  -2   2    2.16    0.62   4
  -5  -2   2    0.39    0.80   3
   4   2  -2   27.57    2.36   3
   4   2  -2   30.40    2.36   3
  -4  -2   2   30.39    2.44   3
  -4  -2   2   33.25    1.70   4
   3   2  -2  675.22   21.20   3
   3   2  -2  658.14   21.34   3
  -3  -2   2  649.09   21.09   3
  -3  -2   2  705.95   19.47   4
  -3  -2   2  654.49   21.30   3
   2   2  -2    2.18    0.64   3
   2   2  -2    2.19    0.60   3
   2   2  -2    2.20    0.44   4
  -2  -2   2    3.06    0.68   3
  -2  -2   2    1.82    0.41   4
  -2  -2   2    3.82    0.74   3
   1   2  -2  745.51   22.47   3
   1   2  -2  754.33   22.53   3
  -1  -2   2  714.53   22.48   3
  -1  -2   2  732.07   22.44   3
   0   2  -2 2854.10   85.17   3
   0   2  -2 2925.79   85.20   3
   0  -2   2 2898.12   85.17   3
   0  -2   2 2928.73   85.46   3
  -1   2  -2 3981.94  119.64   3
   1  -2   2 3962.09  114.03   2
   1  -2   2 4199.66  119.71   3
   1  -2   2 4108.01  119.62   3
  -2   2  -2   62.51    3.10   3
  -2   2  -2   60.58    2.70   2
   2  -2   2   61.38    2.66   1
   2  -2   2   64.55    3.10   3
  -3   2  -2  148.54    5.72   3
  -3   2  -2  137.18    5.02   2
  -3   2  -2  126.87    5.62   3
   3  -2   2  122.75    4.73   1
   3  -2   2  125.55    5.54   3
  -4   2  -2   51.55    3.32   3
  -4   2  -2   53.42    2.89   2
   4  -2   2   52.99    3.41   3
   4  -2   2   53.37    2.64   1
  -5   2  -2    6.82    1.23   1
  -5   2  -2    4.65    1.40   3
   5  -2   2    6.67    1.59   3
  -6   2  -2   46.22    3.83   3
   6  -2   2   42.07    4.14   3
  -7   2  -2  266.31   11.69   3
   7  -2   2  255.46   11.54   3
  -8   2  -2    7.95    2.31   3
   8  -2   2   15.15    3.04   3
   9   1  -2    1.19    1.79   3
  -9  -1   2    2.42    1.88   3
   8   1  -2   37.97    4.41   3
  -8  -1   2   34.36    3.40   1
  -8  -1   2   37.40    4.43   3
   7   1  -2   71.68    5.04   3
  -7  -1   2   70.51    4.04   1
  -7  -1   2   67.80    4.87   3
   6   1  -2   43.79    3.57   3
  -6  -1   2   47.08    3.61   3
   5   1  -2   10.22    1.71   3
   5   1  -2   11.08    1.79   3
  -5  -1   2   10.50    1.76   3
  -5  -1   2   11.72    1.34   4
   4   1  -2  185.07    7.34   3
   4   1  -2  187.24    7.20   3
  -4  -1   2  182.45    7.26   3
  -4  -1   2  184.80    6.32   4
   3   1  -2  174.30    6.60   3
   3   1  -2  181.22    6.52   3
  -3  -1   2  183.91    5.90   4
  -3  -1   2  173.26    6.44   3
  -3  -1   2  173.64    6.57   3
   2   1  -2 3611.61  104.58   3
   2   1  -2 3587.91  100.87   4
   2   1  -2 3568.94  104.69   3
  -2  -1   2 3577.51  100.24   4
  -2  -1   2 3487.47  104.29   3
  -2  -1   2 3547.02  104.38   3
   1   1  -2    0.18    0.25   3
   1   1  -2    0.09    0.28   4
   1   1  -2    0.51    0.32   3
  -1  -1   2    0.16    0.28   4
  -1  -1   2   -0.37    0.24   3
  -1  -1   2    0.72    0.33   3
   0   1  -2 2021.55   58.47   3
   0   1  -2 1879.41   58.44   3
   0  -1   2 1988.87   58.45   3
   0  -1   2 2037.31   58.14   3
  -1   1  -2 7063.05  200.70   3
  -1   1  -2 6984.52  190.72   2
   1  -1   2 6737.14  190.57   2
   1  -1   2 6546.38  200.08   3
  -2   1  -2  220.43    6.97   2
  -2   1  -2  222.21    7.83   3
  -2   1  -2  230.27    7.89   3
   2  -1   2  219.77    7.82   3
   2  -1   2  215.00    6.78   1
  -3   1  -2  695.61   21.71   3
  -3   1  -2  646.33   21.53   3
   3  -1   2  693.03   19.50   1
   3  -1   2  666.99   21.60   3
  -4   1  -2   97.84    3.81   1
  -4   1  -2   87.51    4.69   3
   4  -1   2   87.19    4.72   3
  -5   1  -2  257.35   10.67   3
  -5   1  -2  276.00    8.99   1
   5  -1   2  265.30   10.70   3
  -6   1  -2  213.63    7.62   1
  -6   1  -2  194.26    9.30   3
   6  -1   2  213.87    9.50   3
  -7   1  -2   51.33    5.08   3
   7  -1   2   62.98    4.88   3
  -8   1  -2  115.93    7.41   3
   8  -1   2   99.07    6.93   3
   9   0  -2   52.25    5.64   3
  -9   0   2   69.42    5.56   3
  -9   0   2   75.57    4.81   1
   8   0  -2   13.40    2.66   3
  -8   0   2   15.16    2.72   3
  -8   0   2   12.41    2.16   1
   7   0  -2  107.61    6.18   3
  -7   0   2  110.90    5.39   1
  -7   0   2  108.73    6.21   3
   6   0  -2    2.08    1.07   3
   6   0  -2    1.50    1.01   3
  -6   0   2    0.97    0.74   1
  -6   0   2    1.09    0.98   3
   5   0  -2   57.14    3.54   3
   5   0  -2   63.61    3.60   3
  -5   0   2   62.58    3.65   3
   4   0  -2  956.09   29.16   3
   4   0  -2  951.02   29.26   3
  -4   0   2  921.20   29.21   3
   3   0  -2    1.81    0.55   3
   3   0  -2    1.12    0.47   3
  -3   0   2    2.63    0.59   3
  -3   0   2    2.44    0.61   3
  -3   0   2    2.59    0.57   4
   2   0  -2   18.08    1.05   3
  -2   0   2   15.37    1.02   3
  -2   0   2   16.83    1.11   4
  -2   0   2   17.52    1.02   3
   1   0  -2  567.50   16.96   3
   1   0  -2  574.70   16.84   4
   1   0  -2  584.14   16.95   3
  -1   0   2  579.27   16.83   4
  -1   0   2  572.85   16.96   3
  -1   0   2  582.06   16.98   3
   0   0  -2  109.74    3.65   3
   0   0  -2  111.81    3.81   4
   0   0   2  109.13    3.65   3
  -1   0  -2 1734.27   50.12   2
  -1   0  -2 1765.72   53.11   3
  -1   0  -2 1774.86   53.11   3
   1   0   2 1874.13   53.14   3
   1   0   2 1840.54   53.12   3
  -2   0  -2  630.81   20.31   3
  -2   0  -2  652.96   20.33   3
   2   0   2  651.52   20.29   3
   2   0   2  656.35   20.36   3
  -3   0  -2    1.75    0.77   3
  -3   0  -2    1.66    0.77   3
  -3   0  -2    1.92    0.46   1
   3   0   2    2.16    0.81   3
   3   0   2    3.75    0.97   3
  -4   0  -2  150.19    5.13   1
  -4   0  -2  151.74    6.78   3
   4   0   2  152.79    6.75   3
  -5   0  -2   21.07    2.69   3
   5   0   2   16.73    2.45   3
  -6   0  -2    2.51    0.87   1
  -6   0  -2    0.63    1.06   3
   6   0   2    1.57    1.26   3
  -7   0  -2    3.18    1.64   3
   7   0   2    2.92    1.66   3
  -8   0  -2   38.67    4.85   3
   8   0   2   34.95    4.63   3
   9  -1  -2   46.76    5.16   3
  -9   1   2   46.18    5.08   3
  -9   1   2   43.10    4.20   1
   8  -1  -2   23.66    3.35   3
  -8   1   2   17.87    2.92   3
  -8   1   2   21.52    2.84   1
   7  -1  -2   21.62    2.81   3
  -7   1   2   14.79    2.39   3
  -7   1   2   16.97    2.31   1
   6  -1  -2   27.08    2.82   3
  -6   1   2   28.17    2.93   3
  -6   1   2   28.59    2.70   1
   5  -1  -2   35.68    2.59   3
   5  -1  -2   37.57    2.68   3
  -5   1   2   38.89    2.53   1
  -5   1   2   38.78    2.69   3
   4  -1  -2   23.97    1.79   3
   4  -1  -2   22.85    1.81   3
  -4   1   2   22.71    1.79   3
  -4   1   2   21.84    1.78   3
  -4   1   2   23.33    1.78   1
   3  -1  -2  711.02   22.10   3
  -3   1   2  749.96   21.36   1
  -3   1   2  703.41   22.06   3
  -3   1   2  726.05   22.08   3
   2  -1  -2   30.53    1.39   3
  -2   1   2   32.62    1.42   3
  -2   1   2   33.19    1.44   3
  -2   1   2   26.98    1.60   4
   1  -1  -2  296.84    8.80   3
   1  -1  -2  289.43    8.79   3
   1  -1  -2  297.40    9.14   4
  -1   1   2  290.73    8.82   3
  -1   1   2  292.39    9.08   4
  -1   1   2  297.01    8.81   3
   0  -1  -2  335.55   10.33   3
   0  -1  -2  327.71   10.05   4
   0   1   2  326.05    9.52   2
   0   1   2  348.53   10.34   3
   0   1   2  336.14   10.04   4
   0   1   2  338.14    9.57   1
   0   1   2  323.67   10.26   3
  -1  -1  -2  443.13   14.56   3
  -1  -1  -2  446.15   14.48   3
  -1  -1  -2  472.96   13.71   4
   1   1   2  488.35   14.57   3
   1   1   2  459.69   14.56   3
  -2  -1  -2  274.01    9.49   3
  -2  -1  -2  272.01    9.63   3
   2   1   2  265.45    9.55   3
   2   1   2  283.34    9.53   3
  -3  -1  -2  632.51   19.87   3
  -3  -1  -2  580.09   16.93   1
  -3  -1  -2  596.27   19.54   3
   3   1   2  593.34   19.68   3
  -4  -1  -2  119.85    5.92   3
  -4  -1  -2  114.96    3.95   1
   4   1   2  116.63    5.82   3
  -5  -1  -2    0.39    0.92   3
  -5  -1  -2   -0.01    0.50   1
   5   1   2   -0.21    0.91   3
  -6  -1  -2    6.37    1.91   3
   6   1   2    6.97    2.01   3
  -7  -1  -2  112.60    7.09   3
   7   1   2   97.93    6.74   3
   8   1   2  102.43    7.38   3
   9  -2  -2    2.66    1.71   3
  -9   2   2    2.03    1.50   1
  -9   2   2    3.55    1.90   3
   8  -2  -2    0.45    1.14   3
  -8   2   2    0.14    1.05   3
  -8   2   2    0.30    1.03   1
   7  -2  -2  480.65   16.68   3
  -7   2   2  449.49   15.63   1
  -7   2   2  441.54   16.44   3
   6  -2  -2    9.72    1.66   3
  -6   2   2    9.44    1.62   1
  -6   2   2    9.48    1.71   3
   5  -2  -2    0.57    0.64   3
  -5   2   2    1.48    0.80   3
  -5   2   2    1.51    0.79   1
   4  -2  -2   79.36    3.64   3
  -4   2   2   82.42    3.74   3
  -4   2   2   77.23    3.62   3
   3  -2  -2 1027.73   32.15   3
  -3   2   2 1062.89   32.18   3
  -3   2   2 1111.31   32.25   3
  -3   2   2 1083.32   31.01   1
   2  -2  -2 8074.16  217.17   1
  -2   2   2 7570.35  228.30   3
  -2   2   2 7785.84  216.79   1
   1  -2  -2  658.56   19.98   3
   1  -2  -2  667.41   19.12   1
  -1   2   2  661.78   19.54   4
  -1   2   2  645.16   19.24   2
  -1   2   2  679.59   20.01   3
  -1   2   2  658.54   19.99   3
  -1   2   2  683.27   19.23   1
   0  -2  -2   72.35    2.54   1
   0  -2  -2   72.82    2.59   2
   0  -2  -2   72.64    2.95   3
   0  -2  -2   74.10    3.03   3
   0  -2  -2   68.45    2.77   4
   0   2   2   75.49    2.65   1
   0   2   2   76.89    2.99   3
   0   2   2   72.81    2.77   4
   0   2   2   72.77    3.01   3
  -1  -2  -2  288.79    8.48   1
  -1  -2  -2  291.54   10.05   3
  -1  -2  -2  291.75    9.87   3
  -1  -2  -2  291.07    9.02   4
   1   2   2  315.69   10.12   3
   1   2   2  308.93    9.97   3
  -2  -2  -2   23.62    1.84   3
  -2  -2  -2   23.06    1.31   4
  -2  -2  -2   21.62    2.15   3
   2   2   2   19.57    2.08   3
   2   2   2   26.49    1.96   3
  -3  -2  -2  224.02    8.95   3
  -3  -2  -2  221.06    6.57   1
  -3  -2  -2  225.06    8.69   3
   3   2   2  231.71    8.99   3
  -4  -2  -2    4.55    0.59   1
  -4  -2  -2    4.09    1.30   3
   4   2   2    1.98    1.09   3
  -5  -2  -2    7.92    1.97   3
  -5  -2  -2    7.26    0.85   1
   5   2   2    7.45    1.93   3
  -6  -2  -2  194.16    9.57   3
   6   2   2  177.15    9.25   3
  -7  -2  -2   31.34    4.44   3
   7   2   2   36.04    4.67   3
   9  -3  -2    4.98    1.87   3
  -9   3   2    5.24    1.79   1
  -9   3   2    8.65    2.41   3
   8  -3  -2   22.97    3.09   3
  -8   3   2   25.62    3.33   3
  -8   3   2   22.44    2.93   1
   7  -3  -2  656.32   22.56   3
  -7   3   2  665.94   22.58   3
  -7   3   2  668.90   21.60   1
   6  -3  -2   63.61    3.90   3
  -6   3   2   65.53    3.96   1
  -6   3   2   67.49    3.95   3
   5  -3  -2  164.66    6.81   3
  -5   3   2  170.39    6.87   3
  -5   3   2  172.73    6.92   1
   4  -3  -2  550.42   17.42   3
  -4   3   2  542.97   17.37   3
  -4   3   2  532.90   16.98   1
   3  -3  -2 2090.38   63.51   3
   3  -3  -2 2171.99   63.63   3
  -3   3   2 2175.40   63.64   3
   2  -3  -2  253.54    9.56   3
   2  -3  -2  309.17    9.50   1
   2  -3  -2  312.92    9.70   3
  -2   3   2  294.00    9.71   3
  -2   3   2  310.67    9.70   3
  -2   3   2  306.90    9.64   1
  -2   3   2  299.78    9.63   2
   1  -3  -2  457.83   13.28   1
   1  -3  -2  453.02   13.94   3
   1  -3  -2  454.60   13.41   2
   1  -3  -2  429.69   13.95   3
  -1   3   2  434.79   13.34   1
  -1   3   2  428.14   13.93   3
  -1   3   2  435.55   13.38   2
  -1   3   2  446.21   13.96   3
  -1   3   2  444.83   13.49   4
   0  -3  -2 1072.22   31.52   3
   0  -3  -2 1048.02   31.64   3
   0  -3  -2 1039.63   29.41   1
   0  -3  -2 1022.16   29.77   2
   0   3   2 1034.15   29.87   4
   0   3   2 1060.02   31.52   3
   0   3   2 1003.96   31.53   3
  -1  -3  -2  137.31    4.63   4
  -1  -3  -2  139.88    4.51   1
  -1  -3  -2  133.08    5.65   3
  -1  -3  -2  141.75    5.54   3
   1   3   2  141.14    5.70   3
   1   3   2  137.06    5.55   3
  -2  -3  -2  135.56    4.46   4
  -2  -3  -2  143.39    6.10   3
  -2  -3  -2  134.49    5.71   3
   2   3   2  128.19    5.88   3
  -3  -3  -2   50.68    2.05   4
  -3  -3  -2   50.87    3.52   3
  -3  -3  -2   49.06    3.35   3
   3   3   2   50.77    3.52   3
  -4  -3  -2   17.12    2.62   3
  -4  -3  -2   19.15    1.20   4
  -4  -3  -2   20.01    1.10   1
   4   3   2   21.43    2.91   3
  -5  -3  -2   15.45    2.68   3
   5   3   2   14.68    2.75   3
  -6  -3  -2   43.39    4.78   3
   6   3   2   47.75    5.03   3
  -7  -3  -2  119.53    7.94   3
   7   3   2  119.75    8.03   3
   9  -4  -2   16.07    2.94   3
  -9   4   2   14.14    2.72   1
   8  -4  -2   16.59    2.72   3
  -8   4   2   17.61    2.77   1
  -8   4   2   20.54    3.02   3
   7  -4  -2  177.25    8.20   3
  -7   4   2  192.81    8.29   3
  -7   4   2  187.08    8.22   1
   6  -4  -2   16.57    2.15   3
  -6   4   2   13.28    2.04   3
  -6   4   2   14.16    2.24   1
   5  -4  -2   19.56    2.12   3
   5  -4  -2   23.17    2.43   3
  -5   4   2   21.19    2.41   1
  -5   4   2   18.18    2.04   3
   4  -4  -2  882.28   27.60   3
   4  -4  -2  914.65   27.80   3
  -4   4   2  841.89   26.69   1
  -4   4   2  911.87   27.07   2
   3  -4  -2  146.27    5.80   3
   3  -4  -2  144.20    5.72   3
  -3   4   2  151.58    5.99   1
  -3   4   2  150.07    5.93   2
  -3   4   2  152.92    5.88   3
   2  -4  -2  717.27   21.70   3
   2  -4  -2  697.76   21.68   3
   2  -4  -2  690.51   20.73   1
  -2   4   2  703.75   21.68   3
  -2   4   2  672.79   21.68   3
  -2   4   2  684.99   20.90   1
  -2   4   2  705.70   21.02   2
   1  -4  -2    5.28    1.01   3
   1  -4  -2    3.99    0.80   1
   1  -4  -2    5.03    0.95   3
   1  -4  -2    4.73    0.89   2
  -1   4   2    6.78    1.09   3
  -1   4   2    4.35    0.95   3
  -1   4   2    5.15    0.96   2
   0  -4  -2  592.83   18.56   3
   0  -4  -2  578.49   17.15   1
   0  -4  -2  567.68   17.43   2
   0  -4  -2  590.00   18.77   3
   0   4   2  581.42   18.56   3
   0   4   2  581.90   18.69   3
   0   4   2  571.69   17.22   4
  -1  -4  -2   99.32    4.74   3
  -1  -4  -2   96.65    3.63   1
  -1  -4  -2   85.59    4.36   3
   1   4   2   99.06    3.45   4
   1   4   2   98.81    4.70   3
  -2  -4  -2  210.15    8.20   3
  -2  -4  -2  201.53    8.47   3
   2   4   2  201.39    8.42   3
  -3  -4  -2   55.64    4.02   3
   3   4   2   62.05    4.14   3
  -4  -4  -2  130.50    7.11   3
   4   4   2  135.45    7.19   3
  -5  -4  -2  268.36   11.97   3
   5   4   2  251.70   11.71   3
  -6  -4  -2   33.26    4.51   3
   6   4   2   31.74    4.41   3
   9  -5  -2   32.08    3.94   3
  -9   5   2   25.31    3.69   1
   8  -5  -2    2.70    1.32   3
  -8   5   2    2.48    1.35   3
  -8   5   2    7.65    2.11   1
   7  -5  -2    0.84    1.01   3
  -7   5   2    1.36    1.26   1
  -7   5   2   -0.11    0.83   3
   6  -5  -2  330.93   12.22   3
   6  -5  -2  307.57   12.28   3
  -6   5   2  328.50   12.15   3
  -6   5   2  339.37   12.33   1
   5  -5  -2  753.87   24.80   3
   5  -5  -2  811.04   25.16   3
  -5   5   2  750.77   24.24   1
   4  -5  -2    8.65    1.47   3
   4  -5  -2    0.27    0.56   3
  -4   5   2    1.66    0.93   1
  -4   5   2    0.36    0.70   2
   3  -5  -2   11.39    1.53   3
   3  -5  -2   10.72    1.51   3
  -3   5   2   12.09    1.79   1
  -3   5   2   10.08    1.59   2
  -3   5   2   10.57    1.47   3
   2  -5  -2   19.48    1.98   3
   2  -5  -2   19.73    1.97   3
  -2   5   2   19.62    2.09   1
  -2   5   2   20.27    1.99   3
  -2   5   2   17.54    1.95   2
   1  -5  -2  124.39    5.26   3
   1  -5  -2  119.14    4.75   1
   1  -5  -2  113.61    5.04   3
   1  -5  -2  114.61    4.86   2
  -1   5   2  114.45    5.13   3
   0  -5  -2 1134.08   31.92   1
   0  -5  -2 1108.82   34.49   3
   0  -5  -2 1090.80   32.34   2
   0  -5  -2 1098.52   34.17   3
   0   5   2 1110.68   32.01   4
   0   5   2 1080.34   34.32   3
  -1  -5  -2    0.81    0.60   1
  -1  -5  -2    0.28    0.70   3
  -1  -5  -2    0.96    0.77   3
   1   5   2    2.70    0.56   4
   1   5   2    1.29    0.86   3
  -2  -5  -2   40.72    3.23   3
  -2  -5  -2   44.83    3.17   3
  -2  -5  -2   36.42    2.14   1
   2   5   2   34.87    3.02   3
  -3  -5  -2  295.03   12.24   3
   3   5   2  303.93   12.29   3
  -4  -5  -2   66.13    5.05   3
   4   5   2   66.30    5.01   3
  -5  -5  -2   19.75    3.36   3
   5   5   2   30.63    4.20   3
  -6  -5  -2    4.91    2.26   3
   6   5   2    1.96    1.85   3
   9  -6  -2    0.46    1.33   3
  -9   6   2   -0.84    1.40   1
   8  -6  -2    7.23    1.93   3
  -8   6   2    5.31    1.94   1
  -8   6   2    6.17    1.82   3
   7  -6  -2  123.21    6.58   3
  -7   6   2  134.30    6.66   3
  -7   6   2  137.27    7.12   1
   6  -6  -2    6.70    1.58   3
  -6   6   2    7.32    1.87   1
   5  -6  -2   57.89    3.66   3
   5  -6  -2   64.73    4.01   3
  -5   6   2   52.51    3.84   1
   4  -6  -2   10.50    1.78   3
   4  -6  -2    7.39    1.42   3
  -4   6   2    6.69    1.60   1
   3  -6  -2   40.04    2.74   3
   3  -6  -2   39.43    2.82   3
  -3   6   2   39.56    2.99   1
  -3   6   2   40.32    2.78   3
  -3   6   2   41.99    3.06   2
   2  -6  -2    2.11    0.85   2
   2  -6  -2    1.34    0.71   3
   2  -6  -2    1.88    0.86   3
  -2   6   2    2.35    0.91   3
  -2   6   2    3.49    1.09   2
   1  -6  -2  300.12   10.21   2
   1  -6  -2  269.84   10.66   3
   1  -6  -2  300.08   10.70   3
  -1   6   2  290.22   10.80   3
   0  -6  -2   55.55    3.21   2
   0  -6  -2   52.73    3.58   3
   0  -6  -2   58.12    3.55   3
   0   6   2   56.93    2.77   4
   0   6   2   60.17    3.77   3
  -1  -6  -2    6.67    1.31   2
  -1  -6  -2    8.92    1.79   3
  -1  -6  -2    7.57    1.60   3
   1   6   2    8.04    0.94   4
   1   6   2    7.45    1.69   3
  -2  -6  -2   18.25    2.75   3
   2   6   2   16.03    2.62   3
  -3  -6  -2  139.26    7.42   3
   3   6   2  120.31    7.02   3
  -4  -6  -2  148.94    8.33   3
   4   6   2  149.99    8.36   3
  -5  -6  -2   12.47    2.95   3
   5   6   2   15.02    3.17   3
   9  -7  -2    3.01    1.67   3
  -9   7   2    6.43    2.43   1
   8  -7  -2    0.42    1.19   3
  -8   7   2    1.36    1.49   1
   7  -7  -2    5.67    1.69   3
  -7   7   2    5.49    1.73   3
  -7   7   2   10.49    2.48   1
   6  -7  -2  136.82    6.64   3
  -6   7   2  127.88    7.04   1
   5  -7  -2   40.07    3.15   3
   5  -7  -2   39.07    3.73   3
  -5   7   2   36.19    3.84   1
   4  -7  -2   45.99    3.35   3
   4  -7  -2   55.54    3.70   3
   3  -7  -2  186.35    7.78   3
   3  -7  -2  186.83    7.80   3
  -3   7   2  172.35    7.58   3
   2  -7  -2  206.85    8.16   2
   2  -7  -2  227.38    8.61   3
   2  -7  -2  189.76    8.34   3
  -2   7   2  195.98    8.40   3
   1  -7  -2  164.55    7.03   3
   1  -7  -2  152.80    7.07   3
   1  -7  -2  150.85    6.52   2
  -1   7   2  151.59    7.04   3
   0  -7  -2   38.76    3.16   3
   0  -7  -2   31.26    3.36   3
   0  -7  -2   40.97    2.89   2
   0   7   2   40.17    2.40   4
   0   7   2   40.61    3.29   3
  -1  -7  -2  186.35    9.10   3
  -1  -7  -2  217.11    8.28   2
  -1  -7  -2  213.16    9.01   3
   1   7   2  208.25    9.25   3
  -2  -7  -2  510.49   19.35   3
  -2  -7  -2  547.77   17.30   2
   2   7   2  503.13   19.14   3
  -3  -7  -2   26.58    3.72   3
   3   7   2   28.48    3.93   3
  -4  -7  -2    8.95    2.49   3
   4   7   2    7.58    2.34   3
  -5  -7  -2    1.07    1.73   3
   5   7   2   -0.57    1.78   3
   9  -8  -2    0.62    1.42   3
   8  -8  -2   62.23    4.78   3
  -8   8   2   60.62    5.93   1
   7  -8  -2    1.58    1.22   3
  -7   8   2    4.27    1.77   1
   6  -8  -2  134.71    6.87   3
   5  -8  -2    2.44    1.22   3
   4  -8  -2   10.05    1.85   3
  -4   8   2    9.17    1.92   3
   3  -8  -2  410.15   15.26   3
   3  -8  -2  422.55   15.37   3
  -3   8   2  436.71   15.44   3
   2  -8  -2   -0.41    0.88   3
   2  -8  -2    1.87    1.26   3
   2  -8  -2    0.26    0.85   2
  -2   8   2    0.77    1.10   3
   1  -8  -2   42.22    3.47   3
   1  -8  -2   30.96    3.21   2
   1  -8  -2   43.34    3.45   3
  -1   8   2   42.00    3.39   3
   0  -8  -2    0.60    0.94   3
   0  -8  -2    0.66    0.95   2
   0   8   2    1.13    1.13   3
  -1  -8  -2  137.68    7.43   3
  -1  -8  -2  137.31    6.37   2
   1   8   2  117.68    6.98   3
  -2  -8  -2   60.91    5.12   3
  -2  -8  -2   75.31    4.46   2
   2   8   2   76.22    5.53   3
  -3  -8  -2    2.68    1.63   3
   3   8   2    1.60    1.60   3
  -4  -8  -2   25.37    4.13   3
   4   8   2   32.74    4.70   3
   8  -9  -2    9.54    2.29   3
   7  -9  -2    5.44    1.78   3
   6  -9  -2   -0.27    0.95   3
   5  -9  -2   20.55    2.85   3
   4  -9  -2   20.55    2.86   3
  -4   9   2   20.93    2.86   3
   3  -9  -2   46.29    3.75   3
  -3   9   2   46.48    3.77   3
   2  -9  -2   52.95    3.85   2
   2  -9  -2   50.02    4.03   3
  -2   9   2   52.17    4.01   3
   1  -9  -2   -0.61    0.83   2
   1  -9  -2    1.82    1.22   3
  -1   9   2    0.02    1.01   3
   0  -9  -2  317.24   13.65   3
   0  -9  -2  333.28   12.49   2
   0   9   2  348.92   13.92   3
  -1  -9  -2    0.09    1.04   2
  -1  -9  -2    1.40    1.38   3
   1   9   2   -1.32    1.10   3
  -2  -9  -2    4.75    2.07   3
  -2  -9  -2    4.86    1.69   2
   2   9   2    3.94    2.02   3
  -3  -9  -2    6.25    2.36   3
   3   9   2    9.11    2.72   3
   8 -10  -2    6.05    2.03   3
   7 -10  -2   20.47    3.13   3
   6 -10  -2   99.71    6.16   3
   5 -10  -2   16.72    2.80   3
   4 -10  -2   13.07    2.38   3
  -4  10   2   11.53    2.36   3
   3 -10  -2   75.14    5.09   3
  -3  10   2   68.98    5.00   3
   2 -10  -2   31.99    3.86   3
   2 -10  -2   23.83    3.15   2
  -2  10   2   27.07    3.53   3
   1 -10  -2   87.10    5.41   2
   1 -10  -2   90.79    6.02   3
  -1  10   2   93.57    6.08   3
   0 -10  -2   11.52    2.28   2
   0 -10  -2   11.25    2.56   3
   0  10   2   10.83    2.67   3
  -1 -10  -2    0.68    1.43   3
  -1 -10  -2    1.21    1.28   2
   1  10   2    0.09    1.48   3
  -2 -10  -2   89.81    6.81   3
   7 -11  -2   57.51    4.87   3
   6 -11  -2   25.86    3.61   3
   5 -11  -2   67.50    5.08   3
   4 -11  -2    7.30    2.04   3
   3 -11  -2   32.13    3.91   3
   2 -11  -2   15.99    2.97   3
   2 -11  -2   16.45    2.80   2
   1 -11  -2   -0.13    1.23   3
   1 -11  -2   -1.39    1.03   2
   0 -11  -2    3.21    1.66   2
   0 -11  -2   -0.35    1.36   3
  -1 -11  -2   23.28    4.00   3
   5 -12  -2    8.90    2.42   3
   4 -12  -2    4.89    1.98   3
   3 -12  -2    1.41    1.57   3
   2 -12  -2    5.82    2.28   3
   2 -12  -2    5.30    1.97   2
   1 -12  -2   19.94    3.32   2
   1 -12  -2   19.47    3.51   3
  -1  13  -3   -0.10    1.82   3
   1 -13   3    0.71    1.91   3
  -2  13  -3   60.16    6.36   3
   2 -13   3   64.28    6.54   3
  -3  13  -3    6.00    2.47   3
   3 -13   3   -0.19    1.52   3
   1  12  -3    0.68    1.76   3
  -1 -12   3    1.23    1.81   3
  -1 -12   3    4.16    2.16   2
   0  12  -3   19.09    3.70   3
   0 -12   3   18.28    3.58   3
   0 -12   3   25.49    3.98   2
  -1  12  -3  313.14   14.04   3
   1 -12   3  267.58   13.37   3
   1 -12   3  309.65   13.35   2
  -2  12  -3    0.32    1.53   3
   2 -12   3   -0.34    1.24   3
   2 -12   3    0.06    1.23   2
  -3  12  -3    6.81    2.54   3
   3 -12   3    7.60    2.44   3
   3 -12   3   10.05    2.63   2
   4 -12   3   27.80    4.16   3
   4 -12   3   29.40    4.12   2
   5 -12   3    4.24    2.22   3
   3  11  -3   59.86    6.64   3
  -3 -11   3   59.97    6.58   3
   2  11  -3   64.84    6.43   3
  -2 -11   3   58.16    6.07   3
   1  11  -3  119.46    7.77   3
  -1 -11   3  120.19    7.69   3
  -1 -11   3  112.91    7.14   2
   0  11  -3    4.26    1.94   3
   0 -11   3    8.02    2.19   2
   0 -11   3    3.60    1.90   3
  -1  11  -3   94.77    6.46   3
   1 -11   3   95.81    6.47   3
   1 -11   3   88.87    6.07   2
  -2  11  -3   19.17    3.29   3
   2 -11   3   17.29    3.03   2
   2 -11   3   25.55    3.78   3
  -3  11  -3   15.85    3.10   3
   3 -11   3   17.74    3.16   3
   3 -11   3   15.89    3.01   2
   4 -11   3    1.70    1.54   3
   4 -11   3   -1.88    0.98   2
   5 -11   3    5.68    2.17   3
   6 -11   3   19.58    3.66   3
   4  10  -3    2.49    1.95   3
  -4 -10   3    5.83    2.51   3
   3  10  -3   50.39    5.68   3
  -3 -10   3   53.30    5.81   3
   2  10  -3    9.01    2.48   3
  -2 -10   3   11.19    2.75   3
   1  10  -3  100.29    6.67   3
  -1 -10   3  102.04    6.68   3
   0  10  -3    1.13    1.33   3
   0 -10   3    2.00    1.51   3
   0 -10   3    0.85    1.23   2
  -1  10  -3    2.53    1.44   3
   1 -10   3    2.91    1.48   2
   1 -10   3    3.66    1.59   3
  -2  10  -3    1.36    1.50   3
   2 -10   3    1.14    1.28   3
   2 -10   3    2.58    1.38   2
  -3  10  -3   -0.78    1.19   3
   3 -10   3   -1.07    1.11   3
   3 -10   3    0.65    1.23   2
   4 -10   3   67.52    5.16   3
   4 -10   3   64.79    4.87   2
   5 -10   3    3.09    1.71   3
   6 -10   3   -0.25    1.53   3
   7 -10   3   44.03    5.16   3
   5   9  -3   68.38    7.04   3
  -5  -9   3   63.42    6.60   3
   4   9  -3   58.24    6.11   3
  -4  -9   3   53.51    5.78   3
   3   9  -3   44.12    5.05   3
  -3  -9   3   46.77    5.06   3
   2   9  -3   26.89    3.68   3
  -2  -9   3   25.82    3.63   3
   1   9  -3   20.11    3.21   3
  -1  -9   3   22.76    3.35   3
   0   9  -3   36.92    4.01   3
   0  -9   3   32.50    3.81   3
   0  -9   3   43.58    4.28   2
  -1   9  -3   53.90    4.37   3
   1  -9   3   53.78    4.27   3
   1  -9   3   60.39    4.36   2
  -2   9  -3    7.38    1.97   3
   2  -9   3   11.59    2.25   3
   2  -9   3    8.19    1.97   2
  -3   9  -3  413.44   16.07   3
   3  -9   3  411.14   15.46   2
   3  -9   3  437.98   16.39   3
   4  -9   3   34.09    3.84   2
   4  -9   3   37.16    4.10   3
   5  -9   3   14.41    2.66   3
   6  -9   3   26.05    3.72   3
  -7   9  -3   50.32    5.27   3
   7  -9   3   53.20    5.46   3
   6   8  -3   30.55    4.86   3
  -6  -8   3   37.58    5.17   3
   5   8  -3   81.77    6.35   3
  -5  -8   3   78.23    6.20   3
   4   8  -3   -0.82    1.18   3
  -4  -8   3   -0.18    1.33   3
   3   8  -3   25.91    3.67   3
  -3  -8   3   25.35    3.59   3
   2   8  -3  199.07    9.58   3
  -2  -8   3  205.15    9.67   3
   1   8  -3  234.49   10.43   3
  -1  -8   3  240.49   10.46   3
   0   8  -3  174.72    8.28   3
   0  -8   3  170.15    8.22   3
  -1   8  -3    0.72    0.97   3
   1  -8   3    1.51    1.13   3
   1  -8   3   -0.12    0.80   2
  -2   8  -3    3.31    1.39   3
   2  -8   3    1.78    1.09   2
   2  -8   3    3.02    1.31   3
   3  -8   3    0.97    1.07   3
   3  -8   3    1.25    1.03   2
   4  -8   3   23.56    3.05   3
   5  -8   3   -0.84    0.98   3
   6  -8   3   13.90    2.88   3
  -7   8  -3    5.36    2.13   3
   7  -8   3    8.18    2.51   3
   6   7  -3   42.90    5.21   3
  -6  -7   3   50.51    5.64   3
   5   7  -3   49.93    5.33   3
  -5  -7   3   64.43    5.26   3
   4   7  -3    0.99    1.46   3
  -4  -7   3    0.76    1.34   3
   3   7  -3  446.32   12.98   4
   3   7  -3  431.86   16.81   3
  -3  -7   3  439.37   16.84   3
   2   7  -3    3.22    1.39   3
  -2  -7   3    4.50    1.52   3
   1   7  -3  460.85   16.89   3
  -1  -7   3  467.39   16.83   3
   0   7  -3    0.42    0.95   3
   0  -7   3    0.14    0.86   3
  -1   7  -3  861.60   28.79   3
   1  -7   3  878.87   27.61   2
   1  -7   3  906.16   28.95   3
  -2   7  -3   41.37    3.28   3
   2  -7   3   37.64    3.02   2
   2  -7   3   40.70    3.25   3
   3  -7   3   62.53    4.10   3
   3  -7   3   45.42    3.45   2
   4  -7   3    2.24    1.31   3
   5  -7   3   11.00    2.24   3
  -6   7  -3   38.26    4.18   3
   6  -7   3   44.53    4.49   3
  -7   7  -3  196.55   10.00   3
   7  -7   3  208.35   10.25   3
  -8   7  -3   43.86    5.02   3
   8  -7   3   54.09    5.59   3
   7   6  -3    0.52    1.68   3
  -7  -6   3    0.30    1.73   3
   6   6  -3  166.76    9.49   3
  -6  -6   3  188.18    9.78   3
   5   6  -3    5.95    2.03   3
  -5  -6   3    5.20    1.88   3
   4   6  -3    6.74    1.90   3
  -4  -6   3    9.55    2.18   3
   3   6  -3  755.18   25.56   3
   3   6  -3  763.78   21.80   4
  -3  -6   3  736.84   25.47   3
   2   6  -3 1977.02   61.41   3
  -2  -6   3 2019.56   61.47   3
   1   6  -3   10.45    1.81   3
   1   6  -3   10.70    1.85   3
  -1  -6   3    9.50    1.78   3
   0   6  -3   64.16    3.91   3
   0   6  -3   63.67    3.93   3
   0  -6   3   58.69    3.78   3
  -1   6  -3  404.92   14.22   3
  -1   6  -3  410.88   14.35   3
   1  -6   3  381.63   13.52   2
   1  -6   3  388.98   14.12   3
  -2   6  -3    9.20    1.70   3
   2  -6   3   10.90    1.77   3
   2  -6   3    8.39    1.56   2
   3  -6   3   43.53    3.07   2
   3  -6   3   38.45    3.10   3
   4  -6   3   50.62    3.77   3
   5  -6   3  135.78    7.02   3
  -6   6  -3   66.23    4.87   3
   6  -6   3   76.85    5.18   3
  -7   6  -3    1.76    1.53   3
   7  -6   3    3.88    1.73   3
  -8   6  -3  164.09    9.21   3
   8  -6   3  186.70    9.70   3
   7   5  -3   21.55    3.72   3
  -7  -5   3   18.64    3.40   3
   6   5  -3   -0.90    1.10   3
  -6  -5   3   -0.73    1.13   3
   5   5  -3  245.20   10.74   3
  -5  -5   3  227.52   10.43   3
   4   5  -3  608.57   20.92   3
  -4  -5   3  573.72   20.70   3
   3   5  -3  110.25    3.84   4
   3   5  -3   98.88    5.52   3
   3   5  -3  109.54    5.52   3
  -3  -5   3  101.16    5.56   3
   2   5  -3  535.33   15.61   4
   2   5  -3  517.09   17.82   3
   2   5  -3  495.58   17.50   3
  -2  -5   3  524.19   17.84   3
   1   5  -3  791.05   26.25   3
   1   5  -3  840.24   26.26   3
  -1  -5   3  824.78   26.30   3
   0   5  -3    4.35    1.13   3
   0   5  -3   10.28    1.65   3
   0  -5   3    7.28    1.37   3
   0  -5   3    6.71    1.33   3
  -1   5  -3  822.14   26.42   3
  -1   5  -3  798.55   26.29   3
   1  -5   3  822.97   25.20   2
   1  -5   3  839.62   26.41   3
   1  -5   3  854.76   26.47   3
  -2   5  -3   11.33    1.78   3
   2  -5   3   16.18    2.02   3
   2  -5   3   11.36    1.64   2
   3  -5   3  202.46    8.47   3
   3  -5   3  212.84    7.97   2
  -4   5  -3   18.02    2.29   2
   4  -5   3   20.67    2.61   3
  -5   5  -3    6.70    1.72   3
   5  -5   3    5.85    1.61   3
  -6   5  -3   13.30    2.47   3
   6  -5   3   13.82    2.50   3
  -7   5  -3    5.54    1.84   3
   7  -5   3    4.31    1.94   3
  -8   5  -3   73.16    5.87   3
   8  -5   3   82.90    6.23   3
   8   4  -3   -1.76    1.26   3
  -8  -4   3   -0.57    1.44   3
   7   4  -3   43.08    4.88   3
  -7  -4   3   50.95    5.36   3
   6   4  -3    4.38    1.77   3
  -6  -4   3    1.74    1.34   3
   5   4  -3    0.09    0.87   3
  -5  -4   3    0.87    1.09   3
   4   4  -3  453.85   15.80   3
   4   4  -3  444.37   16.11   3
  -4  -4   3  447.08   16.05   3
   3   4  -3  681.78   22.79   3
   3   4  -3  697.78   20.28   4
   3   4  -3  704.52   22.61   3
  -3  -4   3  688.39   22.79   3
   2   4  -3  919.56   28.90   3
   2   4  -3  885.59   26.54   4
   2   4  -3  938.47   28.77   3
  -2  -4   3  920.12   28.88   3
   1   4  -3  629.51   20.53   3
   1   4  -3  645.05   20.51   3
  -1  -4   3  632.03   20.40   3
  -1  -4   3  641.58   20.53   3
   0   4  -3  108.07    4.75   3
   0   4  -3   99.51    4.70   3
   0  -4   3  112.11    4.81   3
   0  -4   3  107.69    4.74   3
  -1   4  -3  583.03   18.56   3
  -1   4  -3  554.33   18.36   3
   1  -4   3  568.37   18.47   3
   1  -4   3  563.69   17.56   2
   1  -4   3  568.26   18.39   3
  -2   4  -3  422.82   14.10   3
   2  -4   3  379.11   13.81   3
   2  -4   3  428.14   14.11   3
   2  -4   3  401.84   13.08   2
  -3   4  -3   25.04    2.36   2
  -3   4  -3   24.27    2.63   3
   3  -4   3   23.00    2.49   3
  -4   4  -3  113.27    5.23   2
  -4   4  -3  119.97    5.83   3
   4  -4   3  115.43    5.77   3
  -5   4  -3  162.61    7.53   3
  -5   4  -3  160.20    6.77   2
   5  -4   3  146.81    7.38   3
  -6   4  -3   18.47    2.73   3
   6  -4   3   16.79    2.65   3
  -7   4  -3   71.68    5.24   3
   7  -4   3   69.38    5.21   3
  -8   4  -3   17.60    3.30   3
   8  -4   3   20.12    3.52   3
   8   3  -3   33.90    4.58   3
  -8  -3   3   29.11    4.18   3
   7   3  -3  271.64   12.37   3
  -7  -3   3  294.97   12.58   3
   6   3  -3  170.69    8.35   3
  -6  -3   3  171.16    8.30   3
   5   3  -3  148.59    6.77   3
   5   3  -3  145.50    7.03   3
  -5  -3   3  141.77    5.15   4
  -5  -3   3  151.56    7.09   3
   4   3  -3    4.56    1.23   3
   4   3  -3    3.35    1.11   3
  -4  -3   3    2.75    0.65   4
  -4  -3   3    3.04    1.09   3
   3   3  -3  568.67   16.68   4
   3   3  -3  544.33   18.45   3
   3   3  -3  557.35   18.27   3
  -3  -3   3  570.85   18.47   3
   2   3  -3    7.25    0.88   4
   2   3  -3    6.48    1.08   3
   2   3  -3    5.46    1.06   3
  -2  -3   3    6.35    1.10   3
  -2  -3   3    6.27    1.08   3
   1   3  -3   76.64    3.58   3
   1   3  -3   75.81    3.53   3
  -1  -3   3   76.39    3.52   3
  -1  -3   3   79.62    3.60   3
   0   3  -3  837.09   25.69   3
   0   3  -3  855.33   25.70   3
   0  -3   3  820.35   25.63   3
   0  -3   3  817.10   25.64   3
  -1   3  -3  402.15   13.35   3
   1  -3   3  389.95   12.54   2
   1  -3   3  416.11   13.36   3
   1  -3   3  400.80   13.28   3
  -2   3  -3   67.18    3.46   3
   2  -3   3   62.91    2.95   2
   2  -3   3   57.40    3.27   3
   2  -3   3   58.02    3.35   3
  -3   3  -3  303.48   10.82   3
  -3   3  -3  290.85    9.76   2
   3  -3   3  275.65   10.55   3
   3  -3   3  289.71    9.55   1
  -4   3  -3  109.38    4.83   2
  -4   3  -3  108.71    5.51   3
   4  -3   3  115.10    5.64   3
  -5   3  -3   40.02    2.82   2
  -5   3  -3   41.50    3.38   3
   5  -3   3   32.30    3.40   3
  -6   3  -3    2.56    1.32   3
   6  -3   3    2.16    1.37   3
  -7   3  -3    7.16    2.11   3
   7  -3   3    6.17    2.11   3
  -8   3  -3    4.67    2.05   3
   8  -3   3    2.36    1.75   3
   9   2  -3   -1.01    1.31   3
   8   2  -3    2.54    1.66   3
  -8  -2   3    3.38    1.89   3
  -8  -2   3    3.09    1.41   1
   7   2  -3  238.07   10.60   3
  -7  -2   3  222.83   10.33   3
   6   2  -3   84.40    5.17   3
  -6  -2   3   90.74    5.24   3
   5   2  -3   37.43    3.01   3
   5   2  -3   41.23    2.97   3
  -5  -2   3   39.66    2.24   4
  -5  -2   3   40.93    3.11   3
   4   2  -3    9.87    1.52   3
   4   2  -3   12.21    1.77   3
  -4  -2   3    9.31    1.58   3
  -4  -2   3   10.52    1.20   4
   3   2  -3  326.86    9.89   4
   3   2  -3  297.85   10.75   3
   3   2  -3  309.05   10.66   3
  -3  -2   3  314.52   10.63   3
  -3  -2   3  313.53   10.80   3
  -3  -2   3  310.41    9.77   4
   2   2  -3    4.07    0.81   3
   2   2  -3    4.85    0.84   3
   2   2  -3    6.28    0.83   4
  -2  -2   3    3.84    0.75   3
  -2  -2   3    4.34    0.81   3
   1   2  -3  165.92    5.93   3
   1   2  -3  169.82    5.93   3
  -1  -2   3  156.08    5.87   3
  -1  -2   3  178.46    5.95   3
   0   2  -3 4027.04  121.04   3
   0   2  -3 4327.00  122.22   3
   0  -2   3 4098.23  121.27   3
   0  -2   3 4087.85  121.84   3
  -1   2  -3 1759.39   52.98   3
   1  -2   3 1793.89   52.97   3
   1  -2   3 1804.69   52.98   3
   1  -2   3 1753.03   50.21   2
  -2   2  -3   81.32    3.30   2
  -2   2  -3   76.30    3.79   3
   2  -2   3   76.76    3.73   3
   2  -2   3   80.02    3.28   1
  -3   2  -3  644.95   20.53   3
  -3   2  -3  600.06   20.30   3
  -3   2  -3  617.84   18.75   2
   3  -2   3  632.89   18.45   1
   3  -2   3  631.12   20.45   3
  -4   2  -3  115.55    4.67   2
  -4   2  -3  110.22    5.48   3
   4  -2   3  108.54    5.43   3
   4  -2   3  103.69    4.21   1
  -5   2  -3  406.83   15.63   3
  -5   2  -3  448.23   14.12   2
   5  -2   3  431.04   15.76   3
  -6   2  -3    4.91    1.63   3
   6  -2   3    5.50    1.80   3
  -7   2  -3   18.38    3.14   3
   7  -2   3   13.67    2.76   3
  -8   2  -3    1.44    1.64   3
   8  -2   3    0.15    1.66   3
   9   1  -3    4.99    2.07   3
  -9  -1   3    2.63    1.52   1
   8   1  -3   18.70    3.16   3
  -8  -1   3   24.38    2.96   1
  -8  -1   3   14.26    2.78   3
   7   1  -3    2.12    1.32   3
  -7  -1   3    0.35    0.82   1
  -7  -1   3    0.87    1.11   3
   6   1  -3  122.46    6.28   3
   6   1  -3  126.60    6.10   3
  -6  -1   3  123.54    6.22   3
   5   1  -3  197.41    8.37   3
   5   1  -3  219.25    8.32   3
  -5  -1   3  217.84    8.52   3
   4   1  -3  117.40    5.13   3
   4   1  -3  122.06    5.04   3
  -4  -1   3  113.99    4.52   4
  -4  -1   3  116.10    5.11   3
   3   1  -3   43.17    2.26   3
   3   1  -3   42.32    2.32   3
  -3  -1   3   46.82    2.20   4
  -3  -1   3   38.91    2.24   3
  -3  -1   3   38.99    2.17   3
   2   1  -3  836.97   24.19   3
   2   1  -3  759.94   23.35   4
  -2  -1   3  796.48   24.14   3
  -2  -1   3  801.85   23.35   4
  -2  -1   3  803.81   24.08   3
   1   1  -3  748.06   22.64   3
   1   1  -3  769.34   22.21   4
  -1  -1   3  751.42   22.64   3
  -1  -1   3  757.29   22.65   3
   0  -1   3 4347.76  128.28   3
   0  -1   3 4369.38  128.42   3
  -1   1  -3  598.80   18.51   3
  -1   1  -3  588.22   18.50   3
   1  -1   3  584.77   17.11   2
   1  -1   3  611.61   18.50   3
  -2   1  -3  871.48   25.15   2
  -2   1  -3  874.10   27.20   3
  -2   1  -3  907.60   27.22   3
   2  -1   3  874.69   24.88   1
   2  -1   3  860.11   27.15   3
  -3   1  -3  386.62   13.14   3
  -3   1  -3  384.13   13.09   3
  -3   1  -3  358.62   11.49   2
   3  -1   3  366.98   12.95   3
   3  -1   3  377.00   11.15   1
  -4   1  -3   37.62    2.23   2
  -4   1  -3   38.95    3.03   3
   4  -1   3   35.05    2.88   3
  -5   1  -3   -0.20    0.66   2
  -5   1  -3   -0.03    0.85   3
   5  -1   3   -0.21    0.87   3
  -6   1  -3   48.36    4.11   3
   6  -1   3   47.24    3.99   3
  -7   1  -3   23.88    3.59   3
   7  -1   3   13.97    2.90   3
  -8   1  -3   92.55    6.90   3
   8  -1   3   93.62    6.81   3
   9   0  -3   16.58    3.16   3
  -9   0   3   21.70    3.07   1
  -9   0   3   15.16    2.99   3
   8   0  -3   24.91    3.40   3
  -8   0   3   28.07    3.65   3
  -8   0   3   26.04    3.01   1
   7   0  -3    0.16    0.92   3
  -7   0   3   -0.11    0.82   1
  -7   0   3   -0.40    0.87   3
   6   0  -3  423.72   14.71   3
   6   0  -3  417.20   14.90   3
  -6   0   3  404.32   14.82   3
   5   0  -3  320.67   11.60   3
   5   0  -3  333.27   11.54   3
  -5   0   3  320.25   11.58   3
   4   0  -3   12.00    1.42   3
   4   0  -3   10.35    1.33   3
  -4   0   3   12.55    1.40   4
  -4   0   3    9.95    1.34   3
   3   0  -3  521.00   16.64   3
   3   0  -3  545.01   16.78   3
  -3   0   3  555.21   16.70   3
  -3   0   3  530.99   16.73   3
  -3   0   3  550.12   16.42   4
   2   0  -3   70.20    2.61   3
   2   0  -3   69.71    3.03   4
   2   0  -3   70.76    2.58   3
  -2   0   3   72.33    2.62   3
  -2   0   3   72.98    2.57   3
  -2   0   3   76.69    3.06   4
   1   0  -3 1347.91   39.44   4
   1   0  -3 1364.80   40.24   3
  -1   0   3 1420.08   39.45   4
  -1   0   3 1381.95   40.24   3
  -1   0   3 1371.65   40.18   3
   0   0  -3  440.38   13.74   4
   0   0  -3  470.56   13.85   3
   0   0   3  451.54   13.85   3
  -1   0  -3 2188.69   65.29   3
  -1   0  -3 2331.25   65.37   3
   1   0   3 2070.64   65.21   3
   1   0   3 2249.14   65.33   3
  -2   0  -3   -0.23    0.24   2
  -2   0  -3    0.33    0.51   3
  -2   0  -3   -0.02    0.45   3
   2   0   3   -0.13    0.18   1
   2   0   3   -0.01    0.49   3
   2   0   3    0.05    0.45   3
  -3   0  -3  309.60   11.11   3
  -3   0  -3  307.98   11.20   3
   3   0   3  304.09   11.10   3
  -4   0  -3  279.50   10.70   3
   4   0   3  259.71   10.44   3
  -5   0  -3    3.71    1.38   3
   5   0   3    9.26    1.95   3
  -6   0  -3   77.21    5.31   3
   6   0   3   66.13    5.00   3
  -7   0  -3    0.47    1.50   3
   7   0   3   -0.51    1.39   3
   9  -1  -3    8.79    2.40   3
  -9   1   3    2.68    1.81   3
  -9   1   3    3.60    1.70   1
   8  -1  -3   26.28    3.39   3
  -8   1   3   28.87    3.29   1
  -8   1   3   26.36    3.36   3
   7  -1  -3  189.87    8.41   3
  -7   1   3  175.83    7.83   1
  -7   1   3  200.56    8.56   3
   6  -1  -3   16.63    2.14   3
  -6   1   3   13.79    1.96   3
  -6   1   3   17.75    2.16   1
   5  -1  -3  139.35    5.92   3
  -5   1   3  148.67    6.03   3
  -5   1   3  144.70    5.99   1
   4  -1  -3  193.21    6.90   3
  -4   1   3  188.45    6.91   3
  -4   1   3  193.56    6.93   3
   3  -1  -3 1151.53   34.54   3
  -3   1   3 1135.27   34.56   3
  -3   1   3 1196.04   33.90   4
  -3   1   3 1163.99   34.57   3
   2  -1  -3   13.70    1.39   4
   2  -1  -3   16.41    0.76   3
  -2   1   3   17.32    0.79   3
  -2   1   3   16.80    0.81   3
   1  -1  -3    0.14    0.15   3
   1  -1  -3    0.26    0.39   4
   1  -1  -3    0.38    0.19   3
  -1   1   3   -0.03    0.35   4
  -1   1   3   -0.11    0.16   3
  -1   1   3   -0.02    0.17   3
   0  -1  -3 2100.79   59.98   4
   0  -1  -3 2200.32   62.16   3
   0   1   3 2100.52   62.09   3
   0   1   3 2148.98   62.08   3
   0   1   3 2020.96   58.74   2
  -1  -1  -3   45.79    2.24   4
  -1  -1  -3   48.76    2.47   3
  -1  -1  -3   45.75    2.37   3
   1   1   3   47.32    2.42   3
   1   1   3   44.05    2.34   3
  -2  -1  -3   62.63    3.48   3
  -2  -1  -3   69.63    3.50   3
   2   1   3   73.24    3.60   3
  -3  -1  -3  297.15   11.07   3
  -3  -1  -3  305.55   10.95   3
   3   1   3  285.60   10.93   3
  -4  -1  -3   59.54    4.01   3
   4   1   3   57.13    3.92   3
  -5  -1  -3    4.59    1.62   3
   5   1   3    4.71    1.63   3
  -6  -1  -3   83.58    5.83   3
   6   1   3   92.96    6.05   3
  -7  -1  -3   83.47    6.24   3
   7   1   3   84.64    6.32   3
   9  -2  -3   34.66    4.13   3
  -9   2   3   34.21    3.90   1
   8  -2  -3   65.91    4.62   3
  -8   2   3   60.20    4.29   1
  -8   2   3   63.89    4.56   3
   7  -2  -3   80.94    4.67   3
  -7   2   3   69.52    4.47   1
  -7   2   3   74.94    4.53   3
   6  -2  -3 1375.39   41.62   3
  -6   2   3 1322.39   39.81   1
  -6   2   3 1337.17   41.60   3
   5  -2  -3  771.18   25.00   3
  -5   2   3  826.32   24.43   1
  -5   2   3  794.66   25.05   3
   4  -2  -3   53.53    2.60   3
  -4   2   3   44.79    2.79   1
  -4   2   3   48.24    2.51   3
  -4   2   3   51.86    2.64   3
   3  -2  -3  472.64   14.67   3
  -3   2   3  477.18   14.75   3
  -3   2   3  464.22   14.71   1
  -3   2   3  486.65   14.69   3
   2  -2  -3   37.25    1.52   3
   2  -2  -3   36.70    1.57   3
  -2   2   3   35.53    1.57   3
  -2   2   3   33.81    1.97   1
   1  -2  -3  276.18    8.92   3
   1  -2  -3  277.29    9.19   4
   1  -2  -3  288.96    8.86   3
  -1   2   3  283.94    8.91   3
  -1   2   3  291.45    9.16   4
  -1   2   3  275.88    8.68   2
  -1   2   3  299.55    8.84   1
  -1   2   3  281.91    8.87   3
   0  -2  -3   25.00    1.52   3
   0  -2  -3   28.02    1.68   4
   0  -2  -3   26.19    1.63   3
   0   2   3   30.16    1.66   3
   0   2   3   28.00    1.64   4
   0   2   3   27.22    1.63   3
   0   2   3   26.47    1.31   1
  -1  -2  -3  416.03   12.09   2
  -1  -2  -3  422.98   13.89   3
  -1  -2  -3  411.48   13.63   3
  -1  -2  -3  413.22   12.83   4
   1   2   3  432.74   13.85   3
   1   2   3  425.52   13.69   3
  -2  -2  -3  811.22   25.78   3
  -2  -2  -3  827.86   26.11   3
  -2  -2  -3  801.32   24.02   4
   2   2   3  841.34   26.07   3
  -3  -2  -3   68.20    3.09   4
  -3  -2  -3   74.88    4.32   3
  -3  -2  -3   72.14    4.02   3
   3   2   3   69.30    4.15   3
  -4  -2  -3  176.24    6.36   4
  -4  -2  -3  172.67    8.18   3
   4   2   3  188.34    8.37   3
  -5  -2  -3  122.91    6.88   3
   5   2   3  108.32    6.54   3
  -6  -2  -3   98.64    6.60   3
   6   2   3  103.78    6.72   3
  -7  -2  -3   -0.60    1.54   3
   7   2   3    0.36    1.78   3
   9  -3  -3   25.23    3.52   3
  -9   3   3   28.64    3.61   1
   8  -3  -3  148.76    7.45   3
  -8   3   3  153.00    7.54   1
  -8   3   3  156.90    7.58   3
   7  -3  -3   14.54    2.17   3
  -7   3   3   13.00    2.24   1
  -7   3   3   16.86    2.35   3
   6  -3  -3  444.93   15.44   3
  -6   3   3  459.85   15.40   1
  -6   3   3  441.59   15.37   3
   5  -3  -3  972.12   29.73   3
  -5   3   3  967.41   29.72   3
  -5   3   3  933.54   28.97   1
   4  -3  -3  301.50   10.16   3
   4  -3  -3  303.23   10.06   3
  -4   3   3  298.78   10.36   1
  -4   3   3  289.72   10.02   3
   3  -3  -3 2883.87   85.62   3
  -3   3   3 2934.53   85.75   3
  -3   3   3 2928.27   82.00   1
   2  -3  -3   99.19    3.83   3
   2  -3  -3  106.33    4.11   1
   2  -3  -3   96.64    3.83   3
  -2   3   3  103.57    4.21   1
  -2   3   3  104.38    3.92   3
  -2   3   3  102.58    3.86   3
  -2   3   3  108.91    4.17   2
   1  -3  -3   12.64    1.10   1
   1  -3  -3   11.35    1.15   3
  -1   3   3   13.42    1.18   3
  -1   3   3    9.84    1.33   4
  -1   3   3   11.44    1.29   1
  -1   3   3   11.76    1.30   3
  -1   3   3   13.37    1.20   2
   0  -3  -3  455.95   14.84   3
   0  -3  -3  453.55   13.57   2
   0  -3  -3  468.83   14.70   3
   0  -3  -3  466.70   14.12   4
   0  -3  -3  457.45   13.41   1
   0   3   3  455.43   14.79   3
   0   3   3  446.18   13.93   4
   0   3   3  472.12   14.71   3
  -1  -3  -3   66.62    2.62   2
  -1  -3  -3   71.11    3.38   3
  -1  -3  -3   62.18    2.79   4
  -1  -3  -3   65.20    2.25   1
  -1  -3  -3   63.08    3.47   3
   1   3   3   65.01    3.48   3
  -2  -3  -3  153.83    5.41   4
  -2  -3  -3  161.01    6.90   3
  -2  -3  -3  153.32    6.52   3
   2   3   3  161.37    6.85   3
  -3  -3  -3   -0.82    0.67   3
  -3  -3  -3    1.65    0.96   3
  -3  -3  -3    0.69    0.53   4
   3   3   3    1.21    1.03   3
  -4  -3  -3  775.15   22.26   4
  -4  -3  -3  744.29   25.88   3
   4   3   3  747.26   25.85   3
  -5  -3  -3  241.39   11.19   3
   5   3   3  252.45   11.36   3
  -6  -3  -3   22.07    3.64   3
   6   3   3   26.99    4.09   3
   9  -4  -3    8.88    2.19   3
  -9   4   3   11.18    2.52   1
   8  -4  -3   39.01    3.86   3
  -8   4   3   45.82    4.35   1
  -8   4   3   43.94    3.71   3
   7  -4  -3  392.86   13.99   3
  -7   4   3  359.75   13.72   3
  -7   4   3  383.39   13.94   1
   6  -4  -3  177.17    7.46   3
  -6   4   3  185.97    7.54   3
  -6   4   3  181.39    7.88   1
   5  -4  -3    4.02    1.03   3
   5  -4  -3    2.34    0.90   3
  -5   4   3    2.55    0.95   3
  -5   4   3    2.35    1.07   1
   4  -4  -3  455.71   15.02   3
   4  -4  -3  468.17   15.20   3
  -4   4   3  466.33   15.18   1
   3  -4  -3   79.06    3.45   3
  -3   4   3   78.17    3.52   3
  -3   4   3   71.67    3.76   1
  -3   4   3   79.36    3.82   2
   2  -4  -3 1268.54   38.48   3
  -2   4   3 1288.45   38.51   3
  -2   4   3 1254.78   37.09   2
  -2   4   3 1276.92   36.98   1
  -2   4   3 1303.37   38.49   3
   1  -4  -3  487.07   14.60   1
   1  -4  -3  490.98   15.66   3
   1  -4  -3  484.97   15.48   3
  -1   4   3  480.29   14.87   1
  -1   4   3  489.55   15.52   3
  -1   4   3  474.23   15.56   3
  -1   4   3  482.72   15.00   4
  -1   4   3  474.58   14.82   2
   0  -4  -3  271.13    8.90   2
   0  -4  -3  272.11    8.68   1
   0  -4  -3  270.19    9.94   3
   0  -4  -3  288.65    9.80   3
   0   4   3  274.57    9.00   4
   0   4   3  291.05    9.98   3
  -1  -4  -3  567.68   18.88   3
  -1  -4  -3  548.73   16.35   1
  -1  -4  -3  566.70   16.97   2
  -1  -4  -3  598.10   18.63   3
   1   4   3  552.98   18.78   3
  -2  -4  -3   87.02    4.48   3
  -2  -4  -3   78.59    2.73   1
  -2  -4  -3   77.33    4.61   3
   2   4   3   91.85    4.85   3
  -3  -4  -3   71.02    4.71   3
   3   4   3   69.72    4.59   3
  -4  -4  -3  296.52   12.66   3
   4   4   3  302.52   12.64   3
  -5  -4  -3   66.06    5.29   3
   5   4   3   62.27    5.12   3
  -6  -4  -3  137.98    8.53   3
   6   4   3  135.00    8.51   3
   9  -5  -3   34.07    3.96   3
  -9   5   3   39.60    4.47   1
   8  -5  -3  110.86    6.04   3
  -8   5   3  103.51    5.86   3
  -8   5   3   96.56    6.06   1
   7  -5  -3    2.80    1.19   3
  -7   5   3    1.14    1.02   3
  -7   5   3    0.74    1.07   1
   6  -5  -3    3.62    1.19   3
   6  -5  -3    1.64    1.07   3
  -6   5   3    0.68    0.85   3
  -6   5   3    0.38    0.92   1
   5  -5  -3    8.52    1.42   3
   5  -5  -3    9.41    1.61   3
  -5   5   3    9.63    1.79   1
   4  -5  -3  629.56   19.82   3
   4  -5  -3  614.67   19.97   3
  -4   5   3  602.54   19.71   1
  -4   5   3  622.80   19.79   2
   3  -5  -3  964.55   29.77   3
   3  -5  -3  965.63   29.68   3
  -3   5   3  968.47   29.69   3
  -3   5   3  966.15   28.99   1
  -3   5   3  946.75   28.95   2
   2  -5  -3  490.93   15.36   3
   2  -5  -3  448.79   15.17   3
  -2   5   3  447.12   14.89   1
  -2   5   3  462.98   14.93   2
  -2   5   3  471.63   15.31   3
   1  -5  -3    0.96    0.60   2
   1  -5  -3    2.49    0.75   1
   1  -5  -3    2.28    0.85   3
   1  -5  -3    0.32    0.56   3
  -1   5   3    0.90    0.65   3
   0  -5  -3   33.51    2.56   3
   0  -5  -3   41.14    2.86   3
   0  -5  -3   40.46    2.21   1
   0  -5  -3   41.08    2.34   2
   0   5   3   36.65    2.70   3
   0   5   3   42.85    2.29   4
  -1  -5  -3   70.36    3.90   3
  -1  -5  -3   72.58    4.27   3
  -1  -5  -3   66.34    2.89   1
  -1  -5  -3   66.96    3.27   2
   1   5   3   67.04    4.07   3
  -2  -5  -3    0.69    0.44   1
  -2  -5  -3   -0.33    0.74   3
  -2  -5  -3    1.55    0.99   3
   2   5   3    0.52    0.93   3
  -3  -5  -3   -0.52    1.04   3
   3   5   3    1.37    1.18   3
  -4  -5  -3   15.34    2.84   3
   4   5   3   13.81    2.79   3
  -5  -5  -3   20.35    3.49   3
   5   5   3   23.11    3.73   3
   9  -6  -3    1.80    1.42   3
  -9   6   3    2.81    1.75   1
   8  -6  -3   29.65    3.39   3
  -8   6   3   31.88    4.00   1
   7  -6  -3    4.34    1.42   3
  -7   6   3    7.24    1.89   1
  -7   6   3    3.84    1.46   3
   6  -6  -3  352.54   12.52   3
  -6   6   3  323.07   12.85   1
   5  -6  -3    3.83    1.24   3
   5  -6  -3    2.87    0.98   3
  -5   6   3    5.63    1.63   1
   4  -6  -3  118.15    5.41   3
   4  -6  -3  123.07    5.62   3
  -4   6   3  125.36    6.01   1
   3  -6  -3   20.34    2.19   3
   3  -6  -3   23.90    2.35   3
  -3   6   3   28.82    2.84   2
  -3   6   3   21.42    2.54   1
  -3   6   3   27.86    2.22   3
   2  -6  -3  438.30   15.07   3
   2  -6  -3  429.36   14.91   3
  -2   6   3  446.39   15.09   3
  -2   6   3  453.96   14.66   2
   1  -6  -3  351.57   11.87   2
   1  -6  -3  366.55   12.61   3
   1  -6  -3  342.05   12.71   3
  -1   6   3  359.03   12.77   3
   0  -6  -3    0.28    0.60   2
   0  -6  -3    3.89    1.14   3
   0  -6  -3    2.81    1.11   3
   0   6   3    1.99    0.77   4
   0   6   3    0.68    0.82   3
  -1  -6  -3  244.44    8.68   2
  -1  -6  -3  230.70   10.09   3
  -1  -6  -3  248.09    8.15   1
  -1  -6  -3  256.45    9.84   3
   1   6   3  233.98    9.98   3
  -2  -6  -3   19.91    2.96   3
  -2  -6  -3   25.45    2.41   2
   2   6   3   25.89    3.24   3
  -3  -6  -3    0.10    1.19   3
   3   6   3    0.96    1.23   3
  -4  -6  -3  118.40    7.35   3
   4   6   3  113.84    7.25   3
  -5  -6  -3    0.22    1.52   3
   5   6   3    0.05    1.67   3
   9  -7  -3   -0.52    1.10   3
  -9   7   3    1.15    1.66   1
   8  -7  -3    7.21    1.88   3
  -8   7   3    6.83    2.18   1
   7  -7  -3    4.59    1.50   3
  -7   7   3    1.66    1.22   3
  -7   7   3    2.72    1.55   1
   6  -7  -3  206.47    8.77   3
  -6   7   3  214.32    9.60   1
   5  -7  -3  359.50   13.08   3
  -5   7   3  357.53   13.59   1
   4  -7  -3  612.61   20.11   3
   4  -7  -3  595.55   19.90   3
  -4   7   3  580.35   19.95   1
   3  -7  -3  174.17    7.46   3
   3  -7  -3  186.61    7.62   3
  -3   7   3  170.94    7.46   3
   2  -7  -3  203.74    8.58   3
   2  -7  -3  214.31    8.56   3
  -2   7   3  212.16    8.64   3
   1  -7  -3   59.77    3.85   3
   1  -7  -3   61.15    3.96   3
   1  -7  -3   61.20    3.54   2
  -1   7   3   59.37    3.97   3
   0  -7  -3  183.13    8.62   3
   0  -7  -3  192.18    7.59   2
   0  -7  -3  199.29    8.44   3
   0   7   3  211.37    8.87   3
  -1  -7  -3   46.47    3.10   2
  -1  -7  -3   46.25    3.83   3
   1   7   3   45.43    3.86   3
  -2  -7  -3   17.96    2.99   3
  -2  -7  -3   21.96    2.46   2
   2   7   3   24.67    3.46   3
  -3  -7  -3   41.47    4.70   3
   3   7   3   41.21    4.74   3
  -4  -7  -3  144.17    8.79   3
   4   7   3  148.34    8.73   3
   9  -8  -3    3.87    1.74   3
  -9   8   3    4.61    2.45   1
   8  -8  -3   13.14    2.53   3
  -8   8   3   14.01    3.04   1
   7  -8  -3   74.59    4.83   3
  -7   8   3   79.71    5.76   1
   6  -8  -3    4.93    1.51   3
  -6   8   3    4.65    1.82   1
   5  -8  -3   -0.23    0.89   3
  -5   8   3    1.04    1.30   1
   4  -8  -3  125.64    6.13   3
  -4   8   3  118.31    6.02   3
   3  -8  -3  544.63   19.43   3
  -3   8   3  593.73   19.68   3
   2  -8  -3  314.84   12.20   3
  -2   8   3  310.63   12.12   3
   1  -8  -3   25.09    3.00   3
   1  -8  -3   22.06    2.56   2
  -1   8   3   22.12    2.97   3
   0  -8  -3    6.08    1.85   3
   0  -8  -3    5.36    1.43   2
   0   8   3    7.66    1.97   3
  -1  -8  -3   64.75    4.89   3
  -1  -8  -3   68.25    4.07   2
   1   8   3   64.02    4.88   3
  -2  -8  -3    2.81    1.56   3
   2   8   3    4.69    2.00   3
  -3  -8  -3   22.64    3.72   3
   3   8   3   21.64    3.66   3
   8  -9  -3   62.09    4.72   3
   7  -9  -3   11.39    2.28   3
   6  -9  -3    0.46    1.14   3
   5  -9  -3    0.68    0.98   3
   4  -9  -3   15.88    2.45   3
  -4   9   3   16.45    2.47   3
   3  -9  -3  126.80    6.65   3
  -3   9   3  133.71    6.82   3
   2  -9  -3    6.79    1.84   3
  -2   9   3    8.57    2.03   3
   1  -9  -3   28.61    3.14   2
   1  -9  -3   35.37    3.89   3
  -1   9   3   30.76    3.58   3
   0  -9  -3   53.79    4.53   3
   0  -9  -3   47.64    3.69   2
   0   9   3   60.67    4.72   3
  -1  -9  -3   69.78    4.32   2
  -1  -9  -3   71.99    5.52   3
   1   9   3   65.07    5.35   3
  -2  -9  -3    1.69    1.55   3
  -3  -9  -3  115.14    8.03   3
   8 -10  -3    3.31    1.82   3
   7 -10  -3   14.16    2.70   3
   6 -10  -3   17.46    2.83   3
   5 -10  -3   88.19    5.51   3
   4 -10  -3  105.14    6.09   3
   3 -10  -3    6.71    1.89   3
   2 -10  -3   51.16    4.29   3
   1 -10  -3    1.86    1.45   3
   1 -10  -3    3.24    1.46   2
   0 -10  -3   64.86    4.42   2
   0 -10  -3   51.47    5.36   3
  -1 -10  -3    3.64    1.96   3
   7 -11  -3   74.73    5.49   3
   6 -11  -3   22.72    3.29   3
   5 -11  -3    2.70    1.53   3
   4 -11  -3    0.00    1.18   3
   3 -11  -3   61.68    4.81   3
   2 -11  -3   15.01    2.89   3
   1 -11  -3    3.47    1.80   3
   1 -11  -3    6.02    1.81   2
   0 -11  -3   50.33    5.47   3
   5 -12  -3   66.33    5.25   3
   4 -12  -3    0.47    1.45   3
   3 -12  -3   58.43    5.68   3
   2 -12  -3   17.90    3.35   3
  -2  13  -4   11.47    3.21   3
   1  12  -4    0.13    1.58   3
  -1 -12   4    0.69    1.83   2
  -1 -12   4    0.96    1.73   3
   0  12  -4   35.32    4.86   3
   0 -12   4   40.03    5.00   2
   0 -12   4   47.88    5.52   3
  -1  12  -4   18.87    3.49   3
   1 -12   4   17.27    3.36   3
   1 -12   4   16.83    3.28   2
  -2  12  -4   18.67    3.50   3
   2 -12   4   17.34    3.22   2
   2 -12   4   18.90    3.43   3
  -3  12  -4    3.96    2.10   3
   3 -12   4    2.71    2.01   3
   3 -12   4    2.45    1.74   2
   4 -12   4   27.97    4.18   3
   3  11  -4  104.62    7.76   3
  -3 -11   4  104.12    7.53   3
   2  11  -4    4.09    2.00   3
  -2 -11   4    2.64    1.89   3
   1  11  -4   16.47    3.25   3
  -1 -11   4   16.17    3.28   3
  -1 -11   4    9.38    2.44   2
   0  11  -4   82.27    6.08   3
   0 -11   4   83.80    5.89   2
   0 -11   4   70.00    5.68   3
  -1  11  -4   31.59    4.17   3
   1 -11   4   31.74    4.13   3
   1 -11   4   37.75    4.37   2
  -2  11  -4   55.98    5.58   3
   2 -11   4   54.82    5.36   2
   2 -11   4   61.28    5.11   3
   3 -11   4   40.77    4.62   2
   3 -11   4   44.21    4.94   3
   4 -11   4   40.36    4.81   3
   4 -11   4   36.42    4.39   2
   5 -11   4  135.55    8.28   3
   4  10  -4   28.31    4.52   3
  -4 -10   4   26.03    4.30   3
   3  10  -4   -1.12    1.36   3
  -3 -10   4    0.99    1.74   3
   2  10  -4   38.64    4.66   3
  -2 -10   4   37.92    4.62   3
   1  10  -4    0.56    1.23   3
  -1 -10   4   -0.75    1.10   3
   0  10  -4    4.75    1.89   3
   0 -10   4    4.65    1.85   3
   0 -10   4    5.24    1.91   2
  -1  10  -4    5.31    1.88   3
   1 -10   4    6.15    1.96   3
   1 -10   4    4.75    1.76   2
  -2  10  -4   -0.10    1.25   3
   2 -10   4    0.78    1.27   3
   2 -10   4    0.76    1.23   2
   3 -10   4   32.90    3.93   2
   3 -10   4   37.83    4.35   3
   4 -10   4  211.00   10.39   3
   4 -10   4  219.37   10.06   2
   5 -10   4    7.32    2.26   3
   6 -10   4   11.79    2.86   3
   5   9  -4   61.90    6.58   3
  -5  -9   4   71.04    7.01   3
   4   9  -4   33.98    4.55   3
  -4  -9   4   36.09    4.71   3
   3   9  -4  130.62    7.83   3
  -3  -9   4  121.43    7.62   3
   2   9  -4   79.82    5.69   3
  -2  -9   4   72.28    5.38   3
   1   9  -4   15.30    2.80   3
  -1  -9   4   12.67    2.51   3
   0   9  -4  147.65    7.57   3
   0  -9   4  125.45    6.89   2
   0  -9   4  124.64    7.09   3
  -1   9  -4  129.66    6.99   3
   1  -9   4  112.35    6.49   2
   1  -9   4  122.42    6.84   3
  -2   9  -4   56.80    4.42   3
   2  -9   4   56.72    4.23   2
   2  -9   4   54.62    4.40   3
   3  -9   4   74.01    4.97   2
   3  -9   4   76.31    5.29   3
   4  -9   4   48.78    4.60   2
   4  -9   4   51.39    4.94   3
   5  -9   4  127.32    7.49   3
   6  -9   4    9.21    2.51   3
  -7   9  -4   43.97    5.18   3
   7  -9   4   41.88    5.01   3
   6   8  -4  259.78   13.03   3
  -6  -8   4  254.92   12.92   3
   5   8  -4    6.08    2.30   3
  -5  -8   4    8.07    2.64   3
   4   8  -4   34.85    4.55   3
  -4  -8   4   35.38    4.45   3
   3   8  -4  575.34   21.21   3
  -3  -8   4  562.89   21.08   3
   2   8  -4   68.69    5.01   3
  -2  -8   4   74.64    5.20   3
   1   8  -4   45.44    3.85   3
  -1  -8   4   49.39    3.96   3
   0   8  -4    0.73    1.00   3
   0  -8   4    1.35    1.09   3
  -1   8  -4   23.43    3.07   3
   1  -8   4   26.49    3.15   3
   1  -8   4   36.16    3.63   2
  -2   8  -4   26.07    3.20   3
   2  -8   4   25.28    3.03   2
   2  -8   4   24.48    3.11   3
   3  -8   4   -0.79    0.93   3
   3  -8   4    0.61    0.92   2
   4  -8   4  334.43   13.60   3
   5  -8   4    8.64    2.31   3
   6  -8   4   79.10    5.74   3
  -7   8  -4    0.44    1.55   3
   7  -8   4    0.32    1.48   3
   6   7  -4    6.15    2.34   3
  -6  -7   4    7.81    2.57   3
   5   7  -4  291.21   13.28   3
  -5  -7   4  301.37   13.31   3
   4   7  -4  247.29   11.08   3
  -4  -7   4  222.43   10.68   3
   3   7  -4  240.00   10.72   3
   3   7  -4  245.29    8.02   4
  -3  -7   4  229.43   10.53   3
   2   7  -4  563.63   20.09   3
  -2  -7   4  561.49   20.05   3
   1   7  -4  259.82   10.56   3
  -1  -7   4  244.72   10.37   3
   0   7  -4  144.20    6.89   3
   0  -7   4  132.89    6.69   3
  -1   7  -4   60.32    4.04   3
   1  -7   4   57.99    3.96   3
   1  -7   4   55.23    3.78   2
  -2   7  -4  103.48    5.61   3
   2  -7   4   94.38    5.44   3
   2  -7   4  103.51    5.37   2
   3  -7   4  134.44    6.79   3
   3  -7   4  131.24    6.38   2
   4  -7   4  143.16    7.36   3
   5  -7   4  156.15    8.06   3
  -6   7  -4   55.18    4.60   3
   6  -7   4   55.48    4.71   3
  -7   7  -4  149.98    8.56   3
   7  -7   4  158.97    8.85   3
   7   6  -4   80.11    6.42   3
  -7  -6   4   78.24    6.33   3
   6   6  -4  266.01   12.64   3
  -6  -6   4  289.78   12.91   3
   5   6  -4  385.84   15.90   3
  -5  -6   4  414.85   16.13   3
   4   6  -4    9.99    2.30   3
  -4  -6   4   12.14    2.33   3
   3   6  -4   41.45    2.27   4
   3   6  -4   40.13    3.99   3
  -3  -6   4   42.95    3.53   3
   2   6  -4  840.52   27.48   3
   2   6  -4  801.91   27.62   3
  -2  -6   4  883.13   27.87   3
   1   6  -4   24.82    2.80   3
   1   6  -4   24.25    2.73   3
  -1  -6   4   25.62    2.79   3
   0   6  -4   18.40    2.32   3
   0   6  -4   17.29    2.35   3
   0  -6   4   17.45    2.29   3
  -1   6  -4  253.93    9.90   3
  -1   6  -4  248.58    9.97   3
   1  -6   4  240.75    9.42   2
   1  -6   4  255.93    9.96   3
   2  -6   4   41.34    2.98   2
   2  -6   4   41.81    3.22   3
   3  -6   4   18.55    2.53   3
   3  -6   4   20.66    2.38   2
   4  -6   4  161.00    7.71   3
  -5   6  -4   53.46    4.14   3
   5  -6   4   55.39    4.25   3
  -6   6  -4   66.76    5.06   3
   6  -6   4   74.53    5.30   3
  -7   6  -4    3.19    1.72   3
   7  -6   4    2.99    1.76   3
   8   5  -4   41.16    5.32   3
  -8  -5   4   35.97    4.83   3
   7   5  -4   48.66    5.32   3
  -7  -5   4   50.84    5.36   3
   6   5  -4    9.47    2.39   3
  -6  -5   4   12.61    2.62   3
   5   5  -4  341.69   13.76   3
  -5  -5   4  339.76   13.73   3
  -4  -5   4   11.54    2.17   3
   3   5  -4   99.36    4.03   4
   3   5  -4   93.20    5.26   3
   3   5  -4  102.80    5.27   3
  -3  -5   4  108.70    5.51   3
   2   5  -4    0.53    0.73   3
   2   5  -4    1.34    0.87   3
   2   5  -4    1.38    0.60   4
  -2  -5   4    0.47    0.72   3
   1   5  -4   73.60    4.06   3
   1   5  -4   78.61    4.16   3
  -1  -5   4   67.45    3.93   3
   0   5  -4    1.57    0.82   3
   0   5  -4    2.58    0.98   3
   0  -5   4    1.34    0.82   3
  -1   5  -4  267.24   10.19   3
  -1   5  -4  260.91   10.02   3
   1  -5   4  263.08   10.03   3
   1  -5   4  282.56    9.77   2
  -2   5  -4  117.47    5.80   3
   2  -5   4  117.33    5.25   2
   2  -5   4  115.39    5.59   3
   3  -5   4   25.98    2.52   2
   3  -5   4   26.28    2.83   3
   4  -5   4   76.98    4.74   3
  -5   5  -4   73.74    4.92   3
   5  -5   4   85.85    5.28   3
  -6   5  -4   34.92    4.02   3
   6  -5   4   44.25    4.45   3
  -7   5  -4   14.40    2.76   3
   7  -5   4   14.07    2.88   3
   8   4  -4   39.09    4.91   3
  -8  -4   4   38.51    4.90   3
   7   4  -4  122.15    7.35   3
  -7  -4   4  125.05    7.42   3
   6   4  -4  102.13    6.18   3
  -6  -4   4   96.41    5.96   3
   5   4  -4    9.40    2.00   3
  -5  -4   4    9.69    1.92   3
   4   4  -4    2.56    1.08   3
   4   4  -4    1.84    0.94   3
  -4  -4   4    1.78    0.98   3
   3   4  -4   86.74    4.70   3
   3   4  -4   99.94    4.68   3
   3   4  -4   89.24    3.74   4
  -3  -4   4   86.95    4.66   3
   2   4  -4  361.40   12.82   3
   2   4  -4  369.57   12.71   3
   2   4  -4  370.58   11.65   4
  -2  -4   4  361.12   12.81   3
   1   4  -4  545.81   17.82   3
   1   4  -4  520.16   17.75   3
  -1  -4   4  564.40   17.82   3
  -1  -4   4  547.13   17.81   3
   0   4  -4  594.94   18.76   3
   0   4  -4  572.55   18.64   3
   0  -4   4  571.21   18.67   3
   0  -4   4  558.78   18.60   3
  -1   4  -4  655.51   21.44   3
   1  -4   4  652.12   21.35   3
   1  -4   4  683.22   20.39   2
  -2   4  -4  107.58    5.19   3
   2  -4   4   98.84    4.48   2
   2  -4   4  113.34    5.15   3
  -3   4  -4   67.88    4.12   3
   3  -4   4   64.65    3.92   3
  -4   4  -4   53.17    3.78   3
  -4   4  -4   60.01    3.54   2
   4  -4   4   54.34    3.82   3
  -5   4  -4   21.63    2.55   2
  -5   4  -4   20.06    2.78   3
   5  -4   4   20.02    2.82   3
  -6   4  -4    7.88    2.04   3
   6  -4   4   11.99    2.45   3
  -7   4  -4    1.97    1.68   3
   7  -4   4    3.60    1.88   3
   8   3  -4   91.08    6.49   3
  -8  -3   4   94.57    6.44   3
   7   3  -4    3.93    1.66   3
  -7  -3   4    4.44    1.84   3
   6   3  -4    2.65    1.32   3
  -6  -3   4    3.58    1.52   3
   5   3  -4  146.94    7.27   3
   5   3  -4  156.44    7.09   3
  -5  -3   4  170.47    5.99   4
  -5  -3   4  173.11    7.51   3
   4   3  -4  798.74   26.72   3
   4   3  -4  889.87   26.65   3
  -4  -3   4  808.09   26.66   3
   3   3  -4   47.13    2.85   3
   3   3  -4   37.04    2.18   4
   3   3  -4   40.12    2.59   3
  -3  -3   4   41.09    2.71   3
   2   3  -4 1089.59   32.40   3
   2   3  -4 1024.73   30.69   4
   2   3  -4 1018.77   32.15   3
  -2  -3   4 1069.77   32.35   3
  -2  -3   4 1052.26   32.16   3
   1   3  -4   98.80    4.21   3
   1   3  -4   92.60    4.12   3
  -1  -3   4   96.69    4.16   3
  -1  -3   4   89.25    4.07   3
   0   3  -4   74.57    3.62   3
   0   3  -4   80.99    3.76   3
   0  -3   4   84.47    3.77   3
   0  -3   4   83.06    3.78   3
  -1   3  -4 1046.67   32.61   3
   1  -3   4 1063.03   30.88   2
   1  -3   4 1103.95   32.67   3
   1  -3   4 1024.37   32.49   3
  -2   3  -4  365.98   12.93   3
   2  -3   4  371.29   11.80   2
   2  -3   4  377.52   12.89   3
  -3   3  -4   44.47    3.09   3
  -3   3  -4   40.64    3.07   3
  -3   3  -4   39.50    2.47   2
   3  -3   4   46.85    2.56   1
   3  -3   4   42.99    3.02   3
  -4   3  -4   88.45    4.14   2
  -4   3  -4   78.03    4.73   3
   4  -3   4   79.02    4.71   3
  -5   3  -4    8.85    1.63   2
  -5   3  -4    5.94    1.66   3
   5  -3   4    5.53    1.71   3
  -6   3  -4   27.34    3.49   3
   6  -3   4   23.04    3.33   3
  -7   3  -4    7.14    2.25   3
   7  -3   4    7.10    2.22   3
   9   2  -4    0.45    1.62   3
  -9  -2   4   -0.18    1.16   1
   8   2  -4   18.04    3.10   3
  -8  -2   4   12.47    2.64   3
   7   2  -4    0.83    1.12   3
  -7  -2   4   -0.79    0.94   3
   6   2  -4   44.07    3.53   3
   6   2  -4   52.33    3.62   3
  -6  -2   4   47.00    3.56   3
   5   2  -4    0.01    0.74   3
   5   2  -4    0.31    0.74   3
  -5  -2   4    0.48    0.76   3
   4   2  -4   67.65    3.48   3
   4   2  -4   67.71    3.65   3
  -4  -2   4   58.25    3.45   3
  -4  -2   4   66.65    3.12   4
   3   2  -4 1755.37   51.00   3
   3   2  -4 1665.96   48.92   4
   3   2  -4 1710.56   51.18   3
  -3  -2   4 1714.81   48.84   4
  -3  -2   4 1620.76   51.03   3
  -3  -2   4 1751.63   50.99   3
   2   2  -4  283.67    8.95   4
   2   2  -4  259.74    8.98   3
   2   2  -4  270.38    9.11   3
  -2  -2   4  266.15    9.00   3
  -2  -2   4  263.96    9.09   3
   1   2  -4  152.67    5.44   3
   1   2  -4  153.51    5.57   4
   1   2  -4  141.58    5.40   3
  -1  -2   4  148.90    5.43   3
  -1  -2   4  150.18    5.42   3
   0   2  -4  157.66    5.85   3
   0  -2   4  164.67    5.88   3
   0  -2   4  155.98    5.78   3
  -1   2  -4  923.43   27.65   3
   1  -2   4  877.09   25.85   2
   1  -2   4  882.85   27.51   3
  -2   2  -4  517.79   16.56   3
  -2   2  -4  499.42   16.41   3
   2  -2   4  475.61   16.33   3
  -3   2  -4   23.81    2.50   3
  -3   2  -4   24.73    1.79   2
  -3   2  -4   33.04    3.02   3
   3  -2   4   28.42    1.73   1
   3  -2   4   22.46    2.49   3
  -4   2  -4   76.01    3.62   2
  -4   2  -4   82.76    4.63   3
   4  -2   4   69.03    4.36   3
   4  -2   4   77.60    3.31   1
  -5   2  -4  130.10    6.82   3
  -5   2  -4  131.40    5.56   2
   5  -2   4  133.62    6.90   3
  -6   2  -4  101.55    6.32   3
   6  -2   4  107.04    6.39   3
  -7   2  -4  106.52    6.98   3
   7  -2   4  116.41    7.20   3
   9   1  -4   11.47    2.65   3
  -9  -1   4    9.40    2.29   1
   8   1  -4  140.73    7.62   3
  -8  -1   4  139.40    6.86   1
  -8  -1   4  133.94    7.44   3
   7   1  -4  102.68    5.93   3
  -7  -1   4  113.65    6.12   3
   6   1  -4  261.77    9.62   3
   6   1  -4  227.25    9.54   3
  -6  -1   4  223.35    9.46   3
   5   1  -4   11.69    1.69   3
   5   1  -4   13.47    1.74   3
  -5  -1   4   12.42    1.76   3
   4   1  -4  698.72   22.07   3
   4   1  -4  695.11   21.88   3
  -4  -1   4  699.14   22.01   3
   3   1  -4 1028.07   31.41   3
   3   1  -4  979.96   30.45   4
  -3  -1   4 1071.51   30.49   4
  -3  -1   4 1104.09   31.33   3
  -3  -1   4 1007.32   31.37   3
   2   1  -4    2.57    0.54   3
   2   1  -4    2.13    0.63   4
   2   1  -4    1.82    0.42   3
  -2  -1   4    1.79    0.55   4
  -2  -1   4    2.68    0.53   3
  -2  -1   4    1.79    0.45   3
   1   1  -4  522.38   15.81   3
   1   1  -4  500.10   15.86   3
   1   1  -4  541.40   16.03   4
  -1  -1   4  507.39   15.86   3
  -1  -1   4  535.10   15.87   3
   0  -1   4 1889.50   55.56   3
   0  -1   4 1872.06   55.58   3
  -1   1  -4   71.02    3.18   3
  -1   1  -4   67.52    3.10   3
   1  -1   4   62.80    2.40   2
   1  -1   4   60.48    3.01   3
  -2   1  -4  281.01    9.83   3
  -2   1  -4  289.40    9.98   3
   2  -1   4  257.44    9.72   3
   2  -1   4  273.12    8.41   1
  -3   1  -4   91.57    3.71   2
  -3   1  -4  114.77    5.18   3
  -3   1  -4  100.96    4.93   3
   3  -1   4   97.00    3.45   1
   3  -1   4   95.13    4.85   3
  -4   1  -4  370.86   11.76   2
  -4   1  -4  375.60   13.86   3
   4  -1   4  370.64   13.77   3
  -5   1  -4   64.91    4.50   3
   5  -1   4   58.23    4.28   3
  -6   1  -4   37.64    4.12   3
   6  -1   4   40.27    4.29   3
  -7   1  -4   10.42    2.60   3
   7  -1   4   10.78    2.72   3
   9   0  -4   46.79    4.92   3
  -9   0   4   46.00    4.38   1
   8   0  -4   65.93    4.85   3
  -8   0   4   68.54    4.79   3
  -8   0   4   67.94    4.48   1
   7   0  -4    6.20    1.61   3
  -7   0   4    4.13    1.35   1
  -7   0   4    5.65    1.58   3
   6   0  -4    0.85    0.81   3
   6   0  -4    1.28    0.91   3
  -6   0   4   -0.05    0.73   3
   5   0  -4   22.42    1.91   3
   5   0  -4   20.39    2.07   3
  -5   0   4   21.35    2.11   3
   4   0  -4   42.86    2.34   3
   4   0  -4   41.28    2.37   3
  -4   0   4   46.93    2.46   3
   3   0  -4   36.47    1.82   3
   3   0  -4   37.81    2.28   4
   3   0  -4   36.88    1.75   3
  -3   0   4   34.00    1.78   3
  -3   0   4   37.95    1.79   3
  -3   0   4   33.71    2.11   4
   2   0  -4  522.11   15.43   3
   2   0  -4  516.20   15.47   3
   2   0  -4  522.05   16.07   4
  -2   0   4  530.87   15.99   4
  -2   0   4  510.64   15.53   3
  -2   0   4  524.40   15.47   3
   1   0  -4  486.62   14.53   3
   1   0  -4  494.81   15.08   4
   1   0  -4  490.81   14.47   3
  -1   0   4  465.59   14.53   3
  -1   0   4  509.67   15.00   4
  -1   0   4  471.66   14.49   3
   0   0  -4  490.91   15.18   3
   0   0  -4  488.78   15.24   4
   0   0   4  500.03   15.19   3
  -1   0  -4  162.48    6.11   3
  -1   0  -4  169.52    6.14   3
   1   0   4  162.52    6.06   3
  -2   0  -4  217.66    8.03   3
  -2   0  -4  209.36    7.99   3
   2   0   4  207.49    7.96   3
  -3   0  -4  454.33   15.21   3
  -3   0  -4  424.91   12.87   2
  -3   0  -4  421.43   15.10   3
   3   0   4  441.59   15.13   3
  -4   0  -4   67.76    3.02   2
  -4   0  -4   69.18    4.40   3
   4   0   4   71.41    4.38   3
  -5   0  -4  570.06   20.81   3
   5   0   4  590.61   20.78   3
  -6   0  -4   67.59    5.22   3
   6   0   4   72.40    5.32   3
  -7   0  -4    0.01    1.58   3
   7   0   4    0.48    1.51   3
   9  -1  -4  105.26    6.65   3
  -9   1   4  111.63    6.33   1
   8  -1  -4  219.29    9.90   3
  -8   1   4  233.85    9.98   3
  -8   1   4  216.29    9.38   1
   7  -1  -4   88.20    5.13   3
  -7   1   4  103.42    5.35   1
  -7   1   4   99.67    5.31   3
   6  -1  -4   32.55    2.55   3
  -6   1   4   29.76    2.96   1
  -6   1   4   31.51    2.50   3
   5  -1  -4  370.93   12.46   3
  -5   1   4  365.51   12.47   3
   4  -1  -4  426.46   13.69   3
  -4   1   4  433.19   13.68   3
  -4   1   4  433.02   13.71   3
   3  -1  -4  159.26    5.33   3
  -3   1   4  163.95    5.36   3
  -3   1   4  165.05    5.37   3
  -2   1   4  840.23   24.98   4
   1  -1  -4  925.50   27.06   3
   1  -1  -4  928.69   27.19   4
   1  -1  -4  910.33   27.02   3
  -1   1   4  905.79   27.08   3
  -1   1   4  918.28   27.07   4
  -1   1   4  930.00   27.07   3
   0  -1  -4  243.14    8.18   3
   0  -1  -4  252.21    8.40   4
   0   1   4  247.56    8.15   3
   0   1   4  249.33    8.12   3
  -1  -1  -4    4.61    0.93   3
  -1  -1  -4    6.66    1.08   4
  -1  -1  -4    7.19    1.09   3
   1   1   4    4.47    0.91   3
   1   1   4    8.79    1.23   3
  -2  -1  -4    3.39    1.01   3
  -2  -1  -4    3.06    0.85   4
  -2  -1  -4    6.20    1.22   3
   2   1   4    3.02    0.96   3
  -3  -1  -4 1115.17   35.62   3
  -3  -1  -4 1112.23   31.83   2
  -3  -1  -4 1130.58   35.40   3
   3   1   4 1151.96   35.60   3
  -4  -1  -4 1106.97   34.73   3
   4   1   4 1026.95   34.33   3
  -5  -1  -4   32.59    3.74   3
   5   1   4   28.60    3.54   3
  -6  -1  -4   24.81    3.63   3
   6   1   4   35.83    4.42   3
  -7  -1  -4   12.54    3.12   3
   7   1   4   13.63    3.27   3
   9  -2  -4  225.63   10.36   3
  -9   2   4  216.11    9.97   1
   8  -2  -4   20.82    2.80   3
  -8   2   4   14.42    2.43   3
  -8   2   4   15.03    2.55   1
   7  -2  -4   81.72    4.67   3
  -7   2   4   91.39    5.03   1
  -7   2   4   75.05    4.48   3
   6  -2  -4  906.09   29.45   3
  -6   2   4  927.43   29.53   3
  -6   2   4  992.32   29.07   1
   5  -2  -4  218.33    7.79   3
  -5   2   4  206.40    7.75   3
  -5   2   4  217.53    8.25   1
   4  -2  -4   75.20    3.19   3
  -4   2   4   75.70    3.19   3
  -4   2   4   73.80    3.76   1
  -4   2   4   78.91    3.27   3
   3  -2  -4  494.49   15.33   3
   3  -2  -4  510.64   15.24   3
  -3   2   4  509.14   15.71   1
  -3   2   4  498.85   15.37   3
  -3   2   4  516.43   15.31   3
   2  -2  -4 1411.56   40.44   3
   2  -2  -4 1336.55   40.37   4
  -2   2   4 1413.78   40.55   3
  -2   2   4 1372.16   39.48   1
   1  -2  -4  283.08    9.52   4
   1  -2  -4  288.85    8.91   3
   1  -2  -4  272.17    9.02   3
  -1   2   4  281.58    8.77   2
  -1   2   4  294.37    8.96   3
  -1   2   4  288.10    8.96   1
  -1   2   4  288.31    9.46   4
  -1   2   4  284.19    9.03   3
   0  -2  -4  550.82   17.57   3
   0  -2  -4  561.20   17.20   4
   0   2   4  566.16   17.46   3
   0   2   4  569.30   17.12   4
   0   2   4  557.83   16.19   1
   0   2   4  565.34   17.56   3
  -1  -2  -4  235.96    7.91   4
  -1  -2  -4  221.71    8.38   3
  -1  -2  -4  231.96    8.22   3
   1   2   4  225.78    8.35   3
  -2  -2  -4  399.12   12.70   4
  -2  -2  -4  395.25   14.01   3
  -2  -2  -4  397.09   13.73   3
   2   2   4  407.11   13.99   3
  -3  -2  -4   29.18    2.12   4
  -3  -2  -4   29.69    3.07   3
  -3  -2  -4   35.81    2.84   3
   3   2   4   31.70    3.17   3
  -4  -2  -4  145.77    7.53   3
  -4  -2  -4  152.79    5.91   4
   4   2   4  156.92    7.64   3
  -5  -2  -4  143.15    5.63   4
  -5  -2  -4  134.55    7.60   3
   5   2   4  133.02    7.55   3
  -6  -2  -4   38.40    4.70   3
   6   2   4   37.66    4.67   3
   9  -3  -4    2.29    1.55   3
  -9   3   4    4.19    1.82   1
   8  -3  -4    6.87    1.71   3
  -8   3   4    6.96    1.68   3
  -8   3   4    9.71    2.14   1
   7  -3  -4   61.89    3.92   3
  -7   3   4   73.99    4.62   1
  -7   3   4   69.33    4.13   3
   6  -3  -4  130.18    5.73   3
  -6   3   4  130.71    5.74   3
  -6   3   4  129.69    6.22   1
   5  -3  -4   10.83    1.40   3
  -5   3   4   13.22    1.52   3
  -5   3   4   12.42    1.87   1
   4  -3  -4  132.99    4.97   3
   4  -3  -4  131.51    5.08   3
  -4   3   4  139.97    5.04   3
  -4   3   4  130.40    5.70   1
   3  -3  -4  108.63    3.94   3
   3  -3  -4  109.35    4.04   3
  -3   3   4  111.85    4.76   1
  -3   3   4  108.99    4.07   3
   2  -3  -4  371.34   11.29   3
   2  -3  -4  358.99   11.25   3
  -2   3   4  371.08   11.31   3
  -2   3   4  363.02   11.57   1
  -2   3   4  338.79   11.27   3
  -2   3   4  361.64   11.44   2
   1  -3  -4  194.91    6.89   4
   1  -3  -4  160.52    6.21   3
   1  -3  -4  198.48    6.58   3
  -1   3   4  190.93    6.40   3
  -1   3   4  183.06    6.50   3
  -1   3   4  176.92    6.17   2
  -1   3   4  194.07    6.37   1
   0  -3  -4   44.41    2.49   4
   0  -3  -4   46.64    2.61   3
   0  -3  -4   44.49    2.38   3
   0   3   4   52.72    2.72   3
   0   3   4   41.26    2.06   1
   0   3   4   43.35    2.39   4
  -1  -3  -4  613.91   19.84   3
  -1  -3  -4  594.98   17.63   2
  -1  -3  -4  647.09   20.27   3
  -1  -3  -4  635.19   18.84   4
   1   3   4  606.76   20.05   3
  -2  -3  -4  100.48    4.23   4
  -2  -3  -4  102.62    3.53   2
  -2  -3  -4  104.36    5.33   3
  -2  -3  -4  108.57    5.08   3
   2   3   4  106.82    5.29   3
  -3  -3  -4  168.26    5.96   4
  -3  -3  -4  169.91    7.37   3
  -3  -3  -4  147.59    7.42   3
   3   3   4  150.05    7.41   3
  -4  -3  -4   24.74    3.27   3
  -4  -3  -4   29.03    2.03   4
   4   3   4   25.74    3.34   3
  -5  -3  -4   95.04    6.36   3
   5   3   4   96.73    6.43   3
  -6  -3  -4   -0.67    1.33   3
   6   3   4    2.61    2.01   3
   9  -4  -4   32.47    3.64   3
  -9   4   4   33.07    4.11   1
   8  -4  -4   -0.51    0.83   3
  -8   4   4   -0.12    1.07   1
  -8   4   4    0.49    1.10   3
   7  -4  -4    0.17    0.84   3
  -7   4   4    1.21    1.09   1
  -7   4   4    0.48    0.92   3
   6  -4  -4  132.50    5.94   3
   6  -4  -4  155.18    6.40   3
  -6   4   4  136.61    6.00   3
   5  -4  -4  383.48   13.14   3
   5  -4  -4  408.51   13.41   3
  -5   4   4  391.26   13.16   3
  -5   4   4  398.24   13.76   1
   4  -4  -4  138.73    5.18   3
  -4   4   4  128.02    5.84   1
   3  -4  -4  231.98    8.04   3
   3  -4  -4  238.43    8.15   3
  -3   4   4  237.34    8.65   1
  -3   4   4  237.51    8.20   3
  -3   4   4  249.02    8.61   2
   2  -4  -4  738.64   22.04   3
   2  -4  -4  724.76   21.96   3
  -2   4   4  718.96   21.98   3
  -2   4   4  710.76   21.49   2
  -2   4   4  692.75   22.00   3
  -2   4   4  693.64   21.47   1
   1  -4  -4    0.31    0.51   3
   1  -4  -4   -0.06    0.35   3
   1  -4  -4    0.74    0.49   1
  -1   4   4    0.97    0.53   2
  -1   4   4    1.08    0.61   3
  -1   4   4    0.41    0.47   1
   0  -4  -4  178.75    6.87   3
   0  -4  -4  186.09    7.22   3
   0   4   4  178.51    7.08   3
  -1  -4  -4  339.19   11.04   4
  -1  -4  -4  333.05   12.34   3
  -1  -4  -4  347.10   10.42   2
  -1  -4  -4  332.73   11.89   3
   1   4   4  344.21   12.34   3
  -2  -4  -4   -0.76    0.60   3
  -2  -4  -4    0.17    0.44   2
  -2  -4  -4   -1.04    0.45   4
  -2  -4  -4    0.10    0.74   3
   2   4   4   -0.45    0.71   3
  -3  -4  -4    2.68    0.81   4
  -3  -4  -4    2.83    1.36   3
   3   4   4    1.60    1.22   3
  -4  -4  -4   25.60    3.49   3
   4   4   4   27.18    3.59   3
  -5  -4  -4  103.20    6.91   3
   5   4   4  102.77    6.96   3
   9  -5  -4   47.29    3.97   3
  -9   5   4   56.25    5.45   1
   8  -5  -4    5.97    1.65   3
  -8   5   4    8.86    2.22   1
   7  -5  -4   85.77    4.75   3
  -7   5   4   87.12    5.41   1
  -7   5   4   94.57    4.90   3
   6  -5  -4  180.61    7.31   3
   6  -5  -4  171.41    7.43   3
  -6   5   4  181.34    7.27   3
   5  -5  -4   24.70    2.39   3
   5  -5  -4   19.41    2.02   3
  -5   5   4   23.87    2.76   1
   4  -5  -4   18.27    1.81   3
  -4   5   4   18.40    2.27   1
  -4   5   4   17.60    2.21   2
   3  -5  -4   31.12    2.09   3
  -3   5   4   30.81    2.49   1
  -3   5   4   35.17    2.20   3
  -3   5   4   32.52    2.47   2
   2  -5  -4   54.05    2.97   3
  -2   5   4   55.36    3.13   2
  -2   5   4   58.52    3.27   1
  -2   5   4   49.90    2.91   3
   1  -5  -4   20.70    2.01   3
   1  -5  -4   16.67    1.94   3
  -1   5   4   14.63    1.81   3
   0  -5  -4   56.59    2.65   1
   0  -5  -4   60.02    2.84   2
   0  -5  -4   52.86    3.23   3
   0  -5  -4   59.57    3.60   3
   0   5   4   57.75    3.53   3
  -1  -5  -4    9.56    1.00   1
  -1  -5  -4    9.08    1.80   3
  -1  -5  -4   11.01    1.80   3
  -1  -5  -4   10.36    1.25   2
   1   5   4   10.26    1.89   3
  -2  -5  -4   39.80    2.26   2
  -2  -5  -4   40.93    3.44   3
   2   5   4   36.90    3.72   3
  -3  -5  -4   11.62    2.34   3
   3   5   4   13.68    2.58   3
  -4  -5  -4   20.01    3.29   3
   4   5   4   18.56    3.25   3
  -5  -5  -4   -1.49    1.40   3
   5   5   4   -0.58    1.62   3
   9  -6  -4    0.26    1.19   3
  -9   6   4    1.53    1.62   1
   8  -6  -4    3.75    1.41   3
  -8   6   4    6.38    2.01   1
   7  -6  -4   90.26    5.04   3
  -7   6   4  102.52    6.06   1
  -7   6   4   98.04    5.18   3
   6  -6  -4   73.66    4.17   3
  -6   6   4   81.60    5.05   1
   5  -6  -4   62.84    3.50   3
   5  -6  -4   60.35    3.62   3
  -5   6   4   58.46    4.09   1
   4  -6  -4   22.16    2.18   3
   4  -6  -4   23.10    2.29   3
  -4   6   4   17.70    2.45   1
   3  -6  -4  146.30    6.16   3
   3  -6  -4  154.15    6.23   3
  -3   6   4  151.07    6.67   1
  -3   6   4  148.11    6.45   2
  -3   6   4  146.88    6.19   3
   2  -6  -4   25.75    2.16   3
   2  -6  -4   29.38    2.36   3
  -2   6   4   31.04    2.43   2
  -2   6   4   25.77    2.53   3
   1  -6  -4    8.48    1.49   3
   1  -6  -4    9.64    1.73   3
  -1   6   4    6.19    1.39   3
   0  -6  -4   94.00    4.76   3
   0  -6  -4   85.57    4.91   3
   0  -6  -4   85.48    4.00   2
   0   6   4   91.73    4.95   3
  -1  -6  -4    0.31    0.63   2
  -1  -6  -4    0.76    1.05   3
   1   6   4    0.64    1.11   3
  -2  -6  -4  229.16   10.41   3
  -2  -6  -4  237.94    8.09   2
   2   6   4  214.73   10.01   3
  -3  -6  -4  187.02    9.52   3
   3   6   4  196.54    9.60   3
  -4  -6  -4   16.55    3.29   3
   4   6   4   11.31    2.73   3
   9  -7  -4   69.16    4.90   3
  -9   7   4   64.03    6.25   1
   8  -7  -4   97.13    5.60   3
  -8   7   4   97.92    6.52   1
   7  -7  -4  217.12    9.16   3
  -7   7   4  220.39   10.18   1
   6  -7  -4    6.03    1.50   3
  -6   7   4    8.19    1.97   1
   5  -7  -4   14.43    1.95   3
  -5   7   4    9.43    2.08   1
   4  -7  -4    6.11    1.34   3
   4  -7  -4    7.75    1.57   3
  -4   7   4    6.47    1.48   3
  -4   7   4    7.97    1.95   1
   3  -7  -4  637.59   20.54   3
   3  -7  -4  625.83   20.47   3
  -3   7   4  595.89   20.42   3
   2  -7  -4    4.42    1.33   3
   2  -7  -4    3.46    1.19   3
  -2   7   4    1.00    1.07   3
   1  -7  -4    2.30    1.17   3
  -1   7   4    0.70    1.01   3
   0  -7  -4  410.31   13.39   2
   0  -7  -4  400.12   15.15   3
   0   7   4  396.47   15.01   3
  -1  -7  -4   46.76    2.97   2
  -1  -7  -4   46.01    4.48   3
   1   7   4   49.45    4.08   3
  -2  -7  -4   53.83    5.26   3
   2   7   4   56.52    4.58   3
  -3  -7  -4    3.98    1.85   3
   3   7   4    8.37    2.39   3
  -4  -7  -4    1.66    1.69   3
   9  -8  -4   29.38    3.61   3
  -9   8   4   29.77    4.46   1
   8  -8  -4    1.47    1.43   3
  -8   8   4    0.14    1.47   1
   7  -8  -4    4.39    1.50   3
  -7   8   4    3.32    1.92   1
   6  -8  -4    6.41    1.58   3
  -6   8   4    4.88    1.88   1
   5  -8  -4    9.56    1.73   3
  -5   8   4    8.77    2.25   1
   4  -8  -4   22.47    2.62   3
  -4   8   4   23.43    2.72   3
   3  -8  -4   74.67    4.48   3
  -3   8   4   79.96    4.66   3
   2  -8  -4  294.52   11.62   3
  -2   8   4  295.87   11.63   3
   1  -8  -4   86.13    5.28   3
  -1   8   4   90.56    5.39   3
   0  -8  -4   49.02    4.09   3
   0  -8  -4   45.95    3.19   2
   0   8   4   53.42    4.21   3
  -1  -8  -4  528.36   19.83   3
   1   8   4  518.65   19.60   3
  -2  -8  -4   47.81    5.07   3
  -3  -8  -4    3.18    1.88   3
   8  -9  -4   16.70    2.69   3
  -8   9   4   19.03    3.80   1
   7  -9  -4    4.03    1.55   3
  -7   9   4    0.92    1.60   1
   6  -9  -4    3.53    1.36   3
   5  -9  -4   89.00    5.15   3
   4  -9  -4   76.92    4.72   3
   3  -9  -4   41.10    3.43   3
   2  -9  -4    1.16    1.13   3
  -2   9   4    0.04    1.14   3
   1  -9  -4  125.33    6.93   3
   0  -9  -4  491.21   17.10   2
   0  -9  -4  542.07   19.68   3
  -1  -9  -4   77.24    5.85   3
  -2  -9  -4   32.22    4.54   3
   7 -10  -4   49.81    4.10   3
   6 -10  -4   87.47    5.47   3
   5 -10  -4  132.90    6.96   3
   4 -10  -4    7.51    1.96   3
   3 -10  -4    8.35    2.03   3
   2 -10  -4   26.13    3.44   3
   1 -10  -4  140.35    7.84   3
   0 -10  -4    4.49    1.92   3
  -1 -10  -4  242.31   12.14   3
   6 -11  -4  145.86    7.68   3
   5 -11  -4   36.78    4.06   3
   4 -11  -4    0.46    1.22   3
   3 -11  -4    4.00    1.68   3
   2 -11  -4   97.82    6.41   3
   1 -11  -4   45.88    5.12   3
   1  12  -5  115.83    7.96   3
  -1 -12   5  117.36    7.91   3
   0  12  -5   60.15    6.23   3
   0 -12   5   57.78    6.15   3
   0 -12   5   57.56    6.01   2
  -1  12  -5    5.74    2.38   3
   1 -12   5    3.29    2.00   2
   1 -12   5    0.68    1.64   3
  -2  12  -5   42.07    5.12   3
   2 -12   5   47.84    5.27   2
   2 -12   5   46.64    5.32   3
   3 -12   5   48.44    5.52   3
   3 -12   5   51.87    5.54   2
   4 -12   5   43.77    5.39   3
   3  11  -5   21.83    3.98   3
  -3 -11   5   19.81    3.80   3
   2  11  -5  183.81   10.45   3
  -2 -11   5  205.23   10.77   3
   1  11  -5   -0.20    1.57   3
  -1 -11   5    3.17    1.74   2
  -1 -11   5   -1.02    1.20   3
   0  11  -5    1.33    1.55   3
   0 -11   5    6.73    2.31   3
   0 -11   5    4.76    1.99   2
  -1  11  -5    0.07    1.24   3
   1 -11   5    0.86    1.49   3
   1 -11   5   -0.09    1.23   2
  -2  11  -5   12.60    2.82   3
   2 -11   5   17.05    3.07   2
   2 -11   5   13.51    2.82   3
   3 -11   5    0.97    1.56   3
   3 -11   5    1.96    1.63   2
   4 -11   5   25.87    3.74   2
   4 -11   5   15.47    3.16   3
   5 -11   5   47.71    5.41   3
   4  10  -5    1.37    1.82   3
  -4 -10   5    3.30    2.06   3
   3  10  -5   18.44    3.43   3
  -3 -10   5   16.93    3.35   3
   2  10  -5   71.46    5.70   3
  -2 -10   5   66.16    5.49   3
   1  10  -5   69.91    5.47   3
  -1 -10   5   71.39    5.47   3
   0  10  -5   60.06    4.99   3
   0 -10   5   63.83    5.15   3
   0 -10   5   63.96    4.96   2
  -1  10  -5  159.91    8.59   3
   1 -10   5  157.04    8.33   2
   1 -10   5  167.05    8.68   3
  -2  10  -5   17.70    3.01   3
   2 -10   5   14.86    2.67   2
   2 -10   5   10.95    2.51   3
   3 -10   5   30.88    3.82   2
   3 -10   5   33.33    4.16   3
   4 -10   5    1.27    1.45   2
   4 -10   5    2.55    1.61   3
   5 -10   5    7.61    2.44   3
   6 -10   5   26.10    4.16   3
   5   9  -5   34.15    4.88   3
  -5  -9   5   33.52    4.73   3
   4   9  -5  194.78   10.35   3
  -4  -9   5  193.48   10.35   3
   3   9  -5   28.62    4.04   3
  -3  -9   5   28.81    3.97   3
   2   9  -5  110.32    6.92   3
  -2  -9   5  117.13    6.97   3
   1   9  -5   36.09    4.18   3
  -1  -9   5   37.75    4.19   3
   0   9  -5    0.42    1.16   3
   0  -9   5    1.04    1.19   2
   0  -9   5    0.09    1.11   3
  -1   9  -5   25.17    3.42   3
   1  -9   5   26.88    3.45   2
   1  -9   5   28.42    3.60   3
  -2   9  -5   56.06    4.48   3
   2  -9   5   59.90    4.40   2
   2  -9   5   57.91    4.52   3
   3  -9   5    7.51    2.11   3
   3  -9   5    7.13    1.92   2
   4  -9   5  158.57    8.60   3
   4  -9   5  172.37    8.30   2
   5  -9   5   90.03    6.29   3
   6  -9   5    2.69    1.68   3
   6   8  -5  146.14    9.25   3
  -6  -8   5  164.46    9.56   3
   5   8  -5   40.40    4.95   3
  -5  -8   5   51.82    5.60   3
   4   8  -5    2.47    1.55   3
  -4  -8   5    0.14    1.39   3
   3   8  -5  219.40   10.37   3
   3   8  -5  218.59    7.75   4
  -3  -8   5  198.81    9.99   3
   2   8  -5   88.68    5.79   3
  -2  -8   5   99.94    6.03   3
   1   8  -5  165.60    8.28   3
  -1  -8   5  173.32    8.38   3
   0   8  -5    5.48    1.58   3
   0  -8   5    2.85    1.30   3
  -1   8  -5   74.09    4.83   3
   1  -8   5   71.61    4.69   2
   1  -8   5   66.78    4.69   3
   2  -8   5   20.71    3.02   3
   2  -8   5   24.29    3.04   2
   3  -8   5   68.22    4.61   2
   3  -8   5   68.64    4.85   3
   4  -8   5   49.37    4.24   3
   5  -8   5  172.94    8.95   3
  -6   8  -5   17.57    3.19   3
   6  -8   5   17.07    3.14   3
   7   7  -5    0.84    1.65   3
   6   7  -5    9.30    2.64   3
  -6  -7   5    1.94    1.86   3
   5   7  -5  202.42   10.31   3
  -5  -7   5  211.68   10.38   3
   4   7  -5   87.26    3.78   4
   4   7  -5   78.44    5.59   3
  -4  -7   5   92.24    5.89   3
   3   7  -5  178.64    6.81   4
   3   7  -5  191.45    8.97   3
  -3  -7   5  184.37    8.82   3
   2   7  -5   10.89    2.18   3
  -2  -7   5    8.62    1.93   3
   1   7  -5   73.02    4.63   3
  -1  -7   5   65.35    4.43   3
   0   7  -5  112.23    6.01   3
   0  -7   5  111.54    5.93   3
  -1   7  -5   21.93    2.76   3
   1  -7   5   24.14    2.96   3
   1  -7   5   21.67    2.69   2
   2  -7   5  173.94    7.99   3
   2  -7   5  166.21    7.52   2
   3  -7   5  271.43   10.81   2
   3  -7   5  295.95   11.74   3
   4  -7   5   67.44    4.83   3
   5  -7   5    2.27    1.45   3
  -6   7  -5    9.59    2.37   3
   6  -7   5   10.35    2.49   3
  -7   7  -5    0.18    1.37   3
   7  -7   5    2.29    1.77   3
   7   6  -5   81.77    6.17   3
  -7  -6   5   66.38    5.70   3
   6   6  -5   84.27    6.02   3
  -6  -6   5   79.15    5.89   3
   5   6  -5    3.73    1.69   3
  -5  -6   5    1.68    1.32   3
   4   6  -5   78.36    5.19   3
   4   6  -5   84.26    3.67   4
  -4  -6   5   73.14    5.05   3
   3   6  -5  133.68    5.34   4
   3   6  -5  132.64    6.57   3
   3   6  -5  123.27    6.63   3
  -3  -6   5  133.50    6.73   3
   2   6  -5   70.76    4.46   3
   2   6  -5   71.00    3.58   4
   2   6  -5   65.22    4.18   3
  -2  -6   5   66.19    4.24   3
   1   6  -5  112.65    5.66   3
   1   6  -5  102.07    5.49   3
  -1  -6   5  108.16    5.61   3
   0   6  -5  138.16    6.58   3
   0   6  -5  136.16    6.45   3
   0  -6   5  136.09    6.47   3
  -1   6  -5    8.46    1.65   3
  -1   6  -5   11.55    1.98   3
   1  -6   5   12.14    1.89   2
   1  -6   5    7.28    1.58   3
   2  -6   5   73.30    4.18   2
   2  -6   5   69.40    4.37   3
   3  -6   5   39.65    3.39   3
   3  -6   5   37.84    2.92   2
   4  -6   5   77.09    4.98   3
  -5   6  -5    3.41    1.68   3
   5  -6   5    5.19    1.85   3
  -6   6  -5    5.39    1.96   3
   6  -6   5    3.37    1.70   3
  -7   6  -5    0.61    1.49   3
   7  -6   5    1.50    1.56   3
   8   5  -5    4.39    2.17   3
   7   5  -5    1.72    1.41   3
  -7  -5   5    4.19    1.95   3
   6   5  -5   28.62    3.70   3
  -6  -5   5   29.12    3.80   3
   5   5  -5    2.06    1.29   3
  -5  -5   5    4.19    1.54   3
   4   5  -5    6.80    1.65   3
   4   5  -5    8.75    1.29   4
   4   5  -5    7.97    1.76   3
  -4  -5   5    7.54    1.71   3
   3   5  -5    5.17    1.33   3
   3   5  -5    6.68    1.59   3
   3   5  -5    5.65    1.12   4
  -3  -5   5    7.91    1.63   3
   2   5  -5  113.25    5.75   3
   2   5  -5  129.18    5.83   3
   2   5  -5  119.37    5.05   4
  -2  -5   5  123.14    5.81   3
   1   5  -5  914.98   28.87   3
   1   5  -5  895.92   28.86   3
  -1  -5   5  905.25   28.84   3
   0   5  -5   24.48    2.53   3
   0   5  -5   30.13    2.89   3
   0  -5   5   23.70    2.47   3
  -1   5  -5  198.11    8.28   3
   1  -5   5  194.26    8.08   3
   1  -5   5  201.83    7.78   2
  -2   5  -5   67.07    4.15   3
   2  -5   5   59.35    3.52   2
   2  -5   5   61.59    3.83   3
   3  -5   5   22.73    2.39   2
   3  -5   5   20.58    2.67   3
  -4   5  -5   19.40    2.70   3
   4  -5   5   22.64    2.93   3
  -5   5  -5   48.65    4.03   3
   5  -5   5   51.02    4.12   3
  -6   5  -5    2.31    1.49   3
   6  -5   5    0.10    1.26   3
  -7   5  -5   -0.54    1.32   3
   7  -5   5   -0.22    1.41   3
   8   4  -5   10.69    2.70   3
   7   4  -5   32.05    3.99   3
  -7  -4   5   40.62    4.44   3
   6   4  -5  255.91   10.84   3
  -6  -4   5  231.91   10.49   3
   5   4  -5  294.12   11.80   3
   5   4  -5  315.64   11.64   3
  -5  -4   5  276.93   11.62   3
   4   4  -5  314.94   11.50   3
   4   4  -5  302.32   10.33   4
   4   4  -5  314.11   11.86   3
  -4  -4   5  309.14   11.81   3
   3   4  -5  409.66   14.05   3
   3   4  -5  386.44   12.73   4
   3   4  -5  410.31   13.78   3
  -3  -4   5  372.08   13.81   3
   2   4  -5  448.25   14.92   3
   2   4  -5  454.84   14.18   4
   2   4  -5  428.09   14.99   3
  -2  -4   5  430.53   14.96   3
   1   4  -5    5.68    1.19   3
   1   4  -5    7.43    1.35   3
  -1  -4   5    7.07    1.28   3
   0   4  -5  547.36   17.34   3
   0   4  -5  531.41   17.38   3
   0  -4   5  492.06   17.17   3
  -1   4  -5  377.72   13.20   3
   1  -4   5  363.07   13.00   3
   1  -4   5  381.05   12.39   2
  -2   4  -5   16.76    2.25   3
   2  -4   5   18.22    1.92   2
   2  -4   5   17.78    2.23   3
  -3   4  -5  291.38   11.42   3
   3  -4   5  293.13   11.26   3
  -4   4  -5   60.00    4.09   3
   4  -4   5   52.41    3.91   3
  -5   4  -5    0.99    1.11   3
   5  -4   5    0.53    1.15   3
  -6   4  -5    3.84    1.85   3
   6  -4   5    2.18    1.64   3
  -7   4  -5    3.26    1.84   3
   7  -4   5    6.73    2.28   3
   8   3  -5    0.04    1.40   3
   7   3  -5   71.17    5.11   3
  -7  -3   5   76.96    5.22   3
   6   3  -5  654.81   22.55   3
  -6  -3   5  650.96   22.46   3
   5   3  -5   15.15    2.09   3
   5   3  -5   13.74    2.07   3
  -5  -3   5   12.06    1.90   3
   4   3  -5   41.01    2.58   4
   4   3  -5   44.12    3.02   3
   4   3  -5   44.49    2.91   3
  -4  -3   5   42.83    2.97   3
   3   3  -5  133.99    5.45   3
   3   3  -5  126.42    5.21   4
   3   3  -5  136.06    5.68   3
  -3  -3   5  119.17    5.46   3
   2   3  -5   84.38    3.92   3
   2   3  -5   79.03    3.77   3
   2   3  -5   80.28    3.79   4
  -2  -3   5   86.70    3.94   3
   1   3  -5  177.54    6.81   3
   1   3  -5  174.66    6.73   3
  -1  -3   5  182.95    6.80   3
  -1  -3   5  186.16    6.83   3
   0   3  -5  314.07   11.11   3
   0  -3   5  331.85   11.10   3
  -1   3  -5 2281.62   66.83   3
   1  -3   5 2169.21   66.65   3
   1  -3   5 2236.44   63.30   2
  -2   3  -5 1439.03   42.85   3
   2  -3   5 1360.06   42.61   3
   2  -3   5 1362.67   39.91   2
  -3   3  -5    3.48    1.13   3
  -3   3  -5    1.00    0.96   3
   3  -3   5    0.46    0.85   3
  -4   3  -5  138.13    6.91   3
   4  -3   5  151.43    7.12   3
  -5   3  -5   17.76    2.75   3
   5  -3   5   13.37    2.43   3
  -6   3  -5    5.53    1.94   3
   6  -3   5    6.78    2.09   3
  -7   3  -5    1.39    1.67   3
   7  -3   5    3.37    1.91   3
   9   2  -5    9.26    2.64   3
  -9  -2   5   14.09    2.63   1
   8   2  -5    5.89    1.96   3
  -8  -2   5    4.10    1.75   3
   7   2  -5   77.21    5.08   3
  -7  -2   5   82.46    5.16   3
   6   2  -5   54.22    3.57   3
   6   2  -5   48.19    3.63   3
  -6  -2   5   54.99    3.74   3
   5   2  -5  528.95   18.13   3
   5   2  -5  542.78   17.90   3
  -5  -2   5  540.60   18.10   3
   4   2  -5  464.08   15.22   3
   4   2  -5  458.97   15.41   3
   4   2  -5  471.39   14.87   4
  -4  -2   5  450.77   15.32   3
   3   2  -5  103.46    4.28   3
   3   2  -5   99.73    4.38   3
   3   2  -5  104.33    4.49   4
  -3  -2   5  103.00    4.38   3
   2   2  -5   67.01    3.43   4
   2   2  -5   72.77    3.23   3
  -2  -2   5   75.06    3.27   3
  -2  -2   5   73.74    3.21   3
   1   2  -5    0.37    0.32   3
   1   2  -5    0.18    0.52   4
   1   2  -5    0.69    0.44   3
  -1  -2   5    0.09    0.42   3
  -1  -2   5   -0.40    0.35   3
   0   2  -5   35.95    2.17   3
   0  -2   5   34.63    2.15   3
   0  -2   5   34.60    2.09   3
  -1   2  -5 2104.50   62.99   3
   1  -2   5 2086.46   59.40   2
   1  -2   5 2128.13   62.93   3
  -2   2  -5    2.92    1.04   3
  -2   2  -5    2.72    0.91   3
   2  -2   5    3.01    0.95   3
  -3   2  -5  173.09    7.48   3
  -3   2  -5  168.84    7.35   3
   3  -2   5  172.53    7.42   3
   3  -2   5  173.52    5.98   1
  -4   2  -5  198.28    8.72   3
   4  -2   5  200.42    6.71   1
   4  -2   5  200.09    8.75   3
  -5   2  -5   29.23    3.49   3
   5  -2   5   32.54    3.72   3
  -6   2  -5    1.62    1.35   3
   6  -2   5    2.43    1.46   3
  -7   2  -5   11.87    2.73   3
   7  -2   5    9.71    2.76   3
   9   1  -5   95.92    6.52   3
  -9  -1   5  103.25    6.03   1
   8   1  -5  187.09    8.95   3
  -8  -1   5  179.19    8.80   3
   7   1  -5  121.64    6.20   3
  -7  -1   5  104.75    5.85   3
   6   1  -5   22.97    2.61   3
   6   1  -5   25.93    2.67   3
  -6  -1   5   24.46    2.66   3
   5   1  -5  161.89    6.87   3
   5   1  -5  181.17    6.87   3
  -5  -1   5  171.08    6.92   3
   4   1  -5    1.16    0.63   3
   4   1  -5    1.01    0.70   4
   4   1  -5    1.52    0.61   3
  -4  -1   5    1.67    0.69   3
   3   1  -5  365.08   11.92   4
   3   1  -5  351.69   11.40   3
   3   1  -5  351.61   11.52   3
  -3  -1   5  369.71   11.44   3
  -3  -1   5  353.53   11.55   3
   2   1  -5  258.89    8.30   3
   2   1  -5  262.73    8.28   3
   2   1  -5  252.77    8.96   4
  -2  -1   5  262.03    8.30   3
  -2  -1   5  250.17    8.32   3
   1   1  -5  124.09    5.13   4
   1   1  -5  125.45    4.48   3
  -1  -1   5  123.65    4.42   3
  -1  -1   5  126.08    4.51   3
   0   1  -5 2249.84   66.70   3
   0   1  -5 2265.76   64.92   4
   0  -1   5 2247.19   66.75   3
   0  -1   5 2273.56   66.72   3
  -1   1  -5 1416.85   42.61   3
  -1   1  -5 1415.45   42.67   3
   1  -1   5 1378.92   39.67   2
   1  -1   5 1433.84   42.62   3
  -2   1  -5   94.78    4.45   3
  -2   1  -5   92.76    4.55   3
   2  -1   5   87.92    3.40   1
   2  -1   5   89.95    4.42   3
  -3   1  -5   18.89    2.40   3
  -3   1  -5   13.64    2.07   3
   3  -1   5   17.31    1.09   1
   3  -1   5   13.34    1.98   3
  -4   1  -5    5.50    1.00   2
  -4   1  -5    5.05    1.52   3
   4  -1   5    2.70    1.39   3
  -5   1  -5   36.04    3.92   3
   5  -1   5   30.88    3.67   3
  -6   1  -5    4.33    1.90   3
   6  -1   5    5.90    1.97   3
  -7   1  -5   -0.10    1.39   3
   7  -1   5    0.20    1.52   3
   9   0  -5  177.93    9.04   3
  -9   0   5  175.04    8.56   1
   8   0  -5    7.87    1.92   3
  -8   0   5    6.26    1.77   1
  -8   0   5    7.62    1.90   3
   7   0  -5  306.62   12.12   3
  -7   0   5  329.98   12.27   3
   6   0  -5  100.20    5.06   3
   6   0  -5  112.63    5.12   3
  -6   0   5  102.43    5.07   3
   5   0  -5   40.56    2.51   3
   5   0  -5   33.81    2.28   3
  -5   0   5   38.19    2.45   3
   4   0  -5   17.42    1.29   3
   4   0  -5   18.90    1.39   3
  -4   0   5   14.94    1.30   3
   3   0  -5    3.58    0.93   4
   3   0  -5    2.57    0.44   3
   3   0  -5    2.33    0.47   3
  -3   0   5    3.33    0.51   3
  -3   0   5    1.75    0.45   3
   2   0  -5  573.84   17.91   4
  -2   0   5  574.92   16.94   3
   1   0  -5  870.46   25.89   3
   1   0  -5  863.19   25.80   3
   1   0  -5  892.32   26.23   4
  -1   0   5  869.90   25.85   3
  -1   0   5  862.40   25.90   3
   0   0  -5    3.76    1.00   4
   0   0  -5    4.73    0.78   3
   0   0   5    3.91    0.72   3
  -1   0  -5 1938.35   59.01   3
  -1   0  -5 2021.77   57.16   4
  -1   0  -5 1950.70   59.01   3
   1   0   5 1995.70   59.02   3
  -2   0  -5  263.67   10.00   3
  -2   0  -5  268.71   10.00   3
   2   0   5  285.42   10.05   3
  -3   0  -5  161.98    7.04   3
  -3   0  -5  147.40    6.86   3
   3   0   5  151.53    6.87   3
  -4   0  -5   10.78    2.08   3
   4   0   5   13.68    2.35   3
  -5   0  -5   18.14    2.99   3
   5   0   5   15.05    2.72   3
  -6   0  -5    2.42    1.73   3
   6   0   5    5.67    2.11   3
   9  -1  -5    7.80    2.16   3
  -9   1   5    4.31    1.75   1
   8  -1  -5  187.46    8.54   3
  -8   1   5  182.97    8.47   1
  -8   1   5  185.27    8.43   3
   7  -1  -5  580.40   19.50   3
  -7   1   5  569.79   19.15   1
  -7   1   5  565.46   19.36   3
   6  -1  -5  777.77   25.25   3
  -6   1   5  788.41   24.95   1
  -6   1   5  818.65   25.34   3
   5  -1  -5  569.85   18.38   3
  -5   1   5  589.47   18.41   3
   4  -1  -5  695.41   21.05   3
  -4   1   5  686.16   21.03   3
  -4   1   5  694.33   21.06   3
   3  -1  -5   73.65    3.89   4
  -3   1   5   81.27    2.69   3
  -3   1   5   82.47    2.68   3
   2  -1  -5  634.41   19.72   4
   1  -1  -5  674.70   20.18   3
   1  -1  -5  691.24   20.88   4
   1  -1  -5  680.51   20.23   3
  -1   1   5  665.65   20.25   3
   0  -1  -5  961.37   29.22   3
   0  -1  -5  954.34   28.80   4
   0   1   5  954.93   29.12   3
   0   1   5  985.04   29.19   3
  -1  -1  -5  460.61   14.83   4
  -1  -1  -5  480.93   15.11   3
  -1  -1  -5  454.89   15.20   3
   1   1   5  449.74   15.10   3
  -2  -1  -5   64.94    3.77   3
  -2  -1  -5   66.42    3.47   4
  -2  -1  -5   71.83    3.78   3
   2   1   5   64.13    3.74   3
  -3  -1  -5   23.75    2.77   3
  -3  -1  -5   22.97    2.33   4
  -3  -1  -5   27.54    2.89   3
   3   1   5   22.49    2.65   3
  -4  -1  -5  140.95    7.39   3
  -4  -1  -5  145.49    6.22   4
   4   1   5  157.38    7.54   3
  -5  -1  -5   -0.08    1.30   3
  -5  -1  -5    1.09    0.94   4
   5   1   5    2.40    1.66   3
  -6  -1  -5   59.20    5.82   3
   6   1   5   51.01    5.44   3
   9  -2  -5   64.68    4.75   3
  -9   2   5   64.02    4.84   1
   8  -2  -5   44.21    3.55   3
  -8   2   5   43.59    4.31   1
   7  -2  -5  112.79    5.45   3
  -7   2   5  110.29    5.45   3
   6  -2  -5   48.81    3.02   3
  -6   2   5   54.22    3.07   3
  -6   2   5   50.11    3.50   1
   5  -2  -5 1002.01   31.05   3
  -5   2   5 1032.73   30.90   1
  -5   2   5 1033.42   31.08   3
   4  -2  -5    9.20    0.94   3
   4  -2  -5    8.71    0.90   3
  -4   2   5    7.84    1.37   1
  -4   2   5    8.56    0.96   3
  -4   2   5    8.72    0.90   3
  -3   2   5  211.72    7.67   1
   2  -2  -5  221.02    8.15   4
  -2   2   5  216.86    7.55   1
   1  -2  -5  178.08    6.99   4
   1  -2  -5  187.09    6.12   3
   1  -2  -5  189.30    6.26   3
  -1   2   5  180.21    6.23   3
  -1   2   5  188.96    6.35   1
  -1   2   5  187.85    6.14   3
  -1   2   5  187.60    6.03   2
   0  -2  -5  230.16    7.94   3
   0  -2  -5  221.58    8.06   4
   0   2   5  216.84    7.83   3
   0   2   5  224.46    7.00   1
  -1  -2  -5   15.62    1.83   3
  -1  -2  -5   11.57    1.55   3
  -1  -2  -5   12.17    1.58   4
   1   2   5   11.31    1.58   3
  -2  -2  -5  100.83    5.23   3
  -2  -2  -5  103.18    4.65   4
  -2  -2  -5  107.42    5.10   3
   2   2   5  104.53    5.21   3
  -3  -2  -5  105.71    4.75   4
  -3  -2  -5  103.00    5.47   3
  -3  -2  -5  100.32    5.68   3
   3   2   5  113.02    5.84   3
  -4  -2  -5  116.33    5.15   4
  -4  -2  -5  112.98    6.58   3
   4   2   5  121.33    6.71   3
  -5  -2  -5  222.79   10.63   3
   5   2   5  214.26   10.46   3
  -6  -2  -5   10.03    2.68   3
   6   2   5   11.01    2.98   3
   9  -3  -5   13.29    2.45   3
  -9   3   5   10.56    2.48   1
   8  -3  -5    1.16    1.07   3
  -8   3   5    0.23    1.12   1
   7  -3  -5   30.19    2.46   3
  -7   3   5   28.44    2.75   3
  -7   3   5   28.60    3.33   1
   6  -3  -5   74.24    3.66   3
  -6   3   5   69.15    3.63   3
  -6   3   5   69.16    4.35   1
   5  -3  -5  271.55    9.68   3
   5  -3  -5  290.25    9.62   3
  -5   3   5  288.60    9.63   3
  -5   3   5  294.40   10.61   1
   4  -3  -5    5.70    0.82   3
   4  -3  -5    8.68    0.86   3
  -4   3   5    7.77    0.90   3
  -4   3   5    8.38    1.52   1
   3  -3  -5  116.34    3.88   3
   3  -3  -5  115.87    3.93   3
  -3   3   5  124.01    5.13   1
  -3   3   5  117.16    4.09   3
   2  -3  -5  654.76   20.27   3
   2  -3  -5  695.31   20.20   3
  -2   3   5  663.94   20.38   3
  -2   3   5  676.48   20.19   2
  -2   3   5  666.21   20.28   3
  -2   3   5  696.69   20.40   1
   1  -3  -5  116.24    4.46   3
   1  -3  -5  109.58    4.19   3
   1  -3  -5  114.81    5.01   4
  -1   3   5  113.67    4.40   1
  -1   3   5  115.26    4.16   2
  -1   3   5  108.44    4.39   3
   0  -3  -5  119.08    4.77   3
   0  -3  -5  123.97    5.09   4
   0  -3  -5  115.83    4.99   3
   0   3   5  113.76    4.94   3
   0   3   5  112.89    4.15   1
  -1  -3  -5   44.61    3.00   3
  -1  -3  -5   41.50    2.70   3
  -1  -3  -5   41.75    2.68   4
   1   3   5   48.34    3.05   3
  -2  -3  -5   46.46    2.82   4
  -2  -3  -5   45.24    3.38   3
  -2  -3  -5   52.21    3.37   3
   2   3   5   46.65    3.41   3
  -3  -3  -5  132.88    6.98   3
  -3  -3  -5  147.67    5.73   4
   3   3   5  133.20    7.00   3
  -4  -3  -5   63.93    4.85   3
  -4  -3  -5   62.24    3.34   4
   4   3   5   61.12    4.73   3
  -5  -3  -5  133.46    8.09   3
   5   3   5  151.67    8.39   3
   9  -4  -5    8.80    2.03   3
  -9   4   5    8.71    2.27   1
   8  -4  -5   29.70    3.07   3
  -8   4   5   27.93    3.50   1
   7  -4  -5  154.04    6.59   3
  -7   4   5  143.58    7.38   1
  -7   4   5  156.75    6.68   3
   6  -4  -5  106.68    4.73   3
  -6   4   5  105.70    4.76   3
   5  -4  -5  315.51   10.45   3
   5  -4  -5  312.75   10.62   3
  -5   4   5  313.53   11.56   1
  -5   4   5  304.85   10.46   3
   4  -4  -5    4.68    0.77   3
   4  -4  -5    7.11    0.98   3
  -4   4   5    8.21    1.59   1
   3  -4  -5   41.57    2.03   3
   3  -4  -5   41.95    2.07   3
  -3   4   5   46.01    2.17   3
  -3   4   5   42.50    2.71   2
  -3   4   5   40.34    2.75   1
   2  -4  -5   21.87    1.53   3
   2  -4  -5   21.44    1.47   3
  -2   4   5   26.72    1.69   3
  -2   4   5   20.77    2.05   1
  -2   4   5   22.38    1.80   2
   1  -4  -5  301.77   10.45   3
  -1   4   5  307.23    9.95   1
  -1   4   5  298.67   10.38   3
   0  -4  -5   44.01    2.94   3
   0  -4  -5   49.62    2.80   3
   0  -4  -5   48.56    2.92   4
   0   4   5   45.66    2.96   3
  -1  -4  -5   83.13    4.65   3
  -1  -4  -5   83.16    4.03   4
  -1  -4  -5   82.35    4.34   3
   1   4   5   88.85    4.71   3
  -2  -4  -5   99.87    5.62   3
  -2  -4  -5  102.25    4.44   4
   2   4   5   94.81    5.48   3
  -3  -4  -5   22.14    2.05   4
  -3  -4  -5   20.79    3.06   3
   3   4   5   24.69    3.28   3
  -4  -4  -5    4.60    1.88   3
   4   4   5    1.85    1.54   3
  -5  -4  -5    3.90    1.93   3
   9  -5  -5   10.39    2.07   3
  -9   5   5    6.16    2.20   1
   8  -5  -5    6.74    1.63   3
  -8   5   5    5.85    1.97   1
   7  -5  -5    3.07    1.07   3
  -7   5   5    3.81    1.46   1
   6  -5  -5    1.27    0.78   3
  -6   5   5    0.28    0.71   3
  -6   5   5   -0.16    0.90   1
   5  -5  -5   42.33    2.61   3
   5  -5  -5   35.64    2.30   3
  -5   5   5   37.81    3.64   1
   4  -5  -5    7.23    1.09   3
   4  -5  -5    6.22    1.10   3
  -4   5   5   11.15    1.83   1
   3  -5  -5   43.17    2.33   3
   3  -5  -5   42.17    2.30   3
  -3   5   5   36.72    2.28   3
  -3   5   5   34.59    2.58   2
  -3   5   5   34.91    2.71   1
   2  -5  -5  198.74    7.65   3
   2  -5  -5  206.71    7.51   3
  -2   5   5  218.75    7.95   1
  -2   5   5  216.34    7.80   2
  -2   5   5  209.16    7.73   3
   1  -5  -5    4.41    1.11   3
   1  -5  -5    4.64    1.03   3
  -1   5   5    6.06    1.26   3
   0  -5  -5   26.10    2.79   3
   0  -5  -5   34.08    2.44   3
   0   5   5   31.69    2.62   3
  -1  -5  -5   98.65    5.43   3
   1   5   5   98.63    5.36   3
  -2  -5  -5  173.27    8.45   3
   2   5   5  182.35    8.51   3
  -3  -5  -5   10.26    2.33   3
   3   5   5    7.98    2.25   3
  -4  -5  -5   15.46    3.14   3
   9  -6  -5   88.04    5.38   3
  -9   6   5   88.44    6.37   1
   8  -6  -5   89.73    5.06   3
  -8   6   5   90.74    6.11   1
   7  -6  -5   17.92    2.25   3
  -7   6   5   20.50    3.15   1
   6  -6  -5   11.65    1.66   3
  -6   6   5   11.24    2.23   1
  -6   6   5    9.21    1.58   3
   5  -6  -5   16.33    1.80   3
   5  -6  -5    9.18    1.47   3
  -5   6   5   17.05    2.57   1
   4  -6  -5    1.97    0.79   3
   4  -6  -5    1.78    0.82   3
  -4   6   5    0.35    0.84   1
   3  -6  -5  894.68   28.22   3
  -3   6   5  927.15   28.31   3
  -3   6   5  900.02   27.91   1
  -3   6   5  901.46   27.80   2
   2  -6  -5   11.29    1.74   3
  -2   6   5   14.27    2.07   1
  -2   6   5   15.14    1.94   3
   1  -6  -5  275.36   10.11   3
   1  -6  -5  271.24   10.50   3
  -1   6   5  279.22   10.49   3
   0  -6  -5  148.60    7.08   3
   0   6   5  149.72    7.01   3
  -1  -6  -5  197.24    8.98   3
   1   6   5  187.82    8.72   3
  -2  -6  -5    2.22    1.46   3
   2   6   5    1.70    1.42   3
  -3  -6  -5   30.43    3.95   3
  -4  -6  -5   16.62    3.34   3
   9  -7  -5   -0.56    1.09   3
  -9   7   5   -0.72    1.52   1
   8  -7  -5    1.24    1.21   3
  -8   7   5   -0.22    1.32   1
   7  -7  -5    1.74    0.98   3
  -7   7   5    1.01    1.36   1
   6  -7  -5  207.46    8.10   3
  -6   7   5  183.54    9.06   1
   5  -7  -5   48.76    3.09   3
  -5   7   5   46.66    4.41   1
   4  -7  -5  201.35    7.72   3
  -4   7   5  188.90    7.68   3
  -4   7   5  185.50    8.45   1
   3  -7  -5  556.06   18.60   3
  -3   7   5  557.95   18.69   3
  -3   7   5  568.04   18.87   1
   2  -7  -5  144.73    6.58   3
  -2   7   5  145.12    6.62   3
   1  -7  -5   -0.75    0.88   3
  -1   7   5    0.61    1.04   3
   0  -7  -5    7.22    1.87   3
   0   7   5    7.70    1.89   3
  -1  -7  -5   97.75    6.06   3
  -2  -7  -5    5.07    2.01   3
  -3  -7  -5    1.62    1.60   3
   8  -8  -5   33.97    3.52   3
  -8   8   5   33.44    4.52   1
   7  -8  -5    4.44    1.41   3
  -7   8   5    5.57    2.22   1
   6  -8  -5    1.61    1.04   3
  -6   8   5    0.28    1.16   1
   5  -8  -5    7.05    1.50   3
  -5   8   5    4.34    1.80   1
   4  -8  -5   16.51    2.21   3
  -4   8   5   17.75    2.87   1
   3  -8  -5  121.71    5.96   3
   2  -8  -5  255.13   10.38   3
   1  -8  -5   10.02    2.06   3
   0  -8  -5   55.50    4.40   3
  -1  -8  -5   12.45    2.66   3
  -2  -8  -5  184.91    9.87   3
   8  -9  -5  167.74    7.93   3
  -8   9   5  156.52    9.37   1
   7  -9  -5  115.16    6.02   3
  -7   9   5  106.14    7.33   1
   6  -9  -5   60.95    4.04   3
  -6   9   5   61.24    5.92   1
   5  -9  -5    1.94    1.09   3
   4  -9  -5   73.09    4.45   3
   3  -9  -5  158.09    7.47   3
   2  -9  -5    8.51    2.06   3
   1  -9  -5    0.58    1.20   3
   0  -9  -5   94.94    6.28   3
  -1  -9  -5  143.15    8.39   3
   7 -10  -5    3.74    1.67   3
   6 -10  -5   15.08    2.46   3
   5 -10  -5    0.41    1.09   3
   4 -10  -5   11.46    2.16   3
   3 -10  -5    2.45    1.46   3
   2 -10  -5   26.19    3.42   3
   1 -10  -5   37.91    4.37   3
   0 -10  -5   21.93    3.59   3
   5 -11  -5    0.93    1.34   3
   4 -11  -5   42.34    4.27   3
   3 -11  -5   19.38    3.05   3
   2 -11  -5   41.47    4.63   3
   1  12  -6    0.39    1.56   3
  -1 -12   6    1.51    1.82   3
   0  12  -6   33.10    4.71   3
   0 -12   6   19.64    3.61   3
  -1  12  -6   31.08    4.60   3
   1 -12   6   28.41    4.29   3
  -2  12  -6   14.19    3.28   3
   2 -12   6   24.05    3.99   3
   3 -12   6   94.37    6.92   3
   3  11  -6   55.53    6.24   3
  -3 -11   6   60.75    6.33   3
   2  11  -6   14.89    3.22   3
  -2 -11   6   14.19    3.09   3
   1  11  -6   -0.97    1.29   3
  -1 -11   6   -0.44    1.46   3
   0  11  -6    1.68    1.60   3
   0 -11   6   -0.08    1.31   3
   0 -11   6   -0.19    1.43   2
  -1  11  -6   -0.60    1.24   3
   1 -11   6    0.77    1.39   3
   1 -11   6    1.12    1.57   2
  -2  11  -6   -0.50    1.43   3
   2 -11   6    0.61    1.51   3
   2 -11   6    0.23    1.38   2
   3 -11   6    9.18    2.39   2
   3 -11   6    5.66    2.18   3
   4 -11   6    0.33    1.54   2
   4 -11   6    0.01    1.56   3
  -4 -10   6   15.84    3.47   3
   3  10  -6   86.42    6.48   3
  -3 -10   6   78.39    6.13   3
   2  10  -6  127.51    6.04   4
   2  10  -6  130.48    8.04   3
  -2 -10   6  140.99    8.15   3
   1  10  -6   93.13    6.33   3
  -1 -10   6   74.35    5.70   3
   0  10  -6    0.61    1.31   3
   0 -10   6   -0.04    1.32   3
   0 -10   6   -0.19    1.30   2
  -1  10  -6   20.30    3.28   3
   1 -10   6   18.84    3.20   2
   1 -10   6   19.39    3.23   3
   2 -10   6   30.87    3.91   2
   2 -10   6   35.84    4.33   3
   3 -10   6   51.80    5.18   2
   3 -10   6   53.62    5.36   3
   4 -10   6   39.24    4.38   2
   4 -10   6   29.06    4.10   3
   5 -10   6    2.71    1.91   3
   5   9  -6   52.12    5.95   3
  -5  -9   6   56.63    6.21   3
   4   9  -6    7.34    2.46   3
  -4  -9   6    7.33    2.48   3
   3   9  -6    5.13    2.12   3
  -3  -9   6    7.70    2.38   3
   2   9  -6  355.54   12.48   4
   2   9  -6  360.43   14.90   3
  -2  -9   6  341.79   14.55   3
   1   9  -6   12.68    2.56   3
  -1  -9   6    8.17    2.15   3
   0   9  -6   65.50    5.00   3
   0  -9   6   61.50    4.69   2
   0  -9   6   72.63    5.09   3
  -1   9  -6    0.70    1.29   3
   1  -9   6    0.67    1.27   3
   1  -9   6    0.42    1.21   2
   2  -9   6   32.91    3.71   2
   2  -9   6   25.16    3.51   3
   3  -9   6    8.49    2.16   2
   3  -9   6    5.45    1.94   3
   4  -9   6    7.53    2.22   3
   4  -9   6    5.96    1.94   2
   5  -9   6   95.31    6.61   3
   6   8  -6   53.82    5.96   3
   5   8  -6   48.84    5.34   3
  -5  -8   6   46.63    5.33   3
   4   8  -6    1.23    1.47   3
  -4  -8   6    2.21    1.75   3
   3   8  -6   56.36    4.73   3
   3   8  -6   71.88    3.78   4
  -3  -8   6   66.34    4.98   3
   2   8  -6   19.99    3.02   3
   2   8  -6   15.96    2.14   4
  -2  -8   6   13.82    2.56   3
   1   8  -6   23.71    3.23   3
  -1  -8   6   25.39    3.38   3
   0   8  -6   28.22    3.44   3
   0  -8   6   21.63    3.06   3
  -1   8  -6  209.33    9.84   3
   1  -8   6  228.32   10.06   3
   1  -8   6  241.29    9.92   2
   2  -8   6   38.71    3.91   2
   2  -8   6   37.30    4.00   3
   3  -8   6  101.46    6.17   3
   3  -8   6  106.78    5.94   2
   4  -8   6    3.86    1.81   3
   5  -8   6   23.85    3.55   3
  -6   8  -6   16.24    3.17   3
   6  -8   6   13.77    2.94   3
   7   7  -6   19.44    3.69   3
   6   7  -6   11.78    2.82   3
  -6  -7   6    8.57    2.58   3
   5   7  -6  114.13    7.05   3
  -5  -7   6  108.10    6.92   3
   4   7  -6  103.86    4.61   4
   4   7  -6   98.19    6.18   3
  -4  -7   6   89.73    5.94   3
   3   7  -6  129.23    7.16   3
   3   7  -6  138.50    5.82   4
  -3  -7   6  137.62    7.22   3
   2   7  -6  102.78    5.96   3
   2   7  -6  105.32    5.04   4
  -2  -7   6  106.84    6.00   3
   1   7  -6  129.30    6.76   3
   1   7  -6  142.87    7.08   3
  -1  -7   6  132.22    6.82   3
   0   7  -6  157.80    7.59   3
   0  -7   6  160.70    7.56   3
  -1   7  -6  338.50   13.15   3
   1  -7   6  348.05   12.76   2
   1  -7   6  334.05   13.12   3
   2  -7   6   14.07    2.41   3
   2  -7   6   12.47    2.12   2
   3  -7   6   93.04    5.18   2
   3  -7   6   93.31    5.74   3
   4  -7   6    2.47    1.46   3
  -5   7  -6  104.44    6.60   3
   5  -7   6  110.40    6.73   3
  -6   7  -6    2.25    1.77   3
   6  -7   6    5.61    2.19   3
   7   6  -6   10.92    2.78   3
   6   6  -6  103.91    6.65   3
  -6  -6   6   99.20    6.50   3
   5   6  -6  100.02    6.27   3
  -5  -6   6  110.11    6.44   3
   4   6  -6    1.27    0.86   4
   4   6  -6    2.59    1.39   3
  -4  -6   6    2.21    1.31   3
   3   6  -6  133.63    5.84   4
   3   6  -6  144.42    6.93   3
   3   6  -6  143.43    7.12   3
  -3  -6   6  138.34    6.93   3
   2   6  -6   33.65    3.37   3
   2   6  -6   36.98    3.08   3
   2   6  -6   30.96    2.49   4
  -2  -6   6   30.60    3.21   3
   1   6  -6   32.16    3.19   3
   1   6  -6   18.69    2.49   3
  -1  -6   6   26.11    2.86   3
   0   6  -6   83.43    4.86   3
   0   6  -6   80.45    4.61   3
   0  -6   6   70.37    4.45   3
  -1   6  -6   40.80    3.33   3
   1  -6   6   32.62    3.23   2
   1  -6   6   33.11    3.36   3
   2  -6   6  314.74   11.99   3
   2  -6   6  300.02   11.21   2
   3  -6   6   18.65    2.41   2
   3  -6   6   11.91    2.26   3
   4  -6   6   84.33    5.46   3
  -5   6  -6    1.09    1.22   3
   5  -6   6   -0.16    1.23   3
  -6   6  -6   11.62    2.60   3
   6  -6   6   17.20    3.12   3
   8   5  -6    0.58    1.53   3
   7   5  -6   59.44    4.92   3
   6   5  -6   14.15    2.61   3
  -6  -5   6   12.25    2.48   3
   5   5  -6   30.48    3.43   3
  -5  -5   6   27.98    3.35   3
   4   5  -6   79.37    4.63   3
   4   5  -6   72.21    4.69   3
   4   5  -6   74.48    3.86   4
  -4  -5   6   75.15    4.69   3
   3   5  -6  664.44   20.54   4
   3   5  -6  647.11   22.09   3
   3   5  -6  658.93   21.84   3
  -3  -5   6  651.22   22.04   3
   2   5  -6   63.03    3.75   3
   2   5  -6   55.00    3.63   3
   2   5  -6   57.40    3.33   4
  -2  -5   6   52.93    3.55   3
   1   5  -6    2.92    1.14   3
   1   5  -6    1.31    0.86   3
  -1  -5   6    2.54    1.03   3
   0   5  -6  135.01    6.20   3
   0   5  -6  140.04    6.40   3
   0  -5   6  141.18    6.28   3
  -1   5  -6  235.30    9.37   3
   1  -5   6  222.74    9.03   3
   1  -5   6  218.24    8.56   2
  -2   5  -6   42.06    3.88   3
   2  -5   6   30.18    2.85   2
   2  -5   6   31.62    3.19   3
   3  -5   6    1.51    1.07   3
  -4   5  -6   61.38    4.37   3
   4  -5   6   55.60    4.25   3
  -5   5  -6   75.42    5.31   3
   5  -5   6   77.54    5.37   3
  -6   5  -6   25.78    3.75   3
   6  -5   6   33.88    4.15   3
   8   4  -6  274.92   12.63   3
   7   4  -6  239.73   11.24   3
  -7  -4   6  264.91   11.43   3
   6   4  -6   38.09    3.91   3
  -6  -4   6   41.81    4.09   3
   5   4  -6  141.70    6.79   3
  -5  -4   6  123.19    6.45   3
   4   4  -6  105.22    4.86   4
   4   4  -6  108.38    5.28   3
   4   4  -6  106.83    5.48   3
  -4  -4   6  106.44    5.44   3
   3   4  -6  293.83   11.01   3
   3   4  -6  298.27   10.80   3
   3   4  -6  294.38   10.36   4
  -3  -4   6  296.73   11.00   3
   2   4  -6   87.51    4.44   3
   2   4  -6   92.91    4.44   4
   2   4  -6   85.64    4.36   3
  -2  -4   6   92.15    4.48   3
   1   4  -6  373.03   13.05   3
   1   4  -6  388.26   13.22   3
  -1  -4   6  376.31   13.05   3
   0   4  -6  131.24    5.94   3
   0  -4   6  140.78    5.96   3
  -1   4  -6  176.39    7.34   3
   1  -4   6  165.38    7.03   3
   1  -4   6  168.99    6.65   2
  -2   4  -6   44.40    3.33   3
   2  -4   6   40.58    2.62   2
   2  -4   6   42.35    3.16   3
  -3   4  -6   14.00    2.30   3
  -3   4  -6    9.24    1.88   3
   3  -4   6   13.72    2.17   3
  -4   4  -6  246.02   10.46   3
   4  -4   6  242.77   10.43   3
  -5   4  -6   49.47    4.16   3
   5  -4   6   53.44    4.31   3
  -6   4  -6    1.08    1.37   3
   6  -4   6    1.30    1.49   3
   8   3  -6    0.58    1.39   3
   7   3  -6  141.50    7.36   3
  -7  -3   6  132.40    7.14   3
   6   3  -6   21.17    2.74   3
  -6  -3   6   20.51    2.66   3
   5   3  -6   22.85    2.62   3
   5   3  -6   21.60    2.42   3
  -5  -3   6   25.09    2.68   3
   4   3  -6    6.18    1.26   3
   4   3  -6    5.38    1.27   3
   4   3  -6    4.08    1.09   4
  -4  -3   6    4.99    1.17   3
   3   3  -6  368.32   12.82   3
   3   3  -6  371.85   12.56   4
   3   3  -6  374.14   12.62   3
  -3  -3   6  378.33   12.85   3
   2   3  -6  205.20    7.49   3
   2   3  -6  197.75    7.44   3
   2   3  -6  192.41    7.57   4
  -2  -3   6  203.37    7.49   3
   1   3  -6   22.61    1.86   3
   1   3  -6   22.61    2.34   4
   1   3  -6   21.52    1.76   3
  -1  -3   6   23.37    1.86   3
   0   3  -6  114.11    5.05   3
   0  -3   6  113.54    4.93   3
  -1   3  -6   38.88    2.74   3
   1  -3   6   33.87    2.50   3
   1  -3   6   32.20    2.18   2
  -2   3  -6  180.11    7.74   3
  -2   3  -6  191.02    7.99   3
   2  -3   6  191.17    6.73   2
   2  -3   6  196.42    7.83   3
  -3   3  -6   24.58    3.03   3
  -3   3  -6   20.63    2.61   3
   3  -3   6   23.84    2.80   3
  -4   3  -6   76.36    4.88   3
   4  -3   6   75.90    4.82   3
  -5   3  -6  282.51   12.25   3
   5  -3   6  296.19   12.32   3
  -6   3  -6   12.42    2.67   3
   6  -3   6   15.82    2.96   3
   9   2  -6   72.73    5.60   3
   8   2  -6   77.31    5.39   3
   7   2  -6    1.30    1.13   3
  -7  -2   6    2.08    1.30   3
   6   2  -6    5.76    1.44   3
  -6  -2   6    7.81    1.64   3
   5   2  -6   57.24    3.57   3
   5   2  -6   68.66    3.65   3
  -5  -2   6   63.41    3.68   3
   4   2  -6   28.70    2.16   3
   4   2  -6   27.53    2.26   4
   4   2  -6   26.59    1.99   3
  -4  -2   6   28.31    2.10   3
   3   2  -6  727.77   22.61   4
   3   2  -6  744.54   22.77   3
  -3  -2   6  716.38   22.73   3
   2   2  -6  747.99   22.58   3
   2   2  -6  679.49   22.48   3
   2   2  -6  746.79   22.77   4
  -2  -2   6  744.39   22.60   3
  -2  -2   6  751.06   22.63   3
   1   2  -6  557.47   17.82   4
  -1  -2   6  543.69   17.49   3
  -1  -2   6  573.95   17.63   3
   0   2  -6   66.26    3.27   3
   0  -2   6   60.39    3.10   3
  -1   2  -6    2.57    0.84   3
  -1   2  -6    1.49    0.77   3
   1  -2   6    1.92    0.60   2
   1  -2   6    1.56    0.74   3
  -2   2  -6  187.43    7.96   3
  -2   2  -6  200.47    7.97   3
   2  -2   6  201.54    7.98   3
  -3   2  -6  171.35    7.63   3
  -3   2  -6  183.68    7.99   3
   3  -2   6  166.47    7.57   3
   3  -2   6  177.30    6.07   1
  -4   2  -6   12.94    2.27   3
   4  -2   6    8.49    2.02   3
  -5   2  -6    7.44    2.02   3
   5  -2   6    9.64    2.17   3
  -6   2  -6    4.35    1.83   3
   6  -2   6    6.63    2.14   3
   9   1  -6    1.76    1.53   3
  -9  -1   6    1.11    1.54   1
   8   1  -6   -0.23    1.05   3
   7   1  -6   42.02    3.35   3
  -7  -1   6   43.37    3.39   3
   6   1  -6  381.73   13.89   3
   6   1  -6  389.69   13.66   3
  -6  -1   6  410.09   13.99   3
   5   1  -6  440.98   14.08   3
   5   1  -6  373.64   13.56   3
  -5  -1   6  426.61   13.97   3
   4   1  -6   92.01    4.55   4
   4   1  -6   84.42    3.85   3
   4   1  -6   93.56    3.77   3
  -4  -1   6   85.70    3.84   3
   3   1  -6    2.13    0.55   3
   3   1  -6    1.51    0.49   3
   3   1  -6    3.27    0.98   4
  -3  -1   6    1.89    0.57   3
  -3  -1   6    1.67    0.49   3
   2   1  -6   30.39    2.31   4
   2   1  -6   31.19    1.56   3
  -2  -1   6   32.28    1.63   3
  -2  -1   6   30.29    1.56   3
   1   1  -6   28.40    1.65   3
   1   1  -6   29.18    2.26   4
  -1  -1   6   25.58    1.57   3
  -1  -1   6   29.60    1.73   3
   0   1  -6  170.57    6.90   4
   0   1  -6  184.82    6.38   3
   0  -1   6  165.45    6.27   3
  -1   1  -6   11.00    1.57   3
  -1   1  -6    7.57    1.26   3
   1  -1   6    9.05    0.79   2
   1  -1   6    8.92    1.34   3
  -2   1  -6    1.63    0.83   3
  -2   1  -6    0.58    0.80   3
   2  -1   6    1.59    0.61   1
   2  -1   6    1.55    0.85   3
  -3   1  -6    5.11    1.44   3
  -3   1  -6    2.52    1.27   3
   3  -1   6    2.75    0.52   1
   3  -1   6    1.82    0.98   3
  -4   1  -6    4.22    1.59   3
   4  -1   6    3.82    1.44   3
  -5   1  -6    4.86    1.79   3
   5  -1   6    4.65    1.72   3
  -6   1  -6    1.60    1.63   3
   6  -1   6    2.82    1.67   3
   9   0  -6   89.56    5.88   3
  -9   0   6  101.21    6.10   1
   8   0  -6   32.20    3.44   3
  -8   0   6   25.49    3.31   1
   7   0  -6   14.77    2.12   3
  -7   0   6   15.20    2.17   3
   6   0  -6    0.51    0.75   3
   6   0  -6    0.51    0.74   3
  -6   0   6    2.02    0.94   3
   5   0  -6  320.33   10.41   3
   5   0  -6  309.22   10.56   3
  -5   0   6  297.17   10.50   3
   4   0  -6  321.01   10.28   3
   4   0  -6  317.28   10.12   3
   4   0  -6  308.96   11.28   4
  -4   0   6  324.97   10.32   3
   3   0  -6  299.51   10.75   4
  -3   0   6  301.80    9.35   3
  -3   0   6  312.43    9.27   3
   2   0  -6    3.79    0.98   4
   1   0  -6  240.44    9.33   4
   1   0  -6  273.42    8.34   3
   1   0  -6  267.62    8.40   3
  -1   0   6  253.53    8.30   3
  -1   0   6  267.59    8.44   3
   0   0  -6   63.91    3.54   4
   0   0  -6   64.52    2.93   3
   0   0   6   58.25    2.85   3
  -1   0  -6  295.38   10.31   4
  -1   0  -6  290.66   10.16   3
  -1   0  -6  282.38   10.13   3
   1   0   6  278.00   10.03   3
  -2   0  -6    8.92    1.58   4
  -2   0  -6    9.51    1.69   3
  -2   0  -6   11.88    1.77   3
   2   0   6   10.39    1.64   3
  -3   0  -6   12.58    2.08   3
   3   0   6   15.25    2.30   3
  -4   0  -6   62.75    4.58   3
   4   0   6   75.98    4.83   3
  -5   0  -6  107.58    6.78   3
   5   0   6  116.60    6.89   3
  -6   0  -6    0.68    1.61   3
   6   0   6    0.69    1.69   3
   9  -1  -6   -0.60    1.09   3
  -9   1   6   -0.54    1.16   1
   8  -1  -6  294.21   11.67   3
  -8   1   6  298.52   11.90   1
   7  -1  -6   77.84    4.29   3
  -7   1   6   73.53    4.20   3
  -7   1   6   82.66    4.94   1
   6  -1  -6  516.72   17.24   3
  -6   1   6  542.29   17.33   3
   5  -1  -6   33.11    2.02   3
  -5   1   6   38.44    2.13   3
   4  -1  -6   35.28    1.55   3
  -4   1   6   34.56    1.65   3
  -4   1   6   37.30    1.66   3
   3  -1  -6 1103.91   33.38   4
   2  -1  -6  153.33    6.39   4
   1  -1  -6   97.85    4.78   4
   1  -1  -6  100.46    3.67   3
   1  -1  -6  107.78    3.73   3
  -1   1   6  102.51    3.73   3
   0  -1  -6   43.87    2.86   4
   0  -1  -6   44.29    2.41   3
   0   1   6   42.04    2.35   3
  -1  -1  -6  106.48    4.79   3
  -1  -1  -6  106.26    4.70   3
  -1  -1  -6   96.94    4.77   4
   1   1   6   98.83    3.26   1
   1   1   6  106.04    4.72   3
  -2  -1  -6   26.06    2.73   3
  -2  -1  -6   27.76    2.81   3
  -2  -1  -6   28.83    2.76   4
   2   1   6   28.24    2.79   3
  -3  -1  -6  198.54    8.85   3
  -3  -1  -6  198.39    7.95   4
   3   1   6  203.41    8.72   3
  -4  -1  -6   11.20    2.32   3
  -4  -1  -6    5.90    1.47   4
   4   1   6    6.82    1.96   3
  -5  -1  -6  125.37    5.90   4
  -5  -1  -6  117.10    7.21   3
   5   1   6  130.04    7.46   3
   9  -2  -6   93.72    5.59   3
  -9   2   6   81.51    5.68   1
   8  -2  -6    4.48    1.44   3
  -8   2   6    2.62    1.39   1
   7  -2  -6   13.82    1.89   3
  -7   2   6   19.12    2.21   3
  -7   2   6   10.20    2.01   1
   6  -2  -6   25.61    2.00   3
  -6   2   6   26.44    2.04   3
  -6   2   6   30.54    3.23   1
   5  -2  -6    2.00    0.59   3
   5  -2  -6    1.67    0.59   3
  -5   2   6    5.12    0.87   3
  -5   2   6    0.08    0.75   1
  -4   2   6   76.08    4.06   1
  -4   2   6   71.53    2.61   3
  -4   2   6   77.74    2.68   3
   3  -2  -6   24.38    2.58   4
  -3   2   6   22.16    2.20   1
   2  -2  -6  443.54   14.67   4
  -2   2   6  431.56   13.77   1
   1  -2  -6    3.44    0.61   3
   1  -2  -6    5.86    1.28   4
   1  -2  -6    2.74    0.59   3
  -1   2   6    3.96    0.81   1
  -1   2   6    5.64    0.83   3
  -1   2   6    2.76    0.58   2
   0  -2  -6   91.47    4.54   4
   0  -2  -6   99.28    4.26   3
   0   2   6   94.34    4.17   3
   0   2   6   94.14    3.54   1
  -1  -2  -6  157.75    6.81   3
  -1  -2  -6  161.73    6.69   4
  -1  -2  -6  176.32    6.72   3
   1   2   6  159.57    6.74   3
  -2  -2  -6   63.93    4.02   3
  -2  -2  -6   58.95    3.52   4
   2   2   6   58.83    3.87   3
  -3  -2  -6  239.95    9.15   4
  -3  -2  -6  255.54   10.56   3
   3   2   6  239.92   10.32   3
  -4  -2  -6  144.93    6.30   4
  -4  -2  -6  145.41    7.79   3
   4   2   6  142.19    7.67   3
  -5  -2  -6   92.99    6.47   3
   9  -3  -6    0.74    1.18   3
  -9   3   6    1.91    1.51   1
   8  -3  -6  170.76    7.51   3
  -8   3   6  173.40    8.45   1
   7  -3  -6   13.13    1.75   3
  -7   3   6   13.75    2.45   1
   6  -3  -6    2.56    0.81   3
   6  -3  -6    3.02    0.91   3
  -6   3   6    3.40    1.32   1
  -6   3   6    3.23    0.90   3
   5  -3  -6   46.39    2.25   3
   5  -3  -6   43.52    2.12   3
  -5   3   6   42.08    2.17   3
  -5   3   6   46.45    3.28   1
  -4   3   6  156.04    5.13   3
  -4   3   6  149.30    4.99   3
  -4   3   6  164.28    6.69   1
  -3   3   6  115.26    5.10   1
   2  -3  -6  433.67   13.26   3
   2  -3  -6  436.72   13.18   3
   2  -3  -6  448.50   14.86   4
  -2   3   6  435.99   13.61   2
  -2   3   6  461.82   14.03   1
  -2   3   6  440.34   13.32   3
  -2   3   6  412.96   13.42   3
   1  -3  -6    2.30    0.62   3
   1  -3  -6    0.82    0.56   3
   1  -3  -6    1.97    0.93   4
  -1   3   6    1.51    0.62   3
  -1   3   6    1.71    0.65   1
  -1   3   6    2.11    0.59   2
   0  -3  -6    0.74    0.48   3
   0  -3  -6    0.55    0.61   3
   0  -3  -6   -0.01    0.66   4
   0   3   6    0.89    0.50   1
   0   3   6    0.34    0.63   3
  -1  -3  -6 1093.12   33.35   3
  -1  -3  -6 1012.66   32.72   3
  -1  -3  -6 1057.58   31.79   4
   1   3   6 1049.05   33.11   3
  -2  -3  -6  392.30   14.92   3
  -2  -3  -6  418.20   13.72   4
   2   3   6  410.93   14.93   3
  -3  -3  -6    6.24    1.84   3
  -3  -3  -6    7.09    1.45   4
   3   3   6    8.74    2.10   3
  -4  -3  -6    1.29    1.45   3
   4   3   6   -0.46    1.19   3
  -5  -3  -6   11.10    2.74   3
   9  -4  -6   27.01    3.14   3
  -9   4   6   26.86    3.87   1
   8  -4  -6  109.15    5.42   3
  -8   4   6  101.09    6.31   1
   7  -4  -6   51.13    3.02   3
  -7   4   6   45.29    4.38   1
   6  -4  -6   96.87    4.18   3
   6  -4  -6   99.33    4.40   3
  -6   4   6   98.98    4.31   3
  -6   4   6   93.61    5.42   1
   5  -4  -6    0.35    0.44   3
   5  -4  -6    0.03    0.51   3
  -5   4   6   -1.41    0.57   1
  -5   4   6    0.02    0.47   3
   4  -4  -6  126.49    4.41   3
   4  -4  -6  127.17    4.32   3
  -4   4   6  131.02    5.98   1
   3  -4  -6  412.55   12.79   3
   3  -4  -6  410.13   12.79   3
  -3   4   6  431.11   14.04   1
  -3   4   6  433.12   13.80   2
   2  -4  -6    0.66    0.42   3
   2  -4  -6    1.33    0.58   3
  -2   4   6    0.93    0.67   2
  -2   4   6    0.32    0.54   3
  -2   4   6   -0.91    0.50   1
   1  -4  -6   17.76    1.49   3
   1  -4  -6   15.84    2.11   4
   1  -4  -6   17.81    1.85   3
  -1   4   6   17.13    1.77   1
  -1   4   6   16.27    1.79   3
   0  -4  -6  477.65   15.70   3
   0  -4  -6  469.16   16.16   3
   0  -4  -6  463.58   15.72   4
   0   4   6  493.73   16.19   3
  -1  -4  -6    1.61    1.04   3
  -1  -4  -6   -0.17    0.80   4
   1   4   6    0.13    0.83   3
  -2  -4  -6  149.35    6.16   4
  -2  -4  -6  144.06    7.31   3
   2   4   6  140.83    7.19   3
  -3  -4  -6    1.05    0.90   4
  -3  -4  -6    1.75    1.28   3
   3   4   6    2.79    1.52   3
  -4  -4  -6    2.68    1.74   3
   9  -5  -6  188.75    8.36   3
  -9   5   6  186.63    9.57   1
   8  -5  -6   14.22    2.11   3
  -8   5   6   13.95    2.73   1
   7  -5  -6    2.87    0.97   3
  -7   5   6    2.88    1.44   1
   6  -5  -6   84.07    3.80   3
  -6   5   6   85.67    3.95   3
  -6   5   6   74.55    4.99   1
   5  -5  -6    1.90    0.75   3
   5  -5  -6    2.21    0.67   3
  -5   5   6    1.93    1.12   1
  -5   5   6    3.27    0.85   3
   4  -5  -6    0.63    0.48   3
   4  -5  -6    0.01    0.46   3
  -4   5   6    1.23    0.87   1
   3  -5  -6   80.99    3.32   3
   3  -5  -6   77.33    3.30   3
  -3   5   6   74.30    4.07   2
  -3   5   6   77.79    4.30   1
  -3   5   6   73.91    3.42   3
   2  -5  -6  463.59   14.79   3
   2  -5  -6  466.80   15.08   3
  -2   5   6  472.77   15.13   1
  -2   5   6  464.88   15.13   3
  -2   5   6  442.01   14.74   2
   1  -5  -6   25.28    2.49   3
  -1   5   6   24.07    2.44   3
   0  -5  -6   76.57    4.43   3
   0   5   6   73.28    4.29   3
  -1  -5  -6  303.50   11.85   3
   1   5   6  285.37   11.60   3
  -2  -5  -6   -0.11    1.13   3
  -3  -5  -6    4.92    1.94   3
  -4  -5  -6   25.39    3.92   3
   9  -6  -6   23.39    2.90   3
  -9   6   6   28.92    4.17   1
   8  -6  -6  112.27    5.57   3
  -8   6   6  111.10    6.89   1
   7  -6  -6   77.26    4.04   3
  -7   6   6   77.66    5.34   1
   6  -6  -6  113.07    4.91   3
  -6   6   6  110.03    6.31   1
   5  -6  -6  102.21    4.34   3
  -5   6   6   97.22    5.65   1
   4  -6  -6  112.81    4.64   3
   4  -6  -6  112.67    4.76   3
  -4   6   6  119.12    5.99   1
   3  -6  -6   88.35    4.06   3
   3  -6  -6   79.91    3.87   3
  -3   6   6   83.60    4.08   3
  -3   6   6  101.03    5.08   1
  -3   6   6   87.52    4.66   2
   2  -6  -6 1342.40   41.31   3
   2  -6  -6 1381.05   41.73   3
  -2   6   6 1340.05   41.72   3
  -2   6   6 1380.95   40.28   1
   1  -6  -6    0.71    0.96   3
  -1   6   6   -0.15    0.89   3
   0  -6  -6    0.29    0.93   3
   0   6   6    0.48    1.06   3
  -1  -6  -6  125.84    6.84   3
  -2  -6  -6    3.47    1.68   3
  -3  -6  -6   32.47    4.29   3
   9  -7  -6   31.28    3.31   3
  -9   7   6   30.47    4.47   1
   8  -7  -6   23.06    2.71   3
  -8   7   6   20.30    3.50   1
   7  -7  -6   19.42    2.22   3
  -7   7   6   23.38    3.51   1
   6  -7  -6   21.04    2.20   3
  -6   7   6   20.48    3.14   1
   5  -7  -6    1.04    0.80   3
  -5   7   6    1.01    1.34   1
   4  -7  -6   12.17    1.66   3
  -4   7   6   13.66    2.43   1
   3  -7  -6    4.67    1.16   3
  -3   7   6    5.79    1.66   1
   2  -7  -6  165.32    7.17   3
   1  -7  -6   74.05    4.59   3
   0  -7  -6    3.89    1.53   3
  -1  -7  -6    0.56    1.21   3
  -2  -7  -6   17.32    3.22   3
   8  -8  -6   33.52    3.21   3
  -8   8   6   23.85    3.89   1
   7  -8  -6   39.63    3.00   3
  -7   8   6   37.48    4.65   1
   6  -8  -6   13.56    1.96   3
  -6   8   6   15.17    2.95   1
   5  -8  -6   -0.17    0.72   3
  -5   8   6   -0.46    1.14   1
   4  -8  -6   19.02    2.26   3
  -4   8   6   19.07    2.92   1
   3  -8  -6   13.14    2.04   3
   2  -8  -6   88.00    5.04   3
   1  -8  -6    8.88    2.00   3
   0  -8  -6  122.51    7.00   3
  -1  -8  -6   60.55    5.05   3
   7  -9  -6   27.04    2.93   3
  -7   9   6   28.59    4.24   1
   6  -9  -6   33.83    2.84   3
  -6   9   6   26.91    4.08   1
   5  -9  -6  104.38    5.29   3
   4  -9  -6   81.57    4.68   3
   3  -9  -6   14.50    2.35   3
   2  -9  -6  149.94    7.45   3
   1  -9  -6    0.35    1.29   3
   0  -9  -6   19.39    3.28   3
   6 -10  -6   -0.19    1.07   3
   5 -10  -6   25.85    2.99   3
   4 -10  -6   14.37    2.32   3
   3 -10  -6    0.63    1.16   3
   2 -10  -6    3.54    1.72   3
   1 -10  -6   61.10    4.92   3
   0  12  -7    0.89    1.73   3
   0 -12   7    2.05    1.91   3
  -1  12  -7    1.50    1.83   3
   1 -12   7    2.61    1.97   3
   3  11  -7   -0.48    1.75   3
  -3 -11   7    0.51    1.68   3
   2  11  -7    5.91    2.28   3
  -2 -11   7    7.29    2.61   3
   1  11  -7   11.62    2.84   3
  -1 -11   7   12.90    3.02   3
   0  11  -7   24.61    3.83   3
   0 -11   7   24.95    3.90   2
   0 -11   7   26.88    4.05   3
  -1  11  -7    2.19    1.64   3
   1 -11   7    0.23    1.44   3
   1 -11   7    6.26    2.22   2
   2 -11   7    1.67    1.69   2
   2 -11   7   -0.29    1.30   3
   3 -11   7   10.41    2.70   2
   3 -11   7    7.14    2.46   3
   4  10  -7  101.52    7.32   3
   3  10  -7  233.14   11.74   3
  -3 -10   7  227.00   11.46   3
   2  10  -7   13.41    2.32   4
   2  10  -7   15.81    3.11   3
  -2 -10   7    8.68    2.47   3
   1  10  -7  122.29    7.53   3
  -1 -10   7  113.64    7.23   3
   0  10  -7   25.03    3.71   3
   0 -10   7   25.25    3.69   2
   0 -10   7   22.09    3.48   3
  -1  10  -7   10.42    2.45   3
   1 -10   7    9.37    2.46   2
   1 -10   7   10.47    2.51   3
   2 -10   7   88.19    6.27   3
   2 -10   7   96.44    6.15   2
   3 -10   7    1.36    1.53   3
   3 -10   7   -0.27    1.35   2
   4 -10   7    6.01    2.18   2
   4 -10   7    4.58    2.12   3
   5   9  -7   65.67    6.52   3
   4   9  -7    7.40    2.37   3
  -4  -9   7    9.93    2.67   3
   3   9  -7   77.84    4.38   4
   3   9  -7   74.66    5.73   3
  -3  -9   7   75.47    5.72   3
   2   9  -7  131.10    7.72   3
   2   9  -7  139.31    6.47   4
  -2  -9   7  135.04    7.75   3
   1   9  -7   88.70    5.98   3
  -1  -9   7   89.49    5.90   3
   0   9  -7    7.74    2.21   3
   0  -9   7    5.28    1.85   2
   0  -9   7    3.62    1.72   3
  -1   9  -7   12.22    2.50   3
   1  -9   7   10.52    2.37   3
   1  -9   7    8.38    2.21   2
   2  -9   7   34.80    4.13   3
   2  -9   7   40.01    4.22   2
   3  -9   7   14.98    2.73   2
   3  -9   7   10.81    2.50   3
   4  -9   7    4.49    1.96   3
   5  -9   7   18.97    3.58   3
   6   8  -7    0.86    1.64   3
   5   8  -7  186.42    9.95   3
  -5  -8   7  181.77    9.75   3
   4   8  -7    2.76    1.63   3
  -4  -8   7    0.77    1.48   3
   3   8  -7   14.18    2.75   3
   3   8  -7   14.80    2.14   4
  -3  -8   7   15.29    2.77   3
   2   8  -7  680.80   21.56   4
   2   8  -7  661.92   23.58   3
  -2  -8   7  645.20   23.39   3
   1   8  -7   21.21    3.08   3
  -1  -8   7   24.75    3.21   3
   0   8  -7   11.86    2.38   3
   0  -8   7   17.07    2.72   3
   1  -8   7   61.60    4.54   2
   1  -8   7   66.58    4.76   3
   2  -8   7   34.79    3.89   3
   2  -8   7   37.84    3.94   2
   3  -8   7    1.07    1.35   3
   3  -8   7    3.24    1.62   2
   4  -8   7   84.22    5.90   3
  -5   8  -7    1.68    1.60   3
   5  -8   7    0.68    1.44   3
   6   7  -7  181.99    9.78   3
   5   7  -7   28.18    3.82   3
  -5  -7   7   27.95    3.88   3
   4   7  -7    1.63    1.02   4
   4   7  -7    1.20    1.32   3
  -4  -7   7    1.50    1.32   3
   3   7  -7  195.36    7.82   4
   3   7  -7  184.95    8.91   3
  -3  -7   7  190.06    8.93   3
   2   7  -7  282.08   10.63   4
   2   7  -7  290.74   11.82   3
  -2  -7   7  279.35   11.64   3
   1   7  -7   27.64    3.23   3
  -1  -7   7   24.74    3.14   3
   0   7  -7  167.09    7.92   3
   0  -7   7  167.96    7.90   3
   1  -7   7   67.31    4.67   3
   1  -7   7   78.82    4.73   2
   2  -7   7  183.48    7.93   2
   2  -7   7  163.97    8.12   3
   3  -7   7  189.85    9.09   3
   3  -7   7  188.97    8.24   2
   4  -7   7    0.50    1.33   3
  -5   7  -7   14.82    2.90   3
   5  -7   7   17.38    3.13   3
   7   6  -7    7.54    2.32   3
   6   6  -7   10.59    2.55   3
   5   6  -7   19.55    3.01   3
   5   6  -7   24.02    2.59   4
  -5  -6   7   23.38    3.27   3
   4   6  -7    0.53    0.83   4
   4   6  -7   -0.27    0.97   3
  -4  -6   7    1.34    1.20   3
   3   6  -7   -0.34    0.83   3
   3   6  -7    1.17    0.91   4
  -3  -6   7   -0.22    0.83   3
   2   6  -7   64.22    4.24   3
   2   6  -7   65.18    3.91   4
   2   6  -7   70.19    4.38   3
  -2  -6   7   59.81    4.11   3
   1   6  -7   82.38    4.93   3
   1   6  -7   90.78    5.21   3
  -1  -6   7   96.55    5.16   3
   0   6  -7  179.23    8.16   3
   0   6  -7  168.96    7.70   3
   0  -6   7  176.01    7.82   3
  -1   6  -7  200.23    8.74   3
   1  -6   7  185.00    8.30   3
   1  -6   7  179.32    7.89   2
   2  -6   7  127.94    6.07   2
   2  -6   7  126.06    6.59   3
   3  -6   7  210.84    9.67   3
   3  -6   7  227.33    8.85   2
  -4   6  -7   66.94    4.98   3
   4  -6   7   76.17    5.23   3
  -5   6  -7   11.95    2.58   3
   5  -6   7    8.53    2.34   3
  -6   6  -7    0.70    1.35   3
   6  -6   7    1.64    1.63   3
   8   5  -7   70.73    5.70   3
   7   5  -7   83.38    5.93   3
   6   5  -7   22.18    3.18   3
  -6  -5   7   23.88    3.23   3
   5   5  -7  182.09    8.44   3
   5   5  -7  171.51    7.20   4
  -5  -5   7  171.95    8.21   3
   4   5  -7   41.57    2.99   4
   4   5  -7   45.82    3.58   3
  -4  -5   7   48.73    3.63   3
   3   5  -7   38.06    2.91   4
   3   5  -7   44.87    3.25   3
   3   5  -7   45.94    3.33   3
  -3  -5   7   41.35    3.19   3
   2   5  -7  202.99    8.46   3
   2   5  -7  206.24    8.51   3
   2   5  -7  200.82    8.19   4
  -2  -5   7  216.90    8.54   3
   1   5  -7  155.24    7.09   3
   1   5  -7  159.29    6.99   3
  -1  -5   7  170.64    7.14   3
   0   5  -7   52.72    3.64   3
   0  -5   7   48.38    3.40   3
  -1   5  -7 2933.61   85.65   3
   1  -5   7 2906.95   81.26   2
   1  -5   7 2668.34   85.02   3
  -2   5  -7    1.05    1.29   3
   2  -5   7    1.34    0.94   2
   2  -5   7    0.17    1.07   3
  -3   5  -7    8.04    1.86   3
   3  -5   7    8.91    1.88   3
  -4   5  -7    0.07    1.07   3
   4  -5   7    0.55    1.13   3
  -5   5  -7    3.26    1.54   3
   5  -5   7    3.85    1.79   3
  -6   5  -7    1.20    1.49   3
   6  -5   7    3.14    1.90   3
   8   4  -7  225.14   10.88   3
   7   4  -7   72.94    5.18   3
   6   4  -7    2.96    1.34   3
  -6  -4   7    3.68    1.48   3
   5   4  -7   62.08    3.82   4
   5   4  -7   66.40    4.30   3
  -5  -4   7   64.60    4.21   3
   4   4  -7  165.85    7.50   3
   4   4  -7  181.91    7.40   3
   4   4  -7  177.75    7.27   4
  -4  -4   7  171.70    7.53   3
   3   4  -7    1.10    0.86   4
   3   4  -7    0.19    0.77   3
   3   4  -7    0.19    0.67   3
  -3  -4   7    0.81    0.77   3
   2   4  -7  129.80    5.74   3
   2   4  -7  135.36    5.81   3
   2   4  -7  128.32    5.94   4
  -2  -4   7  127.04    5.70   3
   1   4  -7   54.67    3.26   3
   1   4  -7   55.78    3.58   4
   1   4  -7   58.57    3.50   3
  -1  -4   7   59.21    3.36   3
   0   4  -7  464.28   15.49   3
   0  -4   7  429.74   15.18   3
  -1   4  -7   65.74    4.03   3
   1  -4   7   59.04    3.67   3
   1  -4   7   57.45    3.37   2
  -2   4  -7 1448.62   44.62   3
   2  -4   7 1401.44   44.26   3
   2  -4   7 1416.36   41.43   2
  -3   4  -7   20.86    2.72   3
   3  -4   7   22.20    2.81   3
  -4   4  -7   26.36    3.24   3
   4  -4   7   25.17    3.26   3
  -5   4  -7    8.78    2.20   3
   5  -4   7   13.50    2.73   3
  -6   4  -7    6.67    2.11   3
   6  -4   7   11.54    2.77   3
   8   3  -7    1.09    1.41   3
   7   3  -7   16.37    2.60   3
   6   3  -7    9.98    1.94   3
  -6  -3   7   18.30    2.49   3
   5   3  -7   86.00    4.76   3
   5   3  -7   93.45    4.60   3
   5   3  -7   90.32    4.74   4
  -5  -3   7   89.49    4.79   3
   4   3  -7  166.86    6.69   3
   4   3  -7  161.25    6.90   3
   4   3  -7  173.97    7.12   4
  -4  -3   7  166.75    6.92   3
   3   3  -7  312.53   11.37   4
   3   3  -7  313.05   11.13   3
  -3  -3   7  328.16   11.16   3
   2   3  -7   13.86    1.95   4
   2   3  -7   19.74    1.89   3
  -2  -3   7   15.12    1.69   3
   1   3  -7  452.57   15.41   3
  -1  -3   7  479.48   15.34   3
   0   3  -7  239.24    9.20   3
   0  -3   7  255.50    9.14   3
  -1   3  -7    8.48    1.60   3
   1  -3   7    9.80    1.61   3
   1  -3   7   13.17    1.48   2
  -2   3  -7  271.70   10.62   3
  -2   3  -7  284.33   10.91   3
   2  -3   7  281.09   10.71   3
  -3   3  -7   42.82    3.41   3
   3  -3   7   50.41    3.68   3
  -4   3  -7    4.11    1.62   3
   4  -3   7    6.80    1.78   3
  -5   3  -7   33.07    3.98   3
   5  -3   7   34.27    4.07   3
  -6   3  -7    4.15    1.92   3
   9   2  -7    5.27    1.97   3
   8   2  -7  325.87   13.26   3
   7   2  -7   59.61    4.11   3
   6   2  -7   24.50    2.67   3
  -6  -2   7   25.52    2.73   3
   5   2  -7  325.20   11.82   4
   5   2  -7  335.95   11.68   3
  -5  -2   7  313.91   11.56   3
   4   2  -7  529.13   17.38   4
   4   2  -7  528.89   17.08   3
   4   2  -7  503.31   16.75   3
  -4  -2   7  542.84   17.13   3
   3   2  -7   30.08    2.93   4
   3   2  -7   33.04    1.94   3
   3   2  -7   30.43    1.95   3
  -3  -2   7   31.21    2.01   3
   2   2  -7  444.77   13.97   3
   2   2  -7  446.77   14.83   4
  -2  -2   7  417.27   13.86   3
   1   2  -7    0.04    0.44   3
   1   2  -7    0.20    0.68   4
  -1  -2   7    1.12    0.55   3
   0   2  -7   15.05    1.74   3
   0   2  -7   13.34    1.98   4
   0   2  -7   15.36    1.64   3
   0  -2   7   13.72    1.59   3
  -1   2  -7   76.01    4.00   3
  -1   2  -7   87.15    4.31   3
   1  -2   7   79.73    4.10   3
   1  -2   7   79.28    3.28   2
  -2   2  -7    8.73    1.58   3
  -2   2  -7    8.26    1.78   3
   2  -2   7    8.05    1.59   3
  -3   2  -7   33.87    3.38   3
   3  -2   7   35.90    3.51   3
  -4   2  -7   19.48    2.81   3
   4  -2   7   23.62    3.09   3
  -5   2  -7    3.84    1.72   3
   5  -2   7    2.80    1.72   3
  -6   2  -7   19.71    3.40   3
   9   1  -7   52.42    4.39   3
  -9  -1   7   52.92    5.15   1
   8   1  -7  142.91    7.22   3
   7   1  -7   49.18    3.52   3
   6   1  -7  140.01    6.07   3
  -6  -1   7  134.22    6.00   3
   5   1  -7   52.18    2.77   3
   5   1  -7   49.76    2.89   3
  -5  -1   7   53.99    3.00   3
   4   1  -7    0.41    0.50   3
   4   1  -7    4.97    0.82   3
   4   1  -7    0.88    0.83   4
  -4  -1   7    2.02    0.66   3
   3   1  -7    3.87    0.61   3
   3   1  -7    4.46    1.24   4
   3   1  -7    4.62    0.65   3
  -3  -1   7    5.58    0.77   3
  -3  -1   7    4.97    0.72   3
   2   1  -7   24.98    2.63   4
   2   1  -7   22.49    1.31   3
  -2  -1   7   23.50    1.35   3
  -2  -1   7   22.08    1.43   3
   1   1  -7   82.66    4.43   4
   1   1  -7   82.30    3.35   3
   1   1  -7   86.78    3.55   3
  -1  -1   7   80.45    3.38   3
   0   1  -7   87.27    4.61   4
   0   1  -7   87.58    3.82   3
   0  -1   7   81.97    3.78   3
  -1   1  -7    4.80    1.20   3
  -1   1  -7    5.11    1.32   4
  -1   1  -7    3.07    0.94   3
   1  -1   7    3.35    0.99   3
  -2   1  -7    4.33    1.27   3
  -2   1  -7   10.67    1.91   3
   2  -1   7    7.39    0.99   1
   2  -1   7    7.85    1.60   3
  -3   1  -7    1.50    1.08   3
   3  -1   7    2.53    1.24   3
  -4   1  -7   69.91    4.81   3
   4  -1   7   69.03    4.82   3
  -5   1  -7    8.15    2.20   3
   5  -1   7    5.55    2.08   3
   9   0  -7   61.07    4.57   3
  -9   0   7   61.86    4.81   1
   8   0  -7   21.46    2.74   3
   7   0  -7   21.69    2.43   3
   6   0  -7  797.98   23.70   3
   6   0  -7  706.86   23.68   3
  -6   0   7  749.99   23.79   3
   5   0  -7  144.23    5.52   3
   5   0  -7  148.50    5.39   3
  -5   0   7  149.74    5.62   3
   4   0  -7  261.90    9.95   4
  -4   0   7  253.42    8.22   3
   3   0  -7    3.89    1.17   4
   2   0  -7  204.69    8.22   4
   1   0  -7  202.66    6.82   3
   1   0  -7  207.04    6.75   3
   1   0  -7  192.34    8.04   4
  -1   0   7  202.39    6.78   3
   0   0  -7  162.83    6.99   4
   0   0  -7  169.93    6.23   3
   0   0   7  161.12    6.13   3
  -1   0  -7    1.02    0.80   4
  -1   0  -7    0.05    0.66   3
  -1   0  -7    0.34    0.61   3
   1   0   7   -0.02    0.64   3
  -2   0  -7  370.36   13.32   4
  -2   0  -7  379.18   13.61   3
   2   0   7  381.19   13.51   3
  -3   0  -7   76.92    4.91   3
  -3   0  -7   82.31    4.70   4
   3   0   7   86.55    5.02   3
  -4   0  -7   13.72    2.54   3
  -4   0  -7   13.00    2.25   4
   4   0   7   11.55    2.49   3
  -5   0  -7   18.84    2.67   4
  -5   0  -7   15.26    3.00   3
   9  -1  -7  100.77    5.73   3
  -9   1   7   81.68    5.77   1
   8  -1  -7    1.23    1.02   3
  -8   1   7    0.63    1.15   1
   7  -1  -7    1.48    0.86   3
  -7   1   7    0.65    1.02   1
   6  -1  -7  522.52   16.64   3
  -6   1   7  511.04   16.63   3
   5  -1  -7   25.85    1.51   3
  -5   1   7   28.10    1.66   3
   4  -1  -7    1.00    0.85   4
   3  -1  -7    3.95    1.20   4
   2  -1  -7 1600.32   47.51   4
   1  -1  -7   71.35    2.90   3
   1  -1  -7   62.68    3.91   4
   1  -1  -7   74.76    2.93   3
  -1   1   7   70.03    2.94   3
   0  -1  -7   17.60    1.73   3
   0  -1  -7   16.52    1.67   3
   0  -1  -7   13.23    1.98   4
   0   1   7   14.78    1.60   3
  -1  -1  -7   22.59    2.57   4
  -1  -1  -7   20.90    2.28   3
  -1  -1  -7   22.62    2.32   3
   1   1   7   24.99    2.42   3
  -2  -1  -7   89.94    4.99   3
  -2  -1  -7   94.41    4.92   4
   2   1   7   90.02    4.88   3
  -3  -1  -7    8.35    1.90   3
  -3  -1  -7    8.81    1.79   4
   3   1   7    6.98    1.79   3
  -4  -1  -7   22.55    2.74   4
  -4  -1  -7   24.14    3.32   3
  -5  -1  -7    4.83    2.02   3
   9  -2  -7   17.87    2.59   3
  -9   2   7   15.51    3.00   1
   8  -2  -7    1.43    1.05   3
  -8   2   7   -0.03    1.14   1
   7  -2  -7   78.42    3.94   3
  -7   2   7   80.67    5.02   1
   6  -2  -7   79.11    3.49   3
   6  -2  -7   77.80    3.45   3
  -6   2   7   74.36    4.65   1
  -6   2   7   81.05    3.57   3
  -5   2   7  219.19    8.88   1
  -5   2   7  222.43    7.13   3
  -4   2   7   64.50    3.83   1
   3  -2  -7  532.35   17.66   4
  -3   2   7  514.46   16.68   1
   2  -2  -7   12.19    1.93   4
  -2   2   7   12.31    1.61   1
   1  -2  -7  568.17   18.73   4
   1  -2  -7  592.81   17.57   3
   1  -2  -7  576.24   17.66   3
  -1   2   7  554.57   17.22   1
  -1   2   7  571.30   17.73   3
  -1   2   7  556.61   16.62   2
   0  -2  -7  356.06   11.88   3
   0  -2  -7  342.66   12.30   4
   0   2   7  343.63   10.59   1
   0   2   7  337.78   11.77   3
  -1  -2  -7  192.65    7.96   3
  -1  -2  -7  197.79    7.98   4
   1   2   7  193.71    7.91   3
  -2  -2  -7    9.45    1.96   3
  -2  -2  -7   17.64    2.30   4
   2   2   7   13.47    2.21   3
  -3  -2  -7   32.06    3.16   4
  -3  -2  -7   30.73    3.59   3
   3   2   7   30.29    3.50   3
  -4  -2  -7   47.33    3.43   4
  -4  -2  -7   39.35    4.47   3
   9  -3  -7   21.03    2.70   3
  -9   3   7   16.12    3.11   1
   8  -3  -7   13.33    1.90   3
  -8   3   7   13.94    2.63   1
   7  -3  -7   84.48    4.00   3
  -7   3   7   85.49    5.29   1
   6  -3  -7  310.54   10.15   3
   6  -3  -7  302.02   10.03   3
  -6   3   7  313.35   10.21   3
  -6   3   7  307.24   11.87   1
  -5   3   7   30.35    1.43   3
  -5   3   7   28.68    3.07   1
  -4   3   7   41.59    3.03   1
  -3   3   7  426.37   14.12   1
   2  -3  -7  970.97   29.85   4
  -2   3   7  953.37   28.40   1
  -2   3   7  953.54   28.50   3
  -2   3   7  951.22   28.02   2
   1  -3  -7  106.75    5.23   4
   1  -3  -7  100.32    4.22   3
   1  -3  -7   94.19    3.92   3
  -1   3   7   94.27    4.13   1
  -1   3   7  103.60    4.28   3
   0  -3  -7    1.32    0.89   3
   0  -3  -7    0.04    0.39   3
   0  -3  -7    0.87    0.92   4
   0   3   7    2.14    0.92   3
   0   3   7    1.74    0.63   1
  -1  -3  -7    2.03    1.11   3
  -1  -3  -7    3.82    1.20   4
   1   3   7    4.32    1.31   3
  -2  -3  -7   62.28    3.82   4
  -2  -3  -7   63.33    4.32   3
   2   3   7   54.41    4.10   3
  -3  -3  -7    4.21    1.70   3
  -3  -3  -7    3.68    1.28   4
  -4  -3  -7   18.12    3.21   3
   9  -4  -7    1.48    1.16   3
  -9   4   7    1.32    1.48   1
   8  -4  -7   61.31    3.58   3
  -8   4   7   54.09    5.23   1
   7  -4  -7   23.26    1.88   3
  -7   4   7   22.63    3.22   1
   6  -4  -7   33.70    1.89   3
   6  -4  -7   37.28    2.11   3
  -6   4   7   36.29    3.75   1
  -5   4   7   42.42    1.86   3
  -5   4   7   38.04    3.64   1
  -4   4   7  154.07    6.88   1
  -3   4   7  157.20    6.35   2
  -3   4   7  158.64    6.72   1
   2  -4  -7  309.57    9.98   3
   2  -4  -7  310.64    9.78   3
  -2   4   7  308.36   10.18   3
  -2   4   7  302.49   10.57   1
  -2   4   7  307.48   10.24   2
   1  -4  -7  397.67   14.17   4
   1  -4  -7  399.01   13.52   3
   1  -4  -7  404.31   13.13   3
  -1   4   7  411.98   13.60   3
  -1   4   7  402.66   12.89   1
   0  -4  -7   25.18    2.64   3
   0  -4  -7   27.60    2.93   4
   0   4   7   25.87    2.63   3
  -1  -4  -7  275.10   10.44   4
  -1  -4  -7  283.04   11.15   3
  -2  -4  -7   20.67    2.46   4
  -2  -4  -7   17.86    2.77   3
  -3  -4  -7   17.42    3.03   3
   9  -5  -7    4.19    1.34   3
  -9   5   7    5.70    2.24   1
   8  -5  -7    6.26    1.44   3
  -8   5   7   -0.67    1.08   1
   7  -5  -7   65.67    3.29   3
  -7   5   7   69.55    4.98   1
   6  -5  -7   45.03    2.24   3
  -6   5   7   42.82    4.21   1
   5  -5  -7  147.58    4.92   3
   5  -5  -7  140.85    4.79   3
  -5   5   7  138.94    6.93   1
  -4   5   7  165.97    7.38   1
   3  -5  -7  193.89    6.59   3
   3  -5  -7  192.41    6.46   3
  -3   5   7  196.80    6.87   3
  -3   5   7  202.23    8.06   1
  -3   5   7  204.59    7.78   2
   2  -5  -7  297.82   10.45   3
   2  -5  -7  322.25   10.24   3
  -2   5   7  307.98   10.89   1
  -2   5   7  300.90   10.41   2
  -2   5   7  311.11   10.64   3
   1  -5  -7  166.95    7.02   3
  -1   5   7  174.69    7.11   3
   0  -5  -7   12.96    2.12   3
  -1  -5  -7  106.97    6.05   3
  -2  -5  -7  358.65   14.47   3
  -3  -5  -7   16.17    3.07   3
   9  -6  -7   16.85    2.34   3
  -9   6   7   14.11    3.02   1
   8  -6  -7   51.56    3.23   3
  -8   6   7   53.35    5.37   1
   7  -6  -7  110.07    4.70   3
  -7   6   7   97.96    6.28   1
   6  -6  -7   17.90    1.48   3
  -6   6   7   15.28    2.69   1
   5  -6  -7  201.86    6.88   3
  -5   6   7  198.00    8.94   1
   4  -6  -7   10.31    1.15   3
   4  -6  -7    8.86    1.10   3
  -4   6   7    9.31    1.99   1
   3  -6  -7    0.77    0.62   3
  -3   6   7    1.72    1.16   1
  -3   6   7    0.87    0.96   2
   2  -6  -7    1.01    0.81   3
  -2   6   7    1.07    1.06   1
   1  -6  -7  116.53    5.72   3
   0  -6  -7  294.82   11.76   3
  -1  -6  -7    3.05    1.53   3
  -2  -6  -7   57.88    4.89   3
   8  -7  -7   78.25    4.20   3
  -8   7   7   75.22    5.85   1
   7  -7  -7    4.17    1.10   3
  -7   7   7    5.44    1.95   1
   6  -7  -7    6.39    1.17   3
  -6   7   7    4.79    1.74   1
   5  -7  -7   15.16    1.58   3
  -5   7   7    9.00    2.22   1
   4  -7  -7    0.67    0.66   3
  -4   7   7    1.00    1.30   1
   3  -7  -7   34.22    2.47   3
  -3   7   7   31.02    3.46   1
   2  -7  -7   11.07    1.84   3
   1  -7  -7   12.58    2.20   3
   0  -7  -7   62.73    4.62   3
  -1  -7  -7   51.47    5.07   3
   8  -8  -7    6.87    1.53   3
  -8   8   7    4.88    2.17   1
   7  -8  -7   27.05    2.54   3
  -7   8   7   31.60    4.33   1
   6  -8  -7   26.90    2.15   3
  -6   8   7   24.14    3.57   1
   5  -8  -7   56.35    3.25   3
  -5   8   7   57.15    5.35   1
   4  -8  -7    1.94    0.99   3
  -4   8   7    1.14    1.37   1
   3  -8  -7  100.78    5.05   3
   2  -8  -7  249.42   10.11   3
   1  -8  -7   66.22    4.56   3
   0  -8  -7   19.42    3.14   3
   7  -9  -7    3.95    1.34   3
  -7   9   7    0.18    1.64   1
   6  -9  -7  231.60    9.02   3
  -6   9   7  240.49   11.44   1
   5  -9  -7   14.69    2.02   3
   4  -9  -7   15.05    2.16   3
   3  -9  -7   -0.94    0.94   3
   2  -9  -7    3.52    1.53   3
   1  -9  -7    4.70    1.78   3
   5 -10  -7  236.01    9.43   3
   4 -10  -7   77.23    4.70   3
   3 -10  -7   17.73    2.66   3
   2  11  -8    1.57    1.84   3
   1  11  -8   90.26    6.87   3
  -1 -11   8  111.35    7.33   3
   0  11  -8    1.69    1.82   3
   0 -11   8    3.20    1.95   2
   0 -11   8    1.98    1.85   3
   1 -11   8   16.70    3.25   2
   1 -11   8   15.53    3.33   3
   2 -11   8    5.32    2.38   3
   2 -11   8    7.65    2.42   2
   4  10  -8   27.08    4.31   3
   3  10  -8    4.93    2.26   3
   2  10  -8   46.00    5.26   3
   2  10  -8   47.58    3.83   4
  -2 -10   8   41.83    4.90   3
   1  10  -8    3.53    1.86   3
  -1 -10   8    0.68    1.57   3
   0  10  -8    3.75    1.82   3
   0 -10   8    7.19    2.29   2
   0 -10   8    4.47    1.86   3
   1 -10   8   89.02    6.25   3
   1 -10   8   97.97    6.37   2
   2 -10   8   26.46    3.84   2
   2 -10   8   23.59    3.67   3
   3 -10   8    6.39    2.23   2
   3 -10   8    7.03    2.43   3
   5   9  -8   59.41    6.13   3
   4   9  -8   -0.23    1.41   3
   3   9  -8    1.74    1.51   3
   3   9  -8    0.31    1.05   4
  -3  -9   8    0.02    1.27   3
   2   9  -8    1.04    1.25   4
   2   9  -8    1.90    1.55   3
  -2  -9   8    2.28    1.58   3
   1   9  -8    6.79    2.00   3
  -1  -9   8    5.28    1.98   3
   0   9  -8    4.96    1.83   3
   0  -9   8    3.90    1.78   3
   0  -9   8    3.93    1.80   2
   1  -9   8    0.73    1.50   3
   1  -9   8    3.45    1.82   2
   2  -9   8   87.55    6.10   3
   2  -9   8  101.89    6.16   2
   3  -9   8    2.51    1.57   2
   3  -9   8    2.98    1.81   3
   4  -9   8    2.52    1.82   3
   6   8  -8    7.41    2.43   3
   5   8  -8   11.95    2.78   3
   4   8  -8  118.70    7.13   3
   4   8  -8  112.61    5.73   4
   3   8  -8    6.91    1.75   4
   3   8  -8    5.74    1.97   3
  -3  -8   8    5.23    1.98   3
   2   8  -8   35.28    4.04   3
   2   8  -8   36.27    3.60   4
  -2  -8   8   34.76    4.02   3
   1   8  -8  160.98    8.34   3
  -1  -8   8  176.81    8.47   3
   0   8  -8   13.08    2.41   3
   0  -8   8   14.87    2.60   3
   1  -8   8   41.94    4.36   3
   1  -8   8   48.04    4.60   2
   2  -8   8  188.51    8.74   2
   2  -8   8  192.54    9.27   3
   3  -8   8    3.83    1.74   3
   3  -8   8    3.14    1.54   2
   4  -8   8    5.32    2.11   3
   6   7  -8    7.32    2.22   3
   5   7  -8   79.53    5.71   3
   4   7  -8    8.04    2.09   3
   4   7  -8   11.92    2.09   4
  -4  -7   8   12.68    2.45   3
   3   7  -8   23.93    2.87   4
   3   7  -8   27.83    3.49   3
  -3  -7   8   30.96    3.63   3
   2   7  -8  248.10    9.70   4
   2   7  -8  227.79   10.19   3
  -2  -7   8  231.77   10.20   3
   1   7  -8    1.23    1.14   3
  -1  -7   8    0.57    1.05   3
   0  -7   8    5.98    1.77   3
   1  -7   8    2.20    1.39   3
   1  -7   8    2.51    1.39   2
   2  -7   8    9.97    2.03   2
   2  -7   8    9.32    2.16   3
   3  -7   8   25.68    3.51   3
   3  -7   8   28.51    3.23   2
  -4   7  -8   -0.40    1.11   3
   4  -7   8    1.10    1.33   3
  -5   7  -8    1.58    1.66   3
   5  -7   8    2.08    1.82   3
   7   6  -8   22.24    3.60   3
   6   6  -8   75.66    5.47   3
   5   6  -8    2.02    1.33   3
   5   6  -8    2.44    1.16   4
   4   6  -8   10.10    1.89   4
   4   6  -8    8.11    1.99   3
  -4  -6   8   12.27    2.25   3
   3   6  -8   31.82    3.23   4
   3   6  -8   28.33    3.24   3
  -3  -6   8   36.06    3.64   3
   2   6  -8  284.97   11.13   4
   2   6  -8  288.71   11.55   3
  -2  -6   8  303.05   11.60   3
   1   6  -8  289.72   11.12   3
  -1  -6   8  265.81   10.92   3
   0  -6   8  108.12    5.76   3
   1  -6   8    3.71    1.41   2
   1  -6   8    4.36    1.50   3
   2  -6   8   42.09    4.16   3
   2  -6   8   52.95    3.53   2
   3  -6   8    2.89    1.58   3
  -4   6  -8    2.74    1.50   3
   4  -6   8    3.57    1.59   3
  -5   6  -8    8.64    2.38   3
   5  -6   8    8.40    2.40   3
   7   5  -8  159.63    8.49   3
   6   5  -8  282.67   12.01   3
   5   5  -8   15.11    2.26   4
   5   5  -8   11.77    2.18   3
  -5  -5   8   14.50    2.51   3
   4   5  -8  139.88    6.75   3
   4   5  -8  136.39    6.40   4
  -4  -5   8  132.79    6.59   3
   3   5  -8  272.99   10.52   3
   3   5  -8  244.71   10.11   4
  -3  -5   8  277.97   10.52   3
   2   5  -8  943.22   30.47   4
   2   5  -8  988.33   31.26   3
   2   5  -8  987.55   31.25   3
  -2  -5   8  996.26   31.25   3
   1   5  -8    6.41    1.59   3
   1   5  -8    5.74    1.38   3
   1   5  -8    5.00    1.44   4
  -1  -5   8    6.92    1.54   3
   0   5  -8  117.69    5.97   3
   0  -5   8  117.85    5.81   3
   1  -5   8   72.00    4.53   3
   1  -5   8   79.21    4.35   2
   2  -5   8  426.81   14.41   2
   2  -5   8  433.08   15.80   3
  -3   5  -8   13.03    2.38   3
   3  -5   8   12.33    2.38   3
  -4   5  -8   20.95    3.06   3
   4  -5   8   21.37    3.15   3
  -5   5  -8   58.37    4.83   3
   8   4  -8  100.89    6.52   3
   7   4  -8   45.52    4.48   3
   6   4  -8   58.30    4.19   3
   5   4  -8    3.79    1.29   4
   5   4  -8    5.65    1.50   3
  -5  -4   8    6.08    1.57   3
   4   4  -8   20.17    2.43   3
   4   4  -8   24.35    2.77   4
  -4  -4   8   22.61    2.57   3
   3   4  -8   22.42    2.33   3
   3   4  -8   16.99    2.37   4
   3   4  -8   17.01    2.13   3
  -3  -4   8   15.77    2.04   3
   2   4  -8   71.88    3.89   3
   2   4  -8   74.35    4.40   4
   2   4  -8   70.78    3.91   3
  -2  -4   8   68.68    3.84   3
   1   4  -8  367.84   13.63   4
   1   4  -8  381.84   13.45   3
  -1  -4   8  391.72   13.32   3
   0   4  -8   21.91    2.52   3
   0  -4   8   20.64    2.35   3
   1  -4   8    5.04    1.46   3
   1  -4   8    8.04    1.46   2
  -2   4  -8  187.35    8.32   3
   2  -4   8  197.54    7.23   2
   2  -4   8  186.39    8.31   3
  -3   4  -8   62.01    4.44   3
   3  -4   8   68.74    4.65   3
  -4   4  -8   22.22    3.17   3
   4  -4   8   20.32    3.04   3
  -5   4  -8    6.46    2.14   3
   8   3  -8    2.64    1.57   3
   7   3  -8   44.69    3.76   3
   6   3  -8   21.72    2.67   3
   5   3  -8  290.26   11.27   4
   5   3  -8  301.62   11.17   3
  -5  -3   8  301.94   11.16   3
   4   3  -8  132.37    5.85   3
   4   3  -8  137.77    6.48   4
  -4  -3   8  140.64    5.93   3
   3   3  -8  133.58    5.50   3
   3   3  -8  139.18    6.40   4
   3   3  -8  131.05    5.50   3
  -3  -3   8  132.49    5.57   3
   2   3  -8   41.09    2.71   3
   2   3  -8   53.85    3.62   4
  -2  -3   8   61.87    3.06   3
   1   3  -8   72.45    4.41   4
  -1  -3   8   70.52    3.57   3
   0   3  -8  151.61    7.03   4
   0   3  -8  158.83    6.61   3
   0  -3   8  143.25    6.24   3
  -1   3  -8  266.41   10.00   3
  -1   3  -8  243.82    9.52   3
   1  -3   8  248.47    8.52   2
   1  -3   8  237.79    9.49   3
  -2   3  -8    3.08    1.19   3
   2  -3   8    1.12    1.04   3
  -3   3  -8  159.60    7.64   3
   3  -3   8  164.72    7.69   3
  -4   3  -8   56.31    4.55   3
   4  -3   8   74.19    5.02   3
  -5   3  -8    1.66    1.62   3
   9   2  -8   35.43    4.11   3
   8   2  -8   60.03    4.35   3
   7   2  -8   88.88    5.04   3
   6   2  -8  105.97    5.28   3
   5   2  -8   63.12    3.29   3
   5   2  -8   64.25    3.54   3
   5   2  -8   65.06    4.18   4
  -5  -2   8   66.36    3.63   3
   4   2  -8   36.07    2.19   3
   4   2  -8   36.38    3.53   4
   4   2  -8   36.98    2.29   3
  -4  -2   8   38.19    2.36   3
   3   2  -8    9.64    1.15   3
   3   2  -8   11.29    1.99   4
   3   2  -8   10.60    1.21   3
  -3  -2   8   13.34    1.43   3
   2   2  -8   14.31    2.21   4
   2   2  -8   10.27    1.25   3
  -2  -2   8    9.67    1.22   3
   1   2  -8  354.16   12.14   3
   1   2  -8  372.54   13.22   4
  -1  -2   8  363.88   12.02   3
   0   2  -8  198.79    7.59   3
   0   2  -8  194.22    8.42   4
   0  -2   8  211.26    7.70   3
  -1   2  -8    0.15    0.80   3
  -1   2  -8    0.01    0.67   3
  -1   2  -8    4.32    1.41   4
   1  -2   8    0.03    0.49   2
   1  -2   8    0.31    0.77   3
  -2   2  -8    1.07    1.02   3
   2  -2   8    1.47    1.01   3
  -3   2  -8   -0.61    0.90   3
   3  -2   8    1.45    1.24   3
  -4   2  -8   21.33    3.10   3
  -5   2  -8   -0.77    1.03   3
   9   1  -8    4.71    1.61   3
   8   1  -8   -0.79    0.84   3
   7   1  -8   65.32    3.97   3
   6   1  -8  257.55    9.48   3
   5   1  -8   46.90    2.59   3
   5   1  -8   46.69    3.55   4
   5   1  -8   45.23    2.39   3
  -5  -1   8   43.30    2.62   3
   4   1  -8    2.57    0.58   3
   4   1  -8    3.73    0.62   3
   4   1  -8    1.11    0.92   4
  -4  -1   8    3.00    0.71   3
   3   1  -8   70.84    4.24   4
  -3  -1   8   66.39    2.65   3
   2   1  -8  188.68    7.97   4
   2   1  -8  181.79    6.03   3
   2   1  -8  189.83    6.16   3
  -2  -1   8  178.50    6.14   3
   1   1  -8   18.03    1.42   3
   1   1  -8   22.26    1.66   3
   1   1  -8   17.95    2.45   4
  -1  -1   8   28.63    1.72   3
   0   1  -8   48.56    3.51   4
   0   1  -8   49.41    2.74   3
   0  -1   8   42.75    2.62   3
  -1   1  -8  109.08    5.26   3
  -1   1  -8  113.69    5.91   4
   1  -1   8  124.74    5.46   3
  -2   1  -8   38.21    3.74   4
  -2   1  -8   47.68    3.42   3
   2  -1   8   44.34    3.28   3
  -3   1  -8    1.28    1.13   4
  -3   1  -8    0.59    1.04   3
   3  -1   8    2.56    1.26   3
  -4   1  -8   57.11    4.53   3
  -4   1  -8   60.83    4.40   4
  -5   1  -8   25.27    3.73   3
  -5   1  -8   24.04    3.27   4
   9   0  -8   28.03    3.32   3
  -9   0   8   25.14    3.60   1
   8   0  -8   53.22    3.68   3
   7   0  -8   12.26    1.75   3
   6   0  -8  122.86    5.06   3
   5   0  -8 1254.56   37.69   4
   5   0  -8 1202.73   36.15   3
  -5   0   8 1208.51   36.46   3
   4   0  -8   60.15    4.02   4
   3   0  -8  199.04    8.44   4
   2   0  -8  621.73   20.54   4
   1   0  -8   19.96    1.45   3
   1   0  -8   17.08    2.38   4
   1   0  -8   16.80    1.29   3
  -1   0   8   17.31    1.34   3
   0   0  -8  171.87    6.42   3
   0   0  -8  156.64    7.29   4
   0   0  -8  163.41    6.43   3
   0   0   8  162.55    6.31   3
  -1   0  -8  112.81    5.28   3
  -1   0  -8  109.45    5.76   4
   1   0   8  111.23    5.16   3
  -2   0  -8    0.20    0.91   3
  -2   0  -8    2.97    1.32   4
   2   0   8    3.31    1.22   3
  -3   0  -8  114.68    6.12   4
  -3   0  -8  116.09    6.39   3
  -4   0  -8   61.61    4.88   3
  -4   0  -8   62.93    4.47   4
   9  -1  -8   37.14    3.61   3
  -9   1   8   33.71    4.15   1
   8  -1  -8  127.59    5.92   3
  -8   1   8  121.94    6.95   1
   7  -1  -8   35.13    2.42   3
   6  -1  -8   64.06    2.87   3
   4  -1  -8    2.75    1.21   4
   3  -1  -8   81.72    4.74   4
   2  -1  -8   50.83    3.63   4
   1  -1  -8    1.86    1.08   4
   1  -1  -8    0.83    0.55   3
   1  -1  -8    0.35    0.47   3
  -1   1   8    0.44    0.56   3
   0  -1  -8    7.27    1.23   3
   0  -1  -8    8.31    1.80   4
   0  -1  -8    8.69    1.34   3
   0   1   8    7.30    1.24   3
   0   1   8    6.23    0.99   1
  -1  -1  -8    2.73    1.06   3
  -1  -1  -8    4.60    1.41   4
   1   1   8    5.17    1.32   3
  -2  -1  -8   -0.42    0.90   4
  -2  -1  -8   -0.41    0.80   3
  -3  -1  -8    2.76    1.31   4
  -3  -1  -8    0.02    1.07   3
  -4  -1  -8   23.68    3.04   4
  -4  -1  -8   35.03    4.16   3
   9  -2  -8   29.69    3.11   3
  -9   2   8   32.97    4.10   1
   8  -2  -8    0.36    0.83   3
  -8   2   8    2.54    1.54   1
   7  -2  -8   61.68    3.13   3
  -7   2   8   71.20    4.75   1
  -6   2   8   12.61    2.27   1
  -5   2   8  354.73   12.93   1
   4  -2  -8  192.98    8.30   4
  -4   2   8  171.74    7.47   1
   3  -2  -8   14.44    2.32   4
  -3   2   8   13.00    1.86   1
   2  -2  -8    1.34    1.05   4
  -2   2   8   -0.72    0.60   1
   1  -2  -8  398.58   14.50   4
   1  -2  -8  413.64   13.05   3
   1  -2  -8  410.66   12.94   3
  -1   2   8  403.92   11.95   2
  -1   2   8  406.41   13.16   3
  -1   2   8  408.88   12.91   1
   0  -2  -8    3.38    1.04   3
   0  -2  -8    3.14    1.23   4
   0   2   8    2.73    0.72   1
   0   2   8    5.95    1.27   3
  -1  -2  -8    4.42    1.48   4
  -1  -2  -8    4.93    1.39   3
  -2  -2  -8  135.12    6.56   4
  -2  -2  -8  140.51    6.95   3
  -3  -2  -8   15.75    2.49   4
  -3  -2  -8   18.72    2.89   3
  -4  -2  -8   14.87    2.99   3
   9  -3  -8    6.00    1.53   3
  -9   3   8    8.23    2.40   1
   8  -3  -8  109.35    4.91   3
  -8   3   8  109.65    6.57   1
   7  -3  -8   88.06    3.64   3
  -7   3   8   79.37    5.28   1
  -6   3   8  246.82   10.26   1
  -5   3   8  152.46    7.10   1
  -4   3   8  241.96    9.42   1
   3  -3  -8    8.90    1.86   4
  -3   3   8    8.12    1.59   1
   2  -3  -8  977.79   31.18   4
  -2   3   8  979.60   29.49   1
  -2   3   8  992.25   29.46   3
  -2   3   8 1013.43   29.03   2
   1  -3  -8    5.53    1.06   3
   1  -3  -8    6.28    1.59   4
   1  -3  -8    9.65    1.21   3
  -1   3   8    8.83    1.36   3
  -1   3   8    7.64    1.28   1
   0  -3  -8    0.61    0.79   3
   0  -3  -8    0.21    0.93   4
   0   3   8    0.45    0.53   1
  -1  -3  -8  132.45    6.40   4
  -1  -3  -8  126.30    6.32   3
  -2  -3  -8    4.04    1.47   4
  -2  -3  -8    7.01    1.86   3
  -3  -3  -8   16.30    2.86   3
   9  -4  -8  105.19    5.21   3
  -9   4   8  105.16    7.01   1
   8  -4  -8   32.52    2.33   3
  -8   4   8   32.60    4.13   1
   7  -4  -8   27.07    1.62   3
  -7   4   8   22.89    3.24   1
  -6   4   8   -0.15    0.91   1
  -5   4   8   48.69    3.69   1
  -4   4   8   -0.72    0.74   1
  -3   4   8   10.98    1.90   1
  -3   4   8   11.30    1.69   2
   2  -4  -8  469.74   14.18   3
   2  -4  -8  454.29   16.34   4
   2  -4  -8  473.50   14.30   3
  -2   4   8  460.35   15.05   1
  -2   4   8  454.17   14.49   2
   1  -4  -8  303.78   10.41   3
   1  -4  -8  281.87   11.34   4
  -1   4   8  290.35    9.87   1
   0  -4  -8   26.91    3.16   4
   0  -4  -8   28.10    2.85   3
  -1  -4  -8    5.57    1.59   3
  -1  -4  -8    6.71    1.74   4
  -2  -4  -8   37.14    4.04   3
  -2  -4  -8   40.44    3.73   4
  -3  -4  -8   10.98    2.57   3
   9  -5  -8   35.06    2.75   3
  -9   5   8   27.63    4.12   1
   8  -5  -8    2.42    0.93   3
  -8   5   8    0.93    1.34   1
   7  -5  -8   44.90    2.15   3
  -7   5   8   51.54    4.91   1
  -6   5   8   55.13    4.24   1
  -5   5   8    3.18    1.40   1
  -4   5   8   45.05    3.47   1
  -3   5   8  154.11    6.63   2
  -3   5   8  169.61    7.15   1
   2  -5  -8    6.79    1.10   3
  -2   5   8    6.21    1.43   1
   1  -5  -8  935.72   29.47   3
   0  -5  -8   17.96    2.44   3
  -1  -5  -8   32.18    3.63   3
  -2  -5  -8   16.29    2.86   3
   8  -6  -8   31.02    2.15   3
  -8   6   8   28.12    4.01   1
   7  -6  -8    4.18    0.77   3
  -7   6   8    0.51    1.28   1
  -6   6   8   24.75    3.37   1
  -5   6   8   59.69    4.37   1
  -4   6   8  128.46    6.56   1
   3  -6  -8  140.01    5.11   3
  -3   6   8  139.01    6.60   1
   2  -6  -8    2.23    0.97   3
  -2   6   8    1.27    1.14   1
   1  -6  -8    2.40    1.19   3
   0  -6  -8   -0.07    1.04   3
  -1  -6  -8    1.31    1.34   3
   8  -7  -8    3.21    1.02   3
  -8   7   8    6.18    2.24   1
   7  -7  -8    1.44    0.65   3
  -7   7   8    2.60    1.66   1
  -6   7   8    2.44    1.55   1
  -5   7   8    4.05    1.67   1
   4  -7  -8   23.61    1.61   3
  -4   7   8   19.83    2.90   1
   3  -7  -8  144.63    5.78   3
  -3   7   8  144.77    7.08   1
   2  -7  -8   89.46    4.63   3
   1  -7  -8   21.70    2.70   3
   0  -7  -8    2.54    1.46   3
  -7   8   8   19.27    3.51   1
   6  -8  -8   44.49    2.36   3
  -6   8   8   43.61    4.84   1
   5  -8  -8   25.60    1.84   3
  -5   8   8   29.43    3.83   1
   4  -8  -8  198.05    7.25   3
  -4   8   8  186.42    9.06   1
   3  -8  -8   23.85    2.44   3
   2  -8  -8   14.67    2.22   3
   1  -8  -8   55.79    4.17   3
  -6   9   8    1.49    1.92   1
   5  -9  -8   23.85    2.24   3
   4  -9  -8    0.44    0.91   3
   3  -9  -8    0.45    1.07   3
   0  11  -9    1.99    1.98   3
   3  10  -9    7.68    2.56   3
   2  10  -9  322.08   12.66   4
   2  10  -9  303.58   13.99   3
   1  10  -9  133.56    8.01   3
   0  10  -9    0.58    1.43   3
   0 -10   9    1.92    1.73   2
   1 -10   9   83.54    6.00   2
   2 -10   9   32.29    4.17   2
   4   9  -9   48.96    5.39   3
   3   9  -9    3.41    1.88   3
   3   9  -9    2.42    1.39   4
   2   9  -9    1.45    1.32   4
   2   9  -9   -2.29    1.09   3
   1   9  -9  201.77    9.95   3
   0  -9   9   30.44    3.97   3
   0  -9   9   24.96    3.61   2
   1  -9   9   -0.68    1.33   2
   1  -9   9    2.67    1.61   3
   2  -9   9   73.36    5.25   2
   3  -9   9   12.38    2.64   2
   5   8  -9  178.31    9.47   3
   4   8  -9   67.14    4.42   4
   4   8  -9   59.87    5.01   3
   3   8  -9   44.68    4.63   3
   3   8  -9   42.89    4.14   4
   2   8  -9   -0.93    1.05   3
   2   8  -9    1.97    1.41   4
   1   8  -9   69.08    4.94   3
   1   8  -9   68.00    4.78   4
  -1  -8   9   71.82    4.96   3
   0  -8   9   81.98    5.50   3
   0  -8   9   93.07    5.79   2
   1  -8   9   23.59    3.34   2
   1  -8   9   26.71    3.55   3
   2  -8   9    1.27    1.33   2
   2  -8   9    2.63    1.65   3
   3  -8   9    1.16    1.39   2
  -4   8  -9    0.85    1.52   3
   6   7  -9   36.42    4.50   3
   5   7  -9   18.04    3.11   3
   5   7  -9   22.84    2.93   4
   4   7  -9   32.16    3.79   3
   4   7  -9   33.46    3.53   4
   3   7  -9    9.14    2.07   3
   3   7  -9    9.90    2.10   4
   2   7  -9   83.47    5.21   3
   2   7  -9   77.37    5.00   4
  -2  -7   9   76.30    5.00   3
   1   7  -9    1.13    1.18   4
   1   7  -9    1.08    1.14   3
  -1  -7   9   -0.61    0.90   3
   0  -7   9   41.49    4.13   3
   1  -7   9    0.54    1.18   2
   1  -7   9   -0.64    1.08   3
   2  -7   9   41.20    3.89   2
   2  -7   9   43.74    4.47   3
  -4   7  -9    8.13    2.23   3
   7   6  -9   98.74    6.52   3
   6   6  -9   13.44    2.64   3
   5   6  -9  117.63    6.13   4
   5   6  -9  114.12    6.58   3
   4   6  -9   84.39    5.20   3
   4   6  -9   72.57    4.71   4
   3   6  -9    8.25    1.85   3
   3   6  -9    5.88    1.66   4
  -3  -6   9    7.32    1.80   3
   2   6  -9    4.21    1.40   3
   2   6  -9    2.45    1.37   4
  -2  -6   9    4.22    1.59   3
   1   6  -9  356.13   13.73   4
  -1  -6   9  370.99   13.71   3
   0  -6   9   12.40    2.20   3
   1  -6   9    1.02    1.12   2
   1  -6   9    2.96    1.45   3
   2  -6   9  155.22    7.65   3
   2  -6   9  143.74    6.73   2
  -3   6  -9   10.57    2.31   3
  -4   6  -9   43.78    4.70   3
   7   5  -9   25.70    3.51   3
   6   5  -9   63.48    4.41   4
   6   5  -9   67.51    4.81   3
   5   5  -9   90.71    5.37   3
   5   5  -9   87.92    5.17   4
   4   5  -9   37.18    3.70   4
   4   5  -9   37.41    3.13   3
   3   5  -9   95.03    5.05   3
   3   5  -9   94.53    5.38   4
  -3  -5   9   88.58    4.95   3
   2   5  -9   40.32    3.07   3
   2   5  -9   39.91    3.89   4
  -2  -5   9   43.19    3.14   3
   1   5  -9   89.37    5.36   4
  -1  -5   9   99.28    5.10   3
   0  -5   9   39.11    3.14   3
   1  -5   9   40.56    3.35   3
   1  -5   9   39.82    3.05   2
  -2   5  -9   43.18    3.63   3
   2  -5   9   41.25    3.54   3
   2  -5   9   47.02    3.10   2
  -3   5  -9    0.16    1.12   3
  -4   5  -9    3.43    1.69   3
   8   4  -9    1.83    1.49   3
   7   4  -9    4.93    1.66   3
   6   4  -9    0.02    1.15   4
   6   4  -9    0.96    1.10   3
   5   4  -9   -0.10    0.84   3
   5   4  -9   -0.32    0.91   4
   4   4  -9    0.81    1.05   4
   4   4  -9    2.03    1.03   3
  -4  -4   9    3.23    1.19   3
   3   4  -9   51.98    3.27   3
   3   4  -9   56.20    3.97   4
  -3  -4   9   53.34    3.31   3
   2   4  -9   18.01    2.61   4
  -2  -4   9   20.80    2.28   3
   1   4  -9   83.66    5.03   4
  -1  -4   9   77.68    4.18   3
   0   4  -9   49.06    3.86   4
   0  -4   9   52.22    3.42   3
  -1   4  -9  160.13    7.16   3
   1  -4   9  151.12    7.01   3
   1  -4   9  155.25    6.30   2
  -2   4  -9   30.05    3.28   3
   2  -4   9   34.57    3.47   3
  -3   4  -9   26.70    3.32   3
  -4   4  -9   22.45    3.28   3
   8   3  -9   15.06    2.64   3
   7   3  -9  152.63    7.35   3
   6   3  -9   53.51    3.70   3
   6   3  -9   62.23    4.32   4
   5   3  -9   45.16    3.62   4
   5   3  -9   49.09    3.16   3
   4   3  -9   19.99    2.77   4
   4   3  -9   20.28    2.06   3
  -4  -3   9   22.97    2.26   3
   3   3  -9    0.84    0.68   3
   3   3  -9    0.86    0.68   3
   3   3  -9    1.43    1.12   4
  -3  -3   9    1.71    0.82   3
   2   3  -9  269.07    9.33   3
   2   3  -9  244.65   10.33   4
  -2  -3   9  250.76    9.11   3
   1   3  -9  734.96   24.37   4
  -1  -3   9  747.88   23.51   3
   0   3  -9   38.14    3.84   4
   0   3  -9   37.53    2.68   3
   0  -3   9   36.21    2.69   3
  -1   3  -9   67.69    4.04   3
  -1   3  -9   67.89    4.69   4
   1  -3   9   68.39    3.25   2
   1  -3   9   64.56    3.97   3
  -2   3  -9    1.03    0.96   3
  -3   3  -9    0.72    1.14   3
  -4   3  -9   22.71    3.25   3
   8   2  -9    6.59    1.74   3
   7   2  -9   30.45    3.08   3
   6   2  -9  225.54    8.73   3
   5   2  -9   13.39    1.61   3
   5   2  -9   11.71    2.25   4
   4   2  -9   36.30    3.77   4
   4   2  -9   44.66    2.28   3
   4   2  -9   43.22    2.30   3
  -4  -2   9   45.57    2.49   3
   3   2  -9  272.43   11.11   4
   3   2  -9  288.33    9.28   3
  -3  -2   9  282.24    9.40   3
   2   2  -9  286.67   11.80   4
   2   2  -9  325.03   10.40   3
  -2  -2   9  308.10   10.27   3
   1   2  -9   99.76    4.38   3
   1   2  -9   92.35    5.33   4
   1   2  -9   91.92    4.07   3
  -1  -2   9   88.18    4.08   3
   0   2  -9  113.05    6.20   4
   0   2  -9  118.46    5.18   3
   0  -2   9  118.07    5.24   3
   0  -2   9  120.56    4.71   2
  -1   2  -9   13.25    2.37   4
  -1   2  -9   11.48    1.79   3
   1  -2   9   11.37    1.82   3
  -2   2  -9    7.00    1.67   3
  -2   2  -9    7.93    1.99   4
  -3   2  -9    3.18    1.41   3
  -3   2  -9    0.57    1.19   4
  -4   2  -9    9.95    2.43   4
  -4   2  -9   11.24    2.41   3
   9   1  -9   22.34    3.04   3
   8   1  -9   43.60    3.37   3
   7   1  -9    1.26    0.92   3
   6   1  -9    2.53    0.96   3
   5   1  -9  135.44    4.94   3
   5   1  -9  150.19    7.25   4
   5   1  -9  142.18    4.87   3
   4   1  -9    5.77    1.62   4
  -4  -1   9    8.52    0.83   3
   3   1  -9  206.18    8.94   4
   2   1  -9   13.77    1.08   3
   2   1  -9   15.54    1.03   3
   2   1  -9   13.12    2.27   4
  -2  -1   9   16.37    1.20   3
   1   1  -9  463.71   14.62   3
   1   1  -9  444.25   14.39   3
   1   1  -9  455.91   16.17   4
  -1  -1   9  442.46   14.41   3
   0   1  -9   14.99    1.77   3
   0   1  -9   17.75    2.62   4
   0  -1   9   15.84    1.88   3
   0  -1   9   18.13    1.23   2
  -1   1  -9   19.69    2.30   3
  -1   1  -9   19.03    2.81   4
  -2   1  -9    3.32    1.31   3
  -2   1  -9    1.34    1.25   4
  -3   1  -9   37.29    4.03   4
  -3   1  -9   41.47    4.05   3
  -4   1  -9    0.29    1.32   4
  -4   1  -9    0.16    1.36   3
   9   0  -9   10.37    2.04   3
  -9   0   9   12.16    2.61   1
   8   0  -9  186.06    7.72   3
   7   0  -9   83.17    4.00   3
   6   0  -9    8.24    0.93   3
   5   0  -9  339.83   13.20   4
   4   0  -9  286.47   11.50   4
   3   0  -9    4.96    1.53   4
   2   0  -9   -1.21    0.74   4
   1   0  -9  244.64   10.04   4
   1   0  -9  244.80    8.08   3
   1   0  -9  235.40    8.12   3
  -1   0   9  228.22    8.08   3
   0   0  -9    5.00    1.58   4
   0   0  -9    2.33    0.91   3
   0   0   9    2.16    0.87   3
  -1   0  -9   84.36    5.22   4
  -1   0  -9   86.99    4.65   3
  -2   0  -9   31.89    3.60   4
  -2   0  -9   35.15    3.47   3
  -3   0  -9   13.31    2.51   3
  -3   0  -9   15.30    2.59   4
  -4   0  -9  127.37    7.46   3
  -4   0  -9  127.53    6.95   4
   9  -1  -9   36.50    2.98   3
  -9   1   9   30.99    4.19   1
   8  -1  -9   11.65    1.73   3
  -8   1   9   12.68    2.60   1
   7  -1  -9    1.41    0.70   3
   4  -1  -9   34.94    3.79   4
   3  -1  -9   36.06    3.74   4
   2  -1  -9    4.88    1.52   4
   1  -1  -9    5.11    0.89   3
   1  -1  -9    3.23    1.29   4
   1  -1  -9    3.73    0.81   3
  -1   1   9    4.46    0.67   2
  -1   1   9    3.17    0.84   3
   0  -1  -9   -0.10    0.62   3
   0  -1  -9   -0.89    0.85   4
   0   1   9    0.04    0.56   1
  -1  -1  -9   45.18    3.24   3
  -1  -1  -9   38.02    3.90   4
  -2  -1  -9   12.46    2.23   3
  -2  -1  -9   13.75    2.50   4
  -3  -1  -9   24.24    3.28   4
  -3  -1  -9   22.81    3.24   3
   9  -2  -9  122.93    5.67   3
  -9   2   9  118.92    7.35   1
   8  -2  -9   92.32    4.14   3
  -8   2   9   89.80    6.01   1
  -7   2   9   20.47    3.01   1
  -6   2   9    0.62    1.05   1
  -5   2   9  139.76    6.78   1
   4  -2  -9  241.60   10.29   4
  -4   2   9  233.82    9.37   1
   3  -2  -9   40.74    4.03   4
  -3   2   9   39.51    2.96   1
   2  -2  -9   27.50    3.24   4
  -2   2   9   22.41    2.35   1
   1  -2  -9   88.36    3.72   3
   1  -2  -9   86.89    3.63   3
   1  -2  -9   87.31    5.30   4
  -1   2   9   86.92    4.00   1
   0  -2  -9   65.18    4.46   4
   0  -2  -9   61.72    3.63   3
   0   2   9   70.84    2.95   1
  -1  -2  -9   31.25    3.53   4
  -1  -2  -9   33.47    3.25   3
  -2  -2  -9   74.69    4.97   4
  -2  -2  -9   81.84    5.15   3
  -3  -2  -9  102.26    6.37   3
  -3  -2  -9  103.81    5.91   4
   9  -3  -9   83.55    4.14   3
  -9   3   9   72.55    5.78   1
   8  -3  -9    0.77    0.63   3
  -8   3   9   -0.64    1.12   1
  -7   3   9   50.07    4.78   1
  -6   3   9   39.36    4.03   1
  -5   3   9  305.93   11.83   1
  -4   3   9   31.45    3.19   1
   3  -3  -9    2.45    1.33   4
  -3   3   9    5.27    1.39   1
   2  -3  -9   41.47    4.24   4
  -2   3   9   46.85    3.08   1
   1  -3  -9   35.87    3.77   4
   1  -3  -9   32.26    2.11   3
  -1   3   9   26.47    2.35   1
   0  -3  -9   -0.15    0.96   4
   0  -3  -9    1.14    0.92   3
  -1  -3  -9   19.67    2.64   3
  -1  -3  -9   13.08    2.46   4
  -2  -3  -9    4.22    1.69   3
  -2  -3  -9    6.36    1.81   4
  -9   4   9  118.63    7.53   1
  -8   4   9    0.28    1.43   1
  -7   4   9    3.92    1.56   1
  -6   4   9   27.00    3.45   1
  -5   4   9   12.79    2.30   1
  -4   4   9   58.46    4.01   1
  -3   4   9    1.19    0.99   1
   2  -4  -9  268.01   11.17   4
  -2   4   9  266.59    9.70   1
   1  -4  -9    2.27    1.33   4
   1  -4  -9    2.85    1.02   3
  -1   4   9    2.83    1.00   1
   0  -4  -9    9.53    1.77   3
   0  -4  -9    8.25    2.02   4
  -1  -4  -9  186.82    8.46   3
  -1  -4  -9  176.83    8.30   4
  -2  -4  -9    1.69    1.44   3
  -8   5   9   87.26    6.17   1
  -7   5   9   60.92    4.86   1
  -6   5   9   61.60    4.66   1
  -5   5   9   58.49    4.35   1
  -4   5   9  144.45    6.95   1
  -3   5   9   93.21    5.09   1
   2  -5  -9  114.83    4.33   3
  -2   5   9  111.91    5.38   1
   1  -5  -9   30.11    2.76   3
   0  -5  -9   68.91    4.36   3
  -1  -5  -9   22.12    3.11   3
  -8   6   9    3.33    1.84   1
  -7   6   9   45.31    4.85   1
  -6   6   9   45.62    4.67   1
  -5   6   9   37.45    4.05   1
  -4   6   9   71.80    4.75   1
  -3   6   9   10.39    2.13   1
   2  -6  -9   10.81    1.45   3
   1  -6  -9    1.45    1.06   3
   0  -6  -9    1.56    1.31   3
  -7   7   9   11.00    2.68   1
  -6   7   9    6.96    2.14   1
  -5   7   9  267.89   11.53   1
  -4   7   9   62.18    4.60   1
  -3   7   9   54.79    4.17   1
   2  -7  -9   11.59    1.75   3
   1  -7  -9   17.72    2.49   3
  -6   8   9   19.94    3.43   1
  -5   8   9   64.16    5.18   1
  -4   8   9   11.30    2.58   1
   2  10 -10   10.99    2.61   4
   2  10 -10   10.72    2.81   3
   1  10 -10    2.43    1.89   4
   1  10 -10    0.47    1.56   3
   0 -10  10  217.88   10.82   2
   3   9 -10  113.11    7.24   3
   3   9 -10  123.75    6.82   4
   2   9 -10  102.84    6.31   4
   2   9 -10   93.22    6.41   3
   1   9 -10   32.89    4.05   3
   1   9 -10   28.73    3.86   4
   0  -9  10   -0.15    1.50   2
   1  -9  10    2.70    1.77   2
   2  -9  10    7.47    2.22   2
   5   8 -10   18.00    3.21   3
   4   8 -10   57.37    4.36   4
   4   8 -10   61.31    4.97   3
   3   8 -10   37.23    4.31   3
   3   8 -10   41.71    4.28   4
   2   8 -10   31.17    3.75   3
   2   8 -10   23.41    3.41   4
   1   8 -10   18.98    3.07   4
   0  -8  10    1.31    1.43   2
   1  -8  10   77.19    5.28   2
   2  -8  10    1.00    1.45   2
   6   7 -10   20.33    3.35   3
   5   7 -10   32.73    4.03   3
   5   7 -10   36.48    3.96   4
   4   7 -10    2.67    1.46   3
   4   7 -10    0.48    1.16   4
   3   7 -10    3.95    1.66   3
   3   7 -10    1.89    1.37   4
   2   7 -10    1.51    1.33   3
   2   7 -10    4.59    1.65   4
   1   7 -10    3.07    1.62   4
   0  -7  10    0.03    1.03   2
   1  -7  10   28.10    3.39   2
   2  -7  10   11.56    2.25   2
  -3   7 -10   24.14    3.47   3
   6   6 -10   11.73    2.44   4
   6   6 -10   16.34    2.89   3
   5   6 -10  112.95    6.44   4
   5   6 -10  125.94    6.78   3
   4   6 -10   29.80    3.61   4
   4   6 -10   28.09    3.33   3
   3   6 -10   40.38    4.15   4
   3   6 -10   37.75    3.68   3
   2   6 -10   23.19    3.20   4
   1   6 -10   65.87    4.73   4
   0   6 -10   95.85    6.02   4
   0  -6  10   96.26    5.47   2
   1  -6  10  113.30    5.86   2
  -2   6 -10   31.48    3.69   3
  -3   6 -10   97.61    6.19   3
   7   5 -10   31.41    3.87   3
   6   5 -10    0.33    1.22   4
   6   5 -10    0.03    1.12   3
   5   5 -10  217.98    9.28   3
   5   5 -10  208.42    9.46   4
   4   5 -10    9.94    1.88   3
   4   5 -10    9.94    2.14   4
   3   5 -10   16.07    2.62   4
   3   5 -10   10.44    1.82   3
   2   5 -10   71.17    4.86   4
   1   5 -10    3.14    1.56   4
   0   5 -10   18.90    2.93   4
   0  -5  10   19.55    2.52   2
  -1   5 -10    0.65    1.03   3
   1  -5  10    1.42    1.07   2
  -2   5 -10  331.12   13.15   3
  -3   5 -10   99.81    6.15   3
   7   4 -10   18.98    2.84   3
   6   4 -10    0.46    1.23   4
   6   4 -10    2.61    1.28   3
   5   4 -10   26.27    3.39   4
   5   4 -10   31.07    3.00   3
   4   4 -10  120.13    6.49   4
   4   4 -10  115.35    5.42   3
   3   4 -10  109.46    6.16   4
   2   4 -10  128.29    6.83   4
   1   4 -10   27.96    3.55   4
   0   4 -10    9.17    1.71   3
   0   4 -10    9.11    2.13   4
   0  -4  10    7.99    1.57   2
  -1   4 -10  103.20    6.23   4
  -1   4 -10   96.77    5.34   3
   1  -4  10  105.72    4.69   2
  -2   4 -10    3.62    1.45   3
  -2   4 -10    4.78    1.89   4
  -3   4 -10   78.42    5.29   3
   8   3 -10  123.35    6.64   3
   7   3 -10    0.30    1.07   3
   6   3 -10    1.57    0.99   3
   6   3 -10    2.72    1.43   4
   5   3 -10  716.58   24.43   4
   5   3 -10  743.71   23.32   3
   4   3 -10  529.57   17.13   3
   4   3 -10  541.64   18.98   4
   3   3 -10    4.38    1.54   4
   2   3 -10   15.04    2.58   4
   1   3 -10    2.40    1.29   4
   1   3 -10    1.63    0.83   3
   0   3 -10   39.45    4.13   4
   0   3 -10   32.43    2.61   3
   0  -3  10   37.34    2.52   2
  -1   3 -10    2.63    1.39   4
  -1   3 -10    2.86    1.20   3
  -2   3 -10   19.98    3.12   4
  -2   3 -10   19.45    2.73   3
  -3   3 -10   51.80    4.19   3
  -3   3 -10   47.97    4.85   4
   8   2 -10   26.24    3.03   3
   7   2 -10   10.15    1.75   3
   6   2 -10   -0.39    0.97   4
   6   2 -10    2.90    0.97   3
   5   2 -10  671.19   20.93   3
   5   2 -10  695.00   23.30   4
   4   2 -10  740.48   25.42   4
   4   2 -10  783.74   22.98   3
   3   2 -10  221.79    9.69   4
   3   2 -10  212.49    6.99   3
   3   2 -10  213.65    7.07   3
   2   2 -10  146.29    7.29   4
   2   2 -10  134.34    5.22   3
   2   2 -10  134.12    5.03   3
   1   2 -10    1.14    0.70   3
   1   2 -10   -0.55    1.01   4
   0   2 -10   17.87    2.05   3
   0   2 -10   18.32    2.92   4
   0  -2  10   21.55    1.63   2
  -1   2 -10   19.45    3.02   4
  -1   2 -10   21.16    2.47   3
  -2   2 -10   56.80    4.04   3
  -2   2 -10   54.78    4.43   4
  -3   2 -10    3.11    1.49   3
  -3   2 -10    6.34    2.01   4
   8   1 -10    2.16    1.09   3
   7   1 -10  117.94    5.04   3
   5   1 -10    0.91    1.51   4
   4   1 -10  260.07   11.03   4
   3   1 -10  134.32    7.04   4
   2   1 -10    9.91    2.21   4
   1   1 -10  178.96    8.37   4
   1   1 -10  163.29    6.18   3
   0   1 -10   64.91    4.69   4
   0   1 -10   59.20    3.39   3
  -1   1 -10  119.72    6.67   4
  -1   1 -10  120.07    5.78   3
  -2   1 -10  148.24    7.74   4
  -2   1 -10  146.70    7.22   3
  -3   1 -10    1.81    1.55   4
  -3   1 -10    3.16    1.55   3
   8   0 -10  116.32    5.10   3
   5   0 -10  138.34    7.40   4
   4   0 -10   62.68    4.64   4
   3   0 -10  272.32   11.44   4
   2   0 -10  166.91    8.14   4
   1   0 -10   65.55    3.01   3
   1   0 -10   61.08    4.48   4
   0   0 -10   -0.44    1.09   4
   0   0 -10    3.82    1.11   3
  -1   0 -10    0.04    1.19   4
  -1   0 -10    1.32    1.04   3
  -2   0 -10   19.21    2.68   3
  -2   0 -10   18.12    2.98   4
  -3   0 -10   42.18    4.36   3
  -3   0 -10   44.24    4.63   4
  -8   1  10   11.54    2.58   1
   5  -1 -10   66.21    4.89   4
   4  -1 -10    2.19    1.49   4
   3  -1 -10   -0.50    0.99   4
   2  -1 -10   46.86    4.55   4
   1  -1 -10  263.40   10.93   4
   1  -1 -10  252.86    8.46   3
  -1   1  10  243.44    8.86   1
   0  -1 -10   56.41    4.38   4
   0  -1 -10   54.11    3.28   3
  -1  -1 -10    0.34    1.19   4
  -1  -1 -10    2.85    1.24   3
  -2  -1 -10   55.78    4.59   4
  -2  -1 -10   67.08    4.61   3
  -8   2  10    6.40    2.22   1
  -7   2  10   35.01    4.01   1
  -6   2  10   21.69    3.04   1
  -5   2  10  168.17    7.83   1
   4  -2 -10  329.08   13.28   4
  -4   2  10  321.29   12.07   1
   3  -2 -10   55.63    4.42   4
  -3   2  10   54.27    3.55   1
   2  -2 -10   32.38    3.82   4
  -2   2  10   37.15    2.80   1
   1  -2 -10   93.37    3.80   3
   1  -2 -10   81.55    5.46   4
  -1   2  10   91.51    4.23   1
   0  -2 -10    2.40    1.40   4
   0  -2 -10    1.94    1.04   3
  -1  -2 -10   62.92    4.21   3
  -1  -2 -10   72.84    4.97   4
  -2  -2 -10    1.50    1.32   3
  -2  -2 -10    1.49    1.39   4
  -8   3  10   11.66    2.78   1
  -7   3  10   70.54    5.20   1
  -6   3  10   82.80    5.34   1
  -5   3  10    4.76    1.62   1
  -4   3  10   13.47    2.27   1
   3  -3 -10    4.42    1.73   4
  -3   3  10    4.95    1.43   1
   2  -3 -10  145.43    7.86   4
  -2   3  10  163.65    6.67   1
   1  -3 -10  100.22    6.16   4
   1  -3 -10  113.12    4.54   3
   0  -3 -10    1.98    1.43   4
   0  -3 -10    2.43    1.09   3
  -1  -3 -10    5.61    1.98   4
  -1  -3 -10    6.95    1.82   3
  -8   4  10    5.29    2.10   1
  -7   4  10  121.26    7.13   1
  -6   4  10   27.59    3.53   1
  -5   4  10   30.01    3.55   1
  -4   4  10    1.98    1.27   1
  -3   4  10   51.22    3.63   1
   2  -4 -10  171.45    8.61   4
  -2   4  10  171.88    7.07   1
   1  -4 -10   16.43    1.78   3
   1  -4 -10   15.61    2.84   4
   0  -4 -10   46.41    4.75   4
   0  -4 -10   60.35    3.85   3
  -1  -4 -10   51.45    4.88   4
  -1  -4 -10   46.00    3.96   3
  -8   5  10  193.67    9.96   1
  -7   5  10   11.04    2.56   1
  -6   5  10   27.63    3.66   1
  -5   5  10   48.94    4.66   1
  -4   5  10  107.53    5.93   1
  -3   5  10   47.94    3.62   1
   1  -5 -10    0.88    0.96   3
   0  -5 -10   42.22    3.49   3
  -7   6  10   95.70    6.52   1
  -6   6  10   10.86    2.55   1
  -5   6  10   64.35    4.82   1
  -4   6  10   26.64    3.35   1
  -3   6  10   31.12    3.44   1
   1  -6 -10    0.60    1.01   3
  -6   7  10    2.19    1.63   1
  -5   7  10   15.05    2.92   1
  -4   7  10  127.02    6.95   1
   2   9 -11   29.90    3.97   3
   2   9 -11   27.34    3.93   4
   1   9 -11   34.27    4.39   4
   0   9 -11   40.64    4.89   4
   0  -9  11   49.90    5.22   2
   4   8 -11   21.55    3.34   3
   4   8 -11   22.63    3.43   4
   3   8 -11   13.84    2.78   4
   3   8 -11   12.59    2.61   3
   2   8 -11   32.68    4.14   4
   1   8 -11   23.62    3.53   4
   0   8 -11   15.05    3.11   4
   0  -8  11   17.70    3.10   2
   1  -8  11    3.07    1.64   2
   5   7 -11   43.77    4.58   3
   5   7 -11   55.93    5.29   4
   4   7 -11   53.01    4.30   3
   4   7 -11   47.52    4.85   4
   3   7 -11    7.81    1.98   3
   3   7 -11    6.10    1.96   4
   2   7 -11   85.30    5.82   4
   1   7 -11    9.23    2.48   4
   0   7 -11    4.94    2.07   4
   0  -7  11    2.84    1.62   2
  -2   7 -11  133.38    7.53   3
   6   6 -11   53.93    4.40   3
   6   6 -11   57.24    4.67   4
   5   6 -11   15.66    2.93   4
   5   6 -11   18.12    2.76   3
   4   6 -11   87.85    5.73   4
   4   6 -11   80.70    5.01   3
   3   6 -11   70.48    4.48   3
   3   6 -11   70.12    5.11   4
   2   6 -11   97.59    6.14   4
   1   6 -11   32.24    4.07   4
   0   6 -11   51.67    5.15   4
   0  -6  11   49.42    3.91   2
  -1   6 -11  116.14    7.25   4
  -1   6 -11  127.22    6.75   3
  -2   6 -11    1.13    1.36   3
   6   5 -11   40.40    3.91   3
   6   5 -11   41.67    4.62   4
   5   5 -11   14.61    2.85   4
   5   5 -11    6.91    1.65   3
   4   5 -11   77.41    4.43   3
   4   5 -11   75.40    5.24   4
   3   5 -11    0.37    1.14   4
   2   5 -11   15.01    2.77   4
   1   5 -11    2.76    1.56   4
   0   5 -11   -1.07    0.83   3
   0   5 -11   -0.15    1.23   4
   0  -5  11    4.25    1.44   2
  -1   5 -11    0.93    1.46   4
  -1   5 -11    0.85    1.08   3
  -2   5 -11   31.53    3.64   3
  -2   5 -11   32.38    4.30   4
   7   4 -11  250.85   10.38   3
   6   4 -11   32.07    4.05   4
   6   4 -11   28.02    2.94   3
   5   4 -11    1.75    1.38   4
   5   4 -11    0.45    0.88   3
   4   4 -11   61.81    4.70   4
   3   4 -11   86.03    5.73   4
   2   4 -11    3.92    1.74   4
   1   4 -11   52.39    5.05   4
   1   4 -11   55.28    3.42   3
   0   4 -11   38.02    4.35   4
   0   4 -11   33.53    2.88   3
  -1   4 -11    8.13    2.31   4
  -1   4 -11    9.52    1.93   3
  -2   4 -11    5.35    1.75   3
  -2   4 -11   11.88    2.67   4
   7   3 -11    0.49    1.06   3
   6   3 -11    2.67    1.06   3
   6   3 -11    3.89    1.71   4
   5   3 -11  109.61    6.56   4
   4   3 -11   99.71    6.19   4
   3   3 -11   13.66    2.54   4
   2   3 -11    0.05    0.63   3
   2   3 -11    1.23    1.25   4
   1   3 -11  152.71    6.17   3
   1   3 -11  141.04    7.79   4
   0   3 -11   13.25    2.68   4
   0   3 -11   14.03    1.92   3
  -1   3 -11    0.53    0.95   3
  -1   3 -11    1.30    1.60   4
  -2   3 -11    8.78    2.48   4
  -2   3 -11    9.07    2.04   3
   7   2 -11   35.84    2.43   3
   6   2 -11   18.82    3.22   4
   5   2 -11    7.13    2.11   4
   4   2 -11    9.14    2.29   4
   3   2 -11   63.68    4.80   4
   2   2 -11   37.09    1.99   3
   2   2 -11   33.13    3.96   4
   1   2 -11   18.48    1.86   3
   1   2 -11   13.88    2.69   4
   0   2 -11  228.15   10.38   4
   0   2 -11  212.30    8.47   3
  -1   2 -11   14.83    2.18   3
  -1   2 -11   14.68    2.85   4
  -2   2 -11    5.17    1.64   3
  -2   2 -11    7.16    2.21   4
   6   1 -11   -1.21    1.07   4
   5   1 -11  193.96    9.50   4
   4   1 -11  192.61    9.35   4
   3   1 -11  144.19    7.74   4
   2   1 -11  142.30    7.69   4
   1   1 -11    9.84    2.32   4
   1   1 -11   12.57    1.45   3
   0   1 -11   17.23    2.98   4
   0   1 -11   19.02    2.16   3
  -1   1 -11    2.81    1.25   3
  -1   1 -11   -0.86    1.19   4
  -2   1 -11   34.73    4.30   4
  -2   1 -11   40.82    3.97   3
   5   0 -11  192.45    9.54   4
   4   0 -11    0.94    1.42   4
   3   0 -11    9.45    2.30   4
   2   0 -11    0.43    1.15   4
   1   0 -11   63.23    2.93   3
   1   0 -11   63.90    4.88   4
   0   0 -11    8.72    1.57   3
   0   0 -11    6.90    2.08   4
  -1   0 -11    1.32    1.12   3
  -1   0 -11    5.71    2.07   4
  -2   0 -11    7.15    2.32   4
  -8   1  11    5.80    2.07   1
  -7   1  11    3.61    1.95   1
   5  -1 -11  134.97    7.73   4
   4  -1 -11   67.86    5.16   4
   3  -1 -11   35.29    4.16   4
   2  -1 -11   23.23    3.46   4
  -2   1  11   24.89    2.71   1
   1  -1 -11    7.94    2.22   4
   0  -1 -11   20.24    3.18   4
   0  -1 -11   20.36    2.26   3
  -1  -1 -11    5.10    2.01   4
  -1  -1 -11   10.90    2.04   3
  -8   2  11  210.02   10.34   1
  -7   2  11  130.05    7.37   1
  -6   2  11  101.35    6.04   1
  -5   2  11    0.38    1.09   1
   4  -2 -11    1.91    1.62   4
  -4   2  11    3.60    1.34   1
   3  -2 -11   21.19    3.32   4
  -3   2  11   22.27    2.68   1
   2  -2 -11  302.63   12.75   4
  -2   2  11  296.91   10.73   1
   1  -2 -11   20.60    3.33   4
   0  -2 -11    2.31    1.15   3
   0  -2 -11    2.24    1.64   4
  -1  -2 -11   54.96    3.95   3
  -1  -2 -11   47.38    4.94   4
  -8   3  11  131.50    7.79   1
  -7   3  11    3.26    1.69   1
  -6   3  11   10.03    2.31   1
  -5   3  11   21.71    3.10   1
  -4   3  11   13.01    2.22   1
   3  -3 -11   31.24    4.09   4
  -3   3  11   41.03    3.19   1
   2  -3 -11    4.39    1.91   4
   1  -3 -11  588.43   21.24   4
   0  -3 -11  172.46    7.36   3
   0  -3 -11  182.44    9.00   4
  -7   4  11   70.12    5.44   1
  -6   4  11   84.52    5.70   1
  -5   4  11   16.70    2.78   1
  -4   4  11   39.98    4.00   1
  -3   4  11   88.14    5.02   1
   2  -4 -11   25.12    3.66   4
   1  -4 -11   41.09    4.61   4
  -6   5  11    2.10    1.52   1
  -5   5  11   19.65    3.12   1
  -4   5  11   63.30    4.52   1
  -5   6  11   27.19    3.72   1
  -4   6  11   67.61    4.88   1
   4   7 -12  129.74    7.02   3
   4   7 -12  141.55    7.95   4
   3   7 -12   30.98    4.18   4
   2   7 -12    3.43    1.87   4
   1   7 -12   53.85    5.56   4
   0   7 -12    0.31    1.50   4
   5   6 -12    7.96    1.89   3
   5   6 -12    4.74    2.03   4
   4   6 -12   30.85    4.07   4
   3   6 -12    3.93    1.76   4
   2   6 -12   29.47    4.01   4
   1   6 -12   27.63    3.98   4
   0   6 -12   58.62    5.97   4
   0   6 -12   76.99    4.76   3
   5   5 -12    2.29    1.17   3
   5   5 -12    4.43    1.98   4
   4   5 -12    1.38    1.38   4
   3   5 -12    1.21    1.49   4
   2   5 -12   10.53    2.57   4
   1   5 -12   14.04    2.10   3
   1   5 -12   15.42    3.02   4
   0   5 -12   38.18    4.73   4
   0   5 -12   34.25    3.38   3
  -1   5 -12    1.86    1.25   3
  -1   5 -12    2.32    2.04   4
   6   4 -12   86.68    4.46   3
   6   4 -12   93.20    6.36   4
   5   4 -12   62.24    5.83   4
   4   4 -12  164.94    8.73   4
   3   4 -12  113.29    6.95   4
   2   4 -12    0.94    1.40   4
   2   4 -12    2.62    1.05   3
   1   4 -12    5.89    1.40   3
   1   4 -12    9.86    2.52   4
   0   4 -12   51.37    5.41   4
   0   4 -12   60.50    3.84   3
  -1   4 -12  137.92    6.80   3
  -1   4 -12  133.01    8.09   4
   6   3 -12    0.98    1.51   4
   5   3 -12   29.22    4.05   4
   4   3 -12  388.05   15.67   4
   3   3 -12   17.72    1.29   3
   3   3 -12   14.58    2.82   4
   2   3 -12   19.69    3.32   4
   2   3 -12   22.23    1.75   3
   1   3 -12    4.08    1.90   4
   1   3 -12    5.23    1.26   3
   0   3 -12   14.05    2.87   4
   0   3 -12   14.29    2.05   3
  -1   3 -12    4.25    1.56   3
  -1   3 -12    3.97    1.98   4
   6   2 -12    1.95    1.52   4
   5   2 -12  126.16    7.55   4
   4   2 -12   -0.22    1.17   4
   3   2 -12   41.90    4.72   4
   2   2 -12   49.56    5.13   4
   1   2 -12  180.43    9.50   4
   1   2 -12  196.45    7.15   3
   0   2 -12   -0.28    1.30   4
   0   2 -12    1.88    0.98   3
  -1   2 -12   -0.55    1.43   4
  -1   2 -12    0.28    1.08   3
   6   1 -12  110.02    7.13   4
   5   1 -12  154.87    8.60   4
   4   1 -12   -0.33    1.18   4
   3   1 -12    6.61    2.20   4
   2   1 -12   34.46    4.33   4
   1   1 -12    8.50    2.37   4
   1   1 -12   17.31    1.63   3
   0   1 -12    0.85    0.94   3
   0   1 -12   -0.10    1.50   4
   5   0 -12    1.74    1.62   4
   4   0 -12    3.20    1.76   4
   3   0 -12    8.29    2.39   4
   2   0 -12   47.98    5.15   4
   1   0 -12    7.82    2.46   4
   0   0 -12   13.06    2.84   4
   0   0 -12   15.72    1.99   3
  -7   1  12   69.33    5.43   1
  -6   1  12    9.20    2.31   1
   5  -1 -12   22.94    3.64   4
   4  -1 -12    3.71    1.96   4
   3  -1 -12   -0.41    1.24   4
  -3   1  12    0.45    1.09   1
   2  -1 -12   82.45    5.99   4
  -2   1  12   86.15    4.66   1
   1  -1 -12   95.21    6.45   4
   0  -1 -12   62.09    3.58   3
   0  -1 -12   58.58    5.80   4
  -7   2  12    1.02    1.48   1
  -6   2  12    5.94    1.94   1
  -5   2  12  176.48    8.39   1
   4  -2 -12    1.61    1.66   4
  -4   2  12    0.34    1.14   1
   3  -2 -12   83.72    6.11   4
  -3   2  12   81.23    4.78   1
   2  -2 -12  125.56    7.63   4
   1  -2 -12    4.92    1.96   4
  -6   3  12   -0.57    1.16   1
  -5   3  12    0.52    1.27   1
  -4   3  12   67.91    4.65   1
   3  -3 -12    6.19    2.28   4
  -3   3  12    8.97    1.97   1
   2  -3 -12   26.78    3.98   4
  -5   4  12   28.57    3.74   1
  -4   4  12   26.62    3.33   1
   4   5 -13   55.37    5.68   4
   3   5 -13   45.82    5.29   4
   2   5 -13    7.28    2.47   4
   2   5 -13    6.55    1.49   3
   5   4 -13  186.07    9.81   4
   4   4 -13   -0.33    1.39   4
   3   4 -13    8.87    2.54   4
   2   4 -13   61.26    6.02   4
   2   4 -13   59.14    3.23   3
   1   4 -13    2.73    1.82   4
   1   4 -13    2.45    1.15   3
   5   3 -13   34.05    4.63   4
   4   3 -13  114.34    7.44   4
   3   3 -13   25.45    4.02   4
   2   3 -13   -0.12    1.46   4
   1   3 -13   48.70    2.95   3
   1   3 -13   42.91    5.13   4
   5   2 -13    0.39    1.55   4
   4   2 -13  218.69   10.97   4
   3   2 -13    1.27    1.77   4
   2   2 -13    2.70    1.78   4
   1   2 -13  134.34    8.12   4
   6   1 -13    5.80    2.35   4
   5   1 -13   49.81    5.68   4
   4   1 -13   25.01    3.96   4
   3   1 -13    8.79    2.52   4
   2   1 -13   47.58    5.32   4
   1   1 -13   -0.13    1.59   4
   5   0 -13    2.99    2.07   4
   4   0 -13    6.27    2.48   4
   3   0 -13    0.61    1.54   4
   2   0 -13   30.93    4.34   4
   5  -1 -13   78.83    6.30   4
  -5   1  13   76.88    5.33   1
   4  -1 -13  120.89    7.94   4
  -4   1  13  135.45    6.90   1
   3  -1 -13    3.96    2.15   4
  -3   1  13    7.38    1.86   1
;
loop_
_symmetry_equiv_pos_as_xyz
'x, y, z'
'-x, -y, -z'
loop_
_atom_site_label
_atom_site_type_symbol
_atom_site_fract_x
_atom_site_fract_y
_atom_site_fract_z
_atom_site_U_iso_or_equiv
_atom_site_adp_type
_atom_site_occupancy
_atom_site_symmetry_multiplicity
_atom_site_calc_flag
_atom_site_refinement_flags
C1 C 0.2640(2) 0.78838(14) 1.09406(14) 0.0212(3) Uani 1 1 d .
H1 H 0.3491 0.8144 1.1965 0.025 Uiso 1 1 calc R
C2 C 0.2633(2) 0.92094(14) 1.04303(14) 0.0200(3) Uani 1 1 d .
H2A H 0.3987 0.9806 1.0731 0.024 Uiso 1 1 calc R
H2B H 0.196 0.9738 1.0865 0.024 Uiso 1 1 calc R
C3 C 0.1624(2) 0.88853(14) 0.88387(14) 0.0191(3) Uani 1 1 d .
H3A H 0.0226 0.8403 0.8551 0.023 Uiso 1 1 calc R
H3B H 0.1742 0.9773 0.8541 0.023 Uiso 1 1 calc R
N4 N 0.24516(16) 0.80012(11) 0.81229(11) 0.0164(2) Uani 1 1 d .
C5 C 0.14430(19) 0.77442(14) 0.66035(13) 0.0181(3) Uani 1 1 d .
H5A H 0.0032 0.7542 0.6365 0.022 Uiso 1 1 calc R
H5B H 0.1654 0.6907 0.6138 0.022 Uiso 1 1 calc R
C6 C 0.21152(19) 0.89633(14) 0.60386(14) 0.0183(3) Uani 1 1 d .
O7 O 0.34121(16) 1.00239(11) 0.66901(11) 0.0313(3) Uani 1 1 d .
O8 O 0.10314(14) 0.86885(10) 0.46566(10) 0.0199(2) Uani 1 1 d .
C9 C 0.1702(2) 0.96783(15) 0.39397(15) 0.0232(3) Uani 1 1 d .
H9A H 0.1689 1.0608 0.4349 0.035 Uiso 1 1 calc R
H9B H 0.0844 0.9387 0.294 0.035 Uiso 1 1 calc R
H9C H 0.3028 0.9711 0.4044 0.035 Uiso 1 1 calc R
C10 C 0.24014(19) 0.66698(13) 0.85470(13) 0.0164(3) Uani 1 1 d .
H10 H 0.1022 0.609 0.824 0.02 Uiso 1 1 calc R
C11 C 0.3430(2) 0.69627(15) 1.01487(14) 0.0204(3) Uani 1 1 d .
H11A H 0.3287 0.6063 1.0422 0.024 Uiso 1 1 calc R
H11B H 0.4832 0.7423 1.0429 0.024 Uiso 1 1 calc R
C12 C 0.34403(19) 0.58754(14) 0.78683(13) 0.0166(3) Uani 1 1 d .
C13 C 0.5211(2) 0.65811(15) 0.78504(16) 0.0234(3) Uani 1 1 d .
H13 H 0.5761 0.7557 0.8268 0.028 Uiso 1 1 calc R
C14 C 0.6179(2) 0.58815(15) 0.72341(15) 0.0225(3) Uani 1 1 d .
H14 H 0.738 0.6366 0.7218 0.027 Uiso 1 1 calc R
C15 C 0.53522(19) 0.44575(14) 0.66404(13) 0.0176(3) Uani 1 1 d .
C16 C 0.3620(2) 0.37133(14) 0.66625(14) 0.0194(3) Uani 1 1 d .
H16 H 0.31 0.2732 0.6269 0.023 Uiso 1 1 calc R
C17 C 0.26595(19) 0.44369(14) 0.72746(14) 0.0185(3) Uani 1 1 d .
H17 H 0.1459 0.3947 0.7289 0.022 Uiso 1 1 calc R
N18 N 0.63486(17) 0.37271(12) 0.59365(12) 0.0205(2) Uani 1 1 d .
O19 O 0.78852(15) 0.44100(12) 0.59338(12) 0.0293(3) Uani 1 1 d .
O20 O 0.55744(17) 0.24765(11) 0.53639(13) 0.0328(3) Uani 1 1 d .
Cl1 Cl 0.01843(6) 0.69300(4) 1.06905(4) 0.03103(12) Uani 1 1 d .
loop_
_atom_site_aniso_label
_atom_site_aniso_U_11
_atom_site_aniso_U_22
_atom_site_aniso_U_33
_atom_site_aniso_U_23
_atom_site_aniso_U_13
_atom_site_aniso_U_12
C1 0.0241(7) 0.0213(7) 0.0148(6) 0.0024(5) 0.0084(5) 0.0008(6)
C2 0.0240(7) 0.0181(7) 0.0171(6) 0.0009(5) 0.0099(5) 0.0040(5)
C3 0.0224(7) 0.0177(6) 0.0175(6) 0.0029(5) 0.0083(5) 0.0070(5)
N4 0.0212(6) 0.0161(5) 0.0123(5) 0.0031(4) 0.0068(4) 0.0062(4)
C5 0.0205(6) 0.0179(6) 0.0135(6) 0.0029(5) 0.0052(5) 0.0042(5)
C6 0.0193(6) 0.0206(7) 0.0149(6) 0.0040(5) 0.0063(5) 0.0070(5)
O7 0.0336(6) 0.0272(6) 0.0189(5) 0.0059(4) 0.0031(4) -0.0053(5)
O8 0.0226(5) 0.0212(5) 0.0136(4) 0.0048(4) 0.0056(4) 0.0044(4)
C9 0.0314(8) 0.0237(7) 0.0180(7) 0.0090(6) 0.0113(6) 0.0098(6)
C10 0.0184(6) 0.0161(6) 0.0149(6) 0.0033(5) 0.0073(5) 0.0044(5)
C11 0.0248(7) 0.0207(7) 0.0156(6) 0.0061(5) 0.0072(5) 0.0067(6)
C12 0.0185(6) 0.0183(6) 0.0133(6) 0.0053(5) 0.0057(5) 0.0063(5)
C13 0.0222(7) 0.0154(6) 0.0287(7) -0.0002(6) 0.0104(6) 0.0018(5)
C14 0.0177(6) 0.0213(7) 0.0273(7) 0.0033(6) 0.0105(6) 0.0025(5)
C15 0.0200(6) 0.0204(7) 0.0142(6) 0.0049(5) 0.0067(5) 0.0092(5)
C16 0.0227(7) 0.0158(6) 0.0185(6) 0.0036(5) 0.0081(5) 0.0042(5)
C17 0.0186(6) 0.0182(6) 0.0187(6) 0.0049(5) 0.0086(5) 0.0032(5)
N18 0.0222(6) 0.0232(6) 0.0194(6) 0.0068(5) 0.0094(5) 0.0102(5)
O19 0.0221(5) 0.0334(6) 0.0334(6) 0.0027(5) 0.0154(5) 0.0066(5)
O20 0.0410(7) 0.0198(5) 0.0444(7) 0.0030(5) 0.0264(6) 0.0099(5)
Cl1 0.0347(2) 0.0269(2) 0.0305(2) 0.00069(15) 0.02185(17) -0.00241(15)
loop_
_atom_type_symbol
_atom_type_description
_atom_type_scat_dispersion_real
_atom_type_scat_dispersion_imag
_atom_type_scat_source
C C 0.0033 0.0016 'International Tables Vol C Tables 4.2.6.8 and 6.1.1.4'
H H 0 0 'International Tables Vol C Tables 4.2.6.8 and 6.1.1.4'
Cl Cl 0.1484 0.1585 'International Tables Vol C Tables 4.2.6.8 and 6.1.1.4'
N N 0.0061 0.0033 'International Tables Vol C Tables 4.2.6.8 and 6.1.1.4'
O O 0.0106 0.006 'International Tables Vol C Tables 4.2.6.8 and 6.1.1.4'
loop_
_geom_angle_atom_site_label_1
_geom_angle_atom_site_label_2
_geom_angle_atom_site_label_3
_geom_angle
C2 C1 C11 110.36(11)
C2 C1 Cl1 109.93(10)
C11 C1 Cl1 109.82(9)
C2 C1 H1 108.9
C11 C1 H1 108.9
Cl1 C1 H1 108.9
C1 C2 C3 111.56(11)
C1 C2 H2A 109.3
C3 C2 H2A 109.3
C1 C2 H2B 109.3
C3 C2 H2B 109.3
H2A C2 H2B 108
N4 C3 C2 112.24(11)
N4 C3 H3A 109.2
C2 C3 H3A 109.2
N4 C3 H3B 109.2
C2 C3 H3B 109.2
H3A C3 H3B 107.9
C5 N4 C3 109.58(10)
C5 N4 C10 110.84(10)
C3 N4 C10 112.81(10)
N4 C5 C6 112.96(11)
N4 C5 H5A 109
C6 C5 H5A 109
N4 C5 H5B 109
C6 C5 H5B 109
H5A C5 H5B 107.8
O7 C6 O8 123.77(12)
O7 C6 C5 126.78(12)
O8 C6 C5 109.45(11)
C6 O8 C9 115.11(11)
O8 C9 H9A 109.5
O8 C9 H9B 109.5
H9A C9 H9B 109.5
O8 C9 H9C 109.5
H9A C9 H9C 109.5
H9B C9 H9C 109.5
N4 C10 C12 109.75(10)
N4 C10 C11 109.98(10)
C12 C10 C11 108.63(11)
N4 C10 H10 109.5
C12 C10 H10 109.5
C11 C10 H10 109.5
C1 C11 C10 113.17(11)
C1 C11 H11A 108.9
C10 C11 H11A 108.9
C1 C11 H11B 108.9
C10 C11 H11B 108.9
H11A C11 H11B 107.8
C13 C12 C17 119.13(12)
C13 C12 C10 119.99(12)
C17 C12 C10 120.87(12)
C14 C13 C12 121.02(13)
C14 C13 H13 119.5
C12 C13 H13 119.5
C13 C14 C15 118.35(13)
C13 C14 H14 120.8
C15 C14 H14 120.8
C16 C15 C14 122.44(12)
C16 C15 N18 119.39(12)
C14 C15 N18 118.16(12)
C15 C16 C17 118.36(12)
C15 C16 H16 120.8
C17 C16 H16 120.8
C16 C17 C12 120.68(12)
C16 C17 H17 119.7
C12 C17 H17 119.7
O20 N18 O19 123.84(12)
O20 N18 C15 118.01(11)
O19 N18 C15 118.14(11)
loop_
_geom_bond_atom_site_label_1
_geom_bond_atom_site_label_2
_geom_bond_distance
C1 C2 1.5185(19)
C1 C11 1.5192(19)
C1 Cl1 1.8239(14)
C1 H1 1
C2 C3 1.5211(18)
C2 H2A 0.99
C2 H2B 0.99
C3 N4 1.4708(17)
C3 H3A 0.99
C3 H3B 0.99
N4 C5 1.4600(16)
N4 C10 1.4785(16)
C5 C6 1.5102(18)
C5 H5A 0.99
C5 H5B 0.99
C6 O7 1.2001(17)
C6 O8 1.3441(16)
O8 C9 1.4461(16)
C9 H9A 0.98
C9 H9B 0.98
C9 H9C 0.98
C10 C12 1.5206(18)
C10 C11 1.5342(18)
C10 H10 1
C11 H11A 0.99
C11 H11B 0.99
C12 C13 1.3952(19)
C12 C17 1.3959(19)
C13 C14 1.383(2)
C13 H13 0.95
C14 C15 1.3848(19)
C14 H14 0.95
C15 C16 1.3840(19)
C15 N18 1.4730(17)
C16 C17 1.3901(19)
C16 H16 0.95
C17 H17 0.95
N18 O20 1.2271(16)
N18 O19 1.2278(15)
loop_
_geom_torsion_atom_site_label_1
_geom_torsion_atom_site_label_2
_geom_torsion_atom_site_label_3
_geom_torsion_atom_site_label_4
_geom_torsion
C11 C1 C2 C3 51.67(15)
Cl1 C1 C2 C3 -69.61(12)
C1 C2 C3 N4 -54.31(15)
C2 C3 N4 C5 -179.23(11)
C2 C3 N4 C10 56.76(14)
C3 N4 C5 C6 78.72(13)
C10 N4 C5 C6 -156.12(11)
N4 C5 C6 O7 4.6(2)
N4 C5 C6 O8 -175.70(10)
O7 C6 O8 C9 8.45(19)
C5 C6 O8 C9 -171.31(11)
C5 N4 C10 C12 61.78(13)
C3 N4 C10 C12 -174.91(10)
C5 N4 C10 C11 -178.77(10)
C3 N4 C10 C11 -55.46(14)
C2 C1 C11 C10 -52.50(15)
Cl1 C1 C11 C10 68.84(13)
N4 C10 C11 C1 53.95(15)
C12 C10 C11 C1 174.08(11)
N4 C10 C12 C13 44.04(16)
C11 C10 C12 C13 -76.24(15)
N4 C10 C12 C17 -136.83(12)
C11 C10 C12 C17 102.89(14)
C17 C12 C13 C14 1.1(2)
C10 C12 C13 C14 -179.73(13)
C12 C13 C14 C15 -0.4(2)
C13 C14 C15 C16 -1.0(2)
C13 C14 C15 N18 177.64(12)
C14 C15 C16 C17 1.6(2)
N18 C15 C16 C17 -177.01(11)
C15 C16 C17 C12 -0.9(2)
C13 C12 C17 C16 -0.5(2)
C10 C12 C17 C16 -179.62(12)
C16 C15 N18 O20 1.50(18)
C14 C15 N18 O20 -177.21(13)
C16 C15 N18 O19 -179.86(12)
C14 C15 N18 O19 1.43(18)
