#------------------------------------------------------------------------------
#$Date: 2015-10-06 16:42:30 +0300 (Tue, 06 Oct 2015) $
#$Revision: 160552 $
#$URL: svn://www.crystallography.net/cod/cif/4/03/15/4031525.cif $
#------------------------------------------------------------------------------
#
# This file is available in the Crystallography Open Database (COD),
# http://www.crystallography.net/
#
# All data on this site have been placed in the public domain by the
# contributors.
#
data_4031525
loop_
_publ_author_name
'Provencher, Philip A.'
'Love, Jennifer A.'
_publ_section_title
;
 Synthesis and Performance of a Biomimetic Indicator for Alkylating
 Agents.
;
_journal_issue                   19
_journal_name_full               'The Journal of organic chemistry'
_journal_page_first              9603
_journal_page_last               9609
_journal_paper_doi               10.1021/acs.joc.5b01584
_journal_volume                  80
_journal_year                    2015
_chemical_formula_moiety         'C13 H11 N2 O3, Cl'
_chemical_formula_sum            'C13 H11 Cl N2 O3'
_chemical_formula_weight         278.69
_chemical_name_systematic
;
 ?
;
_space_group_crystal_system      triclinic
_space_group_IT_number           2
_space_group_name_Hall           '-P 1'
_space_group_name_H-M_alt        'P -1'
_symmetry_space_group_name_Hall  '-P 1'
_symmetry_space_group_name_H-M   'P -1'
_atom_sites_solution_hydrogens   mixed
_atom_sites_solution_primary     direct
_audit_creation_date             2013-09-11
_audit_creation_method
;
  Olex2 1.2
  (compiled Apr 23 2013 17:59:47, GUI svn.r4466)
;
_cell_angle_alpha                92.8180(10)
_cell_angle_beta                 104.129(2)
_cell_angle_gamma                113.8020(10)
_cell_formula_units_Z            2
_cell_length_a                   7.5626(4)
_cell_length_b                   8.2241(4)
_cell_length_c                   11.3238(6)
_cell_measurement_reflns_used    8666
_cell_measurement_temperature    90
_cell_measurement_theta_max      30.07
_cell_measurement_theta_min      2.75
_cell_volume                     616.18(6)
_computing_data_reduction        'SAINT v8.27B (Bruker, 2012)'
_computing_molecular_graphics
;
O. V. Dolomanov, L. J. Bourhis, R. J. Gildea, J. A. K. Howard and H. Puschmann,
OLEX2: a complete structure solution, refinement and analysis program.
J. Appl. Cryst. (2009). 42, 339-341.
;
_computing_publication_material
;
O. V. Dolomanov, L. J. Bourhis, R. J. Gildea, J. A. K. Howard and H. Puschmann,
OLEX2: a complete structure solution, refinement and analysis program.
J. Appl. Cryst. (2009). 42, 339-341.
;
_computing_structure_refinement
;
XL, G.M. Sheldrick, Acta Cryst.
(2008). A64, 112-122
;
_computing_structure_solution
;
XS, G.M. Sheldrick, Acta Cryst.
(2008). A64, 112-122
;
_diffrn_ambient_temperature      90
_diffrn_measured_fraction_theta_full 1.000
_diffrn_measured_fraction_theta_max 0.998
_diffrn_measurement_device_type  'Bruker APEX-II CCD'
_diffrn_measurement_method       '\f and \w scans'
_diffrn_radiation_monochromator  graphite
_diffrn_radiation_type           MoK\a
_diffrn_radiation_wavelength     0.71069
_diffrn_reflns_av_R_equivalents  0.0193
_diffrn_reflns_av_unetI/netI     0.0188
_diffrn_reflns_laue_measured_fraction_full 1.000
_diffrn_reflns_laue_measured_fraction_max 0.998
_diffrn_reflns_limit_h_max       10
_diffrn_reflns_limit_h_min       -10
_diffrn_reflns_limit_k_max       11
_diffrn_reflns_limit_k_min       -11
_diffrn_reflns_limit_l_max       15
_diffrn_reflns_limit_l_min       -15
_diffrn_reflns_number            12004
_diffrn_reflns_point_group_measured_fraction_full 1.000
_diffrn_reflns_point_group_measured_fraction_max 0.998
_diffrn_reflns_theta_full        25.240
_diffrn_reflns_theta_max         30.089
_diffrn_reflns_theta_min         1.881
_diffrn_standards_number         0
_exptl_absorpt_coefficient_mu    0.315
_exptl_absorpt_correction_T_max  0.963
_exptl_absorpt_correction_T_min  0.898
_exptl_absorpt_correction_type   multi-scan
_exptl_absorpt_process_details
;
SADABS-2012/1 (Bruker,2012) was used for absorption correction.
wR2(int) was 0.0386 before and 0.0325 after correction.
The Ratio of minimum to maximum transmission is 0.9328.
The \l/2 correction factor is 0.0015.
;
_exptl_crystal_colour            orange
_exptl_crystal_colour_primary    orange
_exptl_crystal_density_diffrn    1.502
_exptl_crystal_description       irregular
_exptl_crystal_F_000             288
_exptl_crystal_size_max          0.37
_exptl_crystal_size_mid          0.31
_exptl_crystal_size_min          0.12
_refine_diff_density_max         0.549
_refine_diff_density_min         -0.207
_refine_diff_density_rms         0.064
_refine_ls_extinction_method     none
_refine_ls_goodness_of_fit_ref   1.042
_refine_ls_hydrogen_treatment    mixed
_refine_ls_matrix_type           full
_refine_ls_number_parameters     176
_refine_ls_number_reflns         3622
_refine_ls_number_restraints     0
_refine_ls_restrained_S_all      1.042
_refine_ls_R_factor_all          0.0405
_refine_ls_R_factor_gt           0.0364
_refine_ls_shift/su_max          0.001
_refine_ls_shift/su_mean         0.000
_refine_ls_structure_factor_coef Fsqd
_refine_ls_weighting_details
'w=1/[\s^2^(Fo^2^)+(0.0497P)^2^+0.3507P] where P=(Fo^2^+2Fc^2^)/3'
_refine_ls_weighting_scheme      calc
_refine_ls_wR_factor_gt          0.0950
_refine_ls_wR_factor_ref         0.0983
_reflns_Friedel_coverage         0.000
_reflns_number_gt                3267
_reflns_number_total             3622
_reflns_threshold_expression     'I > 2\s(I)'
_cod_data_source_file            jo5b01584_si_002.cif
_cod_data_source_block           jl098
_cod_depositor_comments          'Adding full bibliography for 4031525.cif.'
_cod_database_code               4031525
_olex2_refinement_description
;
1. Fixed Uiso
 At 1.2 times of:
  All C(H) groups, All C(H,H) groups
2.a Secondary CH2 refined with riding coordinates:
 C7(H7A,H7B)
2.b Aromatic/amide H refined with riding coordinates:
 C1(H1), C4(H4), C5(H5), C9(H9), C10(H10), C11(H11), C12(H12), C13(H13)
;
_shelx_hkl_checksum              45749
_shelx_hkl_file
;
  -1   0   0    6.79    0.15
  -1   0   0    6.77    0.16
  -1   0   0    6.27    0.15
  -1   0   0    6.65    0.15
   1   0   0    6.62    0.15
   1   0   0    6.73    0.16
   1   0   0    6.60    0.15
   1   0   0    6.53    0.15
   1   0   0    6.68    0.15
  -2   0   0    7.57    0.19
  -2   0   0    6.93    0.19
  -2   0   0    7.31    0.20
  -2   0   0    6.85    0.19
  -2   0   0    7.34    0.19
   2   0   0    7.29    0.20
   2   0   0    7.21    0.19
   2   0   0    7.00    0.19
   2   0   0    7.08    0.19
   2   0   0    7.03    0.19
  -3   0   0    0.66    0.07
  -3   0   0    0.72    0.07
  -3   0   0    0.74    0.08
   3   0   0    0.64    0.07
   3   0   0    0.72    0.07
  -4   0   0   72.89    1.42
  -4   0   0   69.79    1.51
   4   0   0   71.35    1.45
   4   0   0   70.69    1.42
  -5   0   0    8.12    0.28
  -5   0   0    7.91    0.29
   5   0   0    7.74    0.28
   5   0   0    8.20    0.28
  -6   0   0   22.24    0.59
  -6   0   0   21.92    0.62
   6   0   0   21.59    0.59
   6   0   0   21.85    0.59
  -7   0   0   14.81    0.50
  -7   0   0   13.84    0.46
   7   0   0   14.02    0.47
   7   0   0   15.00    0.48
  -8   0   0    1.83    0.20
  -8   0   0    1.80    0.21
   8   0   0    1.70    0.20
  -9   0   0    0.31    0.12
  -9   0   0    0.39    0.13
   9   0   0    0.44    0.14
   9  -1   0   16.74    0.58
  -9   1   0   15.86    0.60
  -9   1   0   17.05    0.58
   8  -1   0   14.60    0.50
  -8   1   0   14.56    0.53
  -8   1   0   14.64    0.49
   7  -1   0    0.08    0.07
  -7   1   0   -0.06    0.05
  -7   1   0    0.01    0.07
   6  -1   0    0.07    0.06
  -6   1   0    0.37    0.09
  -6   1   0    0.24    0.07
   5  -1   0   33.58    0.76
  -5   1   0   33.36    0.81
  -5   1   0   33.86    0.75
   4  -1   0    0.10    0.04
   4  -1   0    0.02    0.04
  -4   1   0    0.03    0.04
  -4   1   0    0.07    0.04
  -4   1   0    0.01    0.03
   3  -1   0  241.83    4.83
   3  -1   0  246.67    4.64
  -3   1   0  246.32    5.07
  -3   1   0  247.44    4.59
  -3   1   0  244.22    4.79
   2  -1   0    0.34    0.05
   2  -1   0    0.28    0.04
   2  -1   0    0.41    0.04
  -2   1   0    0.23    0.04
  -2   1   0    0.27    0.03
  -2   1   0    0.28    0.04
  -2   1   0    0.26    0.05
  -2   1   0    0.16    0.04
   1  -1   0    2.66    0.08
   1  -1   0    2.50    0.06
   1  -1   0    2.61    0.07
   1  -1   0    2.52    0.07
  -1   1   0    2.42    0.08
  -1   1   0    2.49    0.06
  -1   1   0    2.69    0.07
  -1   1   0    2.49    0.07
   0  -1   0   54.53    1.06
   0  -1   0   55.58    1.03
   0  -1   0   56.15    1.08
   0  -1   0   56.12    1.19
   0   1   0   53.40    1.05
   0   1   0   53.99    1.06
   0   1   0   56.51    1.02
  -1  -1   0    0.06    0.03
  -1  -1   0    0.03    0.02
  -1  -1   0    0.01    0.02
  -1  -1   0    0.04    0.02
   1   1   0    0.05    0.02
   1   1   0    0.05    0.02
   1   1   0    0.06    0.03
   1   1   0    0.03    0.02
  -2  -1   0   50.73    0.99
  -2  -1   0   50.31    0.98
  -2  -1   0   50.25    1.04
   2   1   0   49.29    1.01
   2   1   0   50.19    0.98
   2   1   0   51.11    1.05
  -3  -1   0   32.97    0.76
  -3  -1   0   34.47    0.72
   3   1   0   33.96    0.72
   3   1   0   34.14    0.74
  -4  -1   0    4.99    0.20
  -4  -1   0    4.88    0.20
   4   1   0    4.85    0.20
   4   1   0    5.05    0.20
  -5  -1   0    0.04    0.05
  -5  -1   0    0.11    0.06
   5   1   0    0.14    0.06
   5   1   0    0.08    0.06
  -6  -1   0    1.16    0.14
  -6  -1   0    1.12    0.14
   6   1   0    1.12    0.14
   6   1   0    0.85    0.13
  -7  -1   0    0.12    0.08
   7   1   0    0.17    0.09
   7   1   0    0.15    0.09
  -8  -1   0    0.35    0.12
  -8  -1   0    0.30    0.11
   8   1   0    0.47    0.13
   8   1   0    0.55    0.14
   9  -2   0    0.08    0.10
  -9   2   0   -0.08    0.08
  -9   2   0    0.11    0.09
   8  -2   0    0.48    0.11
  -8   2   0    0.71    0.12
  -8   2   0    0.70    0.13
   7  -2   0    0.53    0.10
  -7   2   0    0.59    0.12
  -7   2   0    0.66    0.11
   6  -2   0    0.10    0.06
  -6   2   0    0.00    0.05
  -6   2   0    0.07    0.05
   5  -2   0   13.09    0.36
  -5   2   0   12.30    0.38
  -5   2   0   12.54    0.32
  -5   2   0   13.01    0.35
   4  -2   0   22.56    0.52
   4  -2   0   23.72    0.49
  -4   2   0   23.03    0.49
  -4   2   0   22.25    0.56
  -4   2   0   23.55    0.52
   3  -2   0    0.46    0.06
   3  -2   0    0.57    0.04
   3  -2   0    0.51    0.05
  -3   2   0    0.48    0.05
  -3   2   0    0.55    0.04
  -3   2   0    0.51    0.07
   2  -2   0    0.11    0.03
   2  -2   0    0.23    0.04
   2  -2   0    0.13    0.02
   2  -2   0    0.16    0.03
  -2   2   0    0.38    0.05
  -2   2   0    0.11    0.03
  -2   2   0    0.11    0.02
  -2   2   0    0.13    0.03
   1  -2   0    7.39    0.19
   1  -2   0    7.19    0.16
   1  -2   0    7.10    0.16
  -1   2   0    7.19    0.15
  -1   2   0    7.50    0.19
  -1   2   0    7.09    0.17
  -1   2   0    7.49    0.15
   0  -2   0  233.38    4.46
   0  -2   0  225.52    4.37
   0  -2   0  237.52    4.60
   0  -2   0  228.46    5.12
   0   2   0  227.33    4.42
   0   2   0  228.10    4.49
   0   2   0  231.03    4.36
  -1  -2   0   19.48    0.40
  -1  -2   0   17.31    0.42
  -1  -2   0   18.73    0.40
  -1  -2   0   19.62    0.42
   1   2   0   19.98    0.42
   1   2   0   19.00    0.40
   1   2   0   18.76    0.40
   1   2   0   18.69    0.42
  -2  -2   0    1.10    0.08
  -2  -2   0    1.27    0.08
   2   2   0    1.04    0.08
  -3  -2   0    0.40    0.06
  -3  -2   0    0.44    0.07
   3   2   0    0.50    0.08
   3   2   0    0.45    0.07
  -4  -2   0    0.01    0.04
  -4  -2   0    0.05    0.05
   4   2   0    0.07    0.05
   4   2   0   -0.02    0.04
  -5  -2   0    7.39    0.29
  -5  -2   0    7.64    0.29
   5   2   0    7.43    0.29
   5   2   0    7.74    0.29
  -6  -2   0    9.09    0.36
  -6  -2   0    9.00    0.36
   6   2   0    8.96    0.36
   6   2   0   10.05    0.37
  -7  -2   0    3.07    0.24
  -7  -2   0    3.19    0.24
   7   2   0    3.45    0.24
   7   2   0    3.15    0.24
  -8  -2   0    2.27    0.24
  -8  -2   0    1.80    0.23
   8   2   0    1.81    0.23
   8   2   0    1.72    0.21
  10  -3   0    0.13    0.11
 -10   3   0    0.19    0.12
   9  -3   0    2.51    0.23
  -9   3   0    2.08    0.20
  -9   3   0    2.38    0.24
   8  -3   0    9.56    0.37
  -8   3   0    9.80    0.41
  -8   3   0    9.53    0.36
   7  -3   0    1.80    0.16
  -7   3   0    1.97    0.18
  -7   3   0    1.90    0.16
   6  -3   0    0.80    0.11
  -6   3   0    0.91    0.12
  -6   3   0    0.93    0.11
   5  -3   0   17.57    0.39
   5  -3   0   17.75    0.44
  -5   3   0   17.40    0.43
  -5   3   0   16.80    0.39
  -5   3   0   17.55    0.48
   4  -3   0   67.27    1.34
   4  -3   0   70.99    1.33
  -4   3   0   67.94    1.46
  -4   3   0   68.48    1.33
  -4   3   0   69.06    1.33
   3  -3   0    1.04    0.07
   3  -3   0    1.17    0.07
  -3   3   0    1.10    0.08
  -3   3   0    1.05    0.07
  -3   3   0    1.17    0.04
  -3   3   0    1.09    0.06
   2  -3   0    5.85    0.17
   2  -3   0    6.26    0.15
   2  -3   0    6.04    0.15
   2  -3   0    6.23    0.18
  -2   3   0    6.13    0.14
  -2   3   0    5.98    0.17
  -2   3   0    5.96    0.17
  -2   3   0    6.04    0.14
   1  -3   0    0.01    0.03
   1  -3   0    0.05    0.02
   1  -3   0    0.01    0.02
  -1   3   0    0.02    0.02
  -1   3   0    0.05    0.01
  -1   3   0    0.10    0.02
  -1   3   0    0.05    0.03
  -1   3   0    0.23    0.04
   0  -3   0  126.67    2.29
   0  -3   0  122.74    2.29
   0  -3   0  120.04    2.60
   0   3   0  123.39    2.28
   0   3   0  123.41    2.28
   0   3   0  127.47    2.44
   0   3   0  124.44    2.39
  -1  -3   0    8.82    0.23
  -1  -3   0    8.34    0.22
   1   3   0    8.50    0.22
   1   3   0    8.31    0.24
   1   3   0    9.10    0.22
  -2  -3   0    8.33    0.24
  -2  -3   0    8.39    0.24
   2   3   0    8.06    0.25
   2   3   0    8.21    0.24
  -3  -3   0   14.51    0.39
  -3  -3   0   14.71    0.39
   3   3   0   14.58    0.40
   3   3   0   14.78    0.39
  -4  -3   0   26.46    0.66
  -4  -3   0   27.22    0.67
   4   3   0   27.06    0.65
   4   3   0   27.37    0.67
  -5  -3   0    9.59    0.35
  -5  -3   0    9.48    0.35
   5   3   0    9.44    0.35
   5   3   0    9.39    0.34
  -6  -3   0    5.37    0.28
  -6  -3   0    5.32    0.28
   6   3   0    5.34    0.28
   6   3   0    5.37    0.29
  -7  -3   0    1.52    0.19
  -7  -3   0    1.58    0.20
   7   3   0    1.85    0.21
   7   3   0    1.36    0.19
  10  -4   0    2.90    0.26
 -10   4   0    3.21    0.29
   9  -4   0    9.43    0.40
  -9   4   0    9.85    0.44
   8  -4   0    6.54    0.30
  -8   4   0    6.22    0.28
  -8   4   0    6.61    0.33
   7  -4   0   16.65    0.47
  -7   4   0   16.12    0.46
  -7   4   0   16.40    0.53
   6  -4   0    0.91    0.11
  -6   4   0    1.26    0.13
  -6   4   0    1.14    0.11
   5  -4   0    2.55    0.09
   5  -4   0    2.60    0.13
  -5   4   0    2.20    0.12
  -5   4   0    2.45    0.08
  -5   4   0    2.42    0.15
   4  -4   0   25.13    0.55
   4  -4   0   26.26    0.55
  -4   4   0   25.22    0.50
  -4   4   0   25.04    0.53
  -4   4   0   24.49    0.61
   3  -4   0  182.91    3.30
   3  -4   0  178.40    3.30
  -3   4   0  178.44    3.71
  -3   4   0  175.08    3.57
  -3   4   0  179.88    3.29
  -3   4   0  180.88    3.38
   2  -4   0   21.87    0.53
   2  -4   0   22.01    0.45
   2  -4   0   22.56    0.45
  -2   4   0   21.96    0.50
  -2   4   0   23.51    0.54
  -2   4   0   22.59    0.44
  -2   4   0   21.62    0.43
   1  -4   0   18.77    0.48
   1  -4   0   19.29    0.40
   1  -4   0   18.91    0.39
  -1   4   0   19.04    0.42
  -1   4   0   19.13    0.46
  -1   4   0   19.30    0.38
  -1   4   0   19.94    0.38
   0  -4   0    4.99    0.15
   0  -4   0    5.19    0.15
   0  -4   0    4.80    0.19
   0   4   0    5.31    0.15
   0   4   0    5.16    0.18
   0   4   0    5.05    0.14
  -1  -4   0    3.87    0.14
  -1  -4   0    3.65    0.14
  -1  -4   0    3.56    0.18
   1   4   0    3.70    0.14
   1   4   0    3.67    0.13
   1   4   0    3.44    0.16
  -2  -4   0    0.07    0.04
   2   4   0    0.12    0.04
   2   4   0    0.24    0.06
  -3  -4   0   23.21    0.55
  -3  -4   0   21.30    0.54
   3   4   0   21.85    0.54
   3   4   0   21.32    0.56
  -4  -4   0    0.40    0.08
  -4  -4   0    0.22    0.07
   4   4   0    0.24    0.08
   4   4   0    0.20    0.07
  -5  -4   0    0.21    0.08
  -5  -4   0    0.33    0.08
   5   4   0    0.17    0.07
   5   4   0    0.15    0.08
  -6  -4   0    0.45    0.11
  -6  -4   0    0.44    0.11
   6   4   0    0.52    0.12
  -7  -4   0    0.73    0.15
  -7  -4   0    0.92    0.19
   7   4   0    1.18    0.19
  10  -5   0    7.17    0.37
 -10   5   0    6.25    0.39
   9  -5   0   12.84    0.46
  -9   5   0   12.21    0.50
   8  -5   0   -0.07    0.06
  -8   5   0   -0.03    0.07
   7  -5   0   17.34    0.50
  -7   5   0   17.94    0.48
  -7   5   0   19.00    0.57
   6  -5   0   14.47    0.40
  -6   5   0   14.94    0.46
  -6   5   0   14.17    0.38
   5  -5   0   11.86    0.32
  -5   5   0   11.83    0.37
  -5   5   0   11.88    0.25
  -5   5   0   12.33    0.31
   4  -5   0    0.77    0.07
   4  -5   0    0.81    0.07
  -4   5   0    0.67    0.06
  -4   5   0    0.74    0.09
  -4   5   0    0.78    0.05
   3  -5   0    5.39    0.16
   3  -5   0    5.97    0.16
   3  -5   0    5.15    0.19
  -3   5   0    5.43    0.14
  -3   5   0    5.59    0.19
   2  -5   0    3.51    0.11
   2  -5   0    3.34    0.11
   2  -5   0    3.25    0.15
  -2   5   0    3.67    0.17
  -2   5   0    3.38    0.13
  -2   5   0    3.40    0.09
   1  -5   0   28.20    0.57
   1  -5   0   27.63    0.68
   1  -5   0   27.92    0.57
  -1   5   0   27.56    0.55
  -1   5   0   27.87    0.60
   0  -5   0    2.59    0.11
   0  -5   0    2.59    0.11
   0  -5   0    2.60    0.16
   0   5   0    2.71    0.10
   0   5   0    2.50    0.14
   0   5   0    2.81    0.10
  -1  -5   0   22.00    0.63
  -1  -5   0   23.43    0.53
   1   5   0   23.41    0.58
   1   5   0   23.47    0.51
  -2  -5   0    3.26    0.16
  -2  -5   0    3.30    0.21
   2   5   0    3.29    0.19
   2   5   0    3.52    0.16
  -3  -5   0   28.32    0.80
  -3  -5   0   27.65    0.68
   3   5   0   28.25    0.67
   3   5   0   28.36    0.72
  -4  -5   0    3.29    0.21
  -4  -5   0    2.72    0.24
   4   5   0    2.77    0.21
   4   5   0    2.96    0.21
  -5  -5   0    2.24    0.20
  -5  -5   0    2.08    0.24
   5   5   0    2.34    0.21
  -6  -5   0    4.89    0.30
  -6  -5   0    5.00    0.37
   6   5   0    4.98    0.31
  10  -6   0   15.21    0.54
 -10   6   0   15.29    0.60
   9  -6   0    1.94    0.20
  -9   6   0    1.80    0.22
   8  -6   0    1.04    0.15
  -8   6   0    1.41    0.18
   7  -6   0   32.58    0.76
  -7   6   0   31.56    0.84
   6  -6   0    1.83    0.13
  -6   6   0    1.69    0.15
   5  -6   0   12.42    0.33
  -5   6   0   12.81    0.31
  -5   6   0   12.55    0.26
  -5   6   0   12.24    0.38
   4  -6   0    1.05    0.08
   4  -6   0    0.95    0.08
  -4   6   0    1.01    0.06
  -4   6   0    0.96    0.10
  -4   6   0    0.98    0.06
   3  -6   0   46.19    0.90
   3  -6   0   45.97    1.05
   3  -6   0   45.41    0.90
  -3   6   0   44.79    0.99
  -3   6   0   46.00    0.86
   2  -6   0    3.91    0.13
   2  -6   0    3.84    0.13
   2  -6   0    3.69    0.18
  -2   6   0    3.83    0.19
  -2   6   0    3.69    0.14
  -2   6   0    3.93    0.10
   1  -6   0   45.75    0.90
   1  -6   0   44.38    0.90
   1  -6   0   45.79    1.07
  -1   6   0   43.89    0.94
  -1   6   0   45.22    1.00
  -1   6   0   45.05    0.86
   0  -6   0   70.39    1.40
   0  -6   0   70.07    1.63
   0  -6   0   73.56    1.40
   0   6   0   71.92    1.51
   0   6   0   71.90    1.37
  -1  -6   0    0.05    0.07
  -1  -6   0    0.10    0.05
   1   6   0    0.17    0.05
   1   6   0    0.04    0.06
  -2  -6   0    9.12    0.31
  -2  -6   0    9.68    0.39
   2   6   0    9.07    0.34
  -3  -6   0   19.44    0.54
  -3  -6   0   19.81    0.65
   3   6   0   19.96    0.58
  -4  -6   0    5.45    0.34
  -4  -6   0    5.38    0.28
   4   6   0    5.29    0.29
  -5  -6   0    5.12    0.36
  -5  -6   0    5.23    0.30
   5   6   0    5.79    0.33
  10  -7   0    3.05    0.26
 -10   7   0    3.81    0.31
   9  -7   0    0.37    0.10
  -9   7   0    0.46    0.13
   8  -7   0    2.08    0.18
  -8   7   0    2.40    0.22
   7  -7   0    5.99    0.25
  -7   7   0    5.81    0.29
   6  -7   0    3.25    0.16
  -6   7   0    3.08    0.19
   5  -7   0   16.08    0.40
  -5   7   0   16.01    0.46
   4  -7   0    0.34    0.05
  -4   7   0    0.26    0.06
  -4   7   0    0.33    0.05
   3  -7   0   15.96    0.36
   3  -7   0   15.46    0.45
  -3   7   0   15.05    0.46
  -3   7   0   15.45    0.40
   2  -7   0    0.13    0.06
   2  -7   0    0.05    0.03
  -2   7   0    0.01    0.06
  -2   7   0    0.08    0.04
   1  -7   0    2.56    0.19
   1  -7   0    3.01    0.13
  -1   7   0    2.89    0.18
  -1   7   0    2.78    0.11
   0  -7   0   17.06    0.55
   0  -7   0   17.83    0.44
   0   7   0   18.24    0.52
  -1  -7   0   16.54    0.45
  -1  -7   0   16.58    0.56
   1   7   0   17.91    0.52
  -2  -7   0    5.34    0.24
  -2  -7   0    5.30    0.31
   2   7   0    5.52    0.28
  -3  -7   0    0.09    0.11
  -3  -7   0    0.15    0.07
   3   7   0    0.25    0.10
  -4  -7   0    1.04    0.19
  -4  -7   0    1.32    0.17
   4   7   0    0.96    0.16
   9  -8   0    2.71    0.22
  -9   8   0    2.90    0.26
   8  -8   0    0.94    0.14
  -8   8   0    0.65    0.13
   7  -8   0    0.72    0.10
  -7   8   0    0.84    0.15
   6  -8   0    2.18    0.14
  -6   8   0    2.24    0.17
   5  -8   0   18.45    0.44
  -5   8   0   17.64    0.50
   4  -8   0    0.03    0.04
   4  -8   0    0.14    0.07
  -4   8   0    0.12    0.08
  -4   8   0    0.12    0.05
   3  -8   0    1.34    0.09
   3  -8   0    1.16    0.14
  -3   8   0    1.58    0.16
  -3   8   0    1.14    0.10
   2  -8   0    1.09    0.14
   2  -8   0    1.06    0.09
  -2   8   0    0.87    0.14
   1  -8   0   17.75    0.44
   1  -8   0   18.29    0.57
  -1   8   0   18.99    0.55
   0  -8   0    0.25    0.06
   0  -8   0    0.27    0.10
   0   8   0    0.43    0.11
  -1  -8   0    0.39    0.08
  -1  -8   0    0.41    0.12
   1   8   0    0.32    0.10
  -2  -8   0    1.40    0.15
  -2  -8   0    1.26    0.20
   2   8   0    1.48    0.19
  -3  -8   0    0.16    0.08
  -3  -8   0    0.21    0.12
   3   8   0    0.08    0.09
   9  -9   0    1.76    0.19
  -9   9   0    2.38    0.24
   8  -9   0    3.13    0.20
  -8   9   0    3.40    0.26
   7  -9   0    0.71    0.10
  -7   9   0    1.13    0.16
   6  -9   0    4.78    0.20
  -6   9   0    4.35    0.24
   5  -9   0    4.56    0.18
  -5   9   0    4.32    0.27
  -5   9   0    4.47    0.23
   4  -9   0   21.15    0.62
   4  -9   0   21.59    0.49
  -4   9   0   21.37    0.64
   3  -9   0    2.55    0.13
   3  -9   0    2.69    0.20
  -3   9   0    2.59    0.21
   2  -9   0    4.15    0.25
   2  -9   0    4.56    0.18
  -2   9   0    4.31    0.26
   1  -9   0    2.99    0.16
   1  -9   0    3.09    0.24
  -1   9   0    3.34    0.23
   0  -9   0    6.37    0.25
   0  -9   0    6.83    0.36
   0   9   0    6.48    0.33
  -1  -9   0   12.73    0.41
  -1  -9   0   12.59    0.53
   1   9   0   13.41    0.49
  -2  -9   0    2.97    0.29
  -2  -9   0    2.41    0.20
   2   9   0    2.57    0.24
   8 -10   0   -0.07    0.07
   7 -10   0    6.23    0.25
   6 -10   0    0.05    0.05
  -6  10   0   -0.02    0.08
   5 -10   0    0.22    0.06
  -5  10   0    0.39    0.12
   4 -10   0   -0.01    0.08
   4 -10   0    0.10    0.05
  -4  10   0    0.01    0.08
   3 -10   0   23.70    0.71
   3 -10   0   22.91    0.53
  -3  10   0   23.24    0.70
   2 -10   0    4.69    0.19
   2 -10   0    4.65    0.29
  -2  10   0    4.49    0.29
   1 -10   0    5.42    0.33
   1 -10   0    5.65    0.23
  -1  10   0    5.63    0.32
   0 -10   0    0.33    0.08
   0 -10   0    0.39    0.13
   0  10   0    0.20    0.11
  -7  11   0    0.05    0.11
  -6  11   0    0.97    0.17
  -5  11   0    0.10    0.11
  -4  11   0   12.42    0.50
  -3  11   0    4.19    0.30
   2 -11   0    3.16    0.27
  -2  11   0    2.93    0.27
  -2  11  -1    1.40    0.21
   2 -11   1    1.78    0.23
  -3  11  -1    0.07    0.09
   3 -11   1    0.04    0.10
  -4  11  -1    5.52    0.33
  -5  11  -1    0.13    0.10
  -6  11  -1    6.21    0.36
   1  10  -1    4.08    0.29
  -1 -10   1    4.47    0.23
  -1 -10   1    4.55    0.34
   0  10  -1    2.39    0.24
   0 -10   1    2.80    0.17
   0 -10   1    2.36    0.25
  -1  10  -1    0.57    0.13
   1 -10   1    0.81    0.16
   1 -10   1    0.73    0.10
  -2  10  -1    3.47    0.25
   2 -10   1    3.47    0.26
  -3  10  -1    2.58    0.23
   3 -10   1    2.62    0.22
  -4  10  -1    0.04    0.08
   4 -10   1    0.22    0.10
  -5  10  -1    0.21    0.11
  -6  10  -1    1.33    0.20
   7 -10   1    1.77    0.14
  -8  10  -1    0.89    0.16
   8 -10   1    1.23    0.15
   2   9  -1    2.51    0.24
  -2  -9   1    2.79    0.20
  -2  -9   1    2.74    0.28
   1   9  -1    0.79    0.14
  -1  -9   1    0.92    0.18
  -1  -9   1    0.86    0.12
   0   9  -1    6.69    0.33
   0  -9   1    7.24    0.36
   0  -9   1    6.60    0.24
  -1   9  -1    0.14    0.09
   1  -9   1    0.33    0.10
   1  -9   1    0.16    0.05
  -2   9  -1   12.49    0.45
   2  -9   1   12.79    0.32
   2  -9   1   13.55    0.48
  -3   9  -1    5.02    0.27
   3  -9   1    5.26    0.17
   3  -9   1    5.44    0.28
  -4   9  -1   17.92    0.57
  -4   9  -1   18.41    0.51
   4  -9   1   18.37    0.41
   4  -9   1   18.17    0.56
  -5   9  -1    0.41    0.09
   5  -9   1    0.38    0.06
  -6   9  -1    1.50    0.16
   6  -9   1    1.46    0.12
  -7   9  -1    1.64    0.19
   7  -9   1    1.80    0.15
  -8   9  -1    1.19    0.19
   8  -9   1    1.28    0.15
  -9   9  -1    0.65    0.15
   9  -9   1    0.67    0.12
   3   8  -1    2.89    0.24
  -3  -8   1    2.83    0.21
  -3  -8   1    2.71    0.27
   2   8  -1   -0.04    0.07
  -2  -8   1    0.08    0.10
  -2  -8   1    0.08    0.06
   1   8  -1   20.94    0.63
  -1  -8   1   22.77    0.55
  -1  -8   1   21.07    0.69
   0   8  -1    0.08    0.07
   0  -8   1    0.04    0.08
   0  -8   1    0.12    0.05
  -1   8  -1   15.09    0.48
   1  -8   1   15.96    0.38
   1  -8   1   15.97    0.53
  -2   8  -1   14.84    0.47
  -2   8  -1   14.87    0.40
   2  -8   1   15.15    0.35
   2  -8   1   14.69    0.48
  -3   8  -1   11.32    0.34
  -3   8  -1   12.47    0.41
   3  -8   1   11.90    0.41
   3  -8   1   11.63    0.28
  -4   8  -1    1.91    0.12
  -4   8  -1    1.82    0.14
   4  -8   1    2.04    0.11
  -5   8  -1    0.18    0.07
   5  -8   1    0.15    0.05
  -6   8  -1   20.34    0.60
   6  -8   1   20.53    0.50
  -7   8  -1    9.61    0.39
   7  -8   1    9.94    0.32
  -8   8  -1    2.03    0.21
   8  -8   1    2.17    0.18
  -9   8  -1    0.14    0.11
   9  -8   1    0.13    0.09
   4   7  -1    0.16    0.10
  -4  -7   1    0.19    0.12
  -4  -7   1    0.23    0.09
   3   7  -1    0.47    0.12
  -3  -7   1    0.60    0.11
  -3  -7   1    0.41    0.13
   2   7  -1   65.44    1.47
  -2  -7   1   66.34    1.63
  -2  -7   1   67.65    1.39
   1   7  -1   13.15    0.43
  -1  -7   1   13.02    0.37
  -1  -7   1   13.26    0.48
   0   7  -1    0.96    0.13
   0  -7   1    0.93    0.09
   0  -7   1    0.61    0.11
  -1   7  -1    0.08    0.04
  -1   7  -1   -0.03    0.05
   1  -7   1    0.08    0.03
   1  -7   1    0.05    0.07
  -2   7  -1    0.01    0.05
  -2   7  -1    0.04    0.04
   2  -7   1    0.01    0.03
   2  -7   1   -0.05    0.05
   2  -7   1    0.06    0.03
  -3   7  -1    6.22    0.26
  -3   7  -1    6.24    0.23
   3  -7   1    6.27    0.26
   3  -7   1    6.32    0.18
   3  -7   1    6.05    0.17
  -4   7  -1    0.91    0.11
  -4   7  -1    0.78    0.07
   4  -7   1    0.88    0.07
  -5   7  -1    3.07    0.12
  -5   7  -1    3.22    0.19
   5  -7   1    3.30    0.14
  -6   7  -1   -0.03    0.05
   6  -7   1    0.03    0.05
  -7   7  -1    0.02    0.07
   7  -7   1    0.12    0.06
  -8   7  -1    0.03    0.08
   8  -7   1    0.02    0.07
  -9   7  -1    0.45    0.13
   9  -7   1    0.38    0.11
   5   6  -1    0.24    0.12
  -5  -6   1    0.21    0.09
  -5  -6   1    0.29    0.13
   4   6  -1    0.89    0.14
  -4  -6   1    1.17    0.15
  -4  -6   1    1.38    0.21
   3   6  -1    4.48    0.24
  -3  -6   1    4.42    0.28
  -3  -6   1    4.29    0.22
   2   6  -1   12.82    0.40
  -2  -6   1   12.45    0.46
  -2  -6   1   12.21    0.36
   1   6  -1   32.09    0.76
  -1  -6   1   31.41    0.84
  -1  -6   1   31.71    0.69
   0   6  -1    0.04    0.02
   0   6  -1    0.08    0.05
   0  -6   1    0.02    0.03
   0  -6   1    0.07    0.03
   0  -6   1   -0.02    0.06
  -1   6  -1   21.24    0.55
   1  -6   1   21.79    0.46
   1  -6   1   22.04    0.46
   1  -6   1   22.27    0.59
  -2   6  -1   10.55    0.30
  -2   6  -1   11.36    0.34
   2  -6   1   10.62    0.24
   2  -6   1   10.61    0.34
   2  -6   1   10.71    0.24
  -3   6  -1    9.84    0.30
   3  -6   1    9.84    0.24
   3  -6   1   10.30    0.33
   3  -6   1   10.09    0.24
  -4   6  -1    1.74    0.06
  -4   6  -1    1.76    0.13
  -4   6  -1    1.85    0.09
   4  -6   1    1.92    0.10
   4  -6   1    1.88    0.10
  -5   6  -1   11.45    0.38
  -5   6  -1   11.67    0.27
   5  -6   1   11.81    0.31
  -6   6  -1   10.86    0.39
   6  -6   1   10.83    0.32
  -7   6  -1   17.42    0.56
   7  -6   1   17.86    0.49
  -8   6  -1    4.79    0.29
   8  -6   1    4.87    0.25
  -9   6  -1    2.85    0.27
   9  -6   1    2.59    0.23
 -10   6  -1    1.30    0.21
  10  -6   1    1.59    0.23
   6   5  -1   15.55    0.54
  -6  -5   1   14.25    0.61
  -6  -5   1   14.93    0.52
   5   5  -1    9.39    0.38
  -5  -5   1    9.28    0.44
  -5  -5   1    9.43    0.37
   4   5  -1    0.45    0.10
  -4  -5   1    0.59    0.10
  -4  -5   1    0.56    0.13
   3   5  -1   17.31    0.46
   3   5  -1   16.98    0.49
  -3  -5   1   18.34    0.48
  -3  -5   1   17.62    0.57
   2   5  -1   26.34    0.59
   2   5  -1   25.92    0.64
  -2  -5   1   25.96    0.72
  -2  -5   1   26.60    0.61
   1   5  -1   30.41    0.64
   1   5  -1   31.32    0.72
  -1  -5   1   29.88    0.79
  -1  -5   1   31.37    0.66
  -1  -5   1   31.49    0.66
   0   5  -1    1.90    0.13
   0   5  -1    2.18    0.08
   0  -5   1    2.01    0.09
   0  -5   1    2.16    0.09
   0  -5   1    2.19    0.15
  -1   5  -1   46.17    0.98
   1  -5   1   46.23    0.88
   1  -5   1   45.76    0.88
   1  -5   1   45.20    1.06
  -2   5  -1   -0.02    0.03
   2  -5   1    0.01    0.02
   2  -5   1    0.04    0.02
   2  -5   1    0.08    0.04
  -3   5  -1   30.77    0.72
  -3   5  -1   31.70    0.66
  -3   5  -1   31.99    0.59
   3  -5   1   31.34    0.63
   3  -5   1   32.31    0.63
  -4   5  -1    9.17    0.23
  -4   5  -1    9.42    0.23
  -4   5  -1    9.46    0.30
   4  -5   1    9.29    0.25
   4  -5   1    9.25    0.25
  -5   5  -1   18.75    0.53
  -5   5  -1   19.43    0.42
  -5   5  -1   19.61    0.44
   5  -5   1   19.38    0.46
  -6   5  -1    0.17    0.04
  -6   5  -1    0.11    0.05
  -6   5  -1    0.22    0.08
   6  -5   1    0.12    0.06
  -7   5  -1   39.85    1.01
  -7   5  -1   39.53    0.88
   7  -5   1   39.01    0.90
  -8   5  -1    0.32    0.10
   8  -5   1    0.37    0.10
  -9   5  -1    4.12    0.30
   9  -5   1    4.02    0.27
 -10   5  -1    0.26    0.12
  10  -5   1    0.90    0.16
   7   4  -1    0.22    0.11
  -7  -4   1    0.15    0.10
  -7  -4   1   -0.08    0.10
  -7  -4   1    0.07    0.10
   6   4  -1    7.26    0.34
  -6  -4   1    6.49    0.31
  -6  -4   1    6.79    0.38
  -6  -4   1    7.32    0.34
   5   4  -1    0.49    0.11
   5   4  -1    0.63    0.11
  -5  -4   1    0.70    0.12
  -5  -4   1    0.57    0.11
  -5  -4   1    0.55    0.12
   4   4  -1   17.60    0.50
   4   4  -1   17.69    0.48
  -4  -4   1   18.18    0.50
  -4  -4   1   17.26    0.49
  -4  -4   1   17.83    0.58
   3   4  -1   16.71    0.46
   3   4  -1   16.61    0.43
  -3  -4   1   16.55    0.52
  -3  -4   1   17.56    0.45
  -3  -4   1   17.29    0.46
   2   4  -1   15.77    0.41
   2   4  -1   15.51    0.38
  -2  -4   1   15.12    0.47
  -2  -4   1   16.26    0.39
   1   4  -1    2.29    0.10
   1   4  -1    2.22    0.12
  -1  -4   1    2.32    0.10
  -1  -4   1    2.29    0.10
  -1  -4   1    2.10    0.14
   0   4  -1    0.74    0.04
   0   4  -1    0.57    0.07
   0  -4   1    0.83    0.06
   0  -4   1    0.70    0.09
   0  -4   1    0.60    0.05
  -1   4  -1   27.52    0.61
   1  -4   1   27.64    0.53
   1  -4   1   27.87    0.53
   1  -4   1   27.67    0.66
  -2   4  -1  110.45    2.22
   2  -4   1  109.12    2.33
   2  -4   1  109.11    2.03
   2  -4   1  112.90    2.03
  -3   4  -1    0.79    0.06
  -3   4  -1    0.85    0.08
  -3   4  -1    0.82    0.05
   3  -4   1    0.76    0.06
  -4   4  -1    1.59    0.07
  -4   4  -1    1.49    0.08
  -4   4  -1    1.47    0.11
   4  -4   1    1.67    0.09
   4  -4   1    1.41    0.09
  -5   4  -1   -0.04    0.02
  -5   4  -1    0.11    0.05
  -5   4  -1    0.02    0.03
   5  -4   1    0.04    0.04
   5  -4   1    0.01    0.02
  -6   4  -1    2.35    0.14
  -6   4  -1    2.40    0.18
  -6   4  -1    2.19    0.11
   6  -4   1    2.39    0.15
  -7   4  -1    3.35    0.16
  -7   4  -1    3.77    0.20
  -7   4  -1    3.31    0.23
   7  -4   1    3.68    0.20
  -8   4  -1    1.27    0.19
  -8   4  -1    1.34    0.15
   8  -4   1    1.57    0.17
  -9   4  -1   23.42    0.75
   9  -4   1   23.24    0.69
 -10   4  -1    1.05    0.19
  10  -4   1    0.71    0.15
   8   3  -1    0.25    0.12
  -8  -3   1    0.32    0.12
  -8  -3   1    0.15    0.12
  -8  -3   1    0.15    0.10
   7   3  -1   -0.01    0.08
   7   3  -1   -0.03    0.08
  -7  -3   1    0.07    0.09
  -7  -3   1    0.03    0.08
   6   3  -1   13.46    0.45
   6   3  -1   12.79    0.43
  -6  -3   1   12.59    0.45
  -6  -3   1   12.26    0.44
   5   3  -1    4.65    0.23
   5   3  -1    4.55    0.23
  -5  -3   1    4.70    0.23
  -5  -3   1    4.39    0.23
   4   3  -1   19.06    0.51
   4   3  -1   19.54    0.50
  -4  -3   1   19.13    0.50
  -4  -3   1   18.58    0.51
   3   3  -1    5.83    0.21
   3   3  -1    6.33    0.22
  -3  -3   1    6.12    0.22
  -3  -3   1    6.09    0.22
   2   3  -1   14.41    0.34
   2   3  -1   13.55    0.35
  -2  -3   1   14.35    0.41
  -2  -3   1   13.36    0.34
  -2  -3   1   14.33    0.35
  -2  -3   1   14.27    0.36
   1   3  -1   18.49    0.43
   1   3  -1   19.23    0.43
   1   3  -1   19.23    0.40
  -1  -3   1   19.31    0.41
  -1  -3   1   18.42    0.41
  -1  -3   1   18.89    0.49
   0   3  -1   16.02    0.31
   0   3  -1   16.27    0.31
   0   3  -1   16.20    0.37
   0  -3   1   15.97    0.32
   0  -3   1   15.88    0.32
   0  -3   1   15.30    0.41
  -1   3  -1    6.06    0.19
   1  -3   1    5.91    0.12
   1  -3   1    5.75    0.19
   1  -3   1    5.75    0.12
  -2   3  -1   53.08    1.12
  -2   3  -1   53.32    0.99
  -2   3  -1   53.95    1.16
  -2   3  -1   53.53    0.99
  -2   3  -1   54.84    1.05
   2  -3   1   54.31    1.01
   2  -3   1   52.39    1.00
  -3   3  -1   52.84    1.13
  -3   3  -1   52.20    1.02
  -3   3  -1   52.98    1.04
   3  -3   1   54.79    1.04
   3  -3   1   52.60    1.03
   3  -3   1   54.40    1.03
  -4   3  -1    0.02    0.02
  -4   3  -1    0.02    0.03
  -4   3  -1    0.01    0.04
   4  -3   1    0.08    0.03
   4  -3   1    0.00    0.03
   4  -3   1    0.02    0.02
  -5   3  -1   26.67    0.67
  -5   3  -1   26.31    0.58
  -5   3  -1   26.48    0.60
   5  -3   1   26.16    0.61
  -6   3  -1    0.16    0.07
  -6   3  -1    0.05    0.05
  -6   3  -1    0.06    0.04
   6  -3   1    0.02    0.05
  -7   3  -1   20.32    0.62
  -7   3  -1   21.10    0.52
  -7   3  -1   20.62    0.56
   7  -3   1   21.36    0.58
  -8   3  -1    0.90    0.14
  -8   3  -1    0.52    0.12
   8  -3   1    0.86    0.14
  -9   3  -1    7.07    0.34
  -9   3  -1    7.45    0.39
   9  -3   1    8.44    0.38
   8   2  -1    5.29    0.31
   8   2  -1    5.19    0.32
  -8  -2   1    6.04    0.33
  -8  -2   1    5.34    0.33
   7   2  -1    0.97    0.16
   7   2  -1    0.63    0.13
  -7  -2   1    0.76    0.13
  -7  -2   1    0.45    0.11
   6   2  -1    6.11    0.28
   6   2  -1    6.00    0.27
  -6  -2   1    6.17    0.29
  -6  -2   1    5.61    0.28
   5   2  -1    4.84    0.22
   5   2  -1    4.15    0.21
  -5  -2   1    4.39    0.22
  -5  -2   1    4.13    0.22
   4   2  -1   29.04    0.67
   4   2  -1   28.39    0.66
  -4  -2   1   29.12    0.70
  -4  -2   1   28.60    0.67
   3   2  -1   36.04    0.78
   3   2  -1   37.48    0.80
  -3  -2   1   38.31    0.84
  -3  -2   1   37.86    0.80
   2   2  -1   25.20    0.55
   2   2  -1   25.62    0.54
  -2  -2   1   24.66    0.54
  -2  -2   1   25.33    0.57
  -2  -2   1   26.49    0.55
   1   2  -1  245.68    4.72
   1   2  -1  239.15    4.69
   1   2  -1  254.15    4.97
   1   2  -1  246.96    5.00
  -1  -2   1  259.06    4.70
  -1  -2   1  236.81    5.40
  -1  -2   1  246.53    4.65
  -1  -2   1  242.52    4.85
   0   2  -1    3.90    0.09
   0   2  -1    3.99    0.09
   0   2  -1    4.24    0.14
   0   2  -1    3.98    0.12
   0  -2   1    3.76    0.14
   0  -2   1    3.92    0.09
   0  -2   1    4.06    0.10
  -1   2  -1   82.74    1.73
  -1   2  -1   83.03    1.65
   1  -2   1   80.88    1.51
   1  -2   1   84.51    1.50
   1  -2   1   82.31    1.73
  -2   2  -1  109.21    2.03
  -2   2  -1  109.83    2.21
  -2   2  -1  111.02    2.03
  -2   2  -1  109.94    2.09
   2  -2   1  111.29    2.10
   2  -2   1  108.59    2.03
   2  -2   1  112.24    2.04
   2  -2   1  109.75    2.21
  -3   2  -1   53.06    1.15
  -3   2  -1   53.84    1.06
  -3   2  -1   54.88    1.07
   3  -2   1   55.91    1.07
   3  -2   1   54.94    1.06
   3  -2   1   53.67    1.06
  -4   2  -1   17.90    0.43
  -4   2  -1   18.53    0.48
  -4   2  -1   17.91    0.42
   4  -2   1   18.50    0.44
  -5   2  -1    9.45    0.29
  -5   2  -1    9.85    0.28
  -5   2  -1    9.70    0.33
   5  -2   1    9.53    0.30
  -6   2  -1   21.68    0.55
  -6   2  -1   20.94    0.52
  -6   2  -1   21.01    0.60
   6  -2   1   21.12    0.55
  -7   2  -1    8.27    0.35
  -7   2  -1    8.55    0.32
   7  -2   1    8.04    0.33
  -8   2  -1    1.81    0.20
  -8   2  -1    1.39    0.17
   8  -2   1    1.66    0.19
  -9   2  -1    1.01    0.17
  -9   2  -1    0.88    0.15
   9  -2   1    0.87    0.16
   9   1  -1    8.50    0.41
  -9  -1   1    7.62    0.40
  -9  -1   1    7.85    0.42
   8   1  -1    1.81    0.20
   8   1  -1    2.07    0.21
  -8  -1   1    1.66    0.21
  -8  -1   1    2.16    0.22
   7   1  -1    1.10    0.15
   7   1  -1    0.93    0.14
  -7  -1   1    0.71    0.13
  -7  -1   1    0.51    0.11
   6   1  -1    6.34    0.28
   6   1  -1    6.30    0.27
  -6  -1   1    6.37    0.29
   5   1  -1    1.31    0.12
   5   1  -1    1.52    0.13
  -5  -1   1    1.25    0.13
  -5  -1   1    1.35    0.12
   4   1  -1   14.84    0.39
   4   1  -1   14.64    0.39
  -4  -1   1   14.69    0.39
  -4  -1   1   14.29    0.41
   3   1  -1    2.21    0.11
   3   1  -1    2.16    0.11
  -3  -1   1    2.18    0.11
  -3  -1   1    2.04    0.12
   2   1  -1  202.44    3.96
   2   1  -1  206.91    3.81
   2   1  -1  206.70    4.02
  -2  -1   1  201.68    4.16
  -2  -1   1  203.37    4.05
  -2  -1   1  205.50    3.75
  -2  -1   1  199.56    3.82
   1   1  -1   36.21    0.70
   1   1  -1   35.34    0.69
   1   1  -1   36.97    0.71
   1   1  -1   35.87    0.75
  -1  -1   1   36.11    0.79
  -1  -1   1   35.85    0.70
  -1  -1   1   37.11    0.71
  -1  -1   1   36.82    0.75
  -1  -1   1   37.93    0.70
   0   1  -1   94.81    1.69
   0   1  -1   83.98    1.96
   0  -1   1   96.48    1.72
  -1   1  -1    0.76    0.04
  -1   1  -1    0.70    0.04
  -1   1  -1    0.72    0.04
  -1   1  -1    0.72    0.05
   1  -1   1    0.74    0.04
   1  -1   1    0.74    0.04
   1  -1   1    0.63    0.04
  -2   1  -1    0.60    0.05
  -2   1  -1    0.57    0.05
  -2   1  -1    0.55    0.06
  -2   1  -1    0.67    0.05
   2  -1   1    0.58    0.06
   2  -1   1    0.70    0.06
   2  -1   1    0.58    0.06
   2  -1   1    0.71    0.05
   2  -1   1    0.64    0.05
  -3   1  -1    4.44    0.15
  -3   1  -1    4.17    0.16
  -3   1  -1    4.23    0.14
   3  -1   1    4.15    0.16
   3  -1   1    4.42    0.15
  -4   1  -1    2.89    0.13
  -4   1  -1    2.76    0.15
  -4   1  -1    2.92    0.14
   4  -1   1    2.84    0.14
   4  -1   1    2.65    0.14
  -5   1  -1    4.25    0.21
  -5   1  -1    4.40    0.19
  -5   1  -1    4.34    0.18
   5  -1   1    4.12    0.20
   5  -1   1    4.44    0.20
  -6   1  -1   30.14    0.79
  -6   1  -1   30.65    0.73
  -6   1  -1   29.76    0.72
   6  -1   1   30.22    0.73
  -7   1  -1    0.48    0.11
  -7   1  -1    0.51    0.10
   7  -1   1    0.43    0.10
  -8   1  -1    1.48    0.20
  -8   1  -1    1.66    0.18
   8  -1   1    1.72    0.20
  -9   1  -1    0.40    0.13
  -9   1  -1    0.29    0.12
   9  -1   1    0.08    0.10
   9   0  -1    5.85    0.34
  -9   0   1    5.61    0.33
  -9   0   1    5.89    0.36
   8   0  -1    6.11    0.32
  -8   0   1    6.49    0.34
  -8   0   1    6.64    0.33
   7   0  -1    1.74    0.17
  -7   0   1    2.05    0.19
  -7   0   1    2.05    0.18
   6   0  -1   18.24    0.51
   6   0  -1   18.75    0.51
  -6   0   1   19.26    0.52
  -6   0   1   17.99    0.55
   5   0  -1    2.56    0.15
   5   0  -1    2.37    0.15
  -5   0   1    2.19    0.15
  -5   0   1    2.61    0.15
   4   0  -1    9.92    0.29
   4   0  -1   10.33    0.29
  -4   0   1   10.40    0.31
  -4   0   1    9.78    0.29
   3   0  -1   67.62    1.31
   3   0  -1   66.79    1.33
  -3   0   1   67.61    1.40
  -3   0   1   67.15    1.31
   2   0  -1  978.28   19.66
   2   0  -1  975.58   18.36
   2   0  -1  989.16   18.80
   2   0  -1  950.68   18.83
   2   0  -1  970.40   18.29
  -2   0   1  965.29   19.73
  -2   0   1  979.95   18.34
  -2   0   1  943.42   18.79
  -2   0   1 1000.00   18.35
   1   0  -1    6.01    0.15
   1   0  -1    5.76    0.16
  -1   0   1    5.60    0.17
  -1   0   1    5.80    0.16
  -1   0   1    5.97    0.15
  -1   0   1    6.06    0.16
   0   0  -1    1.43    0.04
   0   0  -1    1.38    0.04
   0   0   1    1.39    0.04
   0   0   1    1.20    0.04
   0   0   1    1.43    0.04
  -1   0  -1    0.56    0.04
  -1   0  -1    0.60    0.05
  -1   0  -1    0.51    0.04
  -1   0  -1    0.58    0.04
   1   0   1    0.51    0.04
   1   0   1    0.61    0.04
   1   0   1    0.66    0.04
   1   0   1    0.59    0.05
   1   0   1    0.57    0.04
  -2   0  -1   29.17    0.61
  -2   0  -1   27.82    0.63
   2   0   1   29.54    0.60
   2   0   1   30.23    0.64
   2   0   1   29.44    0.61
   2   0   1   28.92    0.62
  -3   0  -1   41.45    0.87
  -3   0  -1   41.40    0.86
  -3   0  -1   42.64    0.92
   3   0   1   41.41    0.88
   3   0   1   42.58    0.86
  -4   0  -1    8.73    0.27
  -4   0  -1    8.44    0.28
  -4   0  -1    8.51    0.27
   4   0   1    8.24    0.27
   4   0   1    8.44    0.27
  -5   0  -1   29.31    0.74
  -5   0  -1   29.14    0.70
  -5   0  -1   29.79    0.70
   5   0   1   29.54    0.70
   5   0   1   29.58    0.72
  -6   0  -1    4.17    0.23
  -6   0  -1    4.33    0.23
   6   0   1    4.60    0.24
   6   0   1    4.12    0.22
  -7   0  -1    3.26    0.23
  -7   0  -1    3.46    0.23
   7   0   1    3.12    0.23
   7   0   1    2.99    0.22
  -8   0  -1    3.09    0.25
  -8   0  -1    3.03    0.24
   8   0   1    3.25    0.25
  -9   0  -1    0.32    0.12
  -9   0  -1    0.47    0.14
   9   0   1    0.49    0.14
   9  -1  -1    4.21    0.29
  -9   1   1    5.13    0.33
  -9   1   1    4.25    0.29
   8  -1  -1    0.15    0.10
  -8   1   1    0.04    0.08
  -8   1   1    0.16    0.09
   7  -1  -1   12.84    0.42
  -7   1   1   12.43    0.45
  -7   1   1   13.11    0.42
   6  -1  -1   10.61    0.35
  -6   1   1   11.46    0.35
  -6   1   1   10.40    0.37
   5  -1  -1   45.96    0.98
  -5   1   1   46.52    0.98
  -5   1   1   46.08    1.05
   4  -1  -1    4.47    0.17
  -4   1   1    4.49    0.17
  -4   1   1    4.35    0.18
   3  -1  -1   76.61    1.46
   3  -1  -1   76.53    1.47
  -3   1   1   76.86    1.46
  -3   1   1   74.77    1.57
   2  -1  -1   17.86    0.36
   2  -1  -1   18.81    0.38
   2  -1  -1   18.57    0.41
   2  -1  -1   17.91    0.38
  -2   1   1   18.27    0.41
  -2   1   1   17.95    0.38
   1  -1  -1   25.28    0.48
   1  -1  -1   24.54    0.50
   1  -1  -1   24.00    0.47
   1  -1  -1   24.90    0.47
  -1   1   1   24.75    0.47
  -1   1   1   24.15    0.50
  -1   1   1   24.79    0.47
  -1   1   1   24.58    0.47
   0  -1  -1   84.48    1.61
   0  -1  -1   84.77    1.55
   0  -1  -1   84.04    1.62
   0  -1  -1   85.74    1.73
   0  -1  -1   83.77    1.69
   0   1   1   83.95    1.59
   0   1   1   80.23    1.55
   0   1   1   83.51    1.61
   0   1   1   84.42    1.65
   0   1   1   87.32    1.67
  -1  -1  -1    0.61    0.05
  -1  -1  -1    0.64    0.05
  -1  -1  -1    0.64    0.05
  -1  -1  -1    0.51    0.05
   1   1   1    0.57    0.05
   1   1   1    0.61    0.05
   1   1   1    0.57    0.06
  -2  -1  -1  154.73    2.97
  -2  -1  -1  154.67    3.16
  -2  -1  -1  152.97    2.88
   2   1   1  162.99    3.07
   2   1   1  154.49    2.88
   2   1   1  147.69    2.96
  -3  -1  -1    0.08    0.04
  -3  -1  -1    0.08    0.04
  -3  -1  -1    0.09    0.04
   3   1   1    0.06    0.04
   3   1   1    0.01    0.03
  -4  -1  -1   33.13    0.76
  -4  -1  -1   32.12    0.77
  -4  -1  -1   32.50    0.74
   4   1   1   33.24    0.74
   4   1   1   33.00    0.76
  -5  -1  -1    2.72    0.17
  -5  -1  -1    2.94    0.18
   5   1   1    3.02    0.18
   5   1   1    3.05    0.19
  -6  -1  -1    0.37    0.09
  -6  -1  -1    0.52    0.10
   6   1   1    0.27    0.09
   6   1   1    0.53    0.11
  -7  -1  -1    8.57    0.37
  -7  -1  -1    8.31    0.37
   7   1   1    8.33    0.36
   7   1   1    8.29    0.37
  -8  -1  -1    2.03    0.22
  -8  -1  -1    2.40    0.24
   8   1   1    2.38    0.24
   8   1   1    1.94    0.22
  10  -2  -1    0.04    0.10
 -10   2   1    0.03    0.11
 -10   2   1    0.18    0.12
   9  -2  -1    0.32    0.12
  -9   2   1    0.39    0.12
  -9   2   1    0.54    0.14
   8  -2  -1    4.06    0.24
  -8   2   1    3.68    0.23
  -8   2   1    3.60    0.26
   7  -2  -1    1.73    0.16
  -7   2   1    1.82    0.18
  -7   2   1    1.72    0.16
   6  -2  -1    0.27    0.07
  -6   2   1    0.55    0.10
  -6   2   1    0.50    0.08
   5  -2  -1   14.73    0.40
  -5   2   1   15.43    0.40
  -5   2   1   15.41    0.44
   4  -2  -1    3.79    0.15
   4  -2  -1    3.90    0.12
  -4   2   1    3.57    0.17
  -4   2   1    4.52    0.16
   3  -2  -1    0.13    0.04
   3  -2  -1    0.15    0.03
   3  -2  -1    0.05    0.03
  -3   2   1    0.09    0.04
  -3   2   1    0.10    0.04
   2  -2  -1   59.44    1.20
   2  -2  -1   60.58    1.12
   2  -2  -1   58.38    1.11
  -2   2   1   58.59    1.11
  -2   2   1   57.84    1.19
  -2   2   1   57.86    1.22
  -2   2   1   59.88    1.11
   1  -2  -1  377.49    7.88
   1  -2  -1  376.70    7.14
   1  -2  -1  378.33    7.04
   1  -2  -1  371.79    7.45
   1  -2  -1  367.81    7.29
  -1   2   1  372.24    7.27
  -1   2   1  362.18    7.45
  -1   2   1  383.66    7.07
  -1   2   1  358.11    7.05
  -1   2   1  376.81    7.61
   0  -2  -1   12.94    0.28
   0  -2  -1   12.71    0.28
   0  -2  -1   12.94    0.30
   0   2   1   12.75    0.28
   0   2   1   12.86    0.28
   0   2   1   13.08    0.26
   0   2   1   12.64    0.30
   0   2   1   12.95    0.30
  -1  -2  -1    6.65    0.17
  -1  -2  -1    6.55    0.20
  -1  -2  -1    6.39    0.18
  -1  -2  -1    6.88    0.19
   1   2   1    6.70    0.20
   1   2   1    7.19    0.18
   1   2   1    6.64    0.18
  -2  -2  -1   25.57    0.56
  -2  -2  -1   24.93    0.57
  -2  -2  -1   24.98    0.59
   2   2   1   25.58    0.58
   2   2   1   26.18    0.56
   2   2   1   27.16    0.58
  -3  -2  -1    1.38    0.10
  -3  -2  -1    1.33    0.11
  -3  -2  -1    1.49    0.10
   3   2   1    1.50    0.11
   3   2   1    1.28    0.11
  -4  -2  -1    0.14    0.06
  -4  -2  -1    0.18    0.06
   4   2   1    0.18    0.07
   4   2   1    0.17    0.06
  -5  -2  -1    0.02    0.06
  -5  -2  -1    0.09    0.06
   5   2   1   -0.05    0.06
   5   2   1    0.00    0.06
  -6  -2  -1    3.00    0.21
  -6  -2  -1    3.17    0.21
   6   2   1    3.21    0.22
   6   2   1    3.06    0.22
  -7  -2  -1    0.33    0.11
  -7  -2  -1    0.27    0.11
   7   2   1    0.19    0.10
   7   2   1    0.42    0.12
  -8  -2  -1    0.72    0.16
   8   2   1    1.05    0.17
   8   2   1    1.05    0.18
  10  -3  -1    0.23    0.13
 -10   3   1    0.19    0.11
 -10   3   1    0.54    0.16
   9  -3  -1    0.74    0.14
  -9   3   1    1.04    0.15
  -9   3   1    0.73    0.14
   8  -3  -1    6.57    0.30
  -8   3   1    6.65    0.33
  -8   3   1    6.12    0.29
   7  -3  -1    1.11    0.14
  -7   3   1    0.89    0.12
  -7   3   1    1.05    0.15
   6  -3  -1   19.73    0.51
  -6   3   1   19.78    0.56
  -6   3   1   19.79    0.50
   5  -3  -1    0.59    0.05
   5  -3  -1    0.52    0.08
  -5   3   1    0.50    0.08
  -5   3   1    0.60    0.09
   4  -3  -1    4.60    0.16
   4  -3  -1    4.47    0.10
  -4   3   1    4.43    0.16
  -4   3   1    4.40    0.18
   3  -3  -1   22.25    0.47
   3  -3  -1   21.95    0.47
  -3   3   1   21.88    0.49
  -3   3   1   21.60    0.51
  -3   3   1   22.23    0.46
   2  -3  -1  249.69    4.58
   2  -3  -1  247.81    5.24
   2  -3  -1  257.22    5.03
   2  -3  -1  249.96    4.83
  -2   3   1  259.17    5.21
  -2   3   1  241.73    5.12
  -2   3   1  251.90    4.80
  -2   3   1  252.07    4.60
  -2   3   1  248.04    4.76
   1  -3  -1    2.33    0.09
   1  -3  -1    2.23    0.09
   1  -3  -1    2.43    0.10
  -1   3   1    2.20    0.07
  -1   3   1    2.34    0.08
  -1   3   1    2.32    0.08
  -1   3   1    2.34    0.09
   0  -3  -1   11.11    0.27
   0  -3  -1   11.54    0.27
   0   3   1   11.89    0.24
   0   3   1   11.11    0.30
   0   3   1   11.33    0.26
  -1  -3  -1    7.29    0.21
  -1  -3  -1    6.76    0.18
  -1  -3  -1    7.23    0.21
   1   3   1    6.99    0.20
   1   3   1    6.89    0.22
   1   3   1    7.46    0.19
  -2  -3  -1  107.67    2.12
  -2  -3  -1  112.11    2.23
   2   3   1  112.43    2.12
   2   3   1  110.80    2.20
  -3  -3  -1   39.88    0.88
  -3  -3  -1   39.30    0.86
   3   3   1   38.77    0.85
   3   3   1   38.69    0.88
  -4  -3  -1    0.30    0.08
  -4  -3  -1    0.30    0.07
   4   3   1    0.32    0.07
   4   3   1    0.30    0.08
  -5  -3  -1    8.47    0.32
  -5  -3  -1    7.75    0.33
   5   3   1    8.28    0.34
   5   3   1    8.46    0.33
  -6  -3  -1    3.69    0.23
  -6  -3  -1    3.85    0.25
   6   3   1    4.03    0.26
   6   3   1    4.08    0.25
  -7  -3  -1   10.17    0.43
  -7  -3  -1   10.81    0.45
   7   3   1   11.31    0.46
   7   3   1   11.05    0.44
  10  -4  -1    3.20    0.27
 -10   4   1    3.19    0.29
   9  -4  -1    4.19    0.27
  -9   4   1    3.90    0.28
  -9   4   1    4.20    0.26
   8  -4  -1    0.93    0.15
  -8   4   1    1.09    0.17
  -8   4   1    1.15    0.15
   7  -4  -1    4.24    0.22
  -7   4   1    4.42    0.21
  -7   4   1    4.37    0.25
   6  -4  -1    8.99    0.21
   6  -4  -1    8.21    0.29
  -6   4   1    8.56    0.28
  -6   4   1    8.93    0.33
   5  -4  -1   59.65    1.20
  -5   4   1   59.36    1.31
  -5   4   1   59.95    1.19
   4  -4  -1   53.83    1.04
   4  -4  -1   51.52    1.04
  -4   4   1   52.70    1.03
  -4   4   1   51.20    1.12
  -4   4   1   51.36    1.13
   3  -4  -1   13.22    0.30
   3  -4  -1   12.69    0.30
  -3   4   1   12.93    0.26
  -3   4   1   12.39    0.33
  -3   4   1   12.83    0.32
  -3   4   1   12.81    0.29
   2  -4  -1   14.81    0.33
   2  -4  -1   14.65    0.33
   2  -4  -1   14.81    0.36
  -2   4   1   14.83    0.33
  -2   4   1   15.05    0.37
  -2   4   1   14.08    0.33
  -2   4   1   14.33    0.32
   1  -4  -1   19.35    0.48
   1  -4  -1   19.52    0.41
   1  -4  -1   19.23    0.41
  -1   4   1   19.01    0.40
  -1   4   1   19.17    0.40
   0  -4  -1   73.64    1.38
   0  -4  -1   70.22    1.57
   0  -4  -1   72.97    1.38
   0   4   1   74.05    1.42
   0   4   1   68.66    1.36
   0   4   1   69.85    1.45
  -1  -4  -1    0.79    0.08
   1   4   1    0.74    0.07
   1   4   1    0.76    0.06
   1   4   1    0.64    0.09
  -2  -4  -1   13.00    0.33
  -2  -4  -1   13.04    0.36
   2   4   1   13.15    0.38
   2   4   1   12.59    0.35
  -3  -4  -1    0.53    0.08
  -3  -4  -1    0.64    0.10
   3   4   1    0.44    0.09
   3   4   1    0.51    0.08
  -4  -4  -1   18.18    0.51
  -4  -4  -1   17.86    0.49
   4   4   1   17.54    0.50
   4   4   1   17.19    0.52
  -5  -4  -1    1.97    0.18
  -5  -4  -1    1.70    0.15
   5   4   1    1.53    0.17
   5   4   1    1.68    0.19
  -6  -4  -1    0.34    0.11
  -6  -4  -1    0.57    0.12
   6   4   1    0.62    0.14
   6   4   1    0.64    0.13
  -7  -4  -1    0.07    0.10
   7   4   1    0.14    0.11
  10  -5  -1    0.06    0.10
 -10   5   1    0.19    0.13
   9  -5  -1    4.37    0.27
  -9   5   1    4.28    0.30
   8  -5  -1    4.02    0.23
  -8   5   1    3.98    0.26
  -8   5   1    3.85    0.21
   7  -5  -1    2.45    0.17
  -7   5   1    2.52    0.19
  -7   5   1    2.36    0.16
   6  -5  -1    1.35    0.12
  -6   5   1    1.40    0.14
  -6   5   1    1.61    0.12
   5  -5  -1    7.35    0.24
  -5   5   1    7.61    0.27
  -5   5   1    7.85    0.23
   4  -5  -1    0.53    0.07
   4  -5  -1    0.35    0.06
  -4   5   1    0.48    0.06
  -4   5   1    0.36    0.06
  -4   5   1    0.49    0.06
   3  -5  -1    0.10    0.04
   3  -5  -1    0.14    0.04
   3  -5  -1    0.11    0.04
  -3   5   1    0.15    0.03
  -3   5   1    0.15    0.03
  -3   5   1    0.10    0.03
   2  -5  -1    2.20    0.10
   2  -5  -1    2.31    0.10
   2  -5  -1    2.40    0.12
  -2   5   1    2.12    0.09
  -2   5   1    2.17    0.09
  -2   5   1    2.24    0.13
   1  -5  -1    9.19    0.24
   1  -5  -1    9.02    0.24
   1  -5  -1    8.92    0.29
  -1   5   1    9.25    0.29
  -1   5   1    8.73    0.23
  -1   5   1    9.23    0.21
  -1   5   1    9.11    0.21
   0  -5  -1    1.21    0.11
   0  -5  -1    1.05    0.09
   0  -5  -1    0.97    0.08
   0   5   1    1.12    0.11
   0   5   1    0.93    0.07
   0   5   1    1.01    0.05
  -1  -5  -1    0.22    0.08
  -1  -5  -1    0.02    0.04
   1   5   1    0.05    0.03
   1   5   1    0.03    0.05
   1   5   1    0.01    0.03
  -2  -5  -1    0.27    0.07
   2   5   1    0.29    0.08
   2   5   1    0.25    0.07
  -3  -5  -1    9.88    0.34
   3   5   1   10.48    0.34
   3   5   1    9.99    0.37
  -4  -5  -1    1.08    0.12
  -4  -5  -1    1.08    0.15
   4   5   1    1.08    0.16
   4   5   1    1.05    0.14
  -5  -5  -1    0.05    0.08
   5   5   1    0.04    0.09
  -6  -5  -1    6.76    0.35
  -6  -5  -1    6.46    0.42
   6   5   1    6.87    0.37
  10  -6  -1    2.47    0.24
 -10   6   1    2.35    0.26
   9  -6  -1    3.86    0.25
  -9   6   1    3.72    0.28
   8  -6  -1    1.13    0.15
  -8   6   1    0.98    0.16
   7  -6  -1    0.05    0.07
  -7   6   1    0.04    0.07
   6  -6  -1   11.38    0.34
  -6   6   1   10.82    0.37
  -6   6   1   11.08    0.31
   5  -6  -1   12.48    0.34
  -5   6   1   12.58    0.38
  -5   6   1   12.77    0.32
   4  -6  -1    0.05    0.04
   4  -6  -1    0.02    0.04
  -4   6   1    0.04    0.02
  -4   6   1    0.04    0.02
  -4   6   1    0.05    0.03
   3  -6  -1   17.94    0.41
   3  -6  -1   17.71    0.46
   3  -6  -1   18.26    0.41
  -3   6   1   17.25    0.42
  -3   6   1   17.06    0.38
  -3   6   1   17.68    0.48
   2  -6  -1   45.68    0.92
   2  -6  -1   46.61    0.92
   2  -6  -1   45.06    1.06
  -2   6   1   46.57    0.95
  -2   6   1   45.84    0.89
  -2   6   1   45.98    1.02
   1  -6  -1    9.17    0.26
   1  -6  -1    9.39    0.26
   1  -6  -1    8.94    0.32
  -1   6   1    9.04    0.24
  -1   6   1    9.52    0.22
  -1   6   1    9.15    0.32
  -1   6   1    9.82    0.22
   0  -6  -1    0.05    0.04
   0  -6  -1    0.08    0.06
   0   6   1    0.03    0.03
   0   6   1    0.07    0.06
  -1  -6  -1   21.02    0.62
  -1  -6  -1   21.27    0.52
   1   6   1   21.54    0.51
   1   6   1   20.13    0.57
  -2  -6  -1    0.77    0.13
  -2  -6  -1    0.69    0.11
   2   6   1    0.70    0.12
  -3  -6  -1   25.87    0.68
  -3  -6  -1   25.74    0.80
   3   6   1   26.48    0.72
  -4  -6  -1    2.55    0.25
  -4  -6  -1    2.32    0.20
   4   6   1    2.67    0.23
  -5  -6  -1    7.35    0.36
  -5  -6  -1    7.92    0.45
   5   6   1    7.94    0.39
  10  -7  -1    1.41    0.20
 -10   7   1    1.45    0.23
   9  -7  -1    0.08    0.09
  -9   7   1    0.12    0.10
   8  -7  -1   11.99    0.41
  -8   7   1   12.17    0.46
   7  -7  -1    3.92    0.20
  -7   7   1    3.86    0.23
   6  -7  -1    2.96    0.16
  -6   7   1    2.80    0.18
   5  -7  -1   28.73    0.64
  -5   7   1   28.77    0.71
   4  -7  -1    1.37    0.10
   4  -7  -1    1.39    0.12
  -4   7   1    1.26    0.10
   3  -7  -1    1.13    0.12
   3  -7  -1    1.26    0.10
  -3   7   1    0.89    0.13
  -3   7   1    1.42    0.09
   2  -7  -1    0.71    0.09
   2  -7  -1    0.70    0.12
  -2   7   1    0.87    0.06
  -2   7   1    0.84    0.13
   1  -7  -1    5.20    0.25
   1  -7  -1    4.98    0.19
  -1   7   1    5.13    0.25
   0  -7  -1   81.74    1.89
   0  -7  -1   83.61    1.64
   0   7   1   82.38    1.76
  -1  -7  -1    2.43    0.16
  -1  -7  -1    1.97    0.19
   1   7   1    2.17    0.19
  -2  -7  -1    5.47    0.25
  -2  -7  -1    5.48    0.32
   2   7   1    5.87    0.30
  -3  -7  -1    0.08    0.07
  -3  -7  -1    0.15    0.10
   3   7   1    0.10    0.09
  -4  -7  -1    4.40    0.27
  -4  -7  -1    4.78    0.35
   4   7   1    4.37    0.30
   9  -8  -1   -0.04    0.08
  -9   8   1    0.00    0.09
   8  -8  -1   19.99    0.57
  -8   8   1   21.16    0.65
   7  -8  -1    2.29    0.17
  -7   8   1    1.90    0.18
   6  -8  -1    0.47    0.08
  -6   8   1    0.30    0.08
   5  -8  -1    0.34    0.07
  -5   8   1    0.60    0.10
   4  -8  -1    3.05    0.18
   4  -8  -1    2.87    0.14
  -4   8   1    2.80    0.20
  -4   8   1    2.81    0.14
   3  -8  -1    0.14    0.07
   3  -8  -1    0.17    0.05
  -3   8   1    0.08    0.07
   2  -8  -1    0.71    0.13
   2  -8  -1    0.66    0.09
  -2   8   1    0.50    0.11
   1  -8  -1    9.46    0.29
   1  -8  -1    9.10    0.37
  -1   8   1    9.13    0.36
   0  -8  -1    3.32    0.18
   0  -8  -1    3.20    0.23
   0   8   1    3.45    0.23
  -1  -8  -1    0.64    0.14
  -1  -8  -1    0.54    0.09
   1   8   1    0.33    0.11
  -2  -8  -1   -0.03    0.09
  -2  -8  -1    0.00    0.06
   2   8   1   -0.04    0.08
  -3  -8  -1    2.63    0.21
  -3  -8  -1    2.75    0.28
   3   8   1    3.29    0.27
   9  -9  -1    0.46    0.11
  -9   9   1    0.33    0.12
   8  -9  -1    4.08    0.23
  -8   9   1    3.92    0.27
   7  -9  -1    4.95    0.23
  -7   9   1    5.07    0.27
   6  -9  -1    0.42    0.08
   5  -9  -1    8.79    0.29
  -5   9   1    9.25    0.39
   4  -9  -1    1.07    0.11
   4  -9  -1    1.22    0.14
  -4   9   1    1.46    0.18
   3  -9  -1   12.06    0.42
   3  -9  -1   11.86    0.33
  -3   9   1   11.02    0.43
   2  -9  -1    4.89    0.20
   2  -9  -1    4.78    0.27
  -2   9   1    4.48    0.27
   1  -9  -1    8.84    0.30
   1  -9  -1    9.78    0.41
  -1   9   1    8.96    0.39
   0  -9  -1    3.51    0.20
   0  -9  -1    3.92    0.28
   0   9   1    4.08    0.27
  -1  -9  -1    9.95    0.36
  -1  -9  -1   10.08    0.47
   1   9   1    9.86    0.43
  -2  -9  -1    4.82    0.35
  -2  -9  -1    4.69    0.27
   2   9   1    4.58    0.32
   8 -10  -1    1.27    0.16
   7 -10  -1    1.77    0.16
  -7  10   1    1.83    0.23
   6 -10  -1    2.37    0.16
  -6  10   1    2.55    0.25
   5 -10  -1   17.48    0.45
  -5  10   1   17.20    0.59
   4 -10  -1    2.03    0.14
  -4  10   1    2.05    0.22
   3 -10  -1   -0.04    0.04
   3 -10  -1   -0.07    0.07
  -3  10   1   -0.07    0.08
   2 -10  -1   -0.04    0.08
   2 -10  -1    0.15    0.06
  -2  10   1    0.10    0.10
   1 -10  -1    2.08    0.23
   1 -10  -1    2.32    0.16
  -1  10   1    1.81    0.21
   0 -10  -1    5.32    0.25
   0 -10  -1    5.43    0.35
   0  10   1    5.03    0.33
  -7  11   1    0.84    0.17
  -6  11   1    0.68    0.16
  -5  11   1    1.36    0.22
  -4  11   1    4.18    0.30
  -3  11   1    2.41    0.25
  -2  11   1    0.06    0.10
  -2  11  -2    0.38    0.12
   2 -11   2    0.33    0.13
  -3  11  -2   -0.05    0.08
   3 -11   2    0.03    0.10
  -4  11  -2   12.65    0.50
  -5  11  -2   13.40    0.52
  -6  11  -2   10.28    0.46
   1  10  -2   -0.05    0.09
  -1 -10   2    0.04    0.06
  -1 -10   2   -0.04    0.10
   0  10  -2    2.97    0.25
   0 -10   2    3.45    0.29
  -1  10  -2   15.16    0.53
   1 -10   2   15.86    0.59
  -2  10  -2    3.29    0.24
   2 -10   2    2.76    0.24
  -3  10  -2    1.98    0.21
   3 -10   2    2.47    0.22
  -4  10  -2    0.31    0.10
  -5  10  -2    4.60    0.29
  -6  10  -2    1.20    0.17
  -7  10  -2    0.86    0.15
  -8  10  -2    4.13    0.30
   2   9  -2    0.30    0.11
  -2  -9   2    0.33    0.09
  -2  -9   2    0.22    0.13
   1   9  -2    1.61    0.19
  -1  -9   2    1.32    0.13
  -1  -9   2    1.54    0.21
   0   9  -2    0.10    0.08
   0  -9   2    0.04    0.04
   0  -9   2    0.09    0.10
  -1   9  -2    0.20    0.09
   1  -9   2    0.32    0.10
   1  -9   2    0.34    0.05
  -2   9  -2    1.04    0.16
   2  -9   2    1.46    0.08
   2  -9   2    1.52    0.18
  -3   9  -2    8.18    0.34
  -3   9  -2    7.79    0.29
   3  -9   2    7.88    0.35
  -4   9  -2   -0.01    0.05
  -4   9  -2    0.05    0.08
  -5   9  -2    1.62    0.15
   5  -9   2    1.39    0.09
  -6   9  -2   -0.01    0.06
   6  -9   2    0.03    0.05
  -7   9  -2    0.10    0.08
   7  -9   2    0.09    0.06
  -8   9  -2    0.07    0.10
   8  -9   2    0.10    0.07
   3   8  -2    5.94    0.31
  -3  -8   2    5.71    0.37
  -3  -8   2    5.82    0.27
   2   8  -2    4.61    0.26
  -2  -8   2    3.85    0.21
  -2  -8   2    4.50    0.31
   1   8  -2    4.91    0.26
  -1  -8   2    4.84    0.30
  -1  -8   2    4.93    0.21
   0   8  -2    8.19    0.32
   0  -8   2    8.39    0.37
   0  -8   2    7.57    0.24
  -1   8  -2    4.67    0.24
  -1   8  -2    4.69    0.19
   1  -8   2    4.66    0.15
   1  -8   2    4.67    0.27
  -2   8  -2   20.27    0.52
  -2   8  -2   20.64    0.57
   2  -8   2   20.49    0.61
   2  -8   2   20.06    0.42
  -3   8  -2    0.38    0.10
  -3   8  -2    0.28    0.07
   3  -8   2    0.18    0.08
   3  -8   2    0.30    0.05
  -4   8  -2   29.43    0.74
  -4   8  -2   29.22    0.67
   4  -8   2   29.61    0.60
  -5   8  -2    6.39    0.28
   5  -8   2    6.18    0.20
  -6   8  -2   14.14    0.48
   6  -8   2   14.01    0.37
  -7   8  -2    0.62    0.13
   7  -8   2    0.88    0.12
  -8   8  -2    8.84    0.41
   8  -8   2    8.37    0.32
  -9   8  -2   11.03    0.49
   9  -8   2    9.99    0.39
   5   7  -2    2.46    0.24
  -5  -7   2    2.64    0.30
   4   7  -2   27.74    0.77
  -4  -7   2   27.78    0.74
  -4  -7   2   28.22    0.90
   3   7  -2   25.36    0.69
  -3  -7   2   24.72    0.79
  -3  -7   2   23.28    0.63
   2   7  -2    0.37    0.10
  -2  -7   2    0.45    0.12
  -2  -7   2    0.54    0.09
   1   7  -2    5.65    0.25
  -1  -7   2    5.23    0.20
  -1  -7   2    5.14    0.29
   0   7  -2    1.13    0.13
   0  -7   2    1.33    0.09
   0  -7   2    1.08    0.15
  -1   7  -2   21.66    0.57
   1  -7   2   20.75    0.62
   1  -7   2   21.88    0.45
  -2   7  -2    0.22    0.07
  -2   7  -2    0.13    0.05
   2  -7   2    0.05    0.02
   2  -7   2    0.06    0.02
   2  -7   2    0.03    0.06
  -3   7  -2   26.14    0.65
   3  -7   2   27.00    0.53
   3  -7   2   26.46    0.52
   3  -7   2   25.93    0.70
  -4   7  -2   13.68    0.35
  -4   7  -2   13.43    0.41
   4  -7   2   13.70    0.32
  -5   7  -2    0.06    0.04
  -5   7  -2    0.04    0.06
   5  -7   2    0.07    0.04
  -6   7  -2    2.47    0.19
   6  -7   2    2.65    0.15
  -7   7  -2    0.41    0.11
   7  -7   2    0.42    0.08
  -8   7  -2    0.69    0.14
   8  -7   2    1.14    0.15
  -9   7  -2    3.68    0.30
   9  -7   2    3.43    0.24
  -6  -6   2    0.13    0.10
   5   6  -2    2.26    0.22
  -5  -6   2    3.30    0.23
  -5  -6   2    2.61    0.27
   4   6  -2    1.87    0.18
  -4  -6   2    2.24    0.18
  -4  -6   2    2.32    0.24
   3   6  -2   14.28    0.45
  -3  -6   2   15.20    0.54
  -3  -6   2   15.06    0.43
   2   6  -2    2.48    0.17
  -2  -6   2    2.31    0.20
  -2  -6   2    2.45    0.15
   1   6  -2    0.13    0.06
  -1  -6   2    0.14    0.08
  -1  -6   2    0.16    0.05
   0   6  -2    0.24    0.06
   0  -6   2    0.17    0.04
   0  -6   2    0.20    0.04
   0  -6   2    0.15    0.07
  -1   6  -2    1.82    0.13
   1  -6   2    1.87    0.07
   1  -6   2    1.73    0.07
   1  -6   2    1.95    0.15
  -2   6  -2    2.14    0.14
  -2   6  -2    2.17    0.12
   2  -6   2    2.12    0.07
   2  -6   2    2.22    0.07
   2  -6   2    2.00    0.15
  -3   6  -2    1.31    0.11
  -3   6  -2    1.30    0.09
   3  -6   2    1.37    0.13
   3  -6   2    1.48    0.07
  -4   6  -2   13.33    0.33
  -4   6  -2   13.63    0.41
   4  -6   2   13.44    0.32
   4  -6   2   13.90    0.32
  -5   6  -2    0.12    0.04
  -5   6  -2    0.11    0.06
   5  -6   2    0.12    0.05
  -6   6  -2    1.13    0.14
  -6   6  -2    1.12    0.09
   6  -6   2    1.14    0.12
  -7   6  -2   17.57    0.57
   7  -6   2   17.28    0.49
  -8   6  -2    2.70    0.23
   8  -6   2    2.12    0.19
  -9   6  -2    1.52    0.23
   9  -6   2    1.57    0.19
   6   5  -2    2.30    0.22
  -6  -5   2    2.13    0.26
  -6  -5   2    2.67    0.22
   5   5  -2    2.57    0.20
  -5  -5   2    2.37    0.20
  -5  -5   2    2.21    0.24
   4   5  -2    8.51    0.32
  -4  -5   2    8.69    0.39
  -4  -5   2    8.32    0.32
   3   5  -2    0.40    0.08
   3   5  -2    0.44    0.07
  -3  -5   2    0.46    0.08
  -3  -5   2    0.29    0.10
   2   5  -2    4.80    0.17
   2   5  -2    4.58    0.20
  -2  -5   2    4.58    0.18
  -2  -5   2    4.57    0.24
   1   5  -2   23.85    0.50
   1   5  -2   23.77    0.57
  -1  -5   2   25.39    0.53
  -1  -5   2   23.54    0.52
  -1  -5   2   23.96    0.65
   0   5  -2    0.72    0.09
   0  -5   2    0.72    0.05
   0  -5   2    0.75    0.05
   0  -5   2    0.83    0.11
  -1   5  -2   18.05    0.45
   1  -5   2   17.95    0.36
   1  -5   2   18.34    0.36
   1  -5   2   18.03    0.50
  -2   5  -2   27.08    0.63
   2  -5   2   27.28    0.52
   2  -5   2   27.16    0.52
   2  -5   2   27.02    0.67
  -3   5  -2    1.58    0.11
  -3   5  -2    1.72    0.09
   3  -5   2    1.85    0.08
   3  -5   2    1.71    0.08
  -4   5  -2   81.57    1.77
  -4   5  -2   84.33    1.56
  -4   5  -2   83.91    1.64
   4  -5   2   82.31    1.59
   4  -5   2   86.06    1.60
  -5   5  -2   15.56    0.47
  -5   5  -2   15.42    0.37
  -5   5  -2   15.95    0.37
   5  -5   2   15.79    0.40
   5  -5   2   15.72    0.40
  -6   5  -2    0.79    0.13
  -6   5  -2    0.93    0.08
  -6   5  -2    0.86    0.10
   6  -5   2    0.92    0.11
  -7   5  -2   16.17    0.54
   7  -5   2   16.02    0.47
  -8   5  -2   19.24    0.63
   8  -5   2   18.96    0.56
  -9   5  -2   25.50    0.82
   9  -5   2   26.00    0.73
   7   4  -2    1.38    0.20
  -7  -4   2    1.22    0.20
  -7  -4   2    0.89    0.19
  -7  -4   2    1.57    0.20
   6   4  -2    0.97    0.14
  -6  -4   2    0.92    0.16
  -6  -4   2    1.08    0.20
  -6  -4   2    1.19    0.17
   5   4  -2    2.81    0.19
   5   4  -2    2.76    0.18
  -5  -4   2    3.24    0.25
  -5  -4   2    2.90    0.20
  -5  -4   2    2.89    0.20
   4   4  -2   50.27    1.06
   4   4  -2   49.57    1.10
  -4  -4   2   48.83    1.08
  -4  -4   2   49.73    1.24
   3   4  -2    0.53    0.09
   3   4  -2    0.61    0.09
  -3  -4   2    0.60    0.11
  -3  -4   2    0.37    0.07
   2   4  -2    2.21    0.11
   2   4  -2    2.20    0.12
  -2  -4   2    2.40    0.12
  -2  -4   2    2.14    0.12
   1   4  -2   16.36    0.35
   1   4  -2   16.71    0.41
  -1  -4   2   17.13    0.37
  -1  -4   2   16.22    0.37
  -1  -4   2   16.40    0.47
   0   4  -2  106.14    2.07
   0  -4   2  104.93    2.27
   0  -4   2  104.14    1.95
   0  -4   2  109.01    1.96
   1  -4   2  143.38    2.62
   1  -4   2  144.72    3.04
   1  -4   2  145.34    2.62
  -2   4  -2    5.60    0.17
  -2   4  -2    5.26    0.19
   2  -4   2    5.52    0.13
   2  -4   2    5.36    0.20
   2  -4   2    5.59    0.13
  -3   4  -2    0.89    0.05
  -3   4  -2    0.81    0.09
  -3   4  -2    0.90    0.06
   3  -4   2    0.98    0.06
   3  -4   2    0.79    0.06
  -4   4  -2    0.54    0.09
  -4   4  -2    0.55    0.06
  -4   4  -2    0.53    0.06
   4  -4   2    0.46    0.06
   4  -4   2    0.49    0.07
  -5   4  -2   13.60    0.35
  -5   4  -2   13.87    0.43
  -5   4  -2   13.47    0.34
   5  -4   2   13.29    0.36
  -6   4  -2   28.60    0.66
  -6   4  -2   29.04    0.64
  -6   4  -2   27.99    0.75
   6  -4   2   28.05    0.68
  -7   4  -2   13.87    0.38
  -7   4  -2   14.16    0.42
  -7   4  -2   14.37    0.50
   7  -4   2   14.16    0.44
  -8   4  -2    2.16    0.21
   8  -4   2    1.78    0.18
  -9   4  -2    0.06    0.10
   9  -4   2    0.03    0.09
   8   3  -2    0.31    0.12
  -8  -3   2    0.33    0.15
  -8  -3   2    0.11    0.10
  -8  -3   2    0.14    0.11
   7   3  -2    4.82    0.28
   7   3  -2    4.74    0.28
  -7  -3   2    5.48    0.35
  -7  -3   2    5.24    0.30
  -7  -3   2    4.78    0.29
   6   3  -2   10.67    0.38
   6   3  -2   11.20    0.39
  -6  -3   2   10.28    0.40
  -6  -3   2   11.20    0.45
  -6  -3   2   10.11    0.39
   5   3  -2    0.73    0.12
   5   3  -2    0.96    0.12
  -5  -3   2    0.97    0.13
  -5  -3   2    1.03    0.16
  -5  -3   2    0.93    0.13
   4   3  -2    1.35    0.12
   4   3  -2    1.47    0.12
  -4  -3   2    1.32    0.13
  -4  -3   2    1.33    0.15
  -4  -3   2    1.31    0.12
   3   3  -2    2.04    0.12
   3   3  -2    2.18    0.12
  -3  -3   2    2.18    0.16
  -3  -3   2    2.30    0.13
  -3  -3   2    2.30    0.13
   2   3  -2   18.53    0.43
   2   3  -2   18.94    0.42
  -2  -3   2   18.00    0.50
  -2  -3   2   18.76    0.43
  -2  -3   2   18.90    0.43
   1   3  -2   27.08    0.58
   1   3  -2   27.00    0.54
  -1  -3   2   27.59    0.55
  -1  -3   2   28.00    0.56
  -1  -3   2   27.01    0.66
   0   3  -2    0.50    0.06
   0  -3   2    0.52    0.07
   0  -3   2    0.54    0.03
   0  -3   2    0.53    0.03
   1  -3   2   45.74    1.02
  -2   3  -2   12.66    0.25
  -2   3  -2   12.64    0.25
  -2   3  -2   12.73    0.30
  -2   3  -2   12.61    0.33
   2  -3   2   12.61    0.27
   2  -3   2   12.36    0.27
  -3   3  -2    0.08    0.03
  -3   3  -2    0.11    0.04
  -3   3  -2    0.11    0.04
   3  -3   2    0.19    0.04
   3  -3   2    0.08    0.03
   3  -3   2    0.07    0.03
  -4   3  -2    2.53    0.11
  -4   3  -2    2.64    0.12
   4  -3   2    2.51    0.12
  -5   3  -2   56.20    1.15
  -5   3  -2   56.36    1.15
  -5   3  -2   56.20    1.27
   5  -3   2   56.24    1.16
  -6   3  -2    4.20    0.23
  -6   3  -2    4.61    0.20
  -6   3  -2    4.46    0.19
   6  -3   2    4.49    0.21
  -7   3  -2    3.76    0.19
  -7   3  -2    3.24    0.20
  -7   3  -2    3.54    0.24
   7  -3   2    3.47    0.21
  -8   3  -2    4.85    0.30
  -8   3  -2    4.92    0.26
   8  -3   2    5.34    0.28
  -9   3  -2    3.84    0.30
   9  -3   2    3.98    0.28
   8   2  -2    3.46    0.25
   8   2  -2    3.44    0.26
  -8  -2   2    3.24    0.28
  -8  -2   2    3.88    0.28
  -8  -2   2    2.95    0.26
   7   2  -2    0.40    0.11
   7   2  -2    0.37    0.10
  -7  -2   2    0.39    0.11
  -7  -2   2    0.35    0.10
   6   2  -2    8.49    0.33
   6   2  -2    9.60    0.34
  -6  -2   2    9.09    0.36
  -6  -2   2    8.90    0.34
   5   2  -2   13.10    0.39
   5   2  -2   13.57    0.40
  -5  -2   2   12.95    0.42
  -5  -2   2   12.94    0.40
   4   2  -2   42.42    0.91
   4   2  -2   42.23    0.92
  -4  -2   2   44.08    0.98
  -4  -2   2   41.45    0.91
   3   2  -2   45.74    0.95
   3   2  -2   45.93    0.93
  -3  -2   2   45.08    0.94
  -3  -2   2   46.46    1.00
   2   2  -2    0.41    0.05
   2   2  -2    0.45    0.06
  -2  -2   2    0.43    0.07
  -2  -2   2    0.50    0.06
  -2  -2   2    0.48    0.06
  -2  -2   2    0.49    0.07
  -2  -2   2    0.45    0.05
   1   2  -2   54.19    1.05
   1   2  -2   52.63    1.01
   1   2  -2   54.97    1.11
   1   2  -2   52.95    1.01
  -1  -2   2   52.48    1.02
  -1  -2   2   55.08    1.02
  -1  -2   2   55.08    1.05
  -1  -2   2   52.09    1.17
   0   2  -2  167.18    3.49
   0   2  -2  169.05    3.08
   0   2  -2  170.66    3.07
   0  -2   2  168.40    3.16
   0  -2   2  166.07    3.49
   0  -2   2  171.07    3.13
  -1   2  -2   80.23    1.56
  -1   2  -2   82.46    1.47
  -1   2  -2   80.15    1.71
   1  -2   2   80.90    1.48
   1  -2   2   80.52    1.48
  -2   2  -2  140.89    2.64
  -2   2  -2  141.28    2.54
  -2   2  -2  132.04    2.76
  -2   2  -2  136.79    2.59
   2  -2   2  136.55    2.55
   2  -2   2  140.00    2.55
   2  -2   2  140.01    2.64
  -3   2  -2    0.62    0.08
  -3   2  -2    0.76    0.06
  -3   2  -2    0.71    0.06
   3  -2   2    0.77    0.07
   3  -2   2    0.72    0.07
  -4   2  -2   58.61    1.19
  -4   2  -2   59.00    1.17
  -4   2  -2   58.21    1.28
   4  -2   2   58.15    1.18
  -5   2  -2   12.46    0.34
  -5   2  -2   12.36    0.35
  -5   2  -2   12.63    0.40
   5  -2   2   12.62    0.36
  -6   2  -2   13.59    0.39
  -6   2  -2   13.87    0.41
  -6   2  -2   14.14    0.45
   6  -2   2   13.82    0.42
  -7   2  -2    6.36    0.28
  -7   2  -2    6.77    0.32
  -7   2  -2    6.49    0.26
   7  -2   2    6.51    0.29
  -8   2  -2    1.65    0.18
  -8   2  -2    1.17    0.19
   8  -2   2    1.98    0.20
  -9   2  -2    4.26    0.31
  -9   2  -2    5.06    0.31
   9  -2   2    3.94    0.29
   9   1  -2    0.60    0.15
  -9  -1   2    0.75    0.16
  -9  -1   2    0.98    0.17
   8   1  -2    7.16    0.35
  -8  -1   2    7.75    0.38
  -8  -1   2    7.57    0.36
   7   1  -2    6.22    0.29
   7   1  -2    6.40    0.30
  -7  -1   2    6.33    0.30
  -7  -1   2    6.56    0.32
   6   1  -2   15.26    0.46
   6   1  -2   15.32    0.45
  -6  -1   2   14.98    0.49
  -6  -1   2   15.49    0.46
   5   1  -2   -0.02    0.04
   5   1  -2    0.03    0.05
  -5  -1   2    0.06    0.05
  -5  -1   2    0.15    0.06
   4   1  -2   81.37    1.60
   4   1  -2   79.83    1.57
  -4  -1   2   78.24    1.69
  -4  -1   2   79.94    1.58
   3   1  -2    2.34    0.11
   3   1  -2    2.35    0.11
  -3  -1   2    2.19    0.11
  -3  -1   2    2.43    0.13
   2   1  -2   22.18    0.47
   2   1  -2   22.28    0.46
  -2  -1   2   22.78    0.47
  -2  -1   2   21.86    0.53
  -2  -1   2   22.32    0.47
  -2  -1   2   22.47    0.51
  -2  -1   2   22.60    0.46
   1   1  -2   78.41    1.44
   1   1  -2   75.43    1.44
   1   1  -2   81.55    1.63
   1   1  -2   76.18    1.46
   1   1  -2   77.07    1.56
  -1  -1   2   75.29    1.63
  -1  -1   2   77.09    1.44
  -1  -1   2   78.63    1.44
  -1  -1   2   78.60    1.47
   0   1  -2   62.27    1.24
   0   1  -2   63.53    1.17
   0   1  -2   66.33    1.17
   0  -1   2   64.38    1.18
   0  -1   2   65.21    1.18
   0  -1   2   61.61    1.34
  -1   1  -2  246.74    5.24
  -1   1  -2  242.28    4.71
  -1   1  -2  239.29    4.99
  -1   1  -2  245.63    5.04
  -1   1  -2  250.70    4.68
   1  -1   2  248.59    4.67
   1  -1   2  252.24    4.84
   1  -1   2  243.31    5.08
   1  -1   2  251.09    4.75
  -2   1  -2    7.08    0.21
  -2   1  -2    7.14    0.19
  -2   1  -2    7.13    0.19
   2  -1   2    7.22    0.19
   2  -1   2    7.48    0.20
   2  -1   2    7.22    0.21
   2  -1   2    7.33    0.19
  -3   1  -2   74.52    1.43
  -3   1  -2   76.28    1.55
  -3   1  -2   73.32    1.47
   3  -1   2   73.15    1.49
   3  -1   2   72.36    1.43
  -4   1  -2   20.44    0.49
  -4   1  -2   20.66    0.49
  -4   1  -2   19.97    0.53
   4  -1   2   20.47    0.52
   4  -1   2   20.70    0.50
  -5   1  -2    0.50    0.08
  -5   1  -2    0.61    0.10
  -5   1  -2    0.57    0.09
   5  -1   2    0.84    0.12
   5  -1   2    0.76    0.11
  -6   1  -2    2.95    0.18
  -6   1  -2    3.17    0.21
  -6   1  -2    3.07    0.19
   6  -1   2    3.39    0.20
   6  -1   2    3.26    0.21
  -7   1  -2    9.51    0.36
  -7   1  -2    8.91    0.34
  -7   1  -2    9.15    0.38
   7  -1   2    8.75    0.35
  -8   1  -2    0.54    0.12
  -8   1  -2    0.44    0.12
   8  -1   2    0.41    0.12
  -9   1  -2    1.16    0.19
  -9   1  -2    0.94    0.17
   9  -1   2    0.83    0.16
   9   0  -2    1.75    0.22
  -9   0   2    1.57    0.24
  -9   0   2    1.62    0.21
   8   0  -2    0.01    0.08
  -8   0   2    0.06    0.09
  -8   0   2    0.12    0.09
   7   0  -2    4.48    0.25
  -7   0   2    4.60    0.25
  -7   0   2    4.71    0.27
   6   0  -2    1.40    0.13
  -6   0   2    1.50    0.14
  -6   0   2    1.19    0.15
   5   0  -2   14.15    0.39
   5   0  -2   14.41    0.39
  -5   0   2   14.06    0.42
  -5   0   2   14.03    0.39
   4   0  -2   26.71    0.59
   4   0  -2   26.54    0.59
  -4   0   2   25.63    0.59
  -4   0   2   26.41    0.64
   3   0  -2   71.85    1.39
   3   0  -2   70.50    1.41
  -3   0   2   75.87    1.42
  -3   0   2   71.80    1.39
  -3   0   2   71.25    1.50
   2   0  -2  776.76   14.42
  -2   0   2  748.16   14.46
  -2   0   2  767.97   14.35
  -2   0   2  744.04   15.53
  -2   0   2  753.61   14.67
  -2   0   2  768.02   16.00
   1   0  -2   23.38    0.47
   1   0  -2   23.24    0.50
   1   0  -2   24.01    0.51
  -1   0   2   24.02    0.47
  -1   0   2   23.62    0.47
  -1   0   2   23.53    0.51
   0   0  -2   10.32    0.22
   0   0  -2   10.29    0.22
   0   0  -2    9.81    0.23
   0   0   2   10.39    0.22
   0   0   2   10.54    0.22
   0   0   2   10.38    0.22
   0   0   2   10.57    0.23
  -1   0  -2  101.25    2.00
  -1   0  -2  102.52    1.93
  -1   0  -2   97.83    1.87
   1   0   2  100.61    1.93
   1   0   2   96.77    1.95
   1   0   2  101.39    1.87
   1   0   2  103.38    2.00
  -2   0  -2    0.13    0.03
  -2   0  -2    0.06    0.03
  -2   0  -2    0.10    0.03
   2   0   2    0.16    0.04
   2   0   2    0.08    0.04
  -3   0  -2    0.11    0.04
  -3   0  -2    0.15    0.04
  -3   0  -2    0.06    0.04
   3   0   2    0.07    0.04
   3   0   2    0.08    0.04
  -4   0  -2    2.96    0.16
  -4   0  -2    2.97    0.15
  -4   0  -2    2.84    0.15
   4   0   2    2.90    0.16
   4   0   2    2.62    0.15
  -5   0  -2    1.61    0.14
  -5   0  -2    1.96    0.15
  -5   0  -2    1.82    0.14
   5   0   2    1.72    0.15
   5   0   2    1.89    0.15
  -6   0  -2    0.79    0.13
  -6   0  -2    0.57    0.10
  -6   0  -2    0.74    0.12
   6   0   2    0.66    0.12
   6   0   2    1.00    0.14
  -7   0  -2    1.85    0.19
  -7   0  -2    1.99    0.20
   7   0   2    1.97    0.20
   7   0   2    1.95    0.19
  -8   0  -2    2.68    0.24
   8   0   2    2.88    0.25
   9  -1  -2    5.31    0.31
  -9   1   2    4.68    0.29
  -9   1   2    4.35    0.31
   8  -1  -2   11.25    0.42
  -8   1   2   11.16    0.45
  -8   1   2   11.15    0.41
   7  -1  -2    1.65    0.16
  -7   1   2    2.26    0.19
  -7   1   2    2.19    0.17
   6  -1  -2    2.53    0.17
  -6   1   2    2.64    0.17
  -6   1   2    2.27    0.17
   5  -1  -2    3.88    0.18
  -5   1   2    3.70    0.17
  -5   1   2    3.81    0.19
   4  -1  -2    1.55    0.10
  -4   1   2    1.82    0.12
  -4   1   2    1.74    0.11
   3  -1  -2    0.01    0.03
  -3   1   2   -0.03    0.03
  -3   1   2    0.01    0.03
  -3   1   2    0.03    0.02
   2  -1  -2  156.09    2.86
   2  -1  -2  157.74    3.06
   2  -1  -2  162.40    2.86
  -2   1   2  155.43    3.11
  -2   1   2  159.09    2.86
  -2   1   2  151.87    3.17
  -2   1   2  143.73    2.85
   1  -1  -2  208.17    4.23
   1  -1  -2  221.45    3.98
   1  -1  -2  205.26    4.19
   1  -1  -2  207.76    3.99
  -1   1   2  207.17    3.95
  -1   1   2  217.04    4.15
  -1   1   2  208.40    4.29
  -1   1   2  207.86    4.13
   0  -1  -2   15.97    0.34
   0  -1  -2   15.79    0.33
   0  -1  -2   15.54    0.33
   0  -1  -2   16.00    0.34
   0   1   2   15.46    0.33
   0   1   2   15.44    0.34
   0   1   2   15.95    0.34
  -1  -1  -2  125.09    2.34
  -1  -1  -2  131.68    2.42
  -1  -1  -2  120.44    2.42
  -1  -1  -2  129.28    2.34
  -1  -1  -2  123.27    2.53
   1   1   2  123.04    2.34
   1   1   2  124.65    2.41
   1   1   2  128.32    2.48
  -2  -1  -2  108.30    2.14
  -2  -1  -2  108.05    2.06
  -2  -1  -2  112.23    2.19
   2   1   2  108.16    2.13
   2   1   2  107.90    2.06
  -3  -1  -2   10.77    0.31
  -3  -1  -2   10.82    0.32
  -3  -1  -2   11.34    0.31
   3   1   2   11.32    0.31
   3   1   2   10.27    0.32
  -4  -1  -2    9.80    0.31
  -4  -1  -2   10.26    0.32
  -4  -1  -2   10.06    0.32
   4   1   2    9.65    0.32
   4   1   2    9.88    0.32
  -5  -1  -2   32.25    0.78
  -5  -1  -2   30.56    0.75
  -5  -1  -2   31.30    0.79
   5   1   2   31.01    0.76
   5   1   2   31.27    0.78
  -6  -1  -2    0.87    0.14
  -6  -1  -2    0.49    0.10
   6   1   2    0.55    0.11
   6   1   2    0.21    0.09
  -7  -1  -2    5.43    0.30
  -7  -1  -2    5.72    0.31
   7   1   2    5.73    0.30
   7   1   2    5.05    0.30
  -8  -1  -2   33.28    0.95
  -8  -1  -2   33.48    0.92
   8   1   2   33.20    0.92
   8   1   2   34.21    0.95
  10  -2  -2    6.20    0.36
 -10   2   2    6.17    0.39
 -10   2   2    5.83    0.35
   9  -2  -2    3.41    0.26
  -9   2   2    2.92    0.26
  -9   2   2    3.46    0.25
   8  -2  -2    1.12    0.17
  -8   2   2    1.30    0.18
  -8   2   2    1.54    0.17
   7  -2  -2   23.28    0.62
  -7   2   2   23.62    0.67
  -7   2   2   24.00    0.62
   6  -2  -2    9.31    0.32
  -6   2   2    9.80    0.35
  -6   2   2   10.39    0.32
   5  -2  -2   19.56    0.49
  -5   2   2   19.53    0.53
  -5   2   2   20.61    0.49
   4  -2  -2   16.19    0.33
   4  -2  -2   14.94    0.38
  -4   2   2   14.89    0.40
  -4   2   2   15.31    0.37
   3  -2  -2   59.41    1.14
   3  -2  -2   57.56    1.13
   3  -2  -2   58.53    1.11
  -3   2   2   57.92    1.21
  -3   2   2   58.55    1.13
   2  -2  -2    0.10    0.03
   2  -2  -2    0.08    0.03
   2  -2  -2    0.06    0.01
   2  -2  -2    0.03    0.03
  -2   2   2    0.07    0.03
  -2   2   2    0.08    0.03
  -2   2   2    0.05    0.03
  -2   2   2    0.09    0.02
   1  -2  -2  575.60   11.03
   1  -2  -2  571.24   11.28
   1  -2  -2  589.08   11.37
   1  -2  -2  584.03   11.33
   1  -2  -2  575.46   10.88
  -1   2   2  580.32   10.90
  -1   2   2  557.14   11.38
  -1   2   2  562.76   10.97
  -1   2   2  568.00   11.34
  -1   2   2  582.66   11.23
   0  -2  -2   11.35    0.28
   0  -2  -2   11.87    0.27
   0  -2  -2   10.78    0.26
   0  -2  -2   11.26    0.23
   0   2   2   11.37    0.26
   0   2   2   11.00    0.27
   0   2   2   10.78    0.28
  -1  -2  -2    7.43    0.19
  -1  -2  -2    7.87    0.23
  -1  -2  -2    7.70    0.22
   1   2   2    7.39    0.21
   1   2   2    7.95    0.23
   1   2   2    7.96    0.20
  -2  -2  -2    2.03    0.12
  -2  -2  -2    2.11    0.12
  -2  -2  -2    2.02    0.10
   2   2   2    1.98    0.11
  -3  -2  -2   21.50    0.53
  -3  -2  -2   21.63    0.53
  -3  -2  -2   22.17    0.55
   3   2   2   21.48    0.53
   3   2   2   22.10    0.55
  -4  -2  -2    0.18    0.07
  -4  -2  -2    0.07    0.06
  -4  -2  -2    0.06    0.05
   4   2   2    0.13    0.06
   4   2   2    0.14    0.06
  -5  -2  -2   15.23    0.47
  -5  -2  -2   15.96    0.47
   5   2   2   15.04    0.48
   5   2   2   15.23    0.47
  -6  -2  -2    2.96    0.22
  -6  -2  -2    2.83    0.21
   6   2   2    3.07    0.22
   6   2   2    2.82    0.22
  -7  -2  -2    7.94    0.37
  -7  -2  -2    7.84    0.37
   7   2   2    7.04    0.35
   7   2   2    7.79    0.38
  10  -3  -2    1.65    0.22
 -10   3   2    1.91    0.22
 -10   3   2    1.49    0.23
   9  -3  -2    0.21    0.11
  -9   3   2    0.13    0.10
  -9   3   2    0.15    0.09
   8  -3  -2    1.42    0.17
  -8   3   2    1.90    0.20
  -8   3   2    2.01    0.18
   7  -3  -2    1.53    0.15
  -7   3   2    1.46    0.14
  -7   3   2    1.15    0.15
   6  -3  -2   14.47    0.41
   6  -3  -2   14.68    0.33
  -6   3   2   14.92    0.41
  -6   3   2   14.04    0.44
   5  -3  -2   34.45    0.67
   5  -3  -2   34.37    0.75
  -5   3   2   34.56    0.81
  -5   3   2   33.38    0.74
   4  -3  -2    0.04    0.04
  -4   3   2    0.08    0.04
  -4   3   2    0.09    0.04
   3  -3  -2   12.11    0.29
   3  -3  -2   11.61    0.29
  -3   3   2   11.41    0.26
  -3   3   2   11.30    0.28
  -3   3   2   11.01    0.30
   2  -3  -2    0.09    0.02
   2  -3  -2    0.07    0.03
   2  -3  -2    0.08    0.03
   2  -3  -2    0.08    0.02
   2  -3  -2    0.07    0.02
  -2   3   2    0.08    0.03
  -2   3   2    0.16    0.03
  -2   3   2    0.11    0.02
   1  -3  -2   36.25    0.75
   1  -3  -2   36.73    0.73
   1  -3  -2   36.90    0.73
  -1   3   2   35.65    0.72
  -1   3   2   36.88    0.75
  -1   3   2   36.78    0.77
   0  -3  -2   26.67    0.55
   0  -3  -2   25.99    0.57
   0  -3  -2   26.02    0.55
   0   3   2   25.55    0.58
   0   3   2   25.66    0.54
  -1  -3  -2   16.41    0.36
  -1  -3  -2   15.44    0.41
  -1  -3  -2   15.79    0.39
   1   3   2   16.24    0.38
   1   3   2   16.00    0.36
   1   3   2   16.10    0.41
  -2  -3  -2    2.70    0.12
  -2  -3  -2    2.51    0.15
  -2  -3  -2    2.56    0.14
   2   3   2    2.94    0.14
   2   3   2    2.69    0.15
  -3  -3  -2    3.87    0.19
  -3  -3  -2    3.80    0.17
  -3  -3  -2    3.93    0.20
   3   3   2    3.39    0.19
   3   3   2    3.96    0.19
  -4  -3  -2    3.99    0.19
  -4  -3  -2    3.81    0.21
   4   3   2    4.29    0.22
   4   3   2    3.99    0.22
  -5  -3  -2   16.29    0.51
  -5  -3  -2   16.00    0.49
   5   3   2   16.47    0.52
   5   3   2   16.80    0.50
  -6  -3  -2    0.15    0.08
  -6  -3  -2    0.09    0.09
   6   3   2    0.08    0.09
   6   3   2    0.10    0.09
  -7  -3  -2    2.92    0.26
  -7  -3  -2    2.68    0.24
   7   3   2    3.18    0.26
   7   3   2    3.24    0.28
  10  -4  -2    0.71    0.15
 -10   4   2    0.45    0.15
   9  -4  -2    0.16    0.10
  -9   4   2    0.18    0.10
  -9   4   2    0.25    0.10
   8  -4  -2    5.50    0.27
  -8   4   2    5.52    0.26
  -8   4   2    6.19    0.31
   7  -4  -2    7.21    0.29
  -7   4   2    7.29    0.28
  -7   4   2    7.30    0.31
   6  -4  -2   44.87    0.97
  -6   4   2   45.53    0.96
  -6   4   2   44.23    1.05
   5  -4  -2    1.29    0.11
  -5   4   2    1.23    0.11
  -5   4   2    1.08    0.10
  -5   4   2    1.28    0.07
   4  -4  -2    6.56    0.21
  -4   4   2    6.56    0.17
  -4   4   2    6.60    0.22
  -4   4   2    6.71    0.20
   3  -4  -2    9.76    0.26
   3  -4  -2   10.27    0.25
   3  -4  -2   10.38    0.27
  -3   4   2   10.05    0.21
  -3   4   2   10.07    0.27
  -3   4   2    9.94    0.25
   2  -4  -2    6.01    0.18
   2  -4  -2    6.18    0.16
   2  -4  -2    5.93    0.18
   2  -4  -2    6.03    0.18
  -2   4   2    6.01    0.21
  -2   4   2    6.09    0.17
  -2   4   2    6.21    0.16
  -2   4   2    6.31    0.17
   1  -4  -2   14.28    0.37
   1  -4  -2   13.66    0.33
   1  -4  -2   13.93    0.33
  -1   4   2   13.35    0.32
  -1   4   2   13.20    0.36
   0  -4  -2   51.50    1.04
   0   4   2   51.30    1.03
   0   4   2   52.58    1.10
  -1  -4  -2    0.78    0.09
   1   4   2    0.89    0.08
   1   4   2    0.91    0.10
   1   4   2    0.81    0.05
  -2  -4  -2   23.45    0.54
  -2  -4  -2   23.63    0.57
   2   4   2   23.07    0.56
   2   4   2   23.63    0.60
  -3  -4  -2    1.08    0.10
  -3  -4  -2    1.52    0.13
   3   4   2    1.13    0.13
   3   4   2    1.33    0.13
  -4  -4  -2    7.33    0.27
  -4  -4  -2    6.92    0.30
   4   4   2    7.28    0.30
   4   4   2    7.51    0.32
  -5  -4  -2    8.80    0.36
  -5  -4  -2    8.16    0.32
   5   4   2    8.65    0.35
   5   4   2    8.46    0.37
  -6  -4  -2    2.19    0.22
   6   4   2    1.92    0.21
   6   4   2    2.24    0.23
  10  -5  -2    0.57    0.15
 -10   5   2    0.54    0.15
   9  -5  -2    5.55    0.30
  -9   5   2    5.62    0.32
   8  -5  -2    2.73    0.20
  -8   5   2    2.54    0.22
  -8   5   2    2.10    0.17
   7  -5  -2    4.96    0.23
  -7   5   2    4.48    0.25
  -7   5   2    4.99    0.22
   6  -5  -2    1.39    0.13
  -6   5   2    1.52    0.12
  -6   5   2    1.63    0.14
   5  -5  -2    1.22    0.11
  -5   5   2    1.34    0.08
  -5   5   2    1.44    0.10
  -5   5   2    1.46    0.12
   4  -5  -2   15.32    0.38
  -4   5   2   16.15    0.38
  -4   5   2   15.27    0.40
  -4   5   2   15.40    0.37
   3  -5  -2    3.16    0.13
   3  -5  -2    3.09    0.13
   3  -5  -2    3.26    0.13
   3  -5  -2    2.49    0.11
  -3   5   2    3.01    0.16
  -3   5   2    3.14    0.12
  -3   5   2    3.16    0.12
  -3   5   2    3.08    0.10
   2  -5  -2    7.94    0.25
   2  -5  -2    8.39    0.23
   2  -5  -2    8.10    0.23
  -2   5   2    8.30    0.27
  -2   5   2    7.86    0.19
  -2   5   2    7.77    0.22
   1  -5  -2   18.78    0.50
   1  -5  -2   19.79    0.45
   1  -5  -2   19.19    0.45
  -1   5   2   19.67    0.50
  -1   5   2   19.45    0.44
   0  -5  -2    0.00    0.04
   0  -5  -2    0.05    0.05
   0   5   2   -0.03    0.04
   0   5   2    0.02    0.03
  -1  -5  -2    9.41    0.30
   1   5   2    9.27    0.33
   1   5   2    9.92    0.29
  -2  -5  -2   24.15    0.62
   2   5   2   26.31    0.62
   2   5   2   26.34    0.67
  -3  -5  -2    0.00    0.05
  -3  -5  -2    0.00    0.04
   3   5   2    0.07    0.06
   3   5   2   -0.05    0.05
  -4  -5  -2    0.08    0.07
   4   5   2    0.06    0.08
   4   5   2    0.07    0.07
  -5  -5  -2    0.23    0.10
   5   5   2    0.46    0.13
  -6  -5  -2    8.51    0.41
   6   5   2    8.65    0.43
  10  -6  -2   -0.04    0.10
 -10   6   2    0.13    0.11
   9  -6  -2    3.53    0.24
  -9   6   2    3.56    0.26
   8  -6  -2    1.28    0.16
  -8   6   2    1.08    0.17
   7  -6  -2    3.43    0.20
  -7   6   2    3.66    0.22
  -7   6   2    3.56    0.19
   6  -6  -2    0.51    0.08
  -6   6   2    0.41    0.08
  -6   6   2    0.47    0.07
   5  -6  -2    3.36    0.17
  -5   6   2    3.29    0.17
  -5   6   2    3.76    0.15
   4  -6  -2    0.53    0.08
   4  -6  -2    0.39    0.06
  -4   6   2    0.59    0.07
  -4   6   2    0.65    0.05
  -4   6   2    0.61    0.07
   3  -6  -2    6.59    0.23
   3  -6  -2    6.55    0.22
   3  -6  -2    7.61    0.23
  -3   6   2    7.24    0.20
  -3   6   2    7.14    0.27
  -3   6   2    7.00    0.20
   2  -6  -2   26.94    0.66
   2  -6  -2   26.10    0.58
   2  -6  -2   26.75    0.59
  -2   6   2   25.94    0.53
  -2   6   2   26.38    0.66
  -2   6   2   26.27    0.56
   1  -6  -2    4.36    0.21
   1  -6  -2    4.45    0.18
  -1   6   2    4.10    0.21
  -1   6   2    4.37    0.16
   0  -6  -2   19.89    0.58
   0  -6  -2   19.90    0.50
   0   6   2   20.43    0.56
   0   6   2   20.78    0.48
  -1  -6  -2   24.51    0.59
  -1  -6  -2   23.51    0.68
   1   6   2   23.50    0.64
   1   6   2   23.12    0.57
  -2  -6  -2    1.36    0.18
  -2  -6  -2    1.55    0.14
   2   6   2    1.55    0.17
  -3  -6  -2    0.15    0.11
  -3  -6  -2    0.28    0.08
   3   6   2    0.22    0.10
  -4  -6  -2    0.06    0.08
  -4  -6  -2    0.14    0.11
   4   6   2    0.18    0.11
  -5  -6  -2    4.02    0.28
  -5  -6  -2    3.86    0.33
   5   6   2    4.57    0.32
  10  -7  -2    0.77    0.15
 -10   7   2    0.84    0.18
   9  -7  -2    4.78    0.27
  -9   7   2    5.78    0.33
   8  -7  -2   21.81    0.60
  -8   7   2   21.19    0.65
   7  -7  -2    0.00    0.06
  -7   7   2    0.02    0.06
   6  -7  -2    6.06    0.24
  -6   7   2    6.21    0.26
   5  -7  -2   -0.05    0.04
  -5   7   2   -0.03    0.04
   4  -7  -2   21.54    0.54
   4  -7  -2   21.39    0.51
  -4   7   2   20.84    0.59
  -4   7   2   21.99    0.52
   3  -7  -2    5.42    0.22
   3  -7  -2    5.33    0.20
  -3   7   2    5.58    0.16
  -3   7   2    5.79    0.26
   2  -7  -2  161.94    3.40
   2  -7  -2  157.13    3.01
  -2   7   2  159.99    3.19
   1  -7  -2    0.74    0.12
   1  -7  -2    0.56    0.08
  -1   7   2    0.48    0.10
   0  -7  -2    2.35    0.19
   0  -7  -2    2.64    0.16
   0   7   2    2.59    0.20
  -1  -7  -2    1.43    0.18
  -1  -7  -2    1.62    0.14
   1   7   2    1.44    0.17
  -2  -7  -2   41.71    1.13
  -2  -7  -2   41.39    0.97
   2   7   2   41.10    1.04
  -3  -7  -2    0.84    0.13
  -3  -7  -2    1.11    0.19
   3   7   2    0.69    0.14
  -4  -7  -2    1.36    0.24
  -4  -7  -2    1.49    0.19
   4   7   2    1.73    0.23
  10  -8  -2    3.79    0.27
   9  -8  -2    0.15    0.10
  -9   8   2   -0.04    0.08
   8  -8  -2    0.40    0.10
  -8   8   2    0.20    0.10
   7  -8  -2   17.97    0.51
  -7   8   2   18.93    0.56
   6  -8  -2    3.93    0.20
  -6   8   2    4.04    0.21
   5  -8  -2    0.55    0.08
  -5   8   2    0.50    0.11
  -5   8   2    0.65    0.09
   4  -8  -2    0.13    0.06
   4  -8  -2    0.14    0.06
  -4   8   2    0.08    0.08
   3  -8  -2   16.87    0.44
   3  -8  -2   17.20    0.50
  -3   8   2   16.40    0.52
   2  -8  -2    0.46    0.08
   2  -8  -2    0.49    0.10
  -2   8   2    0.49    0.11
   1  -8  -2    2.70    0.16
   1  -8  -2    2.65    0.20
  -1   8   2    2.75    0.21
   0  -8  -2    1.22    0.13
   0  -8  -2    1.32    0.17
   0   8   2    1.40    0.18
  -1  -8  -2   11.43    0.39
  -1  -8  -2   11.51    0.48
   1   8   2   12.27    0.46
  -2  -8  -2    8.16    0.41
  -2  -8  -2    7.93    0.34
   2   8   2    8.08    0.39
  -3  -8  -2    0.74    0.14
  -3  -8  -2    1.04    0.20
   3   8   2    0.46    0.14
   9  -9  -2    0.01    0.09
  -9   9   2   -0.12    0.08
   8  -9  -2    1.75    0.18
  -8   9   2    1.91    0.20
   7  -9  -2    0.08    0.07
   6  -9  -2    2.03    0.15
  -6   9   2    1.98    0.21
   5  -9  -2    2.42    0.16
  -5   9   2    2.87    0.23
   4  -9  -2    0.95    0.13
   4  -9  -2    0.83    0.11
  -4   9   2    0.79    0.14
   3  -9  -2    1.56    0.16
   3  -9  -2    1.39    0.12
  -3   9   2    1.38    0.18
   2  -9  -2    5.31    0.23
   2  -9  -2    5.85    0.29
  -2   9   2    5.52    0.31
   1  -9  -2    0.12    0.06
   1  -9  -2    0.15    0.09
  -1   9   2    0.55    0.13
   0  -9  -2    1.02    0.18
   0  -9  -2    0.94    0.13
   0   9   2    1.12    0.18
  -1  -9  -2    0.02    0.09
  -1  -9  -2    0.12    0.08
   1   9   2    0.12    0.10
   8 -10  -2    3.71    0.23
   7 -10  -2    6.46    0.28
  -7  10   2    6.33    0.36
   6 -10  -2    7.44    0.28
  -6  10   2    6.72    0.36
   5 -10  -2    1.15    0.13
  -5  10   2    1.15    0.18
   4 -10  -2    0.89    0.12
  -4  10   2    0.65    0.14
   3 -10  -2    6.51    0.26
  -3  10   2    7.31    0.36
   2 -10  -2   12.76    0.40
   2 -10  -2   14.24    0.51
  -2  10   2   13.99    0.52
   1 -10  -2    2.13    0.17
   1 -10  -2    2.71    0.25
  -1  10   2    2.31    0.24
   0 -10  -2    0.66    0.12
   0 -10  -2    0.76    0.17
   0  10   2    0.73    0.16
   7 -11  -2    0.61    0.11
   6 -11  -2    0.11    0.08
  -6  11   2    0.39    0.14
   5 -11  -2   14.36    0.42
  -5  11   2   12.98    0.54
   4 -11  -2    1.94    0.15
  -4  11   2    2.03    0.24
   3 -11  -2    1.00    0.13
  -3  11   2    1.08    0.18
  -2  11  -3    1.96    0.21
   2 -11   3    2.68    0.26
  -3  11  -3    3.13    0.25
   3 -11   3    2.50    0.26
  -4  11  -3   -0.02    0.08
  -5  11  -3    7.46    0.38
  -6  11  -3    0.34    0.13
   1  10  -3   13.10    0.49
  -1 -10   3   13.26    0.57
   0  10  -3    0.59    0.13
   0 -10   3    0.50    0.14
  -1  10  -3    1.05    0.17
   1 -10   3    1.01    0.18
  -2  10  -3    0.68    0.13
   2 -10   3    0.73    0.15
  -3  10  -3   30.85    0.84
   3 -10   3   31.41    0.90
  -4  10  -3    0.13    0.09
  -5  10  -3    5.64    0.29
  -5  10  -3    5.28    0.31
  -6  10  -3   10.79    0.43
  -7  10  -3    6.17    0.34
   2   9  -3    7.05    0.34
  -2  -9   3    6.86    0.40
   1   9  -3    0.73    0.13
  -1  -9   3    0.59    0.14
  -1  -9   3    0.57    0.08
   0   9  -3   17.75    0.54
   0  -9   3   16.52    0.61
   0  -9   3   16.63    0.41
  -1   9  -3    0.08    0.07
   1  -9   3    0.02    0.09
  -2   9  -3    1.48    0.16
  -2   9  -3    1.21    0.12
   2  -9   3    1.55    0.19
  -3   9  -3    4.31    0.25
  -3   9  -3    4.54    0.22
  -3   9  -3    4.39    0.22
   3  -9   3    4.58    0.27
  -4   9  -3    3.46    0.19
  -4   9  -3    3.29    0.20
  -4   9  -3    3.06    0.22
  -5   9  -3    1.06    0.15
  -6   9  -3   -0.07    0.06
   6  -9   3    0.03    0.04
  -7   9  -3    4.59    0.29
   7  -9   3    4.86    0.21
  -8   9  -3    0.17    0.10
   8  -9   3    0.08    0.08
  -4  -8   3    5.27    0.38
  -4  -8   3    5.28    0.28
   3   8  -3   -0.05    0.07
  -3  -8   3   -0.04    0.09
   2   8  -3    1.57    0.17
  -2  -8   3    1.41    0.22
  -2  -8   3    1.65    0.14
   1   8  -3    2.78    0.20
  -1  -8   3    2.90    0.24
  -1  -8   3    2.52    0.14
   0   8  -3    0.10    0.07
   0  -8   3    0.19    0.09
   0  -8   3    0.14    0.04
  -1   8  -3    2.42    0.18
   1  -8   3    2.53    0.09
   1  -8   3    2.48    0.21
  -2   8  -3    6.13    0.27
  -2   8  -3    6.22    0.25
   2  -8   3    6.83    0.31
  -3   8  -3   35.58    0.87
  -3   8  -3   36.21    0.87
  -3   8  -3   35.88    0.82
   3  -8   3   35.86    0.94
  -4   8  -3    0.03    0.06
  -4   8  -3    0.03    0.05
   4  -8   3    0.04    0.03
  -5   8  -3    0.24    0.08
   5  -8   3    0.08    0.04
  -6   8  -3    6.11    0.30
   6  -8   3    5.61    0.21
  -7   8  -3    7.31    0.36
   7  -8   3    7.27    0.27
  -8   8  -3    0.82    0.16
   8  -8   3    0.76    0.12
  -9   8  -3    0.50    0.14
   9  -8   3    0.55    0.12
  -5  -7   3   16.33    0.67
  -5  -7   3   15.95    0.53
   4   7  -3    7.51    0.33
  -4  -7   3    7.16    0.41
   3   7  -3    0.96    0.15
  -3  -7   3    0.75    0.12
  -3  -7   3    0.78    0.16
   2   7  -3    3.94    0.22
  -2  -7   3    3.95    0.19
  -2  -7   3    3.93    0.27
   1   7  -3   11.98    0.39
  -1  -7   3   12.29    0.46
  -1  -7   3   12.36    0.33
   0   7  -3   13.43    0.40
   0  -7   3   14.17    0.48
   0  -7   3   12.87    0.32
  -1   7  -3   16.19    0.47
   1  -7   3   17.18    0.35
   1  -7   3   16.91    0.35
   1  -7   3   17.17    0.53
  -2   7  -3    0.66    0.09
  -2   7  -3    0.50    0.09
   2  -7   3    0.75    0.13
  -3   7  -3    5.91    0.22
  -3   7  -3    6.17    0.25
   3  -7   3    5.99    0.28
   3  -7   3    5.96    0.14
   3  -7   3    6.10    0.14
  -4   7  -3    6.32    0.27
  -4   7  -3    6.55    0.22
   4  -7   3    6.29    0.17
  -5   7  -3    3.58    0.15
  -5   7  -3    3.50    0.21
   5  -7   3    3.48    0.14
  -6   7  -3    2.36    0.20
   6  -7   3    2.52    0.15
  -7   7  -3   10.50    0.42
   7  -7   3    9.20    0.32
  -8   7  -3    0.80    0.15
   8  -7   3    1.27    0.16
  -9   7  -3    3.63    0.30
   9  -7   3    3.42    0.24
  -6  -6   3    0.12    0.09
  -6  -6   3    0.16    0.13
   5   6  -3    0.17    0.10
  -5  -6   3    0.09    0.11
  -5  -6   3    0.07    0.08
   4   6  -3    8.16    0.33
  -4  -6   3    8.50    0.41
  -4  -6   3    7.51    0.31
   3   6  -3   15.22    0.44
  -3  -6   3   13.63    0.41
  -3  -6   3   14.25    0.52
   2   6  -3    2.91    0.17
  -2  -6   3    2.91    0.22
  -2  -6   3    2.93    0.15
   1   6  -3    2.93    0.16
  -1  -6   3    3.00    0.21
  -1  -6   3    2.97    0.13
   0   6  -3   15.71    0.43
   0  -6   3   16.47    0.35
   0  -6   3   16.35    0.35
   0  -6   3   15.80    0.50
  -1   6  -3    3.51    0.17
   1  -6   3    3.57    0.09
   1  -6   3    3.82    0.09
   1  -6   3    3.71    0.20
  -2   6  -3    1.61    0.12
   2  -6   3    1.95    0.15
  -3   6  -3    4.18    0.20
  -3   6  -3    4.22    0.17
   3  -6   3    4.39    0.12
   3  -6   3    4.40    0.12
  -4   6  -3   10.20    0.35
  -4   6  -3    9.59    0.28
   4  -6   3    9.99    0.25
   4  -6   3   10.10    0.26
  -5   6  -3    0.42    0.07
  -5   6  -3    0.41    0.09
   5  -6   3    0.30    0.06
  -6   6  -3   24.04    0.69
  -6   6  -3   24.31    0.56
   6  -6   3   24.31    0.58
  -7   6  -3    0.28    0.10
   7  -6   3    0.17    0.07
  -8   6  -3    1.23    0.20
   8  -6   3    1.26    0.16
  -9   6  -3    0.16    0.11
   9  -6   3    0.07    0.09
   6   5  -3    0.71    0.13
  -6  -5   3    0.78    0.14
  -6  -5   3    0.95    0.19
   5   5  -3    1.20    0.16
  -5  -5   3    1.29    0.16
  -5  -5   3    1.13    0.20
   4   5  -3    0.91    0.13
  -4  -5   3    0.68    0.13
  -4  -5   3    0.95    0.13
   3   5  -3    5.74    0.23
  -3  -5   3    5.41    0.22
  -3  -5   3    5.71    0.29
   2   5  -3    0.27    0.05
   2   5  -3    0.41    0.07
  -2  -5   3    0.22    0.08
  -2  -5   3    0.26    0.05
   1   5  -3    0.56    0.05
   1   5  -3    0.60    0.08
  -1  -5   3    0.52    0.06
  -1  -5   3    0.59    0.06
  -1  -5   3    0.49    0.09
   0   5  -3   24.51    0.56
   0  -5   3   23.11    0.48
   0  -5   3   23.53    0.48
   0  -5   3   23.97    0.63
  -1   5  -3    1.04    0.09
   1  -5   3    1.11    0.11
  -2   5  -3   45.57    1.03
  -2   5  -3   46.15    0.98
   2  -5   3   46.95    1.09
   2  -5   3   46.59    0.86
   2  -5   3   47.60    0.86
  -3   5  -3    2.13    0.11
  -3   5  -3    2.11    0.14
   3  -5   3    2.29    0.09
   3  -5   3    2.29    0.09
  -4   5  -3    8.09    0.24
  -4   5  -3    7.68    0.29
  -4   5  -3    7.75    0.19
   4  -5   3    8.05    0.22
   4  -5   3    7.64    0.22
  -5   5  -3   11.19    0.29
  -5   5  -3   11.38    0.31
  -5   5  -3   11.18    0.39
   5  -5   3   11.30    0.32
  -6   5  -3   24.22    0.70
  -6   5  -3   25.45    0.59
   6  -5   3   25.82    0.62
  -7   5  -3   37.01    0.81
  -7   5  -3   35.70    0.95
   7  -5   3   34.39    0.84
  -8   5  -3    1.11    0.19
   8  -5   3    1.02    0.16
  -9   5  -3    4.91    0.34
   9  -5   3    5.29    0.30
   7   4  -3   11.41    0.43
  -7  -4   3   10.41    0.44
  -7  -4   3   10.65    0.50
   6   4  -3    3.62    0.23
  -6  -4   3    3.87    0.29
  -6  -4   3    3.31    0.23
   5   4  -3    3.55    0.20
   5   4  -3    3.59    0.20
  -5  -4   3    3.32    0.25
  -5  -4   3    3.47    0.21
   4   4  -3   21.31    0.54
   4   4  -3   21.92    0.53
  -4  -4   3   20.73    0.55
  -4  -4   3   20.71    0.64
   3   4  -3   15.67    0.41
   3   4  -3   16.08    0.40
  -3  -4   3   15.77    0.50
  -3  -4   3   15.79    0.41
   2   4  -3   51.80    1.02
   2   4  -3   51.78    1.07
  -2  -4   3   53.15    1.04
  -2  -4   3   51.17    1.22
  -2  -4   3   50.81    1.04
   1   4  -3   68.61    1.39
   1   4  -3   69.12    1.30
  -1  -4   3   71.88    1.32
  -1  -4   3   68.61    1.32
  -1  -4   3   68.76    1.55
   0   4  -3    5.60    0.18
   0  -4   3    5.46    0.22
   0  -4   3    5.31    0.13
   1  -4   3    3.60    0.17
  -2   4  -3   25.62    0.61
  -2   4  -3   26.45    0.57
   2  -4   3   26.19    0.50
   2  -4   3   25.22    0.50
  -3   4  -3   39.09    0.90
  -3   4  -3   39.53    0.75
  -3   4  -3   39.04    0.82
   3  -4   3   39.78    0.78
   3  -4   3   38.98    0.78
  -4   4  -3   45.17    0.94
  -4   4  -3   43.90    1.03
  -4   4  -3   44.28    0.89
   4  -4   3   46.32    0.92
   4  -4   3   44.67    0.91
  -5   4  -3    4.24    0.22
  -5   4  -3    3.77    0.16
  -5   4  -3    4.01    0.16
   5  -4   3    4.09    0.18
  -6   4  -3   74.15    1.68
  -6   4  -3   76.65    1.54
  -6   4  -3   74.97    1.51
   6  -4   3   73.77    1.53
  -7   4  -3    7.36    0.27
  -7   4  -3    6.67    0.28
  -7   4  -3    7.21    0.34
   7  -4   3    7.25    0.30
  -8   4  -3    5.06    0.31
   8  -4   3    4.79    0.27
  -9   4  -3    1.70    0.24
   9  -4   3    1.63    0.21
   8   3  -3    4.21    0.28
  -8  -3   3    4.06    0.30
  -8  -3   3    4.75    0.35
  -8  -3   3    4.52    0.30
   7   3  -3   12.20    0.46
   7   3  -3   12.93    0.44
  -7  -3   3   11.94    0.47
  -7  -3   3   12.57    0.52
  -7  -3   3   12.03    0.46
   6   3  -3    0.45    0.10
   6   3  -3    0.40    0.09
  -6  -3   3    0.35    0.10
  -6  -3   3    0.55    0.12
  -6  -3   3    0.27    0.09
   5   3  -3    3.27    0.18
   5   3  -3    3.20    0.19
  -5  -3   3    3.20    0.19
  -5  -3   3    3.23    0.20
  -5  -3   3    3.48    0.23
   4   3  -3    1.24    0.11
   4   3  -3    1.18    0.11
  -4  -3   3    1.28    0.14
  -4  -3   3    1.19    0.12
  -4  -3   3    1.13    0.12
   3   3  -3   12.68    0.33
   3   3  -3   12.03    0.32
  -3  -3   3   12.96    0.40
   2   3  -3   11.92    0.30
   2   3  -3   12.06    0.29
  -2  -3   3   11.64    0.30
  -2  -3   3   11.79    0.36
   1   3  -3   20.50    0.41
   1   3  -3   20.36    0.44
  -1  -3   3   19.76    0.53
  -1  -3   3   20.42    0.43
  -1  -3   3   21.24    0.43
   0   3  -3   73.02    1.42
   0  -3   3   73.49    1.34
   0  -3   3   71.42    1.34
   0  -3   3   72.40    1.58
  -1   3  -3   13.42    0.33
   1  -3   3   12.83    0.36
   1  -3   3   13.38    0.26
   1  -3   3   13.63    0.26
  -2   3  -3   22.39    0.44
  -2   3  -3   22.65    0.50
   2  -3   3   22.69    0.45
   2  -3   3   21.73    0.45
  -3   3  -3    7.57    0.20
  -3   3  -3    7.47    0.25
  -3   3  -3    7.39    0.22
   3  -3   3    7.23    0.21
   3  -3   3    7.74    0.21
  -4   3  -3   10.69    0.29
  -4   3  -3   10.87    0.29
  -4   3  -3   10.87    0.34
   4  -3   3   10.31    0.29
  -5   3  -3    1.67    0.12
  -5   3  -3    0.89    0.12
  -5   3  -3    1.17    0.10
   5  -3   3    1.42    0.12
  -6   3  -3    0.94    0.11
  -6   3  -3    0.86    0.11
  -6   3  -3    0.77    0.13
   6  -3   3    0.73    0.12
  -7   3  -3    0.00    0.05
  -7   3  -3    0.06    0.08
  -7   3  -3    0.07    0.06
   7  -3   3    0.06    0.07
  -8   3  -3    0.56    0.12
  -8   3  -3    0.69    0.11
  -8   3  -3    0.87    0.15
   8  -3   3    0.67    0.13
  -9   3  -3    1.91    0.24
   9  -3   3    2.05    0.23
   8   2  -3    1.79    0.22
  -8  -2   3    1.14    0.20
  -8  -2   3    1.81    0.24
  -8  -2   3    1.73    0.21
   7   2  -3    3.51    0.23
   7   2  -3    3.53    0.22
  -7  -2   3    3.09    0.25
  -7  -2   3    3.54    0.24
  -7  -2   3    3.43    0.25
   6   2  -3    1.98    0.16
   6   2  -3    1.97    0.17
  -6  -2   3    2.35    0.18
  -6  -2   3    2.13    0.18
  -6  -2   3    2.45    0.20
   5   2  -3    6.98    0.27
   5   2  -3    7.23    0.25
  -5  -2   3    6.82    0.27
  -5  -2   3    6.76    0.30
  -5  -2   3    6.60    0.28
   4   2  -3   25.44    0.58
   4   2  -3   25.91    0.59
  -4  -2   3   24.90    0.60
  -4  -2   3   25.67    0.64
  -4  -2   3   25.66    0.68
   3   2  -3    6.37    0.21
   3   2  -3    6.32    0.19
  -3  -2   3    6.71    0.21
  -3  -2   3    6.46    0.23
  -3  -2   3    6.78    0.25
   2   2  -3   45.20    0.90
   2   2  -3   45.37    0.91
  -2  -2   3   47.63    0.91
  -2  -2   3   45.12    1.04
  -2  -2   3   45.33    0.90
  -2  -2   3   46.31    0.91
   1   2  -3    0.07    0.02
   1   2  -3    0.09    0.02
   1   2  -3    0.04    0.02
  -1  -2   3    0.08    0.02
  -1  -2   3    0.04    0.04
   0   2  -3   43.64    0.81
   0   2  -3   43.96    0.82
   0  -2   3   43.53    0.82
   0  -2   3   45.38    0.98
   0  -2   3   43.43    0.82
  -1   2  -3   73.21    1.34
  -1   2  -3   71.90    1.34
  -1   2  -3   70.37    1.42
   1  -2   3   72.50    1.35
   1  -2   3   73.98    1.35
  -2   2  -3  148.50    2.77
  -2   2  -3  152.63    2.88
  -2   2  -3  146.28    3.01
   2  -2   3  150.41    2.78
   2  -2   3  153.13    2.78
  -3   2  -3    7.53    0.21
  -3   2  -3    7.65    0.23
  -3   2  -3    7.75    0.26
   3  -2   3    7.66    0.22
   3  -2   3    7.86    0.22
  -4   2  -3    0.45    0.08
  -4   2  -3    0.45    0.07
  -4   2  -3    0.42    0.06
   4  -2   3    0.41    0.07
  -5   2  -3    2.29    0.16
  -5   2  -3    2.44    0.15
  -5   2  -3    2.31    0.14
   5  -2   3    2.38    0.15
  -6   2  -3   10.94    0.40
  -6   2  -3   11.01    0.35
  -6   2  -3   11.38    0.37
   6  -2   3   10.92    0.37
  -7   2  -3    8.10    0.32
  -7   2  -3    7.70    0.30
  -7   2  -3    6.86    0.34
   7  -2   3    8.14    0.33
  -8   2  -3    0.09    0.08
  -8   2  -3    0.07    0.08
  -8   2  -3   -0.01    0.08
   8  -2   3    0.02    0.08
  -9   2  -3    0.22    0.13
   9  -2   3    0.35    0.12
   9   1  -3    3.23    0.27
  -9  -1   3    3.34    0.29
  -9  -1   3    3.56    0.30
  -9  -1   3    3.23    0.27
   8   1  -3    0.15    0.10
  -8  -1   3    0.12    0.09
  -8  -1   3   -0.02    0.08
  -8  -1   3   -0.01    0.09
   7   1  -3   10.86    0.39
  -7  -1   3   10.66    0.42
  -7  -1   3   10.58    0.40
   6   1  -3   17.56    0.48
   6   1  -3   17.72    0.50
  -6  -1   3   17.67    0.50
  -6  -1   3   16.30    0.53
   5   1  -3    1.86    0.14
   5   1  -3    1.97    0.13
  -5  -1   3    2.03    0.16
  -5  -1   3    1.96    0.14
   4   1  -3   33.97    0.73
   4   1  -3   33.82    0.72
  -4  -1   3   32.23    0.73
  -4  -1   3   33.11    0.79
  -4  -1   3   33.32    0.81
   3   1  -3   67.06    1.31
   3   1  -3   67.73    1.32
  -3  -1   3   67.77    1.32
  -3  -1   3   66.50    1.42
  -3  -1   3   68.67    1.32
  -3  -1   3   66.33    1.47
   2   1  -3   43.31    0.84
   2   1  -3   42.24    0.83
  -2  -1   3   43.35    0.84
  -2  -1   3   41.35    0.84
  -2  -1   3   42.07    0.91
  -2  -1   3   43.49    0.95
  -2  -1   3   43.35    0.83
   1   1  -3  158.92    3.07
   1   1  -3  160.00    2.99
   1   1  -3  165.99    3.37
   1   1  -3  162.50    3.03
  -1  -1   3  171.34    3.00
  -1  -1   3  158.56    3.43
  -1  -1   3  166.15    3.07
   0   1  -3   41.83    0.81
   0   1  -3   42.77    0.91
   0   1  -3   41.47    0.79
   0   1  -3   40.76    0.84
   0   1  -3   43.02    0.80
   0  -1   3   41.12    0.80
   0  -1   3   42.86    0.80
  -1   1  -3   60.55    1.17
  -1   1  -3   57.92    1.23
  -1   1  -3   58.94    1.18
  -1   1  -3   59.55    1.13
  -1   1  -3   62.00    1.13
   1  -1   3   59.77    1.17
   1  -1   3   54.22    1.18
   1  -1   3   62.47    1.13
   1  -1   3   61.06    1.13
  -2   1  -3    1.88    0.11
  -2   1  -3    1.93    0.09
  -2   1  -3    1.85    0.10
   2  -1   3    1.99    0.10
   2  -1   3    2.04    0.10
   2  -1   3    1.99    0.10
  -3   1  -3    0.00    0.04
  -3   1  -3    0.02    0.03
  -3   1  -3   -0.01    0.03
   3  -1   3    0.11    0.04
   3  -1   3    0.06    0.04
  -4   1  -3  128.53    2.49
  -4   1  -3  126.79    2.42
  -4   1  -3  126.18    2.60
   4  -1   3  122.73    2.51
   4  -1   3  127.47    2.43
  -5   1  -3    7.59    0.28
  -5   1  -3    7.71    0.27
  -5   1  -3    7.56    0.30
   5  -1   3    7.16    0.28
   5  -1   3    7.85    0.30
  -6   1  -3   17.35    0.49
  -6   1  -3   17.35    0.54
  -6   1  -3   16.85    0.50
   6  -1   3   17.82    0.51
   6  -1   3   17.12    0.53
  -7   1  -3    3.15    0.23
  -7   1  -3    3.21    0.22
  -7   1  -3    3.38    0.21
   7  -1   3    3.13    0.23
  -8   1  -3    8.83    0.41
   8  -1   3    8.56    0.39
  -9   1  -3    7.02    0.37
   9  -1   3    7.48    0.40
   9   0  -3    1.93    0.23
  -9   0   3    2.13    0.25
  -9   0   3    1.67    0.22
  -9   0   3    1.07    0.17
   8   0  -3    2.93    0.23
  -8   0   3    2.49    0.24
  -8   0   3    3.30    0.24
   7   0  -3   -0.07    0.07
  -7   0   3    0.03    0.07
  -7   0   3    0.07    0.07
   6   0  -3    1.43    0.14
  -6   0   3    1.28    0.15
  -6   0   3    1.31    0.14
   5   0  -3    5.37    0.22
  -5   0   3    5.43    0.22
  -5   0   3    5.38    0.24
   4   0  -3  327.09    5.93
  -4   0   3  319.62    5.93
  -4   0   3  318.35    6.66
   3   0  -3    9.37    0.25
  -3   0   3    9.27    0.26
  -3   0   3    9.46    0.23
  -3   0   3    9.58    0.25
   2   0  -3    7.17    0.19
   2   0  -3    7.21    0.20
  -2   0   3    7.47    0.16
  -2   0   3    7.32    0.19
  -2   0   3    7.10    0.20
  -2   0   3    6.91    0.19
   1   0  -3    3.83    0.12
   1   0  -3    3.69    0.12
   1   0  -3    3.85    0.12
  -1   0   3    4.04    0.12
  -1   0   3    3.80    0.09
  -1   0   3    3.60    0.11
  -1   0   3    3.76    0.12
   0   0  -3   34.40    0.71
   0   0  -3   34.85    0.68
   0   0  -3   35.54    0.69
   0   0   3   35.02    0.69
   0   0   3   34.63    0.68
   0   0   3   35.08    0.69
   0   0   3   35.49    0.71
  -1   0  -3  104.66    2.12
  -1   0  -3  100.49    2.05
  -1   0  -3  108.54    2.05
  -1   0  -3  107.04    1.98
   1   0   3  105.20    1.99
   1   0   3  109.66    1.99
   1   0   3  107.49    2.05
  -2   0  -3   15.59    0.39
  -2   0  -3   15.70    0.39
  -2   0  -3   15.44    0.37
   2   0   3   16.26    0.38
   2   0   3   15.87    0.39
  -3   0  -3   59.96    1.26
  -3   0  -3   58.24    1.19
  -3   0  -3   59.22    1.22
   3   0   3   59.42    1.23
   3   0   3   57.66    1.19
  -4   0  -3    0.14    0.05
  -4   0  -3    0.24    0.06
  -4   0  -3    0.22    0.06
   4   0   3    0.20    0.06
   4   0   3    0.15    0.06
  -5   0  -3    1.74    0.14
  -5   0  -3    1.82    0.15
  -5   0  -3    1.84    0.15
   5   0   3    1.71    0.16
   5   0   3    1.95    0.16
  -6   0  -3    1.18    0.15
  -6   0  -3    1.07    0.14
  -6   0  -3    1.21    0.14
   6   0   3    1.03    0.16
   6   0   3    1.44    0.16
  -7   0  -3    1.49    0.18
  -7   0  -3    1.55    0.18
  -7   0  -3    1.17    0.17
   7   0   3    1.39    0.19
   7   0   3    1.24    0.18
  -8   0  -3    1.12    0.19
  -8   0  -3    1.53    0.21
   8   0   3    1.03    0.17
  10  -1  -3    0.37    0.14
 -10   1   3    0.50    0.15
 -10   1   3    0.60    0.15
   9  -1  -3    0.77    0.14
  -9   1   3    0.73    0.14
  -9   1   3    0.80    0.16
   8  -1  -3    0.07    0.08
  -8   1   3    0.15    0.09
  -8   1   3    0.11    0.09
   7  -1  -3    0.11    0.07
  -7   1   3    0.04    0.07
  -7   1   3    0.02    0.06
   6  -1  -3    3.38    0.19
  -6   1   3    3.33    0.18
  -6   1   3    3.20    0.20
   5  -1  -3   -0.02    0.04
  -5   1   3   -0.03    0.04
  -5   1   3    0.08    0.05
   4  -1  -3    5.90    0.20
  -4   1   3    6.10    0.22
  -4   1   3    5.93    0.20
   3  -1  -3   32.12    0.67
  -3   1   3   31.82    0.66
  -3   1   3   31.99    0.69
  -3   1   3   31.83    0.71
   2  -1  -3    8.97    0.23
   2  -1  -3    9.34    0.23
   2  -1  -3    9.25    0.21
   2  -1  -3    9.37    0.21
   2  -1  -3    9.32    0.24
  -2   1   3    8.20    0.22
  -2   1   3    8.82    0.23
  -2   1   3    9.25    0.24
  -2   1   3    9.10    0.21
   1  -1  -3  560.27   10.63
   1  -1  -3  557.46   10.56
   1  -1  -3  536.14   10.87
   1  -1  -3  555.64   11.10
   1  -1  -3  575.89   10.47
  -1   1   3  551.26   10.61
  -1   1   3  522.34   10.78
  -1   1   3  548.31   10.77
   0  -1  -3    1.43    0.08
   0  -1  -3    1.25    0.08
   0  -1  -3    1.45    0.08
   0   1   3    1.49    0.08
   0   1   3    1.33    0.07
   0   1   3    1.42    0.08
   0   1   3    1.24    0.07
  -1  -1  -3    5.44    0.16
  -1  -1  -3    5.49    0.17
  -1  -1  -3    5.62    0.18
   1   1   3    5.47    0.17
  -2  -1  -3   17.58    0.43
  -2  -1  -3   17.83    0.44
  -2  -1  -3   17.59    0.43
   2   1   3   18.32    0.44
   2   1   3   18.13    0.43
  -3  -1  -3   24.72    0.60
  -3  -1  -3   25.02    0.60
  -3  -1  -3   24.67    0.58
   3   1   3   24.20    0.60
   3   1   3   25.39    0.59
  -4  -1  -3   10.53    0.35
  -4  -1  -3   11.46    0.35
  -4  -1  -3   10.51    0.34
   4   1   3   10.96    0.35
   4   1   3   11.31    0.36
  -5  -1  -3    9.54    0.34
  -5  -1  -3    9.16    0.34
  -5  -1  -3    9.74    0.35
   5   1   3    9.48    0.35
   5   1   3    9.63    0.36
  -6  -1  -3   19.69    0.59
  -6  -1  -3   19.87    0.59
  -6  -1  -3   19.36    0.58
   6   1   3   19.53    0.58
   6   1   3   18.92    0.59
  -7  -1  -3    9.63    0.40
  -7  -1  -3    8.96    0.40
   7   1   3    9.92    0.43
   7   1   3    9.48    0.40
  -8  -1  -3    0.09    0.10
  -8  -1  -3   -0.01    0.09
   8   1   3    0.00    0.10
   8   1   3    0.07    0.10
  10  -2  -3    3.57    0.29
 -10   2   3    3.52    0.31
 -10   2   3    4.00    0.30
   9  -2  -3    8.37    0.38
  -9   2   3    8.14    0.41
  -9   2   3    8.44    0.37
   8  -2  -3    0.98    0.16
  -8   2   3    0.80    0.12
  -8   2   3    0.69    0.13
   7  -2  -3   16.06    0.47
  -7   2   3   15.19    0.50
  -7   2   3   14.75    0.45
   6  -2  -3    5.87    0.24
  -6   2   3    5.99    0.24
  -6   2   3    5.22    0.25
   5  -2  -3   19.42    0.48
   5  -2  -3   20.19    0.43
  -5   2   3   19.53    0.52
  -5   2   3   19.08    0.48
   4  -2  -3   93.40    1.80
  -4   2   3   92.07    1.93
  -4   2   3   94.85    1.80
   3  -2  -3   52.81    1.01
   3  -2  -3   53.73    1.04
  -3   2   3   51.08    1.10
  -3   2   3   52.21    1.03
   2  -2  -3   12.24    0.29
   2  -2  -3   11.63    0.28
   2  -2  -3   11.51    0.26
   2  -2  -3   11.44    0.28
  -2   2   3   11.53    0.28
  -2   2   3   11.68    0.28
  -2   2   3   12.05    0.26
  -2   2   3   11.64    0.28
   1  -2  -3  149.18    2.87
   1  -2  -3  143.89    2.72
   1  -2  -3  145.31    2.80
   1  -2  -3  151.26    2.81
   1  -2  -3  143.14    2.72
  -1   2   3  143.11    2.80
  -1   2   3  149.88    2.80
  -1   2   3  148.25    2.72
   0  -2  -3    0.93    0.07
   0  -2  -3    0.93    0.05
   0  -2  -3    0.93    0.07
   0   2   3    1.18    0.08
   0   2   3    0.77    0.07
  -1  -2  -3   77.84    1.53
  -1  -2  -3   80.78    1.59
  -1  -2  -3   76.37    1.58
   1   2   3   77.97    1.53
   1   2   3   81.65    1.59
  -2  -2  -3    0.48    0.08
  -2  -2  -3    0.62    0.08
  -2  -2  -3    0.62    0.07
   2   2   3    0.68    0.08
   2   2   3    0.58    0.08
  -3  -2  -3   49.64    1.08
  -3  -2  -3   49.18    1.05
  -3  -2  -3   49.96    1.09
   3   2   3   48.85    1.05
   3   2   3   49.28    1.08
  -4  -2  -3    9.43    0.31
  -4  -2  -3    8.57    0.32
  -4  -2  -3    8.90    0.33
   4   2   3    8.91    0.32
   4   2   3    8.99    0.33
  -5  -2  -3   13.28    0.44
  -5  -2  -3   12.72    0.42
  -5  -2  -3   12.20    0.41
   5   2   3   12.17    0.43
   5   2   3   12.78    0.43
  -6  -2  -3    0.07    0.07
  -6  -2  -3   -0.04    0.07
   6   2   3    0.00    0.08
   6   2   3    0.09    0.09
  -7  -2  -3    1.38    0.20
  -7  -2  -3    1.03    0.16
   7   2   3    0.81    0.16
   7   2   3    1.37    0.22
  10  -3  -3    4.43    0.31
 -10   3   3    4.01    0.32
 -10   3   3    4.09    0.29
   9  -3  -3    3.66    0.26
  -9   3   3    4.05    0.28
  -9   3   3    3.82    0.26
   8  -3  -3   13.10    0.44
  -8   3   3   11.93    0.42
  -8   3   3   13.10    0.48
   7  -3  -3    3.00    0.19
  -7   3   3    3.05    0.21
  -7   3   3    3.04    0.19
   6  -3  -3    2.30    0.09
   6  -3  -3    2.29    0.15
  -6   3   3    2.44    0.17
  -6   3   3    2.43    0.15
   5  -3  -3    8.31    0.19
   5  -3  -3    8.44    0.27
  -5   3   3    8.53    0.29
  -5   3   3    8.45    0.26
   4  -3  -3   69.87    1.38
  -4   3   3   70.27    1.37
  -4   3   3   70.24    1.47
   3  -3  -3    1.05    0.05
   3  -3  -3    1.08    0.08
  -3   3   3    1.14    0.08
  -3   3   3    1.08    0.08
   2  -3  -3    8.62    0.24
   2  -3  -3    8.77    0.21
   2  -3  -3    8.96    0.21
   2  -3  -3    8.77    0.21
   2  -3  -3    8.82    0.24
  -2   3   3    9.02    0.21
  -2   3   3    8.54    0.25
  -2   3   3    8.65    0.23
  -2   3   3    8.54    0.21
   1  -3  -3   49.83    1.00
   1  -3  -3   48.90    0.97
   1  -3  -3   48.26    0.97
  -1   3   3   49.15    0.97
  -1   3   3   49.21    1.01
   0  -3  -3   74.99    1.44
   0  -3  -3   75.92    1.48
   0  -3  -3   70.41    1.42
   0   3   3   71.96    1.48
   0   3   3   73.64    1.42
  -1  -3  -3   51.65    1.05
  -1  -3  -3   51.55    1.05
  -1  -3  -3   51.68    1.09
   1   3   3   51.78    1.05
   1   3   3   51.92    1.05
   1   3   3   50.64    1.09
  -2  -3  -3   12.77    0.33
  -2  -3  -3   12.43    0.38
  -2  -3  -3   12.62    0.36
   2   3   3   12.80    0.36
  -3  -3  -3    0.31    0.08
  -3  -3  -3    0.34    0.07
  -3  -3  -3    0.52    0.08
   3   3   3    0.35    0.08
   3   3   3    0.37    0.08
  -4  -3  -3    0.37    0.08
  -4  -3  -3    0.23    0.08
  -4  -3  -3    0.20    0.07
   4   3   3    0.23    0.08
   4   3   3    0.32    0.09
  -5  -3  -3    0.13    0.07
  -5  -3  -3    0.00    0.07
   5   3   3    0.07    0.07
   5   3   3   -0.02    0.07
  -6  -3  -3    0.17    0.09
  -6  -3  -3    0.25    0.11
   6   3   3    0.26    0.10
   6   3   3    0.17    0.10
  -7  -3  -3   12.49    0.51
   7   3   3   12.86    0.50
   7   3   3   12.77    0.52
  10  -4  -3    0.82    0.15
 -10   4   3    1.03    0.17
 -10   4   3    1.10    0.19
   9  -4  -3    1.93    0.20
  -9   4   3    1.64    0.21
  -9   4   3    1.77    0.19
   8  -4  -3    1.32    0.15
  -8   4   3    1.10    0.15
  -8   4   3    1.37    0.18
   7  -4  -3    0.26    0.08
  -7   4   3    0.19    0.07
  -7   4   3    0.41    0.10
   6  -4  -3    5.09    0.22
  -6   4   3    5.88    0.22
  -6   4   3    5.43    0.24
   5  -4  -3    1.42    0.11
  -5   4   3    1.28    0.11
  -5   4   3    1.20    0.10
  -5   4   3    1.26    0.05
   4  -4  -3    2.26    0.13
  -4   4   3    2.55    0.13
  -4   4   3    2.84    0.13
   3  -4  -3   24.31    0.53
   3  -4  -3   24.28    0.53
   3  -4  -3   23.06    0.52
  -3   4   3   24.05    0.48
  -3   4   3   24.17    0.52
  -3   4   3   23.37    0.53
   2  -4  -3   28.21    0.64
   2  -4  -3   27.32    0.60
   2  -4  -3   28.00    0.61
   2  -4  -3   28.91    0.58
  -2   4   3   28.33    0.58
  -2   4   3   27.94    0.60
  -2   4   3   29.59    0.60
  -2   4   3   28.46    0.65
   1  -4  -3   32.60    0.70
   1  -4  -3   32.73    0.68
  -1   4   3   31.82    0.67
  -1   4   3   31.20    0.72
   0  -4  -3    3.68    0.16
   0  -4  -3    3.87    0.17
   0   4   3    3.74    0.15
   0   4   3    3.51    0.17
  -1  -4  -3   12.49    0.29
  -1  -4  -3   12.68    0.37
  -1  -4  -3   12.28    0.35
   1   4   3   13.03    0.29
   1   4   3   12.20    0.37
   1   4   3   12.21    0.34
  -2  -4  -3    0.49    0.08
  -2  -4  -3    0.44    0.06
  -2  -4  -3    0.52    0.09
   2   4   3    0.41    0.07
   2   4   3    0.46    0.09
  -3  -4  -3   10.82    0.37
  -3  -4  -3   11.68    0.33
   3   4   3   11.48    0.40
   3   4   3   11.87    0.37
  -4  -4  -3    0.26    0.07
  -4  -4  -3    0.20    0.08
   4   4   3    0.17    0.08
   4   4   3    0.13    0.08
  -5  -4  -3   10.49    0.42
   5   4   3   11.33    0.45
   5   4   3   11.09    0.42
  -6  -4  -3    0.27    0.11
   6   4   3    0.31    0.12
   6   4   3    0.53    0.13
  10  -5  -3    0.46    0.13
 -10   5   3    0.68    0.17
   9  -5  -3    6.53    0.32
  -9   5   3    5.90    0.30
  -9   5   3    6.70    0.36
   8  -5  -3    4.75    0.26
  -8   5   3    4.97    0.24
  -8   5   3    4.65    0.27
   7  -5  -3    1.66    0.16
  -7   5   3    1.75    0.16
  -7   5   3    1.59    0.14
   6  -5  -3   18.93    0.49
  -6   5   3   18.96    0.48
  -6   5   3   17.94    0.52
   5  -5  -3    0.75    0.10
  -5   5   3    0.67    0.09
  -5   5   3    0.86    0.09
   4  -5  -3   24.45    0.56
  -4   5   3   23.47    0.56
  -4   5   3   24.76    0.55
   3  -5  -3   70.81    1.40
   3  -5  -3   71.75    1.44
   3  -5  -3   69.12    1.50
  -3   5   3   71.59    1.44
  -3   5   3   72.43    1.39
  -3   5   3   70.86    1.48
  -3   5   3   71.57    1.38
   2  -5  -3    6.56    0.22
   2  -5  -3    6.51    0.21
  -2   5   3    6.58    0.25
  -2   5   3    6.56    0.20
   1  -5  -3   26.59    0.66
   1  -5  -3   26.87    0.60
  -1   5   3   25.80    0.64
  -1   5   3   26.81    0.59
   0  -5  -3   17.03    0.43
   0   5   3   16.59    0.42
   0   5   3   16.47    0.47
  -1  -5  -3   14.57    0.42
   1   5   3   14.83    0.45
   1   5   3   15.86    0.41
  -2  -5  -3    6.75    0.27
   2   5   3    7.05    0.30
   2   5   3    6.21    0.25
  -3  -5  -3    4.02    0.23
   3   5   3    4.66    0.23
   3   5   3    4.39    0.25
  -4  -5  -3   26.94    0.74
   4   5   3   27.91    0.73
   4   5   3   27.80    0.78
  -5  -5  -3    2.87    0.24
   5   5   3    3.23    0.27
  10  -6  -3    0.10    0.10
 -10   6   3    0.15    0.11
   9  -6  -3    0.44    0.12
  -9   6   3    0.58    0.13
   8  -6  -3    1.12    0.15
  -8   6   3    0.96    0.16
   7  -6  -3    4.13    0.22
  -7   6   3    3.84    0.20
  -7   6   3    3.89    0.22
   6  -6  -3    6.68    0.26
  -6   6   3    7.16    0.25
  -6   6   3    7.11    0.27
   5  -6  -3    3.90    0.19
  -5   6   3    3.88    0.18
  -5   6   3    4.33    0.18
   4  -6  -3   59.13    1.23
  -4   6   3   60.09    1.31
  -4   6   3   61.29    1.21
  -4   6   3   60.65    1.26
  -4   6   3   61.03    1.18
   3  -6  -3   13.93    0.38
   3  -6  -3   14.68    0.38
  -3   6   3   13.87    0.42
  -3   6   3   14.54    0.33
  -3   6   3   14.44    0.36
   2  -6  -3    9.69    0.31
   2  -6  -3    9.31    0.29
  -2   6   3    9.44    0.27
  -2   6   3    9.99    0.34
   1  -6  -3    1.81    0.14
   1  -6  -3    1.96    0.13
  -1   6   3    1.88    0.16
  -1   6   3    1.91    0.12
   0  -6  -3    3.03    0.20
   0  -6  -3    3.38    0.18
   0   6   3    3.45    0.17
   0   6   3    3.59    0.21
  -1  -6  -3    4.11    0.21
   1   6   3    4.31    0.24
   1   6   3    4.82    0.21
  -2  -6  -3    0.54    0.10
   2   6   3    0.34    0.10
  -3  -6  -3    2.45    0.19
   3   6   3    2.39    0.22
  -4  -6  -3    2.78    0.22
   4   6   3    2.68    0.25
  10  -7  -3    0.65    0.14
 -10   7   3    0.82    0.17
   9  -7  -3    4.25    0.27
  -9   7   3    4.77    0.30
   8  -7  -3    9.09    0.35
  -8   7   3    9.47    0.38
   7  -7  -3    0.94    0.14
  -7   7   3    1.06    0.14
   6  -7  -3    6.98    0.27
  -6   7   3    7.56    0.28
   5  -7  -3    0.94    0.11
  -5   7   3    0.69    0.09
  -5   7   3    0.89    0.15
   4  -7  -3   55.95    1.14
   4  -7  -3   54.63    1.20
  -4   7   3   54.14    1.14
  -4   7   3   53.20    1.23
   3  -7  -3    0.24    0.07
   3  -7  -3    0.13    0.06
  -3   7   3    0.13    0.08
   2  -7  -3    3.26    0.18
   2  -7  -3    3.09    0.16
  -2   7   3    3.21    0.21
   1  -7  -3   11.78    0.36
   1  -7  -3   12.01    0.41
  -1   7   3   11.79    0.41
   0  -7  -3    5.18    0.23
   0  -7  -3    5.11    0.27
   0   7   3    4.88    0.27
  -1  -7  -3    0.38    0.11
  -1  -7  -3    0.26    0.08
   1   7   3    0.27    0.10
  -2  -7  -3    9.32    0.42
  -2  -7  -3    9.05    0.36
   2   7   3    8.24    0.38
  -3  -7  -3    6.53    0.38
  -3  -7  -3    6.50    0.32
   3   7   3    6.11    0.35
  10  -8  -3   -0.05    0.09
 -10   8   3    0.03    0.10
   9  -8  -3    6.60    0.32
  -9   8   3    6.83    0.35
   8  -8  -3    0.24    0.09
  -8   8   3    0.23    0.09
   7  -8  -3    3.70    0.22
  -7   8   3    4.35    0.23
   6  -8  -3    5.33    0.24
  -6   8   3    5.30    0.23
  -6   8   3    5.96    0.30
   5  -8  -3    2.20    0.15
  -5   8   3    2.10    0.19
   4  -8  -3   13.58    0.39
   4  -8  -3   12.81    0.38
  -4   8   3   12.89    0.45
   3  -8  -3    0.09    0.06
   3  -8  -3    0.03    0.06
  -3   8   3    0.04    0.07
   2  -8  -3    2.00    0.14
   2  -8  -3    2.09    0.17
  -2   8   3    2.05    0.19
   1  -8  -3    0.61    0.10
   1  -8  -3    0.60    0.12
  -1   8   3    0.57    0.12
   0  -8  -3   21.73    0.68
   0  -8  -3   21.73    0.59
   0   8   3   21.82    0.66
  -1  -8  -3    0.99    0.17
  -1  -8  -3    0.96    0.15
   1   8   3    1.15    0.18
  -2  -8  -3    7.45    0.33
  -2  -8  -3    7.13    0.39
   2   8   3    6.59    0.36
   9  -9  -3   10.79    0.42
   8  -9  -3    0.04    0.08
   7  -9  -3    0.30    0.09
  -7   9   3    0.28    0.12
   6  -9  -3    0.12    0.07
  -6   9   3    0.40    0.11
   5  -9  -3    4.14    0.21
  -5   9   3    4.31    0.28
   4  -9  -3    0.32    0.08
  -4   9   3    0.46    0.12
   3  -9  -3   10.83    0.38
   3  -9  -3   10.32    0.34
  -3   9   3    9.88    0.41
   2  -9  -3    0.60    0.12
   2  -9  -3    0.43    0.09
  -2   9   3    0.44    0.12
   1  -9  -3    2.71    0.23
   1  -9  -3    2.91    0.19
  -1   9   3    2.62    0.23
   0  -9  -3    3.08    0.26
   0  -9  -3    3.32    0.21
   0   9   3    3.04    0.26
  -1  -9  -3    1.23    0.21
  -1  -9  -3    1.26    0.17
   1   9   3    1.19    0.19
   8 -10  -3    0.58    0.12
  -8  10   3    1.08    0.19
   7 -10  -3    5.20    0.26
  -7  10   3    4.89    0.33
   6 -10  -3    0.14    0.07
  -6  10   3    0.07    0.09
   5 -10  -3    5.98    0.26
  -5  10   3    6.42    0.35
   4 -10  -3    9.73    0.34
  -4  10   3    9.79    0.43
   3 -10  -3    0.23    0.08
  -3  10   3    0.28    0.12
   2 -10  -3    0.07    0.06
  -2  10   3   -0.01    0.08
   1 -10  -3    1.65    0.16
   1 -10  -3    1.11    0.20
  -1  10   3    1.39    0.22
   6 -11  -3    6.38    0.28
  -6  11   3    5.94    0.37
   5 -11  -3    0.52    0.10
  -5  11   3    0.75    0.17
   4 -11  -3    5.86    0.26
  -4  11   3    5.60    0.35
   3 -11  -3    5.05    0.25
  -3  11   3    5.29    0.35
  -2  11  -4    2.60    0.23
   2 -11   4    3.13    0.28
  -3  11  -4    8.84    0.40
   3 -11   4    8.61    0.43
  -4  11  -4    6.10    0.33
  -5  11  -4    3.11    0.27
  -1 -10   4    0.05    0.10
   0  10  -4    0.58    0.12
   0 -10   4    0.86    0.18
  -1  10  -4    5.67    0.30
   1 -10   4    6.15    0.36
  -2  10  -4    0.55    0.12
   2 -10   4    0.52    0.14
  -3  10  -4    8.21    0.33
  -3  10  -4    7.57    0.35
   3 -10   4    7.89    0.39
  -4  10  -4    6.09    0.29
  -4  10  -4    5.85    0.31
  -5  10  -4    4.52    0.27
  -6  10  -4    0.40    0.12
  -7  10  -4    3.45    0.27
   2   9  -4    7.11    0.33
  -2  -9   4    6.49    0.40
  -2  -9   4    6.88    0.27
   1   9  -4    0.39    0.11
  -1  -9   4    0.29    0.12
  -1  -9   4    0.36    0.07
   0   9  -4   12.62    0.44
   0  -9   4   13.61    0.53
  -1   9  -4    6.22    0.27
  -1   9  -4    6.08    0.29
   1  -9   4    6.64    0.35
  -2   9  -4    0.16    0.06
  -2   9  -4    0.10    0.07
   2  -9   4    0.13    0.09
  -3   9  -4    5.24    0.24
  -3   9  -4    4.98    0.26
  -3   9  -4    5.16    0.25
   3  -9   4    5.04    0.29
  -4   9  -4    2.86    0.20
  -4   9  -4    2.78    0.17
  -5   9  -4   15.40    0.52
  -6   9  -4    0.12    0.09
  -7   9  -4    0.27    0.11
   7  -9   4    0.35    0.08
  -8   9  -4    0.12    0.11
   8  -9   4    0.18    0.08
  -4  -8   4    2.56    0.30
  -4  -8   4    3.03    0.22
   3   8  -4   -0.10    0.06
  -3  -8   4   -0.06    0.10
  -3  -8   4   -0.03    0.06
   2   8  -4    7.84    0.32
  -2  -8   4    7.95    0.28
  -2  -8   4    8.09    0.41
   1   8  -4    0.12    0.07
  -1  -8   4    0.07    0.05
  -1  -8   4    0.03    0.08
   0   8  -4    1.18    0.14
   0  -8   4    1.13    0.08
   0  -8   4    1.01    0.17
  -1   8  -4    9.15    0.33
   1  -8   4    8.41    0.38
  -2   8  -4   32.85    0.82
  -2   8  -4   33.24    0.82
   2  -8   4   33.38    0.90
  -3   8  -4    2.05    0.16
  -3   8  -4    1.98    0.15
  -4   8  -4    0.89    0.11
  -4   8  -4    0.91    0.13
   4  -8   4    0.85    0.06
  -5   8  -4    0.00    0.06
   5  -8   4    0.00    0.03
  -6   8  -4    0.73    0.13
   6  -8   4    0.71    0.10
  -7   8  -4    1.85    0.21
   7  -8   4    1.73    0.15
  -8   8  -4    3.24    0.27
   8  -8   4    3.09    0.21
  -5  -7   4    0.47    0.11
  -5  -7   4   -0.01    0.11
   4   7  -4    1.01    0.15
  -4  -7   4    0.89    0.17
  -4  -7   4    1.08    0.15
   3   7  -4    3.16    0.20
  -3  -7   4    3.56    0.19
  -3  -7   4    3.23    0.27
   2   7  -4    4.11    0.21
  -2  -7   4    4.07    0.18
  -2  -7   4    3.94    0.27
   1   7  -4    0.01    0.05
  -1  -7   4    0.02    0.04
  -1  -7   4    0.00    0.07
   0   7  -4    4.98    0.22
   0  -7   4    4.72    0.14
   0  -7   4    4.84    0.27
  -1   7  -4   10.34    0.34
   1  -7   4   11.08    0.41
  -2   7  -4    7.23    0.27
  -2   7  -4    6.80    0.27
   2  -7   4    7.01    0.31
  -3   7  -4   12.15    0.36
  -3   7  -4   12.12    0.40
  -4   7  -4    1.72    0.12
  -4   7  -4    2.06    0.16
   4  -7   4    1.86    0.09
  -5   7  -4   26.68    0.62
  -5   7  -4   26.52    0.73
   5  -7   4   26.11    0.58
  -6   7  -4    2.64    0.21
   6  -7   4    2.53    0.15
  -7   7  -4    4.79    0.29
   7  -7   4    4.36    0.22
  -8   7  -4    1.97    0.24
   8  -7   4    1.35    0.16
  -9   7  -4    2.84    0.28
   9  -7   4    2.72    0.22
  -6  -6   4    4.43    0.29
  -6  -6   4    5.16    0.37
  -5  -6   4   22.00    0.75
  -5  -6   4   21.11    0.62
   4   6  -4    6.24    0.27
  -4  -6   4    6.29    0.27
  -4  -6   4    5.57    0.34
   3   6  -4    4.81    0.22
  -3  -6   4    4.92    0.22
  -3  -6   4    5.08    0.30
   2   6  -4   33.41    0.76
  -2  -6   4   32.27    0.72
  -2  -6   4   32.43    0.90
   1   6  -4    0.43    0.07
  -1  -6   4    0.30    0.09
  -1  -6   4    0.35    0.05
   0   6  -4   15.93    0.42
   0  -6   4   15.93    0.50
   0  -6   4   15.59    0.34
   0  -6   4   15.66    0.34
  -1   6  -4   16.76    0.44
   1  -6   4   16.28    0.51
  -2   6  -4   60.60    1.32
  -2   6  -4   58.75    1.25
   2  -6   4   59.29    1.39
  -3   6  -4    2.98    0.18
  -3   6  -4    2.95    0.15
   3  -6   4    2.77    0.09
   3  -6   4    3.17    0.10
  -4   6  -4    9.10    0.28
  -4   6  -4    8.14    0.32
   4  -6   4    9.12    0.24
  -5   6  -4   37.67    0.82
  -5   6  -4   36.87    0.93
   5  -6   4   35.92    0.78
  -6   6  -4    0.26    0.06
  -6   6  -4    0.22    0.08
   6  -6   4    0.13    0.06
  -7   6  -4    8.04    0.38
   7  -6   4    8.38    0.31
  -8   6  -4    1.12    0.20
   8  -6   4    1.39    0.17
  -9   6  -4    1.22    0.20
   9  -6   4    0.47    0.12
  -6  -5   4    3.89    0.25
  -6  -5   4    3.68    0.31
   5   5  -4    1.34    0.15
  -5  -5   4    1.14    0.15
  -5  -5   4    1.63    0.21
   4   5  -4    0.51    0.09
  -4  -5   4    0.44    0.09
  -4  -5   4    0.43    0.12
   3   5  -4    4.15    0.19
  -3  -5   4    4.01    0.25
  -3  -5   4    3.86    0.18
   2   5  -4    0.71    0.09
   2   5  -4    0.76    0.07
  -2  -5   4    0.68    0.08
  -2  -5   4    0.76    0.13
   1   5  -4    2.41    0.13
   1   5  -4    2.25    0.07
  -1  -5   4    2.31    0.10
  -1  -5   4    2.45    0.17
  -1  -5   4    2.29    0.10
   0   5  -4    0.31    0.06
   0  -5   4    0.22    0.04
   0  -5   4    0.22    0.07
   0  -5   4    0.23    0.04
   1  -5   4    9.49    0.33
  -2   5  -4   26.53    0.66
  -2   5  -4   27.04    0.62
   2  -5   4   26.63    0.51
   2  -5   4   26.96    0.51
  -3   5  -4    7.80    0.25
  -3   5  -4    7.83    0.29
   3  -5   4    7.93    0.20
   3  -5   4    8.06    0.20
  -4   5  -4    0.57    0.08
  -4   5  -4    0.62    0.10
  -4   5  -4    0.55    0.05
   4  -5   4    0.62    0.07
   4  -5   4    0.52    0.07
  -5   5  -4   76.34    1.53
  -5   5  -4   74.92    1.67
   5  -5   4   74.26    1.49
  -6   5  -4    0.02    0.05
  -6   5  -4    0.01    0.06
   6  -5   4    0.01    0.06
  -7   5  -4    1.30    0.13
  -7   5  -4    1.69    0.19
   7  -5   4    1.24    0.15
  -8   5  -4    3.60    0.28
   8  -5   4    4.09    0.25
  -9   5  -4    1.92    0.25
   9  -5   4    2.40    0.23
  -7  -4   4    3.41    0.25
  -7  -4   4    2.73    0.28
   6   4  -4    0.01    0.07
  -6  -4   4    0.01    0.09
  -6  -4   4    0.16    0.08
   5   4  -4    1.32    0.14
  -5  -4   4    1.36    0.15
  -5  -4   4    1.53    0.19
   4   4  -4   18.84    0.49
   4   4  -4   19.16    0.48
  -4  -4   4   19.20    0.60
  -4  -4   4   18.46    0.50
   3   4  -4   16.59    0.42
   3   4  -4   16.95    0.41
  -3  -4   4   17.07    0.43
  -3  -4   4   17.40    0.53
   2   4  -4    1.57    0.09
   2   4  -4    1.45    0.09
  -2  -4   4    1.58    0.10
  -2  -4   4    1.59    0.14
  -2  -4   4    1.46    0.09
   1   4  -4   25.10    0.48
   1   4  -4   24.82    0.54
  -1  -4   4   24.26    0.64
  -1  -4   4   24.16    0.51
  -1  -4   4   24.08    0.51
   0   4  -4   34.74    0.74
   0  -4   4   35.32    0.67
   0  -4   4   34.65    0.85
   0  -4   4   35.78    0.67
  -1   4  -4   19.48    0.47
   1  -4   4   19.74    0.38
   1  -4   4   19.25    0.38
   1  -4   4   19.21    0.52
  -2   4  -4   58.49    1.27
  -2   4  -4   58.99    1.20
   2  -4   4   57.62    1.10
   2  -4   4   59.56    1.11
  -3   4  -4    9.45    0.32
  -3   4  -4    9.57    0.23
  -3   4  -4   10.05    0.28
   3  -4   4    9.64    0.25
   3  -4   4   10.31    0.25
  -4   4  -4   25.06    0.58
  -4   4  -4   24.46    0.53
  -4   4  -4   24.75    0.65
   4  -4   4   25.11    0.56
   4  -4   4   24.04    0.55
  -5   4  -4   22.61    0.55
  -5   4  -4   22.62    0.53
  -5   4  -4   22.71    0.63
   5  -4   4   21.97    0.54
  -6   4  -4   18.77    0.57
  -6   4  -4   17.90    0.48
  -6   4  -4   17.89    0.47
   6  -4   4   18.21    0.50
  -7   4  -4    6.67    0.33
  -7   4  -4    6.50    0.26
   7  -4   4    5.91    0.28
  -8   4  -4    5.37    0.32
   8  -4   4    5.21    0.29
  -9   4  -4    0.43    0.14
   9  -4   4    0.61    0.14
  -8  -3   4    0.27    0.13
  -8  -3   4    0.27    0.13
  -8  -3   4    0.13    0.10
   7   3  -4    4.40    0.25
  -7  -3   4    4.54    0.31
  -7  -3   4    4.75    0.30
  -7  -3   4    5.03    0.28
   6   3  -4    4.35    0.24
   6   3  -4    4.36    0.22
  -6  -3   4    5.09    0.27
  -6  -3   4    4.45    0.25
  -6  -3   4    4.43    0.28
   5   3  -4   12.85    0.39
   5   3  -4   12.90    0.38
  -5  -3   4   12.91    0.46
  -5  -3   4   12.77    0.43
  -5  -3   4   12.88    0.40
   4   3  -4    0.69    0.09
   4   3  -4    0.83    0.10
  -4  -3   4    0.64    0.10
  -4  -3   4    0.72    0.13
   3   3  -4    7.37    0.21
   3   3  -4    7.48    0.23
  -3  -3   4    7.20    0.28
  -3  -3   4    6.88    0.23
   2   3  -4   74.85    1.46
   2   3  -4   76.50    1.42
  -2  -3   4   74.84    1.43
  -2  -3   4   76.41    1.44
  -2  -3   4   73.86    1.65
  -2  -3   4   71.03    1.46
   1   3  -4   14.36    0.32
   1   3  -4   14.09    0.30
  -1  -3   4   14.06    0.31
  -1  -3   4   14.30    0.31
  -1  -3   4   12.99    0.39
   0   3  -4    0.75    0.03
   0   3  -4    0.77    0.03
   0  -3   4    0.66    0.05
   0  -3   4    0.79    0.05
   0  -3   4    0.89    0.09
  -1   3  -4   30.45    0.66
  -1   3  -4   30.15    0.57
  -1   3  -4   31.05    0.57
   1  -3   4   29.73    0.59
   1  -3   4   30.55    0.59
  -2   3  -4    0.12    0.03
  -2   3  -4    0.13    0.04
  -2   3  -4    0.10    0.04
   2  -3   4    0.10    0.03
   2  -3   4    0.14    0.03
  -3   3  -4   69.46    1.50
  -3   3  -4   69.76    1.41
  -3   3  -4   69.20    1.34
   3  -3   4   71.91    1.36
   3  -3   4   68.26    1.35
  -4   3  -4    4.03    0.17
  -4   3  -4    4.06    0.16
  -4   3  -4    3.93    0.20
   4  -3   4    4.22    0.17
  -5   3  -4    4.94    0.20
  -5   3  -4    4.30    0.23
  -5   3  -4    5.02    0.20
   5  -3   4    4.74    0.21
  -6   3  -4    2.86    0.21
  -6   3  -4    3.02    0.18
  -6   3  -4    3.10    0.18
   6  -3   4    2.88    0.18
  -7   3  -4    3.90    0.22
  -7   3  -4    4.21    0.22
  -7   3  -4    3.26    0.24
   7  -3   4    3.85    0.23
  -8   3  -4   18.37    0.64
  -8   3  -4   19.43    0.56
   8  -3   4   19.49    0.60
  -9   3  -4    1.41    0.23
   9  -3   4    0.97    0.17
   8   2  -4    1.93    0.22
  -8  -2   4    2.01    0.25
  -8  -2   4    2.15    0.23
  -8  -2   4    1.95    0.23
   7   2  -4    3.11    0.20
   7   2  -4    3.09    0.23
  -7  -2   4    3.43    0.26
  -7  -2   4    3.18    0.23
  -7  -2   4    3.36    0.25
   6   2  -4    1.60    0.14
   6   2  -4    0.91    0.14
  -6  -2   4    1.30    0.17
  -6  -2   4    1.32    0.16
  -6  -2   4    1.32    0.15
   5   2  -4   75.19    1.51
   5   2  -4   73.39    1.51
  -5  -2   4   72.58    1.52
  -5  -2   4   73.78    1.70
  -5  -2   4   74.76    1.63
   4   2  -4    7.80    0.24
   4   2  -4    7.82    0.26
  -4  -2   4    8.01    0.30
  -4  -2   4    8.06    0.29
  -4  -2   4    8.64    0.27
   3   2  -4    4.50    0.16
   3   2  -4    4.08    0.14
  -3  -2   4    4.60    0.20
  -3  -2   4    4.59    0.14
  -3  -2   4    4.56    0.17
   2   2  -4    3.14    0.09
   2   2  -4    3.06    0.12
  -2  -2   4    3.15    0.12
  -2  -2   4    3.10    0.15
  -2  -2   4    3.13    0.10
  -2  -2   4    3.21    0.12
   1   2  -4   74.18    1.39
   1   2  -4   74.80    1.41
  -1  -2   4   72.25    1.39
  -1  -2   4   72.79    1.60
  -1  -2   4   76.20    1.40
   0   2  -4    1.50    0.06
   0   2  -4    1.48    0.09
   0   2  -4    1.56    0.06
   0  -2   4    1.42    0.07
   0  -2   4    1.42    0.10
   0  -2   4    1.54    0.07
  -1   2  -4    0.20    0.03
  -1   2  -4    0.17    0.04
  -1   2  -4    0.16    0.04
   1  -2   4    0.11    0.03
   1  -2   4    0.18    0.03
  -2   2  -4   39.47    0.79
  -2   2  -4   39.20    0.84
  -2   2  -4   39.67    0.89
   2  -2   4   40.79    0.80
   2  -2   4   40.97    0.80
  -3   2  -4    1.79    0.12
  -3   2  -4    2.01    0.11
  -3   2  -4    2.14    0.12
   3  -2   4    1.95    0.11
  -4   2  -4    1.68    0.12
  -4   2  -4    1.81    0.14
  -4   2  -4    1.61    0.11
   4  -2   4    1.35    0.12
  -5   2  -4    7.07    0.26
  -5   2  -4    7.16    0.26
  -5   2  -4    6.73    0.29
   5  -2   4    6.88    0.26
  -6   2  -4    0.84    0.14
  -6   2  -4    0.78    0.12
  -6   2  -4    0.80    0.12
   6  -2   4    0.77    0.13
  -7   2  -4   -0.05    0.07
  -7   2  -4    0.11    0.07
  -7   2  -4    0.09    0.07
   7  -2   4    0.08    0.07
  -8   2  -4    0.21    0.10
  -8   2  -4    0.21    0.09
  -8   2  -4    0.12    0.10
   8  -2   4    0.27    0.10
   9   1  -4    3.91    0.29
  -9  -1   4    3.71    0.30
  -9  -1   4    3.97    0.29
  -9  -1   4    3.19    0.29
   8   1  -4    1.14    0.16
  -8  -1   4    0.92    0.15
  -8  -1   4    0.78    0.15
  -8  -1   4    0.98    0.16
   7   1  -4    1.02    0.15
  -7  -1   4    0.83    0.13
  -7  -1   4    0.72    0.13
  -7  -1   4    0.97    0.16
   6   1  -4    3.45    0.21
  -6  -1   4    3.94    0.24
  -6  -1   4    4.13    0.23
  -6  -1   4    3.71    0.21
   5   1  -4   14.19    0.37
   5   1  -4   13.67    0.39
  -5  -1   4   13.21    0.39
  -5  -1   4   14.04    0.43
  -5  -1   4   14.01    0.43
   4   1  -4   30.32    0.68
   4   1  -4   31.86    0.66
  -4  -1   4   30.07    0.75
  -4  -1   4   30.15    0.68
  -4  -1   4   31.19    0.74
   3   1  -4    3.31    0.11
   3   1  -4    3.54    0.14
  -3  -1   4    3.19    0.16
  -3  -1   4    3.46    0.11
  -3  -1   4    3.39    0.14
  -3  -1   4    3.34    0.15
   2   1  -4  175.73    3.21
  -2  -1   4  163.97    3.60
  -2  -1   4  178.04    3.22
  -2  -1   4  175.87    3.22
  -2  -1   4  175.24    3.25
   1   1  -4   18.01    0.38
   1   1  -4   18.47    0.41
  -1  -1   4   18.56    0.39
  -1  -1   4   17.38    0.44
  -1  -1   4   17.27    0.38
   0   1  -4   39.43    0.76
   0   1  -4   40.04    0.77
   0   1  -4   39.76    0.76
   0   1  -4   38.69    0.81
   0  -1   4   39.42    0.77
   0  -1   4   38.09    0.76
   0  -1   4   38.08    0.77
  -1   1  -4    1.03    0.08
  -1   1  -4    0.87    0.07
  -1   1  -4    0.79    0.06
   1  -1   4    0.77    0.06
   1  -1   4    0.87    0.06
   1  -1   4    0.66    0.06
  -2   1  -4  151.86    2.99
  -2   1  -4  155.65    3.10
  -2   1  -4  154.82    2.88
   2  -1   4  155.55    2.89
   2  -1   4  154.33    2.98
  -3   1  -4   21.41    0.52
  -3   1  -4   21.77    0.50
  -3   1  -4   21.59    0.55
   3  -1   4   21.66    0.53
   3  -1   4   21.23    0.50
  -4   1  -4   71.11    1.46
  -4   1  -4   67.75    1.52
  -4   1  -4   71.66    1.41
   4  -1   4   69.77    1.42
   4  -1   4   68.12    1.47
  -5   1  -4    0.87    0.12
  -5   1  -4    0.95    0.12
  -5   1  -4    0.99    0.13
   5  -1   4    0.96    0.13
   5  -1   4    0.88    0.12
  -6   1  -4   15.67    0.48
  -6   1  -4   15.75    0.48
  -6   1  -4   15.85    0.52
   6  -1   4   16.42    0.50
   6  -1   4   16.49    0.52
  -7   1  -4    4.15    0.27
  -7   1  -4    3.79    0.24
  -7   1  -4    3.98    0.24
   7  -1   4    3.60    0.25
  -8   1  -4   12.49    0.47
  -8   1  -4   13.43    0.52
  -8   1  -4   12.25    0.47
   8  -1   4   12.11    0.49
   9   0  -4    3.19    0.27
  -9   0   4    2.77    0.26
  -9   0   4    2.74    0.27
  -9   0   4    3.19    0.26
   8   0  -4    1.88    0.20
  -8   0   4    2.10    0.20
  -8   0   4    1.85    0.22
  -8   0   4    1.91    0.21
   7   0  -4   17.58    0.52
  -7   0   4   17.04    0.54
  -7   0   4   17.82    0.57
  -7   0   4   16.83    0.51
   6   0  -4   40.32    0.92
  -6   0   4   40.98    0.93
  -6   0   4   41.39    1.00
  -6   0   4   40.95    1.00
   5   0  -4  101.57    1.98
  -5   0   4   99.17    2.18
  -5   0   4  101.64    1.99
  -5   0   4  101.76    2.14
   4   0  -4   34.70    0.74
  -4   0   4   34.39    0.74
  -4   0   4   33.33    0.79
  -4   0   4   33.22    0.78
   3   0  -4   20.33    0.46
  -3   0   4   19.74    0.42
  -3   0   4   19.59    0.45
  -3   0   4   20.27    0.49
  -3   0   4   20.47    0.48
   2   0  -4   28.67    0.59
   2   0  -4   29.14    0.64
   2   0  -4   27.63    0.61
  -2   0   4   28.25    0.59
  -2   0   4   27.33    0.64
  -2   0   4   30.80    0.60
   1   0  -4  186.52    3.67
   1   0  -4  177.95    3.34
   1   0  -4  175.56    3.28
   1   0  -4  179.11    3.39
  -1   0   4  176.99    3.39
  -1   0   4  174.99    3.28
  -1   0   4  174.13    3.38
  -1   0   4  179.54    3.28
   0   0  -4    0.14    0.04
   0   0  -4    0.15    0.03
   0   0  -4    0.10    0.03
   0   0   4    0.20    0.03
   0   0   4    0.17    0.03
   0   0   4    0.12    0.03
  -1   0  -4  163.37    3.29
  -1   0  -4  161.69    3.19
  -1   0  -4  172.14    3.08
   1   0   4  169.07    3.17
   1   0   4  163.40    3.08
  -2   0  -4   12.92    0.35
  -2   0  -4   13.12    0.35
  -2   0  -4   12.98    0.33
   2   0   4   12.69    0.33
   2   0   4   12.79    0.34
  -3   0  -4    3.75    0.17
  -3   0  -4    3.73    0.17
  -3   0  -4    3.61    0.16
   3   0   4    3.51    0.17
   3   0   4    3.28    0.16
  -4   0  -4    2.83    0.17
  -4   0  -4    2.45    0.16
  -4   0  -4    2.54    0.16
   4   0   4    2.49    0.17
   4   0   4    2.45    0.16
  -5   0  -4    2.68    0.18
  -5   0  -4    2.93    0.18
  -5   0  -4    2.96    0.19
   5   0   4    3.03    0.19
   5   0   4    3.24    0.21
  -6   0  -4    3.40    0.22
  -6   0  -4    4.04    0.24
  -6   0  -4    3.30    0.22
   6   0   4    3.88    0.24
   6   0   4    3.57    0.24
  -7   0  -4    0.69    0.13
  -7   0  -4    0.67    0.12
  -7   0  -4    0.48    0.12
   7   0   4    0.86    0.16
   7   0   4    0.72    0.14
  -8   0  -4    0.68    0.15
  -8   0  -4    0.52    0.13
   8   0   4    0.46    0.15
   8   0   4    0.55    0.14
  10  -1  -4    2.10    0.25
 -10   1   4    1.92    0.26
 -10   1   4    2.19    0.24
   9  -1  -4    0.35    0.12
  -9   1   4    0.43    0.12
  -9   1   4    0.29    0.11
  -9   1   4    0.49    0.14
   8  -1  -4    1.70    0.19
  -8   1   4    2.10    0.20
  -8   1   4    1.93    0.21
  -8   1   4    1.84    0.18
   7  -1  -4    1.41    0.16
  -7   1   4    1.59    0.17
  -7   1   4    1.56    0.16
   6  -1  -4    0.11    0.06
  -6   1   4    0.12    0.06
  -6   1   4    0.19    0.07
  -6   1   4    0.19    0.07
   5  -1  -4    3.10    0.16
  -5   1   4    2.92    0.16
  -5   1   4    3.08    0.14
  -5   1   4    2.81    0.17
   4  -1  -4    5.04    0.18
  -4   1   4    4.30    0.15
  -4   1   4    4.30    0.17
   3  -1  -4    1.94    0.09
   3  -1  -4    2.22    0.11
  -3   1   4    2.07    0.11
  -3   1   4    2.11    0.08
  -3   1   4    1.92    0.11
   2  -1  -4    1.73    0.07
   2  -1  -4    1.54    0.08
   2  -1  -4    1.48    0.09
  -2   1   4    1.71    0.09
  -2   1   4    1.58    0.07
   1  -1  -4    1.10    0.08
   1  -1  -4    1.19    0.07
   1  -1  -4    1.16    0.06
  -1   1   4    1.06    0.07
  -1   1   4    1.17    0.08
  -1   1   4    1.08    0.06
   0  -1  -4    0.60    0.06
   0  -1  -4    0.63    0.07
   0   1   4    0.61    0.06
   0   1   4    0.60    0.06
  -1  -1  -4    2.49    0.13
  -1  -1  -4    2.73    0.11
  -1  -1  -4    2.45    0.12
   1   1   4    2.60    0.12
   1   1   4    2.57    0.12
  -2  -1  -4    0.30    0.05
  -2  -1  -4    0.34    0.06
  -2  -1  -4    0.21    0.05
   2   1   4    0.36    0.06
   2   1   4    0.22    0.05
  -3  -1  -4    0.61    0.09
  -3  -1  -4    0.31    0.06
  -3  -1  -4    0.55    0.08
   3   1   4    0.45    0.07
   3   1   4    0.54    0.09
  -4  -1  -4   11.31    0.36
  -4  -1  -4   11.39    0.37
  -4  -1  -4   10.84    0.36
   4   1   4   11.00    0.37
   4   1   4   10.85    0.36
  -5  -1  -4    8.61    0.33
  -5  -1  -4    8.51    0.33
  -5  -1  -4    8.01    0.32
   5   1   4    8.28    0.34
   5   1   4    7.99    0.32
  -6  -1  -4    9.10    0.38
  -6  -1  -4    8.87    0.37
  -6  -1  -4    9.30    0.37
   6   1   4    9.40    0.40
   6   1   4    9.13    0.37
  -7  -1  -4    0.29    0.10
  -7  -1  -4    0.54    0.13
   7   1   4    0.61    0.14
   7   1   4    0.39    0.13
  10  -2  -4    0.99    0.17
 -10   2   4    0.73    0.17
 -10   2   4    0.74    0.15
   9  -2  -4    3.59    0.26
  -9   2   4    3.98    0.29
  -9   2   4    4.11    0.27
   8  -2  -4    0.03    0.08
  -8   2   4    0.09    0.08
  -8   2   4   -0.09    0.07
   7  -2  -4    1.72    0.16
  -7   2   4    2.08    0.18
  -7   2   4    1.73    0.16
   6  -2  -4    7.78    0.28
  -6   2   4    7.71    0.31
  -6   2   4    8.09    0.28
   5  -2  -4    0.00    0.04
  -5   2   4    0.01    0.04
  -5   2   4    0.06    0.03
  -5   2   4    0.04    0.04
   4  -2  -4   15.45    0.34
   4  -2  -4   15.76    0.39
  -4   2   4   15.23    0.41
  -4   2   4   15.67    0.39
  -4   2   4   15.50    0.35
   3  -2  -4    2.67    0.13
   3  -2  -4    2.98    0.10
  -3   2   4    2.97    0.13
  -3   2   4    2.80    0.13
   2  -2  -4   11.19    0.28
   2  -2  -4   11.51    0.27
   2  -2  -4   10.91    0.29
  -2   2   4   11.23    0.28
  -2   2   4   11.21    0.27
  -2   2   4   11.14    0.28
   1  -2  -4    8.25    0.23
   1  -2  -4    8.47    0.20
   1  -2  -4    8.11    0.22
  -1   2   4    7.89    0.22
  -1   2   4    8.11    0.23
   0  -2  -4   39.85    0.81
   0  -2  -4   39.87    0.83
   0  -2  -4   38.88    0.81
   0   2   4   38.99    0.83
   0   2   4   38.74    0.81
  -1  -2  -4   40.36    0.86
  -1  -2  -4   41.22    0.89
  -1  -2  -4   40.03    0.86
   1   2   4   41.84    0.89
   1   2   4   41.02    0.86
  -2  -2  -4   14.37    0.38
  -2  -2  -4   15.01    0.41
  -2  -2  -4   14.79    0.40
   2   2   4   15.11    0.40
   2   2   4   14.21    0.41
  -3  -2  -4    3.62    0.20
  -3  -2  -4    3.56    0.17
  -3  -2  -4    3.83    0.19
   3   2   4    3.12    0.18
   3   2   4    3.72    0.19
  -4  -2  -4    1.44    0.16
  -4  -2  -4    1.66    0.15
  -4  -2  -4    1.50    0.13
   4   2   4    1.54    0.15
   4   2   4    1.44    0.16
  -5  -2  -4    7.35    0.33
  -5  -2  -4    7.55    0.33
  -5  -2  -4    7.40    0.30
   5   2   4    7.28    0.32
   5   2   4    7.09    0.33
  -6  -2  -4   32.42    0.85
  -6  -2  -4   31.12    0.84
   6   2   4   30.66    0.87
   6   2   4   31.80    0.85
  -7  -2  -4   25.79    0.78
  -7  -2  -4   26.14    0.78
   7   2   4   25.10    0.77
   7   2   4   27.15    0.82
  10  -3  -4    4.52    0.32
 -10   3   4    4.36    0.33
 -10   3   4    4.26    0.30
   9  -3  -4    0.14    0.10
  -9   3   4    0.40    0.11
  -9   3   4    0.43    0.13
   8  -3  -4    0.41    0.11
  -8   3   4    0.27    0.10
  -8   3   4    0.29    0.11
   7  -3  -4    7.08    0.29
  -7   3   4    6.95    0.28
  -7   3   4    7.55    0.32
   6  -3  -4   32.62    0.78
   6  -3  -4   33.69    0.69
  -6   3   4   34.98    0.84
  -6   3   4   34.30    0.77
   5  -3  -4    7.16    0.25
   5  -3  -4    7.21    0.17
   5  -3  -4    7.08    0.17
  -5   3   4    7.19    0.26
  -5   3   4    7.34    0.17
  -5   3   4    6.87    0.24
   4  -3  -4    1.56    0.06
   4  -3  -4    1.37    0.11
  -4   3   4    1.34    0.10
  -4   3   4    1.60    0.11
   3  -3  -4   14.52    0.32
   3  -3  -4   14.83    0.37
  -3   3   4   14.83    0.36
  -3   3   4   13.90    0.36
  -3   3   4   14.59    0.32
  -3   3   4   14.73    0.36
   2  -3  -4  250.70    4.66
   2  -3  -4  252.30    4.93
   2  -3  -4  254.37    4.93
  -2   3   4  258.90    4.77
  -2   3   4  245.75    4.80
  -2   3   4  251.43    4.65
   1  -3  -4   25.49    0.51
   1  -3  -4   24.72    0.56
   1  -3  -4   24.82    0.55
  -1   3   4   24.99    0.57
  -1   3   4   24.70    0.55
   0  -3  -4   11.34    0.32
   0  -3  -4   12.10    0.32
   0  -3  -4   11.84    0.26
   0   3   4   11.62    0.32
   0   3   4   11.90    0.33
  -1  -3  -4   44.25    0.92
  -1  -3  -4   45.15    0.98
  -1  -3  -4   44.62    0.94
   1   3   4   43.74    0.97
   1   3   4   43.17    0.93
  -2  -3  -4    4.88    0.18
  -2  -3  -4    5.30    0.22
  -2  -3  -4    4.89    0.22
   2   3   4    5.51    0.22
   2   3   4    5.27    0.23
  -3  -3  -4   26.55    0.70
  -3  -3  -4   27.47    0.65
  -3  -3  -4   27.26    0.67
   3   3   4   26.23    0.69
   3   3   4   26.92    0.67
  -4  -3  -4    5.35    0.23
  -4  -3  -4    5.82    0.27
  -4  -3  -4    6.12    0.29
   4   3   4    5.59    0.27
   4   3   4    5.28    0.28
  -5  -3  -4    7.13    0.33
  -5  -3  -4    7.28    0.31
   5   3   4    7.97    0.35
   5   3   4    7.43    0.36
  -6  -3  -4    3.79    0.28
   6   3   4    4.10    0.27
   6   3   4    3.74    0.29
  10  -4  -4    1.05    0.17
 -10   4   4    0.77    0.15
 -10   4   4    1.06    0.19
   9  -4  -4    0.12    0.09
  -9   4   4    0.05    0.08
  -9   4   4   -0.09    0.08
   8  -4  -4   21.70    0.62
  -8   4   4   22.84    0.67
  -8   4   4   22.42    0.61
   7  -4  -4   -0.04    0.06
  -7   4   4    0.14    0.07
  -7   4   4    0.06    0.06
   6  -4  -4    1.20    0.13
  -6   4   4    1.37    0.12
  -6   4   4    1.36    0.13
   5  -4  -4    5.72    0.22
  -5   4   4    5.90    0.23
  -5   4   4    5.72    0.22
   4  -4  -4    3.11    0.08
   4  -4  -4    3.15    0.15
  -4   4   4    3.05    0.14
  -4   4   4    3.30    0.15
   3  -4  -4   47.52    0.99
   3  -4  -4   47.17    0.95
   3  -4  -4   46.97    0.99
   3  -4  -4   47.35    0.98
  -3   4   4   47.92    1.02
  -3   4   4   47.52    0.99
  -3   4   4   48.21    0.97
  -3   4   4   48.25    0.94
   2  -4  -4   66.21    1.35
   2  -4  -4   68.09    1.34
   2  -4  -4   70.46    1.34
  -2   4   4   67.07    1.39
  -2   4   4   66.77    1.33
   1  -4  -4    6.76    0.22
   1  -4  -4    6.79    0.23
  -1   4   4    7.04    0.24
  -1   4   4    6.71    0.22
   0  -4  -4    4.35    0.19
   0  -4  -4    4.99    0.20
   0   4   4    4.24    0.20
   0   4   4    4.70    0.18
  -1  -4  -4   18.97    0.51
  -1  -4  -4   18.32    0.48
  -1  -4  -4   18.59    0.40
   1   4   4   17.52    0.47
   1   4   4   18.02    0.50
  -2  -4  -4    1.29    0.14
  -2  -4  -4    1.67    0.14
  -2  -4  -4    1.62    0.09
   2   4   4    1.64    0.15
   2   4   4    1.64    0.14
  -3  -4  -4    3.86    0.22
  -3  -4  -4    3.04    0.22
  -3  -4  -4    3.41    0.16
   3   4   4    3.26    0.20
   3   4   4    3.69    0.23
  -4  -4  -4    0.16    0.08
   4   4   4    0.03    0.07
   4   4   4    0.22    0.09
  -5  -4  -4    0.71    0.13
   5   4   4    0.63    0.14
   5   4   4    0.59    0.13
  -6  -4  -4    2.40    0.24
   6   4   4    2.33    0.24
   6   4   4    2.48    0.26
  10  -5  -4    0.31    0.12
 -10   5   4    0.12    0.11
   9  -5  -4    1.12    0.18
  -9   5   4    1.28    0.17
  -9   5   4    1.13    0.20
   8  -5  -4    4.49    0.25
  -8   5   4    4.29    0.23
  -8   5   4    5.21    0.28
   7  -5  -4    2.26    0.17
  -7   5   4    2.13    0.16
  -7   5   4    2.37    0.19
   6  -5  -4   15.61    0.44
  -6   5   4   15.60    0.46
  -6   5   4   15.84    0.43
   5  -5  -4   12.47    0.36
  -5   5   4   12.72    0.35
  -5   5   4   12.36    0.36
   4  -5  -4    5.85    0.22
  -4   5   4    6.11    0.21
  -4   5   4    5.66    0.23
  -4   5   4    5.74    0.14
  -4   5   4    5.51    0.19
   3  -5  -4    7.30    0.21
   3  -5  -4    7.65    0.20
   3  -5  -4    7.85    0.26
  -3   5   4    7.07    0.23
  -3   5   4    6.91    0.26
  -3   5   4    7.60    0.20
   2  -5  -4   48.72    1.00
   2  -5  -4   46.19    0.99
   2  -5  -4   48.14    1.07
  -2   5   4   47.59    0.98
  -2   5   4   48.44    1.05
   1  -5  -4    6.28    0.23
   1  -5  -4    6.82    0.23
  -1   5   4    6.35    0.22
  -1   5   4    5.71    0.24
   0  -5  -4    0.03    0.05
   0  -5  -4    0.04    0.05
   0   5   4    0.11    0.05
   0   5   4   -0.01    0.05
  -1  -5  -4   10.90    0.37
  -1  -5  -4   10.35    0.34
   1   5   4   10.89    0.38
   1   5   4   11.41    0.34
  -2  -5  -4   34.50    0.82
   2   5   4   33.41    0.85
   2   5   4   33.01    0.80
  -3  -5  -4    9.16    0.36
   3   5   4    9.15    0.35
   3   5   4    9.91    0.39
  -4  -5  -4    3.05    0.23
   4   5   4    2.41    0.21
   4   5   4    2.63    0.24
  -5  -5  -4    0.54    0.14
   5   5   4    0.30    0.13
  10  -6  -4    5.62    0.33
 -10   6   4    5.64    0.35
   9  -6  -4    0.89    0.15
  -9   6   4    0.68    0.14
   8  -6  -4    4.56    0.26
  -8   6   4    5.00    0.28
   7  -6  -4    8.45    0.32
  -7   6   4    8.40    0.33
  -7   6   4    8.81    0.31
   6  -6  -4   32.48    0.76
  -6   6   4   31.58    0.73
  -6   6   4   31.88    0.78
   5  -6  -4    0.55    0.09
  -5   6   4    0.37    0.07
  -5   6   4    0.40    0.07
   4  -6  -4    9.44    0.31
   4  -6  -4    9.94    0.25
  -4   6   4   10.05    0.29
  -4   6   4    9.80    0.27
  -4   6   4    9.90    0.34
   3  -6  -4    4.00    0.19
   3  -6  -4    3.97    0.16
  -3   6   4    4.17    0.17
  -3   6   4    4.32    0.22
   2  -6  -4   21.37    0.53
   2  -6  -4   21.90    0.56
  -2   6   4   21.19    0.51
  -2   6   4   21.73    0.58
   1  -6  -4   45.74    1.08
   1  -6  -4   45.76    0.98
  -1   6   4   44.10    1.04
  -1   6   4   45.61    0.96
   0  -6  -4   -0.04    0.05
   0   6   4   -0.01    0.05
   0   6   4    0.08    0.07
  -1  -6  -4    7.56    0.30
   1   6   4    7.88    0.29
   1   6   4    7.64    0.33
  -2  -6  -4    3.62    0.23
   2   6   4    3.52    0.24
  -3  -6  -4    0.97    0.16
   3   6   4    0.67    0.14
  -4  -6  -4    6.39    0.34
   4   6   4    7.02    0.37
  10  -7  -4    1.24    0.20
 -10   7   4    0.46    0.14
   9  -7  -4    0.71    0.13
  -9   7   4    0.88    0.15
   8  -7  -4    0.10    0.08
  -8   7   4    0.00    0.07
   7  -7  -4    1.67    0.16
  -7   7   4    1.29    0.15
   6  -7  -4    1.45    0.15
  -6   7   4    1.62    0.14
   5  -7  -4    0.71    0.10
  -5   7   4    0.76    0.09
  -5   7   4    0.88    0.14
   4  -7  -4   48.56    1.04
   4  -7  -4   48.10    1.07
  -4   7   4   48.90    1.04
  -4   7   4   48.02    1.12
   3  -7  -4    5.31    0.23
   3  -7  -4    5.55    0.22
  -3   7   4    5.92    0.22
  -3   7   4    5.48    0.27
   2  -7  -4    0.16    0.06
   2  -7  -4    0.16    0.06
  -2   7   4    0.23    0.09
   1  -7  -4    2.65    0.19
   1  -7  -4    2.75    0.17
  -1   7   4    2.59    0.20
   0  -7  -4    1.57    0.15
   0  -7  -4    1.52    0.17
   0   7   4    1.64    0.18
  -1  -7  -4    0.76    0.14
  -1  -7  -4    0.90    0.14
   1   7   4    0.74    0.14
  -2  -7  -4    2.32    0.24
  -2  -7  -4    2.08    0.19
   2   7   4    2.57    0.23
  -3  -7  -4    0.14    0.09
  -3  -7  -4    0.23    0.13
   3   7   4    0.28    0.12
   9  -8  -4    0.30    0.11
  -9   8   4    0.36    0.12
   8  -8  -4    0.14    0.09
  -8   8   4    0.17    0.09
   7  -8  -4    0.63    0.11
  -7   8   4    0.68    0.11
   6  -8  -4   14.76    0.44
  -6   8   4   14.99    0.51
   5  -8  -4    2.65    0.18
  -5   8   4    2.34    0.21
   4  -8  -4    3.07    0.18
  -4   8   4    3.39    0.23
   3  -8  -4    3.34    0.19
   3  -8  -4    3.67    0.19
  -3   8   4    3.59    0.24
   2  -8  -4    2.37    0.18
   2  -8  -4    2.71    0.17
  -2   8   4    2.52    0.21
   1  -8  -4   23.52    0.61
   1  -8  -4   22.46    0.67
  -1   8   4   22.08    0.67
   0  -8  -4    8.33    0.38
   0  -8  -4    8.35    0.33
   0   8   4    8.12    0.38
  -1  -8  -4    2.44    0.24
  -1  -8  -4    2.29    0.20
   1   8   4    2.79    0.25
  -2  -8  -4    0.30    0.13
  -2  -8  -4    0.42    0.11
   2   8   4    0.47    0.14
   9  -9  -4    8.51    0.38
   8  -9  -4   -0.04    0.08
   7  -9  -4    7.48    0.31
  -7   9   4    7.12    0.37
   6  -9  -4    3.08    0.21
  -6   9   4    3.14    0.26
   5  -9  -4   13.28    0.42
  -5   9   4   14.06    0.50
   4  -9  -4    1.67    0.15
  -4   9   4    1.70    0.20
   3  -9  -4    9.71    0.34
  -3   9   4    9.70    0.41
   2  -9  -4    8.35    0.35
   2  -9  -4    7.72    0.31
  -2   9   4    8.00    0.38
   1  -9  -4    1.08    0.15
   1  -9  -4    1.02    0.17
  -1   9   4    0.87    0.16
   0  -9  -4    1.20    0.20
   0  -9  -4    1.26    0.17
   0   9   4    1.38    0.22
  -1  -9  -4   13.22    0.57
  -1  -9  -4   14.67    0.50
   1   9   4   13.53    0.55
   8 -10  -4    3.30    0.24
  -8  10   4    3.17    0.29
   7 -10  -4    1.40    0.17
  -7  10   4    1.48    0.22
   6 -10  -4    5.98    0.28
  -6  10   4    5.56    0.34
   5 -10  -4    0.25    0.09
  -5  10   4    0.25    0.12
   4 -10  -4    2.24    0.18
  -4  10   4    1.89    0.22
   3 -10  -4    1.25    0.15
  -3  10   4    1.24    0.21
   2 -10  -4    0.50    0.10
  -2  10   4    0.39    0.13
   1 -10  -4    0.57    0.11
  -1  10   4    0.34    0.14
   5 -11  -4    1.03    0.15
  -5  11   4    0.93    0.18
   4 -11  -4    0.66    0.12
  -2  11  -5    4.23    0.27
  -2  11  -5    4.22    0.28
   2 -11   5    4.00    0.32
  -3  11  -5    1.17    0.18
  -4  11  -5    1.59    0.20
  -1 -10   5    0.68    0.17
   0  10  -5    1.26    0.18
   0 -10   5    0.48    0.14
  -1  10  -5    3.63    0.24
   1 -10   5    3.70    0.30
  -2  10  -5    2.33    0.20
  -2  10  -5    2.18    0.20
   2 -10   5    2.10    0.23
  -3  10  -5    0.00    0.07
  -3  10  -5    0.15    0.09
  -3  10  -5    0.00    0.06
  -4  10  -5    0.01    0.06
  -4  10  -5   -0.06    0.07
  -5  10  -5    0.30    0.11
  -6  10  -5    0.08    0.10
  -2  -9   5    0.02    0.06
  -2  -9   5   -0.01    0.10
   1   9  -5    4.81    0.26
  -1  -9   5    5.26    0.34
   0   9  -5    0.54    0.11
   0  -9   5    0.32    0.12
  -1   9  -5    4.79    0.25
   1  -9   5    5.49    0.33
  -2   9  -5    2.18    0.17
  -2   9  -5    2.37    0.19
  -2   9  -5    2.38    0.18
   2  -9   5    2.39    0.23
  -3   9  -5    3.52    0.22
  -3   9  -5    3.09    0.22
  -3   9  -5    3.44    0.21
  -4   9  -5    0.59    0.10
  -4   9  -5    0.79    0.13
  -5   9  -5    2.75    0.22
  -6   9  -5    0.83    0.15
  -7   9  -5   15.54    0.59
  -4  -8   5   11.14    0.54
  -4  -8   5   11.83    0.41
  -3  -8   5    2.56    0.28
  -3  -8   5    2.76    0.18
   2   8  -5    5.97    0.27
  -2  -8   5    5.69    0.35
  -2  -8   5    6.21    0.23
   1   8  -5    0.06    0.06
  -1  -8   5    0.05    0.04
  -1  -8   5    0.09    0.09
   0   8  -5   14.09    0.43
   0  -8   5   13.14    0.30
   0  -8   5   13.22    0.51
  -1   8  -5    9.04    0.33
   1  -8   5    9.33    0.40
  -2   8  -5   25.51    0.69
  -2   8  -5   26.29    0.67
  -2   8  -5   26.69    0.68
   2  -8   5   25.55    0.76
  -3   8  -5    0.18    0.07
  -3   8  -5    0.15    0.07
  -4   8  -5    5.61    0.28
  -4   8  -5    5.73    0.24
  -5   8  -5   12.97    0.46
  -5   8  -5   11.98    0.37
   5  -8   5   12.16    0.30
  -6   8  -5    6.63    0.34
   6  -8   5    6.92    0.24
  -7   8  -5    0.09    0.10
   7  -8   5    0.14    0.07
  -8   8  -5    2.10    0.25
   8  -8   5    2.38    0.19
  -5  -7   5    1.62    0.18
  -5  -7   5    2.14    0.27
  -4  -7   5    0.45    0.10
  -4  -7   5    0.79    0.18
   3   7  -5    0.96    0.13
  -3  -7   5    0.60    0.10
  -3  -7   5    0.81    0.15
   2   7  -5    0.18    0.07
  -2  -7   5    0.08    0.05
  -2  -7   5    0.01    0.08
   1   7  -5    4.29    0.20
  -1  -7   5    4.17    0.15
  -1  -7   5    4.31    0.27
   0   7  -5    4.02    0.19
   0  -7   5    3.98    0.12
   0  -7   5    3.47    0.24
  -1   7  -5   14.92    0.43
   1  -7   5   14.68    0.50
  -2   7  -5    0.08    0.06
  -2   7  -5    0.03    0.05
   2  -7   5    0.02    0.07
  -3   7  -5    1.75    0.16
  -3   7  -5    1.92    0.14
  -4   7  -5    2.07    0.14
  -4   7  -5    1.94    0.17
   4  -7   5    1.90    0.09
  -5   7  -5    0.57    0.10
  -5   7  -5    0.54    0.11
   5  -7   5    0.60    0.08
  -6   7  -5    0.29    0.10
   6  -7   5    0.30    0.07
  -7   7  -5    2.65    0.24
   7  -7   5    2.93    0.19
  -8   7  -5    4.22    0.31
   8  -7   5    4.87    0.26
  -6  -6   5    0.53    0.12
  -6  -6   5    0.61    0.16
  -5  -6   5    0.50    0.15
  -5  -6   5    0.42    0.11
   4   6  -5   13.30    0.44
  -4  -6   5   14.95    0.55
  -4  -6   5   12.81    0.41
   3   6  -5    0.46    0.08
  -3  -6   5    0.48    0.08
  -3  -6   5    0.59    0.13
   2   6  -5   13.14    0.37
  -2  -6   5   12.84    0.47
  -2  -6   5   12.47    0.34
   1   6  -5   14.27    0.39
  -1  -6   5   14.87    0.34
  -1  -6   5   14.50    0.49
   0   6  -5   11.97    0.34
   0  -6   5   12.05    0.26
   0  -6   5   11.74    0.26
   0  -6   5   11.45    0.42
  -1   6  -5    2.02    0.13
   1  -6   5    2.07    0.17
  -2   6  -5   20.25    0.53
  -2   6  -5   20.78    0.57
  -3   6  -5   54.08    1.17
  -3   6  -5   54.08    1.25
   3  -6   5   55.55    1.04
   3  -6   5   54.14    1.04
  -4   6  -5    3.76    0.18
  -4   6  -5    3.34    0.21
   4  -6   5    3.53    0.14
  -5   6  -5   12.29    0.44
  -5   6  -5   12.69    0.37
   5  -6   5   12.31    0.34
  -6   6  -5    0.76    0.13
  -6   6  -5    0.91    0.11
   6  -6   5    0.87    0.12
  -7   6  -5    2.64    0.24
   7  -6   5    2.68    0.19
  -8   6  -5    8.61    0.43
   8  -6   5    9.15    0.36
  -6  -5   5    7.48    0.42
  -6  -5   5    7.77    0.35
  -5  -5   5    0.13    0.11
  -5  -5   5    0.08    0.07
   4   5  -5    1.95    0.14
  -4  -5   5    1.58    0.15
  -4  -5   5    1.35    0.19
   3   5  -5    0.84    0.10
  -3  -5   5    0.84    0.15
  -3  -5   5    0.87    0.10
   2   5  -5   15.43    0.39
  -2  -5   5   15.10    0.38
  -2  -5   5   15.16    0.50
   1   5  -5    1.22    0.09
  -1  -5   5    1.22    0.08
  -1  -5   5    1.08    0.14
  -1  -5   5    1.22    0.08
   0   5  -5   90.85    1.79
   0  -5   5   88.43    2.01
   0  -5   5   91.26    1.68
   0  -5   5   90.99    1.68
  -1   5  -5    2.53    0.15
   1  -5   5    2.07    0.16
   1  -5   5    2.26    0.07
   1  -5   5    2.27    0.07
  -2   5  -5   11.00    0.33
  -2   5  -5   11.30    0.36
   2  -5   5   10.92    0.24
   2  -5   5   10.73    0.24
  -3   5  -5   41.52    0.91
  -3   5  -5   41.67    0.99
   3  -5   5   42.32    0.83
   3  -5   5   41.05    0.83
  -4   5  -5   18.21    0.54
  -4   5  -5   18.66    0.48
   4  -5   5   17.93    0.43
  -5   5  -5   45.95    1.00
  -5   5  -5   45.36    1.11
   5  -5   5   45.60    0.97
  -6   5  -5    3.75    0.19
  -6   5  -5    3.79    0.25
   6  -5   5    3.80    0.20
  -7   5  -5    0.40    0.12
  -7   5  -5    0.29    0.08
   7  -5   5    0.41    0.10
  -8   5  -5    0.11    0.10
   8  -5   5    0.01    0.08
   9  -5   5    2.08    0.23
  -7  -4   5    0.07    0.09
  -7  -4   5    0.02    0.11
  -6  -4   5    0.17    0.10
  -6  -4   5   -0.03    0.07
   5   4  -5    0.15    0.07
  -5  -4   5    0.04    0.07
  -5  -4   5   -0.05    0.07
   4   4  -5    7.59    0.26
   4   4  -5    7.44    0.25
  -4  -4   5    7.80    0.34
  -4  -4   5    7.22    0.27
   3   4  -5   21.05    0.49
   3   4  -5   21.40    0.49
  -3  -4   5   21.00    0.51
  -3  -4   5   20.67    0.61
   2   4  -5   15.78    0.37
   2   4  -5   16.34    0.36
  -2  -4   5   15.51    0.38
  -2  -4   5   16.30    0.39
  -2  -4   5   15.76    0.48
   1   4  -5    0.01    0.03
   1   4  -5    0.05    0.02
  -1  -4   5    0.02    0.03
  -1  -4   5    0.09    0.03
  -1  -4   5   -0.01    0.05
   0   4  -5    3.07    0.12
   0  -4   5    3.17    0.10
   0  -4   5    3.13    0.10
   0  -4   5    3.13    0.18
  -1   4  -5    3.88    0.17
   1  -4   5    3.97    0.19
   1  -4   5    3.59    0.11
   1  -4   5    3.46    0.11
  -2   4  -5    1.30    0.12
  -2   4  -5    1.82    0.12
  -2   4  -5    1.62    0.05
   2  -4   5    1.66    0.08
   2  -4   5    1.72    0.08
  -3   4  -5    0.02    0.05
  -3   4  -5    0.11    0.05
  -3   4  -5    0.24    0.04
   3  -4   5    0.00    0.03
   3  -4   5   -0.02    0.03
  -4   4  -5    1.80    0.13
  -4   4  -5    1.84    0.10
  -4   4  -5    1.76    0.15
   4  -4   5    1.89    0.12
  -5   4  -5    6.92    0.25
  -5   4  -5    6.23    0.29
   5  -4   5    6.70    0.25
  -6   4  -5    0.12    0.06
  -6   4  -5    0.04    0.07
   6  -4   5    0.07    0.06
  -7   4  -5    0.82    0.12
  -7   4  -5    0.75    0.14
   7  -4   5    0.67    0.12
  -8   4  -5    3.37    0.28
   8  -4   5    3.26    0.25
  -8  -3   5    1.37    0.20
  -8  -3   5    1.26    0.23
  -7  -3   5    0.59    0.12
  -7  -3   5    0.64    0.15
   6   3  -5    1.22    0.15
   6   3  -5    1.68    0.14
  -6  -3   5    1.78    0.17
  -6  -3   5    1.32    0.18
   5   3  -5   14.80    0.43
   5   3  -5   15.14    0.40
  -5  -3   5   15.29    0.45
  -5  -3   5   14.97    0.51
   4   3  -5    1.27    0.09
   4   3  -5    1.13    0.11
  -4  -3   5    1.21    0.15
  -4  -3   5    1.20    0.12
   3   3  -5   16.42    0.38
   3   3  -5   16.73    0.40
  -3  -3   5   16.70    0.49
  -3  -3   5   16.86    0.42
   2   3  -5    1.91    0.10
   2   3  -5    1.86    0.08
  -2  -3   5    1.79    0.14
  -2  -3   5    1.99    0.10
  -2  -3   5    1.91    0.10
   1   3  -5   25.42    0.52
   1   3  -5   25.07    0.51
  -1  -3   5   26.24    0.53
  -1  -3   5   25.13    0.65
  -1  -3   5   25.50    0.53
   0   3  -5   32.90    0.72
   0   3  -5   32.45    0.62
   0  -3   5   32.47    0.64
   0  -3   5   31.39    0.78
   0  -3   5   32.10    0.64
  -1   3  -5   76.63    1.42
  -1   3  -5   76.15    1.55
   1  -3   5   75.79    1.44
   1  -3   5   77.90    1.44
  -2   3  -5    0.34    0.07
  -2   3  -5    0.50    0.05
  -2   3  -5    0.30    0.06
   2  -3   5    0.42    0.06
   2  -3   5    0.46    0.06
  -3   3  -5   21.03    0.47
  -3   3  -5   20.60    0.51
   3  -3   5   21.79    0.49
   3  -3   5   20.13    0.47
  -4   3  -5   26.47    0.59
  -4   3  -5   26.21    0.68
  -4   3  -5   25.90    0.63
   4  -3   5   25.64    0.60
  -5   3  -5   44.47    1.08
  -5   3  -5   44.86    1.00
  -5   3  -5   44.37    0.96
   5  -3   5   43.82    0.97
  -6   3  -5    7.28    0.29
  -6   3  -5    7.15    0.33
  -6   3  -5    7.03    0.28
   6  -3   5    6.63    0.29
  -7   3  -5    9.44    0.36
  -7   3  -5    9.26    0.41
   7  -3   5    9.29    0.37
  -8   3  -5    7.20    0.38
  -8   3  -5    7.36    0.33
   8  -3   5    7.16    0.36
   8   2  -5    8.80    0.43
  -8  -2   5    7.40    0.40
  -8  -2   5    7.74    0.38
  -8  -2   5    7.96    0.41
   7   2  -5    9.02    0.36
  -7  -2   5    9.63    0.41
  -7  -2   5    9.37    0.38
  -7  -2   5    9.47    0.41
   6   2  -5    2.16    0.15
   6   2  -5    2.11    0.17
  -6  -2   5    1.98    0.19
  -6  -2   5    2.17    0.19
  -6  -2   5    2.29    0.18
   5   2  -5   10.65    0.33
   5   2  -5   10.52    0.30
  -5  -2   5   10.17    0.38
  -5  -2   5    9.71    0.33
  -5  -2   5    9.60    0.37
   4   2  -5   45.59    0.93
   4   2  -5   45.63    0.96
  -4  -2   5   46.64    1.09
  -4  -2   5   44.18    0.96
   3   2  -5   15.02    0.33
   3   2  -5   14.68    0.37
  -3  -2   5   15.51    0.33
  -3  -2   5   15.47    0.44
  -3  -2   5   14.68    0.38
   2   2  -5    4.18    0.10
   2   2  -5    4.47    0.15
  -2  -2   5    4.34    0.15
  -2  -2   5    4.19    0.18
  -2  -2   5    4.49    0.15
   1   2  -5    0.48    0.05
   1   2  -5    0.46    0.03
   1   2  -5    0.40    0.03
   1   2  -5    0.50    0.08
  -1  -2   5    0.44    0.06
  -1  -2   5    0.44    0.08
  -1  -2   5    0.42    0.05
   0   2  -5  138.83    2.67
   0   2  -5  136.33    2.73
   0   2  -5  141.62    2.60
   0  -2   5  142.74    2.61
   0  -2   5  144.30    2.61
  -1   2  -5   32.50    0.66
  -1   2  -5   32.72    0.72
   1  -2   5   34.40    0.67
   1  -2   5   32.02    0.67
  -2   2  -5   18.26    0.48
  -2   2  -5   18.33    0.41
  -2   2  -5   17.59    0.45
   2  -2   5   17.56    0.42
   2  -2   5   18.97    0.42
  -3   2  -5    0.42    0.07
  -3   2  -5    0.51    0.07
  -3   2  -5    0.52    0.09
   3  -2   5    0.35    0.06
  -4   2  -5    2.22    0.14
  -4   2  -5    2.27    0.14
  -4   2  -5    2.16    0.16
   4  -2   5    2.39    0.15
  -5   2  -5   37.02    0.95
  -5   2  -5   38.49    0.89
  -5   2  -5   39.55    0.87
   5  -2   5   37.69    0.88
  -6   2  -5    0.12    0.07
  -6   2  -5    0.19    0.07
  -6   2  -5    0.12    0.07
   6  -2   5    0.16    0.08
  -7   2  -5    0.65    0.12
  -7   2  -5    0.46    0.10
  -7   2  -5    0.68    0.14
   7  -2   5    0.44    0.11
  -8   2  -5    0.11    0.10
  -8   2  -5    0.10    0.09
   8  -2   5    0.06    0.10
   9   1  -5   -0.05    0.10
  -9  -1   5   -0.06    0.10
  -9  -1   5   -0.15    0.08
  -9  -1   5    0.02    0.10
   8   1  -5    7.17    0.35
  -8  -1   5    7.61    0.37
  -8  -1   5    7.30    0.35
  -8  -1   5    7.68    0.38
   7   1  -5    0.20    0.08
  -7  -1   5    0.29    0.10
  -7  -1   5    0.30    0.10
  -7  -1   5    0.12    0.08
   6   1  -5   21.54    0.57
  -6  -1   5   21.49    0.63
  -6  -1   5   20.79    0.57
  -6  -1   5   21.96    0.62
   5   1  -5    2.67    0.16
  -5  -1   5    2.76    0.17
  -5  -1   5    2.97    0.18
  -5  -1   5    2.64    0.18
   4   1  -5    1.20    0.10
  -4  -1   5    1.39    0.11
  -4  -1   5    1.19    0.12
  -4  -1   5    1.14    0.11
  -4  -1   5    1.21    0.07
   3   1  -5   64.78    1.27
  -3  -1   5   64.20    1.23
  -3  -1   5   62.66    1.41
  -3  -1   5   65.21    1.27
   2   1  -5   23.63    0.51
  -2  -1   5   23.56    0.51
  -2  -1   5   23.98    0.51
  -2  -1   5   22.79    0.57
   1   1  -5    6.80    0.21
   1   1  -5    6.57    0.14
   1   1  -5    6.53    0.18
  -1  -1   5    5.90    0.21
  -1  -1   5    6.51    0.19
  -1  -1   5    6.57    0.19
   0   1  -5   59.91    1.15
   0   1  -5   57.33    1.19
   0   1  -5   58.94    1.13
   0  -1   5   59.96    1.14
   0  -1   5   58.50    1.14
   0  -1   5   58.19    1.15
  -1   1  -5  148.40    2.90
  -1   1  -5  146.26    2.78
   1  -1   5  155.63    2.79
   1  -1   5  147.68    2.79
   1  -1   5  148.67    2.87
  -2   1  -5    9.37    0.26
  -2   1  -5    9.28    0.29
  -2   1  -5    9.30    0.28
   2  -1   5    8.69    0.26
   2  -1   5    9.02    0.27
  -3   1  -5    0.02    0.04
  -3   1  -5    0.00    0.04
  -3   1  -5    0.01    0.04
   3  -1   5    0.05    0.04
   3  -1   5    0.06    0.05
  -4   1  -5    8.37    0.31
  -4   1  -5    9.03    0.29
  -4   1  -5    8.60    0.30
   4  -1   5    8.43    0.31
   4  -1   5    8.19    0.29
  -5   1  -5    8.20    0.32
  -5   1  -5    8.47    0.34
  -5   1  -5    8.93    0.32
   5  -1   5    8.80    0.32
   5  -1   5    8.36    0.34
  -6   1  -5    1.70    0.17
  -6   1  -5    1.89    0.18
  -6   1  -5    1.43    0.16
   6  -1   5    1.98    0.20
   6  -1   5    1.64    0.18
  -7   1  -5    0.23    0.09
  -7   1  -5    0.05    0.08
  -7   1  -5    0.07    0.07
   7  -1   5    0.14    0.09
  -8   1  -5    3.33    0.25
  -8   1  -5    2.94    0.25
  -8   1  -5    2.66    0.26
   8  -1   5    2.46    0.25
   9   0  -5    7.19    0.37
  -9   0   5    7.50    0.38
  -9   0   5    7.21    0.37
  -9   0   5    8.17    0.42
   8   0  -5   13.09    0.47
  -8   0   5   12.91    0.47
  -8   0   5   14.28    0.52
  -8   0   5   13.33    0.47
   7   0  -5   25.88    0.68
  -7   0   5   24.85    0.73
  -7   0   5   25.96    0.71
  -7   0   5   26.17    0.68
   6   0  -5   64.59    1.35
  -6   0   5   63.52    1.45
  -6   0   5   64.47    1.46
  -6   0   5   63.26    1.35
   5   0  -5   20.13    0.52
  -5   0   5   20.67    0.52
  -5   0   5   21.11    0.57
  -5   0   5   20.64    0.54
   4   0  -5   29.43    0.67
  -4   0   5   31.07    0.63
  -4   0   5   30.15    0.71
  -4   0   5   30.78    0.68
  -4   0   5   30.36    0.73
   3   0  -5   41.32    0.85
  -3   0   5   41.72    0.92
  -3   0   5   40.72    0.86
  -3   0   5   42.09    0.81
   2   0  -5    3.67    0.14
   2   0  -5    3.67    0.14
   2   0  -5    3.39    0.14
  -2   0   5    3.59    0.09
  -2   0   5    3.42    0.13
  -2   0   5    3.82    0.14
   1   0  -5   29.43    0.61
   1   0  -5   29.72    0.64
   1   0  -5   30.21    0.59
  -1   0   5   28.51    0.61
  -1   0   5   29.10    0.59
   0   0  -5   27.90    0.60
   0   0  -5   28.07    0.62
   0   0  -5   28.72    0.59
   0   0   5   27.59    0.60
   0   0   5   28.72    0.59
  -1   0  -5    6.45    0.21
  -1   0  -5    6.52    0.20
   1   0   5    6.20    0.20
   1   0   5    6.42    0.21
  -2   0  -5   13.40    0.37
  -2   0  -5   13.38    0.35
  -2   0  -5   13.11    0.37
   2   0   5   13.48    0.36
   2   0   5   13.09    0.36
  -3   0  -5    9.97    0.33
  -3   0  -5   10.36    0.33
  -3   0  -5   10.30    0.31
   3   0   5   11.03    0.33
   3   0   5    9.97    0.33
  -4   0  -5    0.75    0.11
  -4   0  -5    0.91    0.12
  -4   0  -5    0.70    0.11
   4   0   5    0.66    0.10
   4   0   5    0.77    0.13
  -5   0  -5   21.20    0.60
  -5   0  -5   21.33    0.61
  -5   0  -5   20.95    0.58
   5   0   5   21.02    0.58
   5   0   5   20.73    0.61
  -6   0  -5   10.87    0.40
  -6   0  -5   10.14    0.40
  -6   0  -5   10.79    0.41
   6   0   5   10.73    0.41
   6   0   5   10.96    0.43
  -7   0  -5    1.61    0.20
  -7   0  -5    1.14    0.18
  -7   0  -5    1.14    0.18
   7   0   5    0.81    0.15
   7   0   5    1.75    0.21
  10  -1  -5    1.61    0.24
 -10   1   5    1.91    0.24
 -10   1   5    2.31    0.28
   9  -1  -5    0.08    0.10
  -9   1   5   -0.09    0.08
  -9   1   5   -0.09    0.08
   8  -1  -5    5.24    0.29
  -8   1   5    5.68    0.32
  -8   1   5    5.65    0.27
  -8   1   5    5.14    0.28
   7  -1  -5    2.65    0.19
  -7   1   5    3.00    0.22
  -7   1   5    3.07    0.21
  -7   1   5    2.68    0.17
   6  -1  -5    4.43    0.22
  -6   1   5    4.37    0.19
  -6   1   5    5.16    0.23
  -6   1   5    4.70    0.24
   5  -1  -5    5.20    0.21
  -5   1   5    4.91    0.18
  -5   1   5    5.40    0.23
  -5   1   5    5.12    0.21
   4  -1  -5    0.56    0.09
  -4   1   5    0.41    0.07
  -4   1   5    0.68    0.09
  -4   1   5    0.61    0.06
   3  -1  -5  104.68    1.96
   3  -1  -5  104.73    2.13
   3  -1  -5   99.46    1.99
  -3   1   5  101.18    2.12
  -3   1   5  102.61    1.96
  -3   1   5  101.13    2.09
   2  -1  -5   20.51    0.46
   2  -1  -5   21.58    0.48
   2  -1  -5   20.76    0.47
  -2   1   5   20.30    0.44
  -2   1   5   21.03    0.47
   1  -1  -5    1.96    0.10
   1  -1  -5    2.22    0.11
   1  -1  -5    2.19    0.09
  -1   1   5    2.21    0.11
  -1   1   5    2.09    0.09
   0  -1  -5   24.37    0.54
   0  -1  -5   24.83    0.56
   0   1   5   24.71    0.54
   0   1   5   24.49    0.54
  -1  -1  -5    3.25    0.15
  -1  -1  -5    3.46    0.16
  -1  -1  -5    3.32    0.14
   1   1   5    3.38    0.15
   1   1   5    3.41    0.15
  -2  -1  -5    7.53    0.25
  -2  -1  -5    7.71    0.27
  -2  -1  -5    7.81    0.26
   2   1   5    7.62    0.26
   2   1   5    8.09    0.26
  -3  -1  -5    3.13    0.18
  -3  -1  -5    3.47    0.17
  -3  -1  -5    3.17    0.17
   3   1   5    3.33    0.18
   3   1   5    3.24    0.19
  -4  -1  -5   34.89    0.85
  -4  -1  -5   35.70    0.86
  -4  -1  -5   33.88    0.82
   4   1   5   35.89    0.84
   4   1   5   34.15    0.86
  -5  -1  -5   15.73    0.49
  -5  -1  -5   16.59    0.50
  -5  -1  -5   15.90    0.51
   5   1   5   14.85    0.49
   5   1   5   16.52    0.53
  -6  -1  -5    0.06    0.08
  -6  -1  -5    0.07    0.08
  -6  -1  -5    0.00    0.07
   6   1   5    0.01    0.08
   6   1   5   -0.01    0.09
  -7  -1  -5    0.07    0.09
  -7  -1  -5   -0.08    0.08
  -7  -1  -5   -0.03    0.08
   7   1   5   -0.02    0.09
   7   1   5    0.15    0.12
  10  -2  -5    0.28    0.13
 -10   2   5    0.44    0.13
 -10   2   5    0.22    0.13
   9  -2  -5    0.21    0.11
  -9   2   5    0.54    0.13
  -9   2   5    0.29    0.13
   8  -2  -5    0.15    0.09
  -8   2   5   -0.07    0.06
  -8   2   5    0.00    0.08
   7  -2  -5    1.09    0.14
  -7   2   5    1.25    0.11
  -7   2   5    1.15    0.16
  -7   2   5    1.40    0.15
   6  -2  -5    2.90    0.18
  -6   2   5    2.89    0.19
  -6   2   5    2.71    0.17
  -6   2   5    2.81    0.13
   5  -2  -5    9.85    0.25
   5  -2  -5    9.01    0.30
  -5   2   5    9.79    0.32
  -5   2   5    9.48    0.25
  -5   2   5    9.88    0.30
   4  -2  -5    0.85    0.10
   4  -2  -5    1.01    0.07
  -4   2   5    1.11    0.10
  -4   2   5    1.15    0.10
   3  -2  -5    2.53    0.08
   3  -2  -5    2.51    0.13
   3  -2  -5    2.45    0.10
  -3   2   5    2.37    0.12
  -3   2   5    2.34    0.11
  -3   2   5    2.15    0.12
   2  -2  -5   56.15    1.12
   2  -2  -5   55.73    1.13
  -2   2   5   56.26    1.12
  -2   2   5   55.91    1.12
   1  -2  -5    7.72    0.23
   1  -2  -5    7.04    0.22
  -1   2   5    7.42    0.23
  -1   2   5    7.86    0.23
   0  -2  -5    9.75    0.29
   0  -2  -5   10.55    0.26
   0  -2  -5   10.10    0.30
   0   2   5   10.05    0.29
   0   2   5   10.55    0.29
  -1  -2  -5    0.17    0.05
  -1  -2  -5    0.12    0.04
  -1  -2  -5    0.18    0.05
   1   2   5    0.13    0.05
   1   2   5    0.10    0.05
  -2  -2  -5    0.14    0.04
  -2  -2  -5    0.22    0.06
  -2  -2  -5    0.19    0.06
   2   2   5    0.07    0.05
   2   2   5    0.20    0.06
  -3  -2  -5    0.93    0.11
  -3  -2  -5    1.16    0.13
  -3  -2  -5    0.75    0.12
   3   2   5    1.03    0.14
   3   2   5    1.16    0.13
  -4  -2  -5   20.96    0.59
  -4  -2  -5   19.81    0.55
  -4  -2  -5   19.97    0.57
   4   2   5   19.44    0.59
   4   2   5   20.68    0.58
  -5  -2  -5   21.82    0.62
  -5  -2  -5   21.76    0.63
  -5  -2  -5   20.92    0.64
   5   2   5   22.19    0.63
   5   2   5   21.25    0.65
  -6  -2  -5    0.99    0.17
  -6  -2  -5    1.22    0.18
  -6  -2  -5    1.14    0.17
   6   2   5    1.15    0.18
   6   2   5    1.17    0.19
  -7  -2  -5    2.23    0.25
   7   2   5    2.94    0.29
   7   2   5    2.47    0.25
  10  -3  -5    0.27    0.13
 -10   3   5    0.20    0.12
 -10   3   5    0.48    0.15
   9  -3  -5    4.83    0.29
  -9   3   5    4.72    0.28
  -9   3   5    4.47    0.31
   8  -3  -5   12.18    0.43
  -8   3   5   12.24    0.46
  -8   3   5   12.28    0.42
   7  -3  -5   12.86    0.41
   7  -3  -5   12.28    0.31
  -7   3   5   13.42    0.45
  -7   3   5   12.41    0.40
   6  -3  -5    1.27    0.08
   6  -3  -5    1.55    0.14
  -6   3   5    1.34    0.14
  -6   3   5    1.35    0.13
  -6   3   5    1.49    0.07
   5  -3  -5   21.97    0.55
   5  -3  -5   22.84    0.47
  -5   3   5   22.05    0.57
  -5   3   5   22.50    0.55
   4  -3  -5   29.68    0.66
   4  -3  -5   28.65    0.59
  -4   3   5   28.89    0.65
  -4   3   5   28.62    0.67
   3  -3  -5   25.39    0.55
   3  -3  -5   26.20    0.59
  -3   3   5   25.99    0.55
  -3   3   5   26.91    0.59
  -3   3   5   25.87    0.59
   2  -3  -5   28.34    0.63
   2  -3  -5   27.88    0.62
   2  -3  -5   29.03    0.61
  -2   3   5   28.06    0.62
  -2   3   5   28.40    0.63
   1  -3  -5    1.07    0.10
   1  -3  -5    1.17    0.06
   1  -3  -5    1.01    0.09
  -1   3   5    1.06    0.10
  -1   3   5    1.40    0.10
   0  -3  -5   33.57    0.68
   0  -3  -5   31.18    0.74
   0  -3  -5   31.73    0.72
   0   3   5   33.23    0.72
   0   3   5   32.54    0.74
  -1  -3  -5   26.52    0.67
  -1  -3  -5   27.86    0.61
  -1  -3  -5   27.80    0.65
   1   3   5   29.43    0.66
   1   3   5   27.75    0.67
  -2  -3  -5   19.27    0.52
  -2  -3  -5   20.28    0.48
  -2  -3  -5   18.98    0.54
   2   3   5   18.43    0.53
   2   3   5   19.67    0.52
  -3  -3  -5    6.28    0.24
  -3  -3  -5    6.19    0.29
  -3  -3  -5    6.70    0.28
   3   3   5    5.47    0.27
   3   3   5    6.91    0.28
  -4  -3  -5   38.21    0.96
  -4  -3  -5   37.68    0.92
  -4  -3  -5   36.80    0.89
   4   3   5   36.80    0.91
   4   3   5   37.21    0.95
  -5  -3  -5    0.03    0.08
  -5  -3  -5   -0.08    0.07
   5   3   5   -0.05    0.08
   5   3   5   -0.07    0.08
  -6  -3  -5    6.18    0.35
   6   3   5    6.40    0.37
   6   3   5    5.97    0.34
  10  -4  -5   11.82    0.48
 -10   4   5   12.67    0.53
 -10   4   5   12.48    0.48
   9  -4  -5    0.30    0.11
  -9   4   5    0.24    0.11
  -9   4   5    0.26    0.10
   8  -4  -5    1.36    0.17
  -8   4   5    1.33    0.18
  -8   4   5    1.44    0.17
   7  -4  -5    6.28    0.28
  -7   4   5    6.53    0.29
  -7   4   5    6.23    0.27
   6  -4  -5    0.35    0.08
  -6   4   5    0.31    0.08
  -6   4   5    0.13    0.07
   5  -4  -5   12.91    0.37
   5  -4  -5   12.63    0.26
  -5   4   5   12.83    0.37
  -5   4   5   12.72    0.36
   4  -4  -5   16.35    0.36
   4  -4  -5   16.80    0.44
  -4   4   5   16.29    0.42
  -4   4   5   17.15    0.43
  -4   4   5   16.97    0.44
   3  -4  -5    2.99    0.15
   3  -4  -5    3.06    0.12
   3  -4  -5    2.39    0.11
   3  -4  -5    3.05    0.09
  -3   4   5    3.11    0.15
  -3   4   5    3.26    0.16
   2  -4  -5    8.57    0.27
   2  -4  -5    9.05    0.26
   2  -4  -5    9.17    0.21
  -2   4   5    8.63    0.28
  -2   4   5    8.70    0.27
   1  -4  -5    2.19    0.13
   1  -4  -5    2.74    0.15
  -1   4   5    2.53    0.14
  -1   4   5    2.39    0.15
   0  -4  -5   11.47    0.35
   0  -4  -5   11.74    0.35
   0   4   5   11.39    0.34
   0   4   5   11.18    0.36
  -1  -4  -5    0.14    0.03
  -1  -4  -5    0.10    0.06
  -1  -4  -5    0.07    0.06
   1   4   5    0.06    0.06
   1   4   5    0.15    0.06
  -2  -4  -5    3.00    0.20
  -2  -4  -5    3.15    0.20
  -2  -4  -5    3.21    0.14
   2   4   5    3.49    0.21
   2   4   5    3.42    0.19
  -3  -4  -5    0.62    0.12
  -3  -4  -5    0.94    0.14
   3   4   5    0.88    0.14
   3   4   5    0.58    0.11
  -4  -4  -5    1.15    0.16
  -4  -4  -5    1.08    0.17
   4   4   5    1.33    0.17
   4   4   5    1.36    0.19
  -5  -4  -5    2.03    0.22
   5   4   5    1.90    0.21
   5   4   5    1.96    0.23
  10  -5  -5    0.07    0.11
 -10   5   5    0.12    0.11
   9  -5  -5    0.02    0.09
  -9   5   5   -0.06    0.07
  -9   5   5    0.00    0.08
   8  -5  -5    0.22    0.10
  -8   5   5    0.45    0.11
  -8   5   5    0.35    0.09
   7  -5  -5    0.10    0.07
  -7   5   5    0.10    0.07
  -7   5   5    0.13    0.08
   6  -5  -5    8.48    0.31
  -6   5   5    8.49    0.30
  -6   5   5    8.67    0.31
   5  -5  -5    6.58    0.25
  -5   5   5    6.70    0.24
  -5   5   5    6.29    0.23
   4  -5  -5    4.53    0.14
   4  -5  -5    4.17    0.20
  -4   5   5    4.49    0.21
  -4   5   5    4.51    0.14
  -4   5   5    4.45    0.19
  -4   5   5    4.46    0.16
   3  -5  -5   19.87    0.43
   3  -5  -5   19.68    0.45
   3  -5  -5   19.66    0.46
   3  -5  -5   19.38    0.49
  -3   5   5   18.72    0.51
  -3   5   5   19.38    0.48
   2  -5  -5   11.35    0.32
   2  -5  -5   11.26    0.34
  -2   5   5   11.13    0.32
  -2   5   5   10.99    0.35
   1  -5  -5    0.97    0.11
   1  -5  -5    1.12    0.11
  -1   5   5    0.90    0.10
  -1   5   5    0.83    0.12
   0  -5  -5    5.32    0.23
   0  -5  -5    5.24    0.23
   0   5   5    4.92    0.22
   0   5   5    4.72    0.24
  -1  -5  -5    5.76    0.25
  -1  -5  -5    5.46    0.26
   1   5   5    5.91    0.27
   1   5   5    5.67    0.25
  -2  -5  -5    3.02    0.20
  -2  -5  -5    3.08    0.22
   2   5   5    3.12    0.20
   2   5   5    3.24    0.22
  -3  -5  -5    0.06    0.07
   3   5   5    0.14    0.08
   3   5   5    0.07    0.09
  -4  -5  -5    7.07    0.35
   4   5   5    6.44    0.36
   4   5   5    6.91    0.34
  -5  -5  -5    2.74    0.25
   5   5   5    2.95    0.28
  10  -6  -5    3.13    0.27
 -10   6   5    3.07    0.28
   9  -6  -5    1.82    0.20
  -9   6   5    2.39    0.23
   8  -6  -5    3.16    0.22
  -8   6   5    2.69    0.20
  -8   6   5    2.93    0.22
   7  -6  -5   -0.12    0.06
  -7   6   5    0.06    0.06
  -7   6   5   -0.06    0.06
   6  -6  -5   22.17    0.58
  -6   6   5   21.86    0.58
  -6   6   5   22.20    0.56
   5  -6  -5   31.21    0.75
  -5   6   5   32.91    0.74
  -5   6   5   31.94    0.79
  -5   6   5   31.64    0.74
   4  -6  -5   56.84    1.21
   4  -6  -5   56.28    1.20
  -4   6   5   57.28    1.26
  -4   6   5   57.04    1.18
  -4   6   5   57.71    1.18
   3  -6  -5    4.34    0.21
   3  -6  -5    4.32    0.17
  -3   6   5    4.35    0.19
  -3   6   5    4.28    0.23
   2  -6  -5    2.52    0.15
   2  -6  -5    2.21    0.15
   2  -6  -5    2.46    0.15
  -2   6   5    2.56    0.15
  -2   6   5    2.71    0.19
   1  -6  -5    2.04    0.15
   1  -6  -5    1.92    0.15
  -1   6   5    1.95    0.14
  -1   6   5    1.90    0.17
   0  -6  -5    6.98    0.30
   0  -6  -5    7.15    0.29
   0   6   5    6.81    0.31
   0   6   5    7.18    0.28
  -1  -6  -5    2.53    0.19
   1   6   5    2.64    0.18
   1   6   5    2.80    0.21
  -2  -6  -5   18.69    0.56
   2   6   5   17.85    0.59
  -3  -6  -5    3.41    0.24
   3   6   5    3.54    0.27
  -4  -6  -5    5.26    0.32
   4   6   5    5.30    0.35
  10  -7  -5    4.04    0.30
 -10   7   5    3.94    0.30
   9  -7  -5   -0.09    0.08
  -9   7   5    0.11    0.10
   8  -7  -5    4.70    0.27
  -8   7   5    5.13    0.28
   7  -7  -5    4.19    0.24
  -7   7   5    4.55    0.23
   6  -7  -5   26.62    0.68
  -6   7   5   26.69    0.66
  -6   7   5   26.41    0.72
   5  -7  -5    1.78    0.16
  -5   7   5    1.93    0.19
   4  -7  -5    0.41    0.09
  -4   7   5    0.21    0.09
  -4   7   5    0.35    0.07
   3  -7  -5   11.21    0.34
   3  -7  -5   10.67    0.35
  -3   7   5   10.97    0.39
  -3   7   5   10.86    0.34
   2  -7  -5    7.73    0.29
   2  -7  -5    7.82    0.29
  -2   7   5    7.40    0.32
   1  -7  -5    0.75    0.12
   1  -7  -5    0.67    0.11
  -1   7   5    0.79    0.14
   0  -7  -5    0.04    0.07
   0  -7  -5   -0.06    0.05
   0   7   5    0.01    0.08
  -1  -7  -5   12.72    0.44
   1   7   5   12.66    0.48
  -2  -7  -5    0.78    0.14
   2   7   5    0.81    0.16
  -3  -7  -5    3.25    0.26
   3   7   5    3.60    0.30
   9  -8  -5    0.85    0.15
  -9   8   5    0.72    0.14
   8  -8  -5   -0.03    0.07
   7  -8  -5    2.18    0.19
  -7   8   5    2.11    0.22
   6  -8  -5   -0.05    0.07
  -6   8   5    0.14    0.09
   5  -8  -5    3.85    0.22
  -5   8   5    3.90    0.26
   4  -8  -5    1.80    0.16
  -4   8   5    2.12    0.20
   3  -8  -5   15.18    0.46
  -3   8   5   16.44    0.53
   2  -8  -5    0.57    0.11
   2  -8  -5    0.34    0.09
  -2   8   5    0.53    0.12
   1  -8  -5    0.23    0.09
   1  -8  -5    0.21    0.08
  -1   8   5    0.36    0.11
   0  -8  -5    0.10    0.08
   0  -8  -5    0.09    0.10
   0   8   5   -0.03    0.09
  -1  -8  -5    9.18    0.38
  -1  -8  -5    8.77    0.42
   1   8   5    8.43    0.41
   9  -9  -5    7.76    0.37
   8  -9  -5    4.94    0.28
  -8   9   5    5.64    0.34
   7  -9  -5    4.56    0.26
  -7   9   5    3.85    0.29
   6  -9  -5    0.01    0.07
  -6   9   5    0.13    0.10
   5  -9  -5    4.24    0.24
  -5   9   5    4.18    0.29
   4  -9  -5    6.16    0.28
  -4   9   5    6.26    0.33
   3  -9  -5    2.76    0.19
  -3   9   5    2.46    0.23
   2  -9  -5    0.23    0.08
  -2   9   5    0.28    0.12
   1  -9  -5    6.66    0.34
   1  -9  -5    6.39    0.30
  -1   9   5    6.69    0.37
   0  -9  -5    0.00    0.09
   0  -9  -5    0.08    0.08
   0   9   5    0.02    0.10
   8 -10  -5   -0.03    0.09
  -8  10   5    0.17    0.13
   7 -10  -5    5.82    0.30
  -7  10   5    6.36    0.37
   6 -10  -5    3.86    0.24
  -6  10   5    4.41    0.31
   5 -10  -5    0.36    0.10
  -5  10   5    0.11    0.11
   4 -10  -5    0.06    0.08
  -4  10   5    0.03    0.10
   3 -10  -5    0.61    0.12
  -3  10   5    0.79    0.17
   2 -10  -5    7.83    0.34
  -2  10   5    7.63    0.40
   0 -10   6    0.09    0.12
   1 -10   6    5.59    0.36
  -2  10  -6    2.51    0.20
  -2  10  -6    2.46    0.21
  -2  10  -6    2.78    0.21
   2 -10   6    2.76    0.27
  -3  10  -6    3.48    0.23
  -3  10  -6    3.46    0.23
  -3  10  -6    3.42    0.24
  -4  10  -6    3.13    0.24
  -4  10  -6    2.82    0.23
  -5  10  -6    1.07    0.18
  -6  10  -6    0.10    0.10
  -2  -9   6    3.32    0.31
  -1  -9   6    0.18    0.12
   0   9  -6    2.49    0.19
   0  -9   6    2.15    0.24
  -1   9  -6    0.40    0.10
   1  -9   6    0.35    0.12
  -2   9  -6    2.42    0.19
  -2   9  -6    2.40    0.19
  -2   9  -6    2.37    0.18
   2  -9   6    2.87    0.25
  -3   9  -6    0.57    0.11
  -3   9  -6    0.64    0.11
  -3   9  -6    0.63    0.12
  -4   9  -6    0.90    0.13
  -4   9  -6    0.92    0.15
  -5   9  -6   11.18    0.45
  -6   9  -6    9.66    0.44
  -7   9  -6    0.08    0.11
  -3  -8   6    3.48    0.20
  -3  -8   6    2.88    0.29
  -2  -8   6    6.07    0.36
  -2  -8   6    5.90    0.22
   1   8  -6   31.92    0.78
  -1  -8   6   31.72    0.67
  -1  -8   6   31.84    0.94
   0   8  -6    1.58    0.14
   0  -8   6    1.49    0.20
  -1   8  -6    1.09    0.13
   1  -8   6    1.65    0.20
  -2   8  -6   20.40    0.61
  -2   8  -6   21.22    0.58
  -2   8  -6   19.99    0.58
   2  -8   6   22.57    0.69
  -3   8  -6   13.53    0.47
  -3   8  -6   13.40    0.42
  -4   8  -6    8.40    0.36
  -4   8  -6    8.28    0.31
  -5   8  -6   -0.03    0.07
  -5   8  -6   -0.03    0.05
   5  -8   6   -0.09    0.04
  -6   8  -6    2.71    0.24
   6  -8   6    2.80    0.15
  -7   8  -6    8.22    0.42
   7  -8   6    7.80    0.29
  -5  -7   6    1.19    0.17
  -5  -7   6    1.74    0.27
  -4  -7   6    1.84    0.25
  -4  -7   6    1.99    0.17
  -3  -7   6    5.61    0.24
  -3  -7   6    5.63    0.35
   2   7  -6    0.79    0.11
  -2  -7   6    0.76    0.10
  -2  -7   6    0.81    0.15
   1   7  -6    3.76    0.18
  -1  -7   6    3.55    0.26
  -1  -7   6    3.62    0.14
   0   7  -6    0.07    0.05
   0  -7   6    0.01    0.03
   0  -7   6    0.09    0.08
  -1   7  -6    2.18    0.15
  -1   7  -6    2.18    0.17
   1  -7   6    1.91    0.19
  -2   7  -6    4.30    0.23
  -2   7  -6    4.57    0.23
  -3   7  -6   15.13    0.44
  -3   7  -6   14.94    0.49
   3  -7   6   14.87    0.30
  -4   7  -6    4.60    0.21
  -4   7  -6    4.43    0.26
   4  -7   6    4.36    0.15
  -5   7  -6    1.06    0.12
  -5   7  -6    1.17    0.17
   5  -7   6    1.12    0.10
  -6   7  -6    0.36    0.11
  -6   7  -6    0.33    0.09
   6  -7   6    0.30    0.08
  -7   7  -6    0.42    0.13
   7  -7   6    0.62    0.10
  -8   7  -6    0.09    0.11
   8  -7   6   -0.04    0.07
  -6  -6   6    0.46    0.15
  -6  -6   6    0.57    0.13
  -5  -6   6    0.38    0.14
  -5  -6   6    0.46    0.10
  -4  -6   6    0.19    0.11
  -4  -6   6    0.08    0.07
  -3  -6   6    1.05    0.18
  -3  -6   6    1.04    0.12
   2   6  -6    0.63    0.09
  -2  -6   6    0.75    0.14
  -2  -6   6    0.58    0.09
   1   6  -6    2.10    0.13
  -1  -6   6    2.26    0.11
  -1  -6   6    2.42    0.20
   0   6  -6    0.63    0.09
   0  -6   6    0.59    0.12
   0  -6   6    0.86    0.06
  -1   6  -6    0.11    0.07
  -1   6  -6    0.03    0.05
   1  -6   6    0.05    0.02
   1  -6   6    0.02    0.02
   1  -6   6    0.10    0.07
  -2   6  -6    2.68    0.19
  -2   6  -6    2.81    0.17
   2  -6   6    2.95    0.09
   2  -6   6    2.91    0.09
  -3   6  -6    1.46    0.15
  -3   6  -6    1.89    0.14
   3  -6   6    1.82    0.09
  -4   6  -6    3.68    0.19
  -4   6  -6    3.65    0.23
   4  -6   6    3.64    0.15
  -5   6  -6    0.03    0.05
  -5   6  -6   -0.08    0.06
   5  -6   6    0.00    0.04
  -6   6  -6   15.20    0.45
  -6   6  -6   15.50    0.55
   6  -6   6   14.64    0.43
  -7   6  -6    0.14    0.10
   7  -6   6    0.00    0.07
  -8   6  -6   13.67    0.56
   8  -6   6   13.00    0.46
  -6  -5   6    3.81    0.25
  -6  -5   6    3.86    0.32
  -5  -5   6   -0.05    0.09
  -5  -5   6   -0.04    0.06
  -4  -5   6   15.27    0.55
  -4  -5   6   15.06    0.44
   3   5  -6    8.51    0.26
  -3  -5   6    8.15    0.36
  -3  -5   6    8.65    0.28
   2   5  -6   10.93    0.30
  -2  -5   6   11.11    0.41
  -2  -5   6   11.46    0.31
   1   5  -6   10.14    0.28
  -1  -5   6   10.37    0.27
  -1  -5   6   10.24    0.26
  -1  -5   6    9.97    0.38
   0   5  -6   13.33    0.35
   0  -5   6   13.39    0.30
   0  -5   6   14.04    0.30
   0  -5   6   13.28    0.44
  -1   5  -6    7.14    0.27
   1  -5   6    7.22    0.18
   1  -5   6    7.89    0.32
   1  -5   6    7.11    0.18
  -2   5  -6   12.74    0.41
  -2   5  -6   12.82    0.38
   2  -5   6   13.16    0.30
   2  -5   6   12.73    0.29
  -3   5  -6  151.22    2.97
  -3   5  -6  151.47    3.12
   3  -5   6  148.41    2.80
  -4   5  -6   11.34    0.35
  -4   5  -6   11.58    0.41
   4  -5   6   10.87    0.31
  -5   5  -6    3.43    0.19
  -5   5  -6    3.58    0.24
   5  -5   6    3.38    0.18
  -6   5  -6    1.59    0.15
  -6   5  -6    1.58    0.19
   6  -5   6    1.32    0.14
  -7   5  -6    9.62    0.43
  -7   5  -6    9.83    0.36
   7  -5   6    9.46    0.36
  -8   5  -6    0.56    0.15
   8  -5   6    0.29    0.10
  -7  -4   6    1.39    0.23
  -6  -4   6   11.71    0.43
  -6  -4   6   12.06    0.49
  -5  -4   6   19.36    0.55
  -5  -4   6   19.78    0.64
   4   4  -6    0.06    0.04
  -4  -4   6    0.10    0.06
  -4  -4   6    0.18    0.09
   3   4  -6    2.30    0.11
   3   4  -6    2.31    0.13
  -3  -4   6    2.19    0.19
  -3  -4   6    2.26    0.14
   2   4  -6    4.14    0.14
   2   4  -6    4.43    0.14
  -2  -4   6    4.06    0.16
  -2  -4   6    4.19    0.23
  -2  -4   6    4.21    0.16
   1   4  -6   13.64    0.32
   1   4  -6   13.79    0.29
  -1  -4   6   13.80    0.44
  -1  -4   6   13.91    0.33
  -1  -4   6   14.23    0.33
   0   4  -6   16.46    0.44
   0  -4   6   15.99    0.48
   0  -4   6   16.33    0.36
   0  -4   6   16.01    0.35
  -1   4  -6   16.91    0.45
   1  -4   6   17.16    0.37
   1  -4   6   17.09    0.37
  -2   4  -6   27.09    0.53
  -2   4  -6   26.07    0.68
  -2   4  -6   26.84    0.64
   2  -4   6   26.23    0.56
   2  -4   6   26.62    0.56
  -3   4  -6    9.85    0.32
  -3   4  -6   10.06    0.25
  -3   4  -6    9.72    0.35
   3  -4   6   10.07    0.28
   3  -4   6   10.05    0.28
  -4   4  -6    5.43    0.19
  -4   4  -6    5.21    0.26
  -4   4  -6    5.32    0.23
   4  -4   6    5.19    0.20
  -5   4  -6    0.50    0.11
  -5   4  -6    0.74    0.11
   5  -4   6    0.67    0.10
  -6   4  -6   -0.04    0.07
  -6   4  -6   -0.04    0.05
   6  -4   6    0.03    0.06
  -7   4  -6    1.59    0.17
  -7   4  -6    1.77    0.21
   7  -4   6    1.41    0.17
  -8   4  -6    0.04    0.09
   8  -4   6    0.27    0.11
  -8  -3   6   -0.01    0.09
  -8  -3   6   -0.03    0.10
  -7  -3   6    0.09    0.08
  -7  -3   6    0.06    0.10
  -6  -3   6    0.08    0.07
  -6  -3   6    0.35    0.11
   5   3  -6    8.39    0.30
   5   3  -6    8.24    0.26
  -5  -3   6    8.53    0.31
  -5  -3   6    8.42    0.36
   4   3  -6    0.76    0.07
   4   3  -6    0.89    0.10
  -4  -3   6    0.67    0.11
  -4  -3   6    0.68    0.10
   3   3  -6    4.68    0.17
   3   3  -6    4.67    0.14
  -3  -3   6    4.24    0.18
  -3  -3   6    4.77    0.23
   2   3  -6    3.63    0.10
   2   3  -6    3.88    0.14
  -2  -3   6    4.06    0.15
  -2  -3   6    3.33    0.14
  -2  -3   6    3.63    0.19
   1   3  -6   10.56    0.33
   1   3  -6   10.84    0.24
   1   3  -6   10.53    0.25
  -1  -3   6   10.97    0.27
  -1  -3   6   10.83    0.27
  -1  -3   6   10.18    0.35
   0   3  -6   15.74    0.34
   0   3  -6   16.70    0.36
   0   3  -6   15.06    0.42
   0  -3   6   15.85    0.36
   0  -3   6   16.20    0.36
   0  -3   6   14.48    0.45
  -1   3  -6    1.60    0.08
  -1   3  -6    1.73    0.12
   1  -3   6    1.57    0.09
   1  -3   6    1.69    0.09
  -2   3  -6   23.05    0.55
  -2   3  -6   21.74    0.48
  -2   3  -6   21.64    0.58
   2  -3   6   22.82    0.50
   2  -3   6   21.76    0.49
  -3   3  -6   15.75    0.47
  -3   3  -6   16.63    0.39
  -3   3  -6   15.65    0.43
   3  -3   6   15.90    0.40
  -4   3  -6    4.50    0.19
  -4   3  -6    4.49    0.24
  -4   3  -6    4.61    0.21
   4  -3   6    4.83    0.20
  -5   3  -6   21.77    0.65
  -5   3  -6   23.39    0.57
  -5   3  -6   23.25    0.60
   5  -3   6   21.42    0.58
  -6   3  -6    0.97    0.16
  -6   3  -6    0.83    0.14
  -6   3  -6    0.79    0.12
   6  -3   6    1.01    0.14
  -7   3  -6    0.11    0.07
  -7   3  -6    0.23    0.11
   7  -3   6    0.03    0.08
  -8   3  -6    2.90    0.27
  -8   3  -6    3.66    0.25
   8  -3   6    3.32    0.27
  -8  -2   6   15.37    0.54
  -8  -2   6   15.74    0.58
  -8  -2   6   15.26    0.59
   7   2  -6    0.03    0.08
  -7  -2   6    0.08    0.08
  -7  -2   6    0.06    0.09
  -7  -2   6    0.11    0.10
   6   2  -6   12.14    0.40
  -6  -2   6   11.84    0.40
  -6  -2   6   12.24    0.44
   5   2  -6    2.84    0.17
  -5  -2   6    3.14    0.20
  -5  -2   6    3.00    0.18
   4   2  -6   11.52    0.33
  -4  -2   6   11.44    0.27
  -4  -2   6   11.18    0.34
  -4  -2   6   11.74    0.39
   3   2  -6   11.29    0.31
  -3  -2   6   11.16    0.31
  -3  -2   6   11.43    0.36
   2   2  -6   19.27    0.44
  -2  -2   6   19.50    0.52
  -2  -2   6   19.33    0.45
  -2  -2   6   20.21    0.45
   1   2  -6   74.61    1.54
   1   2  -6   76.50    1.43
   1   2  -6   77.80    1.44
  -1  -2   6   76.51    1.45
  -1  -2   6   73.76    1.66
  -1  -2   6   74.07    1.45
   0   2  -6    0.19    0.04
   0   2  -6    0.27    0.04
   0   2  -6    0.31    0.06
   0  -2   6    0.36    0.06
   0  -2   6    0.24    0.04
  -1   2  -6    2.99    0.12
  -1   2  -6    3.03    0.15
   1  -2   6    2.89    0.12
   1  -2   6    2.75    0.12
  -2   2  -6   19.39    0.51
  -2   2  -6   19.20    0.44
  -2   2  -6   18.62    0.48
   2  -2   6   18.39    0.45
  -3   2  -6   43.44    1.03
  -3   2  -6   44.54    0.93
  -3   2  -6   45.27    0.99
   3  -2   6   45.43    0.95
  -4   2  -6    4.20    0.19
  -4   2  -6    4.34    0.23
  -4   2  -6    4.35    0.21
   4  -2   6    3.83    0.19
  -5   2  -6    8.24    0.32
  -5   2  -6    7.77    0.29
  -5   2  -6    8.23    0.34
   5  -2   6    8.25    0.31
  -6   2  -6    1.22    0.15
  -6   2  -6    1.40    0.16
  -6   2  -6    1.24    0.17
   6  -2   6    1.45    0.17
  -7   2  -6   25.53    0.78
  -7   2  -6   25.36    0.76
  -7   2  -6   24.53    0.71
   7  -2   6   25.16    0.72
  -8   2  -6    0.04    0.08
  -8   2  -6    0.07    0.10
   8  -2   6    0.14    0.11
   9   1  -6   -0.07    0.10
  -9  -1   6    0.05    0.10
  -9  -1   6   -0.04    0.09
  -9  -1   6    0.05    0.10
   8   1  -6    4.69    0.29
  -8  -1   6    4.71    0.30
  -8  -1   6    4.93    0.32
  -8  -1   6    4.63    0.30
   7   1  -6    1.80    0.18
  -7  -1   6    1.96    0.21
  -7  -1   6    1.93    0.19
  -7  -1   6    1.86    0.18
   6   1  -6   35.79    0.85
  -6  -1   6   35.61    0.85
  -6  -1   6   34.61    0.92
  -6  -1   6   38.08    0.93
   5   1  -6    0.11    0.06
  -5  -1   6    0.10    0.06
  -5  -1   6   -0.02    0.05
  -5  -1   6    0.00    0.06
   4   1  -6   16.41    0.43
  -4  -1   6   16.74    0.36
  -4  -1   6   16.41    0.43
  -4  -1   6   17.18    0.47
   3   1  -6    2.45    0.13
  -3  -1   6    2.71    0.14
  -3  -1   6    2.76    0.14
   2   1  -6    1.30    0.10
   2   1  -6    1.22    0.09
  -2  -1   6    1.24    0.09
  -2  -1   6    1.16    0.10
   1   1  -6   36.51    0.70
   1   1  -6   36.93    0.74
   1   1  -6   36.53    0.79
  -1  -1   6   34.74    0.74
  -1  -1   6   35.93    0.74
   0   1  -6  123.00    2.42
   0   1  -6  126.99    2.36
   0   1  -6  123.91    2.32
   0  -1   6  122.95    2.32
   0  -1   6  120.07    2.36
  -1   1  -6    6.06    0.19
  -1   1  -6    5.71    0.21
   1  -1   6    5.69    0.19
   1  -1   6    5.75    0.19
  -2   1  -6   15.99    0.40
  -2   1  -6   16.24    0.44
  -2   1  -6   16.49    0.45
   2  -1   6   16.33    0.42
   2  -1   6   16.27    0.41
  -3   1  -6    0.80    0.11
  -3   1  -6    0.57    0.09
  -3   1  -6    0.62    0.10
   3  -1   6    0.82    0.11
   3  -1   6    0.44    0.08
  -4   1  -6   13.24    0.42
  -4   1  -6   13.54    0.40
  -4   1  -6   13.72    0.44
   4  -1   6   13.77    0.41
   4  -1   6   13.57    0.43
  -5   1  -6    1.21    0.15
  -5   1  -6    0.86    0.13
  -5   1  -6    1.00    0.14
   5  -1   6    1.05    0.14
   5  -1   6    0.92    0.15
  -6   1  -6    0.68    0.12
  -6   1  -6    0.91    0.15
  -6   1  -6    0.83    0.14
   6  -1   6    0.61    0.12
   6  -1   6    1.07    0.17
  -7   1  -6    1.96    0.20
  -7   1  -6    2.02    0.20
  -7   1  -6    2.20    0.22
   7  -1   6    2.40    0.23
   9   0  -6    0.40    0.13
  -9   0   6    0.07    0.11
  -9   0   6    0.38    0.14
   8   0  -6    9.16    0.39
  -8   0   6    9.39    0.39
  -8   0   6    9.27    0.42
  -8   0   6    9.54    0.38
   7   0  -6    0.05    0.08
  -7   0   6   -0.04    0.07
  -7   0   6    0.01    0.07
  -7   0   6   -0.06    0.07
   6   0  -6    0.53    0.11
  -6   0   6    0.48    0.10
  -6   0   6    0.58    0.10
  -6   0   6    0.65    0.11
   5   0  -6    1.23    0.12
  -5   0   6    1.63    0.13
  -5   0   6    1.27    0.13
  -5   0   6    1.41    0.14
   4   0  -6    1.61    0.12
  -4   0   6    1.60    0.07
  -4   0   6    1.42    0.10
  -4   0   6    1.44    0.11
   3   0  -6    3.13    0.15
   3   0  -6    3.16    0.14
  -3   0   6    3.05    0.08
  -3   0   6    3.01    0.08
  -3   0   6    2.90    0.13
  -3   0   6    2.92    0.14
   2   0  -6    2.57    0.13
   2   0  -6    2.54    0.12
  -2   0   6    2.42    0.07
  -2   0   6    2.21    0.12
   1   0  -6    0.02    0.02
   1   0  -6    0.05    0.04
   1   0  -6    0.03    0.03
  -1   0   6    0.05    0.02
  -1   0   6    0.07    0.04
   0   0  -6    1.46    0.10
   0   0   6    1.58    0.10
   0   0   6    1.43    0.09
  -1   0  -6    3.83    0.17
  -1   0  -6    3.73    0.16
  -1   0  -6    3.51    0.16
   1   0   6    3.76    0.16
   1   0   6    3.70    0.15
  -2   0  -6    0.99    0.10
  -2   0  -6    0.76    0.10
  -2   0  -6    1.00    0.10
   2   0   6    0.89    0.10
   2   0   6    0.96    0.10
  -3   0  -6   51.79    1.10
  -3   0  -6   51.39    1.14
  -3   0  -6   51.56    1.16
   3   0   6   51.70    1.14
   3   0   6   50.61    1.10
  -4   0  -6    0.62    0.10
  -4   0  -6    0.41    0.08
  -4   0  -6    0.39    0.09
   4   0   6    0.62    0.11
   4   0   6    0.40    0.09
  -5   0  -6    7.24    0.32
  -5   0  -6    7.40    0.32
  -5   0  -6    7.11    0.30
   5   0   6    7.06    0.33
   5   0   6    8.12    0.33
  -6   0  -6    8.48    0.36
  -6   0  -6    8.62    0.37
  -6   0  -6    8.21    0.37
   6   0   6    9.20    0.38
   6   0   6    8.80    0.40
  -7   0  -6    6.14    0.35
  -7   0  -6    6.58    0.35
  -7   0  -6    6.28    0.34
   7   0   6    6.35    0.35
   7   0   6    6.14    0.36
  10  -1  -6    4.86    0.34
 -10   1   6    5.15    0.34
 -10   1   6    5.71    0.39
   9  -1  -6    0.07    0.10
  -9   1   6   -0.03    0.08
  -9   1   6   -0.10    0.09
   8  -1  -6    3.31    0.24
  -8   1   6    3.82    0.22
  -8   1   6    3.84    0.25
  -8   1   6    4.00    0.28
   7  -1  -6   12.56    0.42
  -7   1   6   13.52    0.43
  -7   1   6   13.06    0.40
  -7   1   6   12.50    0.46
   6  -1  -6   17.37    0.49
  -6   1   6   17.89    0.53
  -6   1   6   17.06    0.47
  -6   1   6   17.56    0.49
   5  -1  -6   17.80    0.47
  -5   1   6   17.22    0.50
  -5   1   6   17.45    0.44
  -5   1   6   17.47    0.47
   4  -1  -6   14.46    0.36
   4  -1  -6   13.95    0.38
  -4   1   6   13.85    0.38
  -4   1   6   14.39    0.41
  -4   1   6   14.29    0.36
   3  -1  -6   22.86    0.53
   3  -1  -6   23.18    0.54
   3  -1  -6   23.56    0.53
  -3   1   6   22.41    0.53
  -3   1   6   23.29    0.48
   2  -1  -6   26.56    0.64
   2  -1  -6   29.53    0.63
   2  -1  -6   27.00    0.62
  -2   1   6   28.79    0.59
  -2   1   6   29.41    0.62
   1  -1  -6   22.30    0.50
   1  -1  -6   21.24    0.51
  -1   1   6   22.46    0.48
  -1   1   6   21.50    0.50
   0  -1  -6   65.41    1.30
   0  -1  -6   65.26    1.34
   0   1   6   64.08    1.30
   0   1   6   65.21    1.31
  -1  -1  -6    1.79    0.12
  -1  -1  -6    1.90    0.13
  -1  -1  -6    1.75    0.11
   1   1   6    1.65    0.12
   1   1   6    1.84    0.12
  -2  -1  -6   49.42    1.08
  -2  -1  -6   49.02    1.05
  -2  -1  -6   50.08    1.09
   2   1   6   48.57    1.05
   2   1   6   48.56    1.08
  -3  -1  -6   96.53    2.06
  -3  -1  -6   99.45    1.97
  -3  -1  -6   97.06    2.03
   3   1   6   98.95    1.97
   3   1   6   98.54    2.03
  -4  -1  -6    0.22    0.08
  -4  -1  -6    0.19    0.07
  -4  -1  -6    0.14    0.07
   4   1   6    0.26    0.09
   4   1   6    0.16    0.08
  -5  -1  -6    3.01    0.22
  -5  -1  -6    2.90    0.20
  -5  -1  -6    2.86    0.21
   5   1   6    2.74    0.21
   5   1   6    3.03    0.23
  -6  -1  -6   -0.01    0.07
  -6  -1  -6   -0.08    0.06
  -6  -1  -6   -0.04    0.07
   6   1   6   -0.10    0.09
   6   1   6    0.04    0.09
  -7  -1  -6   11.19    0.48
  -7  -1  -6   11.09    0.47
  -7  -1  -6   11.68    0.49
   7   1   6   11.87    0.51
   7   1   6   11.61    0.49
  10  -2  -6    2.33    0.25
 -10   2   6    2.78    0.26
 -10   2   6    2.84    0.29
   9  -2  -6    3.58    0.27
  -9   2   6    3.51    0.26
  -9   2   6    3.72    0.29
   8  -2  -6    5.71    0.29
  -8   2   6    6.03    0.30
  -8   2   6    5.80    0.32
   7  -2  -6    0.07    0.07
  -7   2   6    0.03    0.07
  -7   2   6    0.16    0.06
  -7   2   6    0.20    0.08
   6  -2  -6   15.27    0.38
   6  -2  -6   14.28    0.43
  -6   2   6   14.67    0.38
  -6   2   6   15.32    0.44
  -6   2   6   14.69    0.46
   5  -2  -6    4.85    0.17
   5  -2  -6    4.67    0.21
  -5   2   6    4.86    0.15
  -5   2   6    4.59    0.20
  -5   2   6    4.65    0.22
   4  -2  -6    4.65    0.20
   4  -2  -6    4.66    0.16
  -4   2   6    4.71    0.20
  -4   2   6    4.79    0.20
   3  -2  -6    1.77    0.12
   3  -2  -6    1.90    0.10
   3  -2  -6    1.95    0.08
  -3   2   6    2.03    0.10
  -3   2   6    1.79    0.12
   2  -2  -6    2.91    0.13
   2  -2  -6    2.85    0.15
  -2   2   6    2.98    0.15
  -2   2   6    3.03    0.13
   1  -2  -6    2.86    0.14
   1  -2  -6    2.89    0.14
  -1   2   6    3.10    0.15
  -1   2   6    2.96    0.13
   0  -2  -6   46.07    0.98
   0  -2  -6   43.55    0.95
   0  -2  -6   44.94    0.95
   0   2   6   46.07    0.95
   0   2   6   44.93    0.96
  -1  -2  -6    0.88    0.10
  -1  -2  -6    0.76    0.10
  -1  -2  -6    0.74    0.08
   1   2   6    0.75    0.10
   1   2   6    0.76    0.10
  -2  -2  -6    0.08    0.05
  -2  -2  -6    0.08    0.06
  -2  -2  -6    0.06    0.06
   2   2   6    0.07    0.05
   2   2   6    0.07    0.06
  -3  -2  -6   56.72    1.28
  -3  -2  -6   58.75    1.26
  -3  -2  -6   54.74    1.23
   3   2   6   55.03    1.27
   3   2   6   57.44    1.23
  -4  -2  -6    9.95    0.37
  -4  -2  -6   10.24    0.35
  -4  -2  -6   10.34    0.39
   4   2   6    9.72    0.38
   4   2   6    9.32    0.39
  -5  -2  -6    4.00    0.26
  -5  -2  -6    4.25    0.27
  -5  -2  -6    4.85    0.25
   5   2   6    3.77    0.27
   5   2   6    4.37    0.27
  -6  -2  -6   -0.11    0.07
  -6  -2  -6   -0.01    0.08
   6   2   6   -0.03    0.09
   6   2   6    0.05    0.11
  10  -3  -6    5.80    0.34
 -10   3   6    5.33    0.33
 -10   3   6    5.25    0.36
   9  -3  -6    0.06    0.09
  -9   3   6   -0.04    0.09
  -9   3   6    0.11    0.10
   8  -3  -6    0.05    0.09
  -8   3   6    0.02    0.07
  -8   3   6   -0.04    0.08
   7  -3  -6    2.64    0.19
  -7   3   6    2.46    0.20
  -7   3   6    2.42    0.19
   6  -3  -6    9.22    0.24
   6  -3  -6    9.68    0.33
  -6   3   6    9.12    0.32
  -6   3   6    9.30    0.34
   5  -3  -6    8.33    0.29
   5  -3  -6    8.84    0.23
  -5   3   6    8.61    0.30
  -5   3   6    8.99    0.30
   4  -3  -6    1.83    0.10
   4  -3  -6    1.66    0.13
  -4   3   6    1.51    0.12
  -4   3   6    1.91    0.12
  -4   3   6    1.76    0.12
   3  -3  -6   13.12    0.30
   3  -3  -6   13.06    0.37
   3  -3  -6   13.25    0.33
  -3   3   6   12.55    0.34
  -3   3   6   12.93    0.36
   2  -3  -6   94.27    1.86
   2  -3  -6   91.43    1.83
  -2   3   6   93.16    1.87
  -2   3   6   96.49    1.83
   1  -3  -6    1.26    0.11
   1  -3  -6    1.46    0.08
   1  -3  -6    1.46    0.11
  -1   3   6    1.46    0.12
  -1   3   6    1.45    0.12
   0  -3  -6   21.88    0.49
   0  -3  -6   21.89    0.55
   0  -3  -6   20.82    0.53
   0   3   6   22.18    0.54
   0   3   6   21.35    0.55
  -1  -3  -6    1.98    0.15
  -1  -3  -6    2.31    0.16
  -1  -3  -6    2.05    0.11
   1   3   6    1.85    0.15
   1   3   6    1.81    0.15
  -2  -3  -6   24.13    0.59
  -2  -3  -6   25.39    0.64
  -2  -3  -6   24.56    0.66
   2   3   6   24.90    0.63
   2   3   6   23.83    0.65
  -3  -3  -6    0.04    0.07
  -3  -3  -6    0.03    0.05
  -3  -3  -6    0.00    0.06
   3   3   6    0.03    0.07
   3   3   6    0.11    0.08
  -4  -3  -6    4.48    0.26
  -4  -3  -6    4.01    0.24
  -4  -3  -6    4.05    0.26
   4   3   6    4.03    0.27
   4   3   6    4.30    0.26
  -5  -3  -6    1.78    0.21
  -5  -3  -6    1.61    0.20
   5   3   6    1.57    0.21
   5   3   6    1.77    0.21
  -6  -3  -6    0.87    0.16
   6   3   6    0.79    0.16
   6   3   6    0.72    0.16
  10  -4  -6    0.20    0.13
 -10   4   6    0.34    0.13
 -10   4   6    0.13    0.12
   9  -4  -6    1.42    0.20
  -9   4   6    1.80    0.23
  -9   4   6    1.43    0.19
   8  -4  -6    1.19    0.16
  -8   4   6    1.61    0.20
  -8   4   6    1.67    0.18
   7  -4  -6    3.24    0.21
  -7   4   6    3.06    0.21
  -7   4   6    3.17    0.20
   6  -4  -6    0.92    0.13
  -6   4   6    0.97    0.13
  -6   4   6    0.58    0.10
   5  -4  -6   17.68    0.39
   5  -4  -6   18.40    0.49
  -5   4   6   18.27    0.48
  -5   4   6   17.61    0.48
   4  -4  -6    3.88    0.14
   4  -4  -6    4.00    0.19
  -4   4   6    3.47    0.17
  -4   4   6    3.50    0.18
   3  -4  -6   10.15    0.32
   3  -4  -6   10.50    0.28
  -3   4   6   10.54    0.32
  -3   4   6   10.45    0.32
   2  -4  -6    0.37    0.06
   2  -4  -6    0.45    0.07
   2  -4  -6    0.41    0.05
  -2   4   6    0.36    0.07
  -2   4   6    0.46    0.08
   1  -4  -6   25.77    0.54
   1  -4  -6   26.55    0.64
   1  -4  -6   26.28    0.64
   1  -4  -6   27.11    0.54
  -1   4   6   27.39    0.63
  -1   4   6   26.27    0.65
   0  -4  -6   19.16    0.51
   0  -4  -6   18.66    0.51
   0  -4  -6   18.97    0.40
   0   4   6   18.75    0.52
   0   4   6   18.76    0.50
  -1  -4  -6    3.01    0.19
  -1  -4  -6    3.19    0.12
  -1  -4  -6    3.26    0.19
   1   4   6    3.00    0.20
   1   4   6    3.54    0.20
  -2  -4  -6    3.64    0.23
  -2  -4  -6    3.22    0.21
   2   4   6    3.20    0.20
   2   4   6    3.88    0.23
  -3  -4  -6    7.49    0.34
  -3  -4  -6    7.27    0.33
   3   4   6    7.48    0.32
   3   4   6    6.98    0.34
  -4  -4  -6    1.71    0.21
  -4  -4  -6    1.44    0.19
   4   4   6    1.37    0.18
   4   4   6    1.29    0.20
  -5  -4  -6    4.74    0.31
   5   4   6    4.44    0.32
   5   4   6    4.93    0.31
  10  -5  -6    0.23    0.12
 -10   5   6    0.19    0.13
   9  -5  -6    3.23    0.25
  -9   5   6    2.46    0.25
  -9   5   6    2.63    0.22
   8  -5  -6   -0.01    0.08
  -8   5   6   -0.02    0.08
  -8   5   6    0.02    0.07
   7  -5  -6   26.40    0.69
  -7   5   6   25.90    0.67
  -7   5   6   26.62    0.71
   6  -5  -6    1.48    0.15
  -6   5   6    1.61    0.15
  -6   5   6    1.43    0.14
   5  -5  -6    5.10    0.14
   5  -5  -6    5.26    0.23
  -5   5   6    5.59    0.24
  -5   5   6    5.41    0.23
  -5   5   6    5.08    0.21
   4  -5  -6    0.39    0.08
   4  -5  -6    0.51    0.07
  -4   5   6    0.24    0.08
  -4   5   6    0.45    0.08
   3  -5  -6   33.76    0.75
   3  -5  -6   32.86    0.78
   3  -5  -6   34.44    0.76
  -3   5   6   34.78    0.81
  -3   5   6   34.67    0.77
   2  -5  -6    5.65    0.23
   2  -5  -6    5.86    0.22
  -2   5   6    5.11    0.24
  -2   5   6    5.51    0.22
   1  -5  -6    0.10    0.06
   1  -5  -6    0.07    0.06
  -1   5   6    0.12    0.07
  -1   5   6    0.19    0.06
   0  -5  -6   32.68    0.79
   0  -5  -6   31.56    0.76
   0   5   6   31.04    0.75
   0   5   6   31.34    0.79
  -1  -5  -6    3.92    0.22
  -1  -5  -6    4.15    0.24
   1   5   6    3.69    0.21
   1   5   6    3.92    0.24
  -2  -5  -6    0.44    0.11
  -2  -5  -6    0.19    0.08
   2   5   6    0.47    0.11
   2   5   6    0.21    0.09
  -3  -5  -6    0.28    0.10
  -3  -5  -6    0.21    0.11
   3   5   6    0.35    0.11
   3   5   6    0.39    0.10
  -4  -5  -6   -0.09    0.07
   4   5   6    0.11    0.09
   4   5   6   -0.18    0.09
  10  -6  -6    0.49    0.14
 -10   6   6    0.37    0.13
   9  -6  -6    1.28    0.20
  -9   6   6    1.18    0.20
   8  -6  -6    9.00    0.38
  -8   6   6   10.29    0.40
  -8   6   6    9.29    0.36
   7  -6  -6   12.91    0.43
  -7   6   6   12.93    0.41
  -7   6   6   12.16    0.42
   6  -6  -6   18.67    0.53
  -6   6   6   18.43    0.51
  -6   6   6   18.05    0.53
  -6   6   6   18.21    0.50
   5  -6  -6    0.19    0.08
  -5   6   6    0.28    0.08
  -5   6   6    0.29    0.06
  -5   6   6    0.21    0.08
   4  -6  -6   13.74    0.35
   4  -6  -6   14.04    0.42
  -4   6   6   14.33    0.40
  -4   6   6   13.34    0.44
   3  -6  -6    9.59    0.29
   3  -6  -6    9.87    0.33
   3  -6  -6    9.85    0.29
  -3   6   6    9.72    0.32
  -3   6   6    9.15    0.34
   2  -6  -6   12.51    0.37
   2  -6  -6   11.60    0.38
  -2   6   6   12.48    0.38
  -2   6   6   12.20    0.41
   1  -6  -6    0.09    0.07
   1  -6  -6    0.01    0.06
  -1   6   6    0.18    0.07
  -1   6   6    0.22    0.08
   0  -6  -6   41.54    0.97
   0  -6  -6   40.72    0.99
   0   6   6   41.23    1.01
   0   6   6   40.65    0.94
  -1  -6  -6    2.28    0.21
  -1  -6  -6    2.58    0.20
   1   6   6    2.67    0.22
   1   6   6    2.59    0.19
  -2  -6  -6    7.30    0.34
   2   6   6    7.80    0.37
  -3  -6  -6    2.73    0.24
   3   6   6    3.02    0.27
  10  -7  -6    2.68    0.27
 -10   7   6    2.33    0.27
   9  -7  -6    6.78    0.35
  -9   7   6    6.77    0.35
   8  -7  -6    9.21    0.38
  -8   7   6    9.44    0.38
   7  -7  -6   17.59    0.54
  -7   7   6   18.25    0.53
  -7   7   6   18.94    0.57
   6  -7  -6    4.26    0.24
  -6   7   6    3.61    0.25
   5  -7  -6   18.31    0.52
  -5   7   6   18.35    0.51
  -5   7   6   17.98    0.55
   4  -7  -6    1.10    0.14
  -4   7   6    1.40    0.14
  -4   7   6    1.21    0.16
   3  -7  -6   18.66    0.53
   3  -7  -6   18.90    0.53
  -3   7   6   19.27    0.51
  -3   7   6   19.78    0.58
   2  -7  -6    1.59    0.14
   2  -7  -6    1.64    0.16
  -2   7   6    1.89    0.18
   1  -7  -6    7.66    0.32
   1  -7  -6    6.84    0.30
  -1   7   6    7.94    0.35
   0  -7  -6    7.53    0.33
   0   7   6    7.58    0.36
  -1  -7  -6    2.49    0.21
   1   7   6    2.85    0.25
  -2  -7  -6    4.89    0.30
   2   7   6    4.37    0.31
   9  -8  -6    0.09    0.10
   8  -8  -6    3.06    0.24
  -8   8   6    2.91    0.26
   7  -8  -6    0.85    0.14
  -7   8   6    1.08    0.16
   6  -8  -6    0.65    0.12
  -6   8   6    0.71    0.13
   5  -8  -6    0.06    0.07
  -5   8   6    0.11    0.08
   4  -8  -6   -0.01    0.06
  -4   8   6   -0.02    0.08
   3  -8  -6    5.68    0.27
  -3   8   6    5.37    0.30
   2  -8  -6    0.87    0.14
  -2   8   6    1.10    0.18
   1  -8  -6    0.06    0.08
   1  -8  -6   -0.08    0.06
  -1   8   6   -0.03    0.08
   0  -8  -6    0.31    0.10
   0  -8  -6    0.71    0.15
   0   8   6    0.37    0.12
  -1  -8  -6    1.21    0.19
  -1  -8  -6    1.30    0.18
   1   8   6    1.66    0.22
   8  -9  -6    0.16    0.10
  -8   9   6   -0.05    0.09
   7  -9  -6    1.18    0.18
  -7   9   6    1.15    0.18
   6  -9  -6    0.20    0.09
  -6   9   6    0.29    0.12
   5  -9  -6    0.24    0.09
  -5   9   6   -0.02    0.09
   4  -9  -6    0.43    0.10
  -4   9   6    0.36    0.13
   3  -9  -6    0.44    0.11
  -3   9   6    0.48    0.13
   2  -9  -6    9.16    0.38
  -2   9   6    9.82    0.44
   1  -9  -6    2.26    0.21
  -1   9   6    2.68    0.27
   7 -10  -6    2.40    0.22
  -7  10   6    3.31    0.29
   6 -10  -6    0.01    0.08
  -6  10   6    0.13    0.11
   5 -10  -6    2.05    0.20
  -5  10   6    2.29    0.25
   4 -10  -6    9.37    0.38
  -4  10   6    9.22    0.44
   3 -10  -6    2.72    0.22
  -3  10   6    2.70    0.27
   0 -10   7    6.10    0.40
  -1  10  -7    6.14    0.33
   1 -10   7    6.03    0.39
  -2  10  -7    6.86    0.34
  -2  10  -7    6.86    0.34
  -3  10  -7    1.46    0.19
  -3  10  -7    1.66    0.18
  -3  10  -7    1.87    0.19
  -4  10  -7   13.53    0.49
  -4  10  -7   13.63    0.52
  -5  10  -7    0.03    0.09
  -2  -9   7   -0.03    0.10
  -1  -9   7    1.35    0.23
   0  -9   7    0.48    0.15
  -1   9  -7    1.18    0.17
   1  -9   7    1.07    0.19
  -2   9  -7   -0.02    0.06
  -2   9  -7    0.01    0.06
  -2   9  -7    0.08    0.08
  -3   9  -7    4.56    0.25
  -3   9  -7    3.84    0.24
  -3   9  -7    3.91    0.26
  -4   9  -7    1.26    0.19
  -4   9  -7    1.10    0.15
  -5   9  -7    5.23    0.32
  -6   9  -7    2.71    0.26
  -3  -8   7    8.93    0.31
  -3  -8   7    9.13    0.47
  -2  -8   7    0.92    0.18
  -2  -8   7    1.03    0.11
  -1  -8   7    0.64    0.15
   0  -8   7    1.01    0.17
  -1   8  -7    2.59    0.17
  -1   8  -7    2.38    0.20
   1  -8   7    2.74    0.24
  -2   8  -7    2.70    0.21
  -2   8  -7    2.91    0.19
  -2   8  -7    2.81    0.20
  -3   8  -7    0.03    0.07
  -3   8  -7    0.11    0.07
  -4   8  -7    4.76    0.29
  -4   8  -7    4.56    0.24
  -5   8  -7    6.39    0.28
  -5   8  -7    6.24    0.34
  -6   8  -7    1.59    0.21
   6  -8   7    1.17    0.12
  -7   8  -7    1.52    0.23
   7  -8   7    1.44    0.15
  -4  -7   7    2.67    0.19
  -4  -7   7    3.04    0.30
  -3  -7   7    1.01    0.18
  -3  -7   7    1.02    0.12
  -2  -7   7    0.03    0.05
  -2  -7   7    0.11    0.10
  -1  -7   7   12.17    0.49
  -1  -7   7   12.69    0.31
   0   7  -7    3.01    0.16
   0  -7   7    3.01    0.10
   0  -7   7    2.97    0.24
  -1   7  -7   23.59    0.65
  -1   7  -7   24.07    0.60
   1  -7   7   24.24    0.73
  -2   7  -7    6.00    0.27
  -2   7  -7    6.32    0.30
  -3   7  -7   -0.01    0.05
  -3   7  -7    0.02    0.06
   3  -7   7   -0.04    0.02
  -4   7  -7   16.27    0.48
  -4   7  -7   15.48    0.53
   4  -7   7   15.45    0.37
  -5   7  -7    3.46    0.21
  -5   7  -7    3.44    0.26
   5  -7   7    3.42    0.16
  -6   7  -7   14.90    0.56
  -6   7  -7   14.89    0.47
   6  -7   7   15.60    0.43
  -7   7  -7    0.18    0.12
   7  -7   7    0.17    0.08
  -5  -6   7    1.65    0.26
  -5  -6   7    1.82    0.18
  -4  -6   7    1.36    0.14
  -4  -6   7    1.79    0.22
  -3  -6   7    4.34    0.20
  -3  -6   7    4.45    0.29
  -2  -6   7    2.76    0.23
  -2  -6   7    2.69    0.14
   1   6  -7    0.79    0.09
  -1  -6   7    0.72    0.13
  -1  -6   7    0.72    0.08
   0   6  -7    1.59    0.16
   0   6  -7    1.58    0.11
   0  -6   7    2.02    0.19
   0  -6   7    1.61    0.08
  -1   6  -7  102.44    2.09
   1  -6   7  100.67    1.87
   1  -6   7   98.85    2.29
  -2   6  -7   11.78    0.38
  -2   6  -7   11.30    0.41
   2  -6   7   11.36    0.26
  -3   6  -7    2.77    0.18
  -3   6  -7    2.84    0.20
   3  -6   7    2.93    0.12
  -4   6  -7    8.82    0.33
  -4   6  -7    9.56    0.39
   4  -6   7    9.34    0.27
  -5   6  -7    2.46    0.18
  -5   6  -7    2.38    0.22
   5  -6   7    2.26    0.15
  -6   6  -7    2.86    0.19
  -6   6  -7    2.74    0.24
   6  -6   7    2.55    0.18
  -7   6  -7    7.20    0.39
   7  -6   7    6.17    0.29
  -8   6  -7    0.44    0.15
   8  -6   7    0.55    0.13
  -6  -5   7    7.41    0.34
  -6  -5   7    7.27    0.41
  -5  -5   7    4.68    0.31
  -5  -5   7    4.16    0.23
  -4  -5   7    0.13    0.10
  -4  -5   7    0.09    0.06
  -3  -5   7   16.10    0.54
  -3  -5   7   15.09    0.41
   2   5  -7    6.09    0.19
  -2  -5   7    5.95    0.21
  -2  -5   7    6.14    0.30
   1   5  -7    0.49    0.07
  -1  -5   7    0.56    0.07
  -1  -5   7    0.41    0.10
   0   5  -7   17.32    0.51
   0   5  -7   18.26    0.43
   0  -5   7   18.21    0.40
   0  -5   7   19.15    0.57
  -1   5  -7  166.56    3.33
   1  -5   7  170.90    3.11
   1  -5   7  167.53    3.11
  -2   5  -7    1.50    0.16
  -2   5  -7    1.83    0.15
   2  -5   7    1.65    0.09
  -3   5  -7    2.22    0.18
  -3   5  -7    2.15    0.16
   3  -5   7    2.18    0.12
  -4   5  -7   10.92    0.42
  -4   5  -7   11.84    0.38
   4  -5   7   11.91    0.33
  -5   5  -7    4.05    0.22
  -5   5  -7    4.27    0.27
   5  -5   7    3.96    0.20
  -6   5  -7   12.57    0.42
  -6   5  -7   12.86    0.50
   6  -5   7   11.89    0.40
  -7   5  -7    6.83    0.31
  -7   5  -7    6.85    0.38
   7  -5   7    6.75    0.31
  -8   5  -7   10.46    0.49
   8  -5   7   10.41    0.42
  -7  -4   7    7.38    0.36
  -7  -4   7    7.58    0.42
  -6  -4   7    0.14    0.11
  -6  -4   7   -0.05    0.07
  -5  -4   7    2.73    0.24
  -5  -4   7    2.39    0.19
  -4  -4   7    8.72    0.37
  -4  -4   7    8.08    0.29
   3   4  -7   24.77    0.54
  -3  -4   7   24.08    0.58
  -3  -4   7   25.49    0.71
   2   4  -7   22.57    0.48
   2   4  -7   21.58    0.46
  -2  -4   7   22.73    0.64
  -2  -4   7   21.88    0.51
   1   4  -7   11.65    0.26
   1   4  -7   11.69    0.37
   1   4  -7   11.67    0.27
  -1  -4   7   11.58    0.29
  -1  -4   7   11.04    0.39
  -1  -4   7   11.12    0.29
   0   4  -7    0.79    0.05
   0   4  -7    0.88    0.12
   0  -4   7    0.74    0.07
   0  -4   7    0.81    0.07
   0  -4   7    0.81    0.13
  -1   4  -7   15.22    0.44
  -1   4  -7   16.18    0.33
   1  -4   7   16.30    0.37
   1  -4   7   16.22    0.37
  -2   4  -7    4.72    0.22
  -2   4  -7    5.21    0.24
  -2   4  -7    4.71    0.14
   2  -4   7    5.02    0.18
   2  -4   7    5.09    0.18
  -3   4  -7   10.03    0.37
  -3   4  -7   10.07    0.34
   3  -4   7    9.81    0.29
  -4   4  -7    1.50    0.16
  -4   4  -7    1.45    0.14
   4  -4   7    1.46    0.12
  -5   4  -7    4.98    0.28
  -5   4  -7    5.19    0.25
   5  -4   7    5.04    0.23
  -6   4  -7    0.92    0.14
  -6   4  -7    0.73    0.14
   6  -4   7    0.99    0.14
  -7   4  -7    8.90    0.43
  -7   4  -7    9.63    0.38
   7  -4   7    9.52    0.38
  -8   4  -7    0.32    0.13
   8  -4   7    0.51    0.13
  -8  -3   7    0.48    0.15
  -8  -3   7    0.71    0.14
  -7  -3   7    2.13    0.24
  -7  -3   7    1.95    0.21
  -6  -3   7    0.18    0.08
  -6  -3   7    0.25    0.10
   5   3  -7    1.34    0.14
  -5  -3   7    1.03    0.16
  -5  -3   7    0.97    0.13
   4   3  -7   -0.05    0.05
  -4  -3   7    0.08    0.07
  -4  -3   7    0.00    0.05
   3   3  -7    0.09    0.05
  -3  -3   7    0.10    0.05
  -3  -3   7   -0.01    0.06
   2   3  -7    0.37    0.05
  -2  -3   7    0.35    0.08
  -2  -3   7    0.36    0.06
  -2  -3   7    0.42    0.06
   1   3  -7   27.13    0.56
   1   3  -7   27.24    0.54
   1   3  -7   26.29    0.66
   1   3  -7   27.32    0.54
  -1  -3   7   27.13    0.58
  -1  -3   7   26.84    0.58
  -1  -3   7   27.22    0.71
   0   3  -7   27.02    0.55
   0   3  -7   26.46    0.56
   0   3  -7   25.77    0.64
   0  -3   7   26.12    0.57
   0  -3   7   27.44    0.57
  -1   3  -7    0.19    0.04
  -1   3  -7    0.05    0.06
   1  -3   7    0.19    0.04
   1  -3   7    0.14    0.04
  -2   3  -7    0.32    0.07
  -2   3  -7    0.37    0.07
  -2   3  -7    0.48    0.06
   2  -3   7    0.28    0.05
   2  -3   7    0.38    0.06
  -3   3  -7    2.45    0.16
  -3   3  -7    2.89    0.14
  -3   3  -7    2.64    0.18
   3  -3   7    2.77    0.15
  -4   3  -7    0.62    0.10
  -4   3  -7    0.79    0.10
  -4   3  -7    0.80    0.14
   4  -3   7    0.72    0.11
  -5   3  -7    1.29    0.15
  -5   3  -7    1.63    0.18
   5  -3   7    1.82    0.16
  -6   3  -7    0.97    0.17
  -6   3  -7    1.01    0.15
   6  -3   7    0.68    0.12
  -7   3  -7    0.46    0.12
  -7   3  -7    0.28    0.11
   7  -3   7    0.41    0.11
   8  -3   7    0.71    0.15
  -8  -2   7    0.71    0.14
  -8  -2   7    0.89    0.17
   7   2  -7    0.93    0.15
  -7  -2   7    1.06    0.18
  -7  -2   7    0.64    0.13
   6   2  -7    0.23    0.08
  -6  -2   7    0.20    0.09
  -6  -2   7    0.23    0.08
   5   2  -7    1.38    0.14
  -5  -2   7    1.42    0.14
  -5  -2   7    1.42    0.15
   4   2  -7    0.59    0.09
  -4  -2   7    0.82    0.12
  -4  -2   7    0.51    0.08
   3   2  -7   64.41    1.28
  -3  -2   7   63.25    1.29
  -3  -2   7   65.17    1.46
   2   2  -7   18.20    0.49
   2   2  -7   19.34    0.44
  -2  -2   7   18.44    0.45
  -2  -2   7   19.72    0.53
   1   2  -7    4.54    0.20
   1   2  -7    4.70    0.11
   1   2  -7    4.62    0.16
  -1  -2   7    4.46    0.16
  -1  -2   7    4.49    0.17
   0   2  -7    1.20    0.11
   0   2  -7    1.16    0.08
   0   2  -7    1.13    0.07
   0  -2   7    1.05    0.09
   0  -2   7    1.13    0.09
  -1   2  -7   19.61    0.45
  -1   2  -7   19.16    0.51
   1  -2   7   20.47    0.47
  -2   2  -7    8.79    0.31
  -2   2  -7    8.68    0.26
  -2   2  -7    7.96    0.29
   2  -2   7    8.86    0.27
  -3   2  -7    3.69    0.21
  -3   2  -7    4.02    0.20
  -3   2  -7    3.69    0.17
   3  -2   7    3.61    0.18
  -4   2  -7    3.22    0.20
  -4   2  -7    3.47    0.22
  -4   2  -7    3.38    0.18
   4  -2   7    3.48    0.19
  -5   2  -7   21.75    0.61
  -5   2  -7   20.66    0.64
  -5   2  -7   21.63    0.58
   5  -2   7   21.54    0.60
  -6   2  -7    3.55    0.22
  -6   2  -7    3.27    0.25
  -6   2  -7    3.67    0.24
   6  -2   7    3.22    0.23
  -7   2  -7    5.08    0.33
  -7   2  -7    5.33    0.31
   7  -2   7    5.58    0.32
  -9  -1   7    1.04    0.18
  -9  -1   7    1.62    0.25
   8   1  -7   21.84    0.65
  -8  -1   7   21.66    0.68
  -8  -1   7   21.84    0.66
  -8  -1   7   22.13    0.72
   7   1  -7    1.62    0.18
  -7  -1   7    1.83    0.21
  -7  -1   7    1.55    0.17
  -7  -1   7    1.52    0.17
   6   1  -7   39.86    0.91
  -6  -1   7   39.54    0.99
  -6  -1   7   38.19    0.92
   5   1  -7    1.53    0.14
  -5  -1   7    1.16    0.13
  -5  -1   7    1.29    0.14
   4   1  -7   11.22    0.33
  -4  -1   7   11.31    0.35
  -4  -1   7   10.82    0.33
   3   1  -7    0.22    0.06
   3   1  -7    0.23    0.06
  -3  -1   7    0.18    0.05
  -3  -1   7    0.19    0.06
   2   1  -7   85.25    1.65
   2   1  -7   80.32    1.57
  -2  -1   7   80.80    1.58
  -2  -1   7   76.97    1.76
   1   1  -7   54.17    1.15
   1   1  -7   53.70    1.09
   1   1  -7   55.75    1.06
  -1  -1   7   55.33    1.10
   0   1  -7   26.90    0.58
   0   1  -7   26.63    0.63
   0  -1   7   26.34    0.59
   0  -1   7   25.96    0.57
  -1   1  -7    5.87    0.20
   1  -1   7    5.91    0.21
   1  -1   7    5.86    0.20
  -2   1  -7   20.81    0.55
  -2   1  -7   21.37    0.56
  -2   1  -7   21.02    0.51
   2  -1   7   21.67    0.52
   2  -1   7   20.58    0.53
  -3   1  -7    7.48    0.29
  -3   1  -7    7.37    0.29
  -3   1  -7    6.98    0.26
   3  -1   7    7.23    0.28
   3  -1   7    7.64    0.28
  -4   1  -7   36.78    0.84
  -4   1  -7   35.99    0.88
  -4   1  -7   35.38    0.90
   4  -1   7   36.42    0.89
   4  -1   7   36.03    0.85
  -5   1  -7    1.72    0.17
  -5   1  -7    1.45    0.17
  -5   1  -7    1.51    0.15
   5  -1   7    1.30    0.17
   5  -1   7    1.70    0.17
  -6   1  -7    1.60    0.18
  -6   1  -7    1.52    0.19
  -6   1  -7    1.47    0.18
   6  -1   7    1.71    0.19
   6  -1   7    1.52    0.20
  -7   1  -7    6.31    0.34
  -7   1  -7    5.93    0.34
   7  -1   7    5.94    0.34
   9   0  -7   15.00    0.54
  -9   0   7   15.26    0.60
  -9   0   7   15.40    0.56
   8   0  -7    3.47    0.25
  -8   0   7    3.23    0.23
  -8   0   7    3.41    0.26
  -8   0   7    3.62    0.28
   7   0  -7    0.35    0.10
  -7   0   7    0.26    0.10
  -7   0   7    0.31    0.10
  -7   0   7    0.35    0.09
   6   0  -7    5.06    0.24
  -6   0   7    5.44    0.28
  -6   0   7    4.66    0.24
  -6   0   7    5.23    0.23
   5   0  -7    6.06    0.25
  -5   0   7    6.41    0.24
  -5   0   7    6.22    0.25
   4   0  -7    4.81    0.20
   4   0  -7    4.72    0.20
  -4   0   7    4.56    0.12
  -4   0   7    4.67    0.19
  -4   0   7    4.61    0.12
  -4   0   7    4.58    0.20
   3   0  -7    2.87    0.14
   3   0  -7    2.42    0.14
  -3   0   7    2.50    0.14
  -3   0   7    2.23    0.13
   2   0  -7   25.10    0.57
   2   0  -7   24.77    0.58
  -2   0   7   23.75    0.56
  -2   0   7   25.22    0.50
   1   0  -7    1.75    0.12
   1   0  -7    1.90    0.11
   1   0  -7    1.72    0.08
  -1   0   7    1.74    0.08
  -1   0   7    1.90    0.12
   0   0  -7    0.10    0.04
   0   0  -7    0.05    0.04
   0   0   7    0.10    0.05
   0   0   7    0.08    0.04
  -1   0  -7    0.17    0.05
  -1   0  -7    0.52    0.08
  -1   0  -7    0.07    0.04
   1   0   7    0.07    0.05
   1   0   7    0.08    0.05
  -2   0  -7    1.45    0.12
  -2   0  -7    1.68    0.14
  -2   0  -7    1.49    0.14
   2   0   7    1.75    0.14
   2   0   7    1.32    0.13
  -3   0  -7   13.92    0.41
  -3   0  -7   13.64    0.43
  -3   0  -7   14.39    0.43
   3   0   7   13.89    0.42
   3   0   7   12.96    0.42
  -4   0  -7    1.28    0.14
  -4   0  -7    1.37    0.16
  -4   0  -7    1.29    0.15
   4   0   7    0.91    0.14
   4   0   7    1.47    0.16
  -5   0  -7    3.04    0.22
  -5   0  -7    3.07    0.21
  -5   0  -7    2.90    0.21
   5   0   7    2.36    0.21
   5   0   7    2.60    0.22
  -6   0  -7   -0.10    0.06
  -6   0  -7   -0.05    0.07
  -6   0  -7    0.14    0.09
   6   0   7    0.09    0.09
   6   0   7    0.11    0.10
  -7   0  -7    0.67    0.15
  -7   0  -7    0.88    0.16
  -7   0  -7    0.71    0.15
   7   0   7    0.80    0.17
   7   0   7    0.67    0.15
   9  -1  -7    2.54    0.24
  -9   1   7    2.17    0.26
  -9   1   7    1.77    0.22
   8  -1  -7    1.89    0.20
  -8   1   7    2.17    0.21
  -8   1   7    2.11    0.23
   7  -1  -7    0.06    0.08
  -7   1   7    0.13    0.08
  -7   1   7    0.19    0.07
  -7   1   7    0.14    0.09
   6  -1  -7   37.02    0.87
  -6   1   7   36.60    0.87
  -6   1   7   37.60    0.93
  -6   1   7   37.77    0.87
   5  -1  -7   -0.01    0.04
   5  -1  -7    0.08    0.06
  -5   1   7    0.08    0.06
  -5   1   7    0.05    0.04
  -5   1   7    0.12    0.06
   4  -1  -7   -0.08    0.04
   4  -1  -7    0.00    0.04
  -4   1   7    0.02    0.05
  -4   1   7    0.00    0.03
   3  -1  -7   30.16    0.67
   3  -1  -7   30.34    0.67
  -3   1   7   30.16    0.61
  -3   1   7   28.01    0.67
   2  -1  -7    8.14    0.26
   2  -1  -7    7.99    0.25
  -2   1   7    8.13    0.26
  -2   1   7    7.99    0.21
   1  -1  -7    6.73    0.24
   1  -1  -7    6.85    0.23
  -1   1   7    6.98    0.21
  -1   1   7    7.10    0.24
   0  -1  -7   70.43    1.42
   0  -1  -7   70.18    1.47
   0   1   7   70.14    1.42
   0   1   7   72.02    1.44
  -1  -1  -7   65.29    1.33
  -1  -1  -7   64.14    1.38
  -1  -1  -7   64.83    1.38
   1   1   7   65.05    1.33
   1   1   7   64.06    1.35
  -2  -1  -7   14.65    0.42
  -2  -1  -7   14.66    0.41
  -2  -1  -7   14.07    0.44
   2   1   7   13.53    0.42
   2   1   7   14.79    0.43
  -3  -1  -7    0.15    0.06
  -3  -1  -7    0.07    0.06
  -3  -1  -7    0.12    0.07
   3   1   7    0.10    0.07
   3   1   7    0.15    0.08
  -4  -1  -7   11.40    0.40
  -4  -1  -7   11.49    0.40
  -4  -1  -7   11.37    0.42
   4   1   7   11.24    0.42
   4   1   7   11.50    0.41
  -5  -1  -7   17.67    0.56
  -5  -1  -7   17.65    0.56
  -5  -1  -7   17.53    0.58
   5   1   7   18.44    0.59
   5   1   7   17.32    0.56
  -6  -1  -7    1.45    0.19
  -6  -1  -7    1.55    0.20
  -6  -1  -7    1.11    0.18
   6   1   7    1.55    0.22
   6   1   7    1.74    0.22
  10  -2  -7    1.41    0.23
 -10   2   7    1.44    0.23
 -10   2   7    1.63    0.25
   9  -2  -7    2.52    0.24
  -9   2   7    2.17    0.23
  -9   2   7    2.65    0.27
   8  -2  -7   12.42    0.45
  -8   2   7   12.53    0.48
  -8   2   7   12.46    0.45
   7  -2  -7    3.23    0.21
   7  -2  -7    3.28    0.17
  -7   2   7    3.31    0.23
  -7   2   7    3.55    0.22
   6  -2  -7    4.35    0.23
   6  -2  -7    4.18    0.18
  -6   2   7    4.57    0.24
  -6   2   7    4.04    0.22
  -6   2   7    3.84    0.15
   5  -2  -7    1.52    0.11
   5  -2  -7    1.37    0.14
  -5   2   7    1.35    0.13
  -5   2   7    1.66    0.14
   4  -2  -7   54.28    1.13
   4  -2  -7   51.72    1.10
  -4   2   7   54.65    1.09
  -4   2   7   54.33    1.13
   3  -2  -7    0.15    0.06
   3  -2  -7    0.24    0.04
   3  -2  -7    0.17    0.05
  -3   2   7    0.09    0.05
  -3   2   7    0.25    0.05
   2  -2  -7   53.10    1.12
   2  -2  -7   53.78    1.13
  -2   2   7   54.64    1.12
  -2   2   7   54.71    1.11
   1  -2  -7    2.50    0.15
   1  -2  -7    2.94    0.16
  -1   2   7    2.69    0.14
  -1   2   7    2.76    0.15
   0  -2  -7    6.26    0.24
   0  -2  -7    6.33    0.21
   0  -2  -7    6.88    0.25
   0   2   7    6.38    0.24
   0   2   7    6.84    0.24
  -1  -2  -7    8.14    0.26
  -1  -2  -7    7.69    0.30
  -1  -2  -7    7.98    0.29
   1   2   7    7.79    0.28
   1   2   7    8.17    0.29
  -2  -2  -7   46.61    1.04
  -2  -2  -7   47.71    1.04
  -2  -2  -7   45.76    1.08
   2   2   7   45.93    1.06
   2   2   7   46.44    1.04
  -3  -2  -7    9.21    0.37
  -3  -2  -7    9.43    0.35
  -3  -2  -7    9.39    0.32
   3   2   7    9.05    0.36
   3   2   7    9.08    0.35
  -4  -2  -7    3.21    0.23
  -4  -2  -7    3.05    0.19
  -4  -2  -7    3.04    0.23
   4   2   7    2.78    0.22
   4   2   7    3.22    0.24
  -5  -2  -7    3.39    0.26
  -5  -2  -7    3.24    0.23
  -5  -2  -7    3.60    0.26
   5   2   7    3.36    0.27
   5   2   7    3.11    0.25
  -6  -2  -7    0.22    0.11
  -6  -2  -7    0.13    0.10
   6   2   7    0.20    0.12
   6   2   7    0.32    0.13
  10  -3  -7   -0.05    0.10
 -10   3   7    0.13    0.11
 -10   3   7   -0.06    0.11
   9  -3  -7    1.91    0.22
  -9   3   7    1.84    0.23
  -9   3   7    1.77    0.21
   8  -3  -7    0.30    0.11
  -8   3   7    0.07    0.09
  -8   3   7    0.08    0.08
   7  -3  -7    2.05    0.18
  -7   3   7    1.96    0.18
  -7   3   7    2.07    0.19
   6  -3  -7    2.94    0.19
   6  -3  -7    2.93    0.13
  -6   3   7    2.83    0.19
  -6   3   7    3.00    0.19
   5  -3  -7    5.33    0.18
   5  -3  -7    5.06    0.24
  -5   3   7    5.30    0.20
  -5   3   7    5.44    0.23
  -5   3   7    5.26    0.23
   4  -3  -7    1.55    0.14
   4  -3  -7    1.34    0.10
  -4   3   7    1.82    0.14
  -4   3   7    1.55    0.11
   3  -3  -7    2.48    0.10
   3  -3  -7    2.66    0.16
   3  -3  -7    2.46    0.13
  -3   3   7    2.68    0.14
  -3   3   7    2.49    0.15
   2  -3  -7    0.63    0.10
   2  -3  -7    0.56    0.09
  -2   3   7    0.58    0.09
  -2   3   7    0.57    0.09
   1  -3  -7   12.15    0.36
   1  -3  -7   11.73    0.35
  -1   3   7   11.48    0.35
  -1   3   7   11.68    0.35
   0  -3  -7    5.86    0.19
   0  -3  -7    6.24    0.25
   0  -3  -7    5.92    0.24
   0   3   7    6.14    0.25
   0   3   7    5.96    0.24
  -1  -3  -7    0.01    0.06
  -1  -3  -7    0.04    0.04
  -1  -3  -7    0.01    0.06
   1   3   7    0.17    0.07
   1   3   7    0.17    0.07
  -2  -3  -7   11.50    0.34
  -2  -3  -7   10.88    0.40
  -2  -3  -7   11.83    0.40
   2   3   7   11.95    0.40
   2   3   7   11.53    0.41
  -3  -3  -7    1.45    0.17
  -3  -3  -7    1.19    0.13
  -3  -3  -7    1.31    0.17
   3   3   7    1.18    0.17
   3   3   7    1.38    0.17
  -4  -3  -7    1.63    0.19
  -4  -3  -7    1.18    0.18
   4   3   7    1.79    0.21
   4   3   7    1.33    0.19
  -5  -3  -7    5.16    0.32
  -5  -3  -7    4.45    0.30
   5   3   7    4.29    0.30
   5   3   7    4.63    0.32
  10  -4  -7    0.71    0.16
 -10   4   7    0.89    0.16
 -10   4   7    0.48    0.15
   9  -4  -7    0.00    0.09
  -9   4   7   -0.03    0.08
  -9   4   7    0.03    0.09
   8  -4  -7    2.48    0.22
  -8   4   7    2.70    0.21
  -8   4   7    2.75    0.23
   7  -4  -7    1.34    0.16
  -7   4   7    1.37    0.16
  -7   4   7    1.14    0.16
   6  -4  -7    0.21    0.08
  -6   4   7    0.03    0.06
  -6   4   7    0.20    0.07
   5  -4  -7    9.15    0.25
   5  -4  -7    9.07    0.33
  -5   4   7    9.46    0.32
  -5   4   7    9.37    0.31
  -5   4   7    9.92    0.31
   4  -4  -7    4.30    0.16
   4  -4  -7    4.46    0.22
  -4   4   7    4.74    0.20
  -4   4   7    4.61    0.21
   3  -4  -7   35.11    0.80
   3  -4  -7   33.97    0.77
  -3   4   7   35.01    0.80
  -3   4   7   35.42    0.79
   2  -4  -7    0.43    0.07
   2  -4  -7    0.46    0.08
   2  -4  -7    0.51    0.06
  -2   4   7    0.54    0.09
  -2   4   7    0.43    0.08
   1  -4  -7    1.70    0.14
   1  -4  -7    1.74    0.14
   1  -4  -7    1.93    0.08
  -1   4   7    1.59    0.14
  -1   4   7    1.84    0.14
   0  -4  -7   15.46    0.47
   0  -4  -7   16.42    0.37
   0  -4  -7   15.69    0.46
   0   4   7   15.59    0.46
   0   4   7   16.04    0.47
  -1  -4  -7    7.60    0.31
  -1  -4  -7    7.56    0.32
   1   4   7    7.09    0.31
   1   4   7    7.94    0.31
  -2  -4  -7   17.67    0.56
  -2  -4  -7   17.55    0.54
   2   4   7   17.39    0.55
   2   4   7   17.58    0.53
  -3  -4  -7    7.80    0.37
  -3  -4  -7    8.25    0.36
   3   4   7    8.01    0.35
   3   4   7    7.67    0.36
  -4  -4  -7    5.46    0.33
  -4  -4  -7    5.90    0.33
   4   4   7    6.75    0.36
   4   4   7    5.58    0.32
  10  -5  -7   -0.01    0.11
 -10   5   7   -0.02    0.11
 -10   5   7    0.03    0.10
   9  -5  -7   16.04    0.55
  -9   5   7   17.04    0.58
  -9   5   7   14.98    0.53
   8  -5  -7   12.87    0.45
  -8   5   7   12.89    0.44
  -8   5   7   11.59    0.45
   7  -5  -7    1.45    0.17
  -7   5   7    1.54    0.17
  -7   5   7    1.51    0.17
   6  -5  -7   15.19    0.47
  -6   5   7   15.63    0.46
  -6   5   7   15.35    0.46
  -6   5   7   15.66    0.46
   5  -5  -7    0.64    0.07
   5  -5  -7    0.57    0.10
  -5   5   7    0.45    0.09
  -5   5   7    0.67    0.11
   4  -5  -7    0.02    0.04
   4  -5  -7   -0.06    0.06
  -4   5   7   -0.01    0.05
  -4   5   7   -0.02    0.05
   3  -5  -7   27.81    0.65
   3  -5  -7   27.45    0.68
  -3   5   7   27.62    0.67
  -3   5   7   27.84    0.69
   2  -5  -7   34.61    0.82
   2  -5  -7   34.97    0.80
  -2   5   7   34.12    0.80
  -2   5   7   34.67    0.83
   1  -5  -7   11.05    0.37
   1  -5  -7   10.70    0.36
  -1   5   7   10.44    0.37
  -1   5   7   10.77    0.36
   0  -5  -7    0.26    0.08
   0  -5  -7    0.27    0.08
   0   5   7    0.28    0.08
   0   5   7    0.44    0.10
  -1  -5  -7    2.03    0.19
  -1  -5  -7    2.02    0.18
   1   5   7    1.95    0.19
   1   5   7    1.70    0.17
  -2  -5  -7    3.18    0.24
  -2  -5  -7    3.40    0.24
   2   5   7    3.31    0.23
   2   5   7    3.24    0.24
  -3  -5  -7   11.58    0.48
  -3  -5  -7   10.97    0.44
   3   5   7   10.82    0.43
   3   5   7   11.35    0.47
  -4  -5  -7    0.57    0.15
   4   5   7    0.13    0.12
  10  -6  -7    1.06    0.18
 -10   6   7    1.10    0.19
   9  -6  -7    0.48    0.13
  -9   6   7    0.36    0.12
   8  -6  -7   14.65    0.51
  -8   6   7   15.27    0.49
  -8   6   7   14.51    0.50
   7  -6  -7    0.31    0.10
  -7   6   7    0.44    0.10
  -7   6   7    0.40    0.10
  -7   6   7    0.34    0.09
   6  -6  -7    6.73    0.30
  -6   6   7    6.66    0.29
  -6   6   7    7.07    0.30
  -6   6   7    6.74    0.26
   5  -6  -7   11.63    0.40
  -5   6   7   12.45    0.39
  -5   6   7   11.92    0.41
   4  -6  -7    8.37    0.26
   4  -6  -7    7.98    0.32
  -4   6   7    8.12    0.33
  -4   6   7    8.42    0.31
   3  -6  -7    0.80    0.11
   3  -6  -7    0.85    0.09
   3  -6  -7    0.87    0.13
  -3   6   7    0.70    0.12
  -3   6   7    0.65    0.10
   2  -6  -7    2.86    0.19
   2  -6  -7    2.70    0.17
  -2   6   7    2.95    0.21
  -2   6   7    2.87    0.18
   1  -6  -7    0.14    0.07
   1  -6  -7    0.15    0.08
  -1   6   7    0.15    0.07
  -1   6   7    0.08    0.08
   0  -6  -7    1.20    0.16
   0  -6  -7    1.38    0.16
   0   6   7    0.85    0.12
   0   6   7    1.05    0.16
  -1  -6  -7    0.13    0.09
  -1  -6  -7    0.07    0.08
   1   6   7    0.17    0.09
   1   6   7    0.00    0.07
  -2  -6  -7    0.28    0.11
  -2  -6  -7    0.40    0.12
   2   6   7    0.54    0.14
  -3  -6  -7    1.71    0.22
   3   6   7    1.86    0.24
   9  -7  -7    4.98    0.31
  -9   7   7    5.36    0.31
   8  -7  -7    6.80    0.33
  -8   7   7    6.60    0.33
  -8   7   7    6.64    0.32
   7  -7  -7    7.24    0.33
  -7   7   7    7.00    0.34
   6  -7  -7    2.96    0.22
  -6   7   7    2.86    0.22
   5  -7  -7    2.31    0.19
  -5   7   7    1.95    0.17
  -5   7   7    2.07    0.20
   4  -7  -7    2.26    0.19
  -4   7   7    2.80    0.22
  -4   7   7    2.31    0.17
   3  -7  -7   15.35    0.48
   3  -7  -7   15.37    0.45
  -3   7   7   16.00    0.47
  -3   7   7   16.04    0.52
   2  -7  -7   13.08    0.44
   2  -7  -7   13.27    0.43
   2  -7  -7   13.07    0.43
  -2   7   7   13.72    0.47
   1  -7  -7   -0.04    0.07
   1  -7  -7   -0.05    0.06
  -1   7   7    0.10    0.09
   0  -7  -7    5.54    0.29
   0   7   7    4.52    0.30
  -1  -7  -7    0.20    0.10
   1   7   7    0.25    0.11
  -2  -7  -7    0.56    0.13
   2   7   7    0.22    0.12
   9  -8  -7    0.07    0.10
  -9   8   7    0.09    0.11
   8  -8  -7    0.57    0.13
  -8   8   7    0.50    0.14
   7  -8  -7    0.71    0.13
  -7   8   7    0.40    0.13
   6  -8  -7    2.73    0.23
  -6   8   7    3.09    0.25
   5  -8  -7   29.77    0.78
  -5   8   7   30.56    0.83
   4  -8  -7    0.33    0.10
  -4   8   7    0.12    0.10
   3  -8  -7    1.80    0.18
  -3   8   7    1.11    0.17
   2  -8  -7    0.70    0.13
  -2   8   7    0.86    0.15
   1  -8  -7    3.83    0.25
  -1   8   7    4.26    0.30
   0  -8  -7    0.57    0.13
   0  -8  -7    0.37    0.13
   0   8   7    0.61    0.14
   8  -9  -7    0.34    0.12
  -8   9   7    0.24    0.13
   7  -9  -7   -0.01    0.08
  -7   9   7    0.00    0.10
   6  -9  -7    2.04    0.20
  -6   9   7    2.27    0.24
   5  -9  -7    0.19    0.09
  -5   9   7    0.22    0.10
   4  -9  -7    1.73    0.19
  -4   9   7    1.52    0.21
   3  -9  -7    1.06    0.16
  -3   9   7    1.32    0.21
   2  -9  -7    0.40    0.11
  -2   9   7    0.45    0.15
   1  -9  -7    0.18    0.09
  -1   9   7    0.05    0.10
   6 -10  -7    3.77    0.27
  -6  10   7    4.34    0.32
   5 -10  -7    6.42    0.33
  -5  10   7    6.82    0.39
   4 -10  -7    0.70    0.14
  -4  10   7    0.48    0.15
  -1  10  -8    0.72    0.15
  -1  10  -8    0.91    0.16
   1 -10   8    1.05    0.21
  -2  10  -8    6.24    0.33
  -2  10  -8    5.82    0.33
  -3  10  -8    0.28    0.11
  -3  10  -8    0.26    0.10
  -4  10  -8    7.52    0.39
  -4  10  -8    7.37    0.37
  -1  -9   8    2.76    0.29
   0   9  -8    6.08    0.34
   0  -9   8    6.20    0.39
  -1   9  -8    1.46    0.19
   1  -9   8    1.93    0.24
  -2   9  -8    3.06    0.24
  -2   9  -8    2.69    0.23
  -3   9  -8    8.84    0.35
  -3   9  -8    8.41    0.39
  -3   9  -8    9.04    0.37
  -4   9  -8    7.42    0.33
  -4   9  -8    7.07    0.37
  -5   9  -8    0.15    0.10
  -3  -8   8   12.04    0.38
  -3  -8   8   12.88    0.57
  -2  -8   8    0.21    0.13
  -1  -8   8    0.50    0.14
   0   8  -8    2.09    0.20
   0  -8   8    2.83    0.26
  -1   8  -8    0.75    0.13
   1  -8   8    0.69    0.15
  -2   8  -8    0.25    0.09
  -2   8  -8    0.26    0.10
  -2   8  -8    0.18    0.08
  -3   8  -8    0.36    0.10
  -3   8  -8    0.45    0.12
  -4   8  -8    0.89    0.16
  -4   8  -8    1.32    0.16
  -5   8  -8    0.24    0.10
  -5   8  -8    0.04    0.07
  -6   8  -8    0.84    0.17
  -4  -7   8    3.72    0.22
  -4  -7   8    3.58    0.31
  -3  -7   8    0.93    0.18
  -3  -7   8    1.43    0.14
  -2  -7   8    6.89    0.24
  -2  -7   8    7.12    0.38
  -1  -7   8    3.38    0.14
  -1  -7   8    3.32    0.26
   0   7  -8   20.71    0.62
   0  -7   8   21.69    0.45
   0  -7   8   21.30    0.69
  -1   7  -8    1.92    0.14
  -1   7  -8    1.85    0.18
  -2   7  -8   10.13    0.37
  -2   7  -8    9.52    0.39
  -3   7  -8    6.21    0.32
  -3   7  -8    6.39    0.29
   3  -7   8    6.68    0.19
  -4   7  -8   14.81    0.53
  -4   7  -8   14.83    0.48
   4  -7   8   15.21    0.38
  -5   7  -8    2.26    0.23
  -5   7  -8    2.70    0.20
   5  -7   8    2.43    0.15
  -6   7  -8    4.44    0.25
  -6   7  -8    4.52    0.32
   6  -7   8    4.52    0.22
  -7   7  -8   16.48    0.63
   7  -7   8   14.28    0.47
  -5  -6   8    7.50    0.42
  -5  -6   8    6.49    0.31
  -4  -6   8    3.24    0.28
  -4  -6   8    3.00    0.20
  -3  -6   8    6.94    0.37
  -3  -6   8    7.68    0.27
  -2  -6   8    9.32    0.28
  -2  -6   8    9.35    0.41
   1   6  -8   39.49    0.96
  -1  -6   8   38.30    0.79
  -1  -6   8   37.44    1.03
   0   6  -8    2.26    0.13
   0   6  -8    2.18    0.19
   0  -6   8    2.50    0.22
   0  -6   8    2.59    0.11
  -1   6  -8    2.69    0.20
   1  -6   8    2.48    0.10
  -2   6  -8    2.35    0.18
  -2   6  -8    2.27    0.19
   2  -6   8    2.15    0.10
  -3   6  -8    3.50    0.21
  -3   6  -8    3.33    0.23
   3  -6   8    3.05    0.14
  -4   6  -8    5.11    0.25
  -4   6  -8    4.89    0.29
   4  -6   8    5.11    0.20
  -5   6  -8    3.17    0.25
  -5   6  -8    3.23    0.21
   5  -6   8    2.95    0.17
  -6   6  -8    9.06    0.36
  -6   6  -8    8.91    0.43
   6  -6   8    8.67    0.33
  -7   6  -8    2.27    0.26
   7  -6   8    2.65    0.21
  -6  -5   8    1.60    0.19
  -6  -5   8    1.74    0.25
  -5  -5   8    0.41    0.10
  -5  -5   8    0.24    0.12
  -4  -5   8    4.81    0.23
  -4  -5   8    4.81    0.30
  -3  -5   8    1.53    0.13
  -3  -5   8    1.18    0.18
  -2  -5   8    1.20    0.11
  -2  -5   8    0.95    0.16
   1   5  -8   32.15    0.67
   1   5  -8   31.46    0.80
  -1  -5   8   32.14    0.68
  -1  -5   8   31.58    0.87
   0   5  -8    0.05    0.07
   0   5  -8    0.13    0.05
   0  -5   8    0.11    0.04
   0  -5   8    0.17    0.09
  -1   5  -8   11.46    0.38
   1  -5   8   11.16    0.29
  -2   5  -8    1.50    0.15
  -2   5  -8    1.19    0.16
   2  -5   8    1.58    0.10
  -3   5  -8    0.42    0.11
  -3   5  -8    0.35    0.09
   3  -5   8    0.36    0.06
  -4   5  -8   14.38    0.50
  -4   5  -8   13.94    0.45
   4  -5   8   13.99    0.39
  -5   5  -8    0.07    0.07
  -5   5  -8   -0.06    0.06
   5  -5   8   -0.01    0.06
  -6   5  -8    4.21    0.25
  -6   5  -8    3.95    0.29
   6  -5   8    4.34    0.24
  -7   5  -8    2.74    0.27
  -7   5  -8    3.01    0.23
   7  -5   8    2.97    0.23
  -7  -4   8    0.17    0.10
  -7  -4   8    0.04    0.11
  -6  -4   8    1.54    0.23
  -6  -4   8    1.22    0.17
  -5  -4   8   10.42    0.44
  -5  -4   8   10.04    0.36
  -4  -4   8    2.47    0.22
  -4  -4   8    2.31    0.16
  -3  -4   8    1.28    0.17
  -3  -4   8    1.40    0.12
   2   4  -8    5.17    0.26
  -2  -4   8    5.26    0.20
  -2  -4   8    5.74    0.28
   1   4  -8   19.11    0.40
   1   4  -8   19.20    0.54
  -1  -4   8   18.73    0.44
  -1  -4   8   18.40    0.57
   0   4  -8   15.01    0.45
   0  -4   8   15.03    0.37
  -1   4  -8   40.86    0.95
   1  -4   8   41.06    0.84
  -2   4  -8    3.13    0.20
  -2   4  -8    3.15    0.19
   2  -4   8    2.90    0.14
  -3   4  -8    7.53    0.32
  -3   4  -8    7.58    0.30
   3  -4   8    7.29    0.25
  -4   4  -8    7.25    0.33
  -4   4  -8    7.01    0.29
   4  -4   8    6.55    0.26
  -5   4  -8   12.75    0.43
  -5   4  -8   13.00    0.49
   5  -4   8   12.82    0.41
  -6   4  -8    0.32    0.12
  -6   4  -8    0.36    0.11
   6  -4   8    0.39    0.10
  -7   4  -8    4.35    0.28
  -7   4  -8    5.15    0.33
   7  -4   8    4.59    0.28
  -8  -3   8    0.17    0.11
  -8  -3   8    0.10    0.12
  -7  -3   8   12.59    0.47
  -7  -3   8   13.12    0.52
  -6  -3   8    0.32    0.10
  -6  -3   8    0.37    0.12
  -5  -3   8    6.74    0.32
  -5  -3   8    6.50    0.28
   4   3  -8    7.95    0.27
  -4  -3   8    8.05    0.29
  -4  -3   8    7.50    0.33
   3   3  -8    8.44    0.26
  -3  -3   8    8.64    0.28
  -3  -3   8    8.17    0.33
   2   3  -8    0.83    0.09
   2   3  -8    0.59    0.10
  -2  -3   8    0.76    0.12
  -2  -3   8    0.76    0.09
   1   3  -8   23.36    0.51
   1   3  -8   23.20    0.60
   1   3  -8   23.62    0.47
   1   3  -8   23.32    0.46
  -1  -3   8   23.60    0.53
  -1  -3   8   23.74    0.54
   0   3  -8   12.25    0.38
   0   3  -8   12.01    0.30
   0   3  -8   12.01    0.29
   0  -3   8   11.78    0.32
   0  -3   8   12.16    0.32
  -1   3  -8   14.34    0.42
  -1   3  -8   13.97    0.34
   1  -3   8   13.82    0.36
  -2   3  -8    6.47    0.28
  -2   3  -8    6.50    0.21
  -2   3  -8    6.35    0.27
   2  -3   8    6.51    0.23
  -3   3  -8   23.42    0.63
  -3   3  -8   24.75    0.67
  -3   3  -8   23.63    0.56
   3  -3   8   23.74    0.58
  -4   3  -8    1.69    0.18
  -4   3  -8    2.02    0.17
   4  -3   8    2.14    0.16
  -5   3  -8    1.13    0.16
  -5   3  -8    1.40    0.18
   5  -3   8    1.22    0.15
  -6   3  -8    3.12    0.23
  -6   3  -8    2.71    0.24
   6  -3   8    3.23    0.23
  -7   3  -8   -0.02    0.09
  -7   3  -8   -0.08    0.08
   7  -3   8    0.00    0.09
  -8  -2   8    1.85    0.22
  -8  -2   8    1.59    0.23
  -7  -2   8    0.05    0.09
  -7  -2   8    0.15    0.10
   6   2  -8    0.55    0.10
  -6  -2   8    0.62    0.11
  -6  -2   8    0.53    0.12
   5   2  -8    2.55    0.17
  -5  -2   8    2.57    0.20
  -5  -2   8    2.78    0.18
   4   2  -8   14.98    0.42
  -4  -2   8   15.27    0.48
  -4  -2   8   15.39    0.43
   3   2  -8    3.28    0.19
   3   2  -8    3.47    0.16
  -3  -2   8    3.79    0.20
  -3  -2   8    3.72    0.18
   2   2  -8    3.25    0.15
   2   2  -8    3.23    0.18
  -2  -2   8    3.38    0.19
  -2  -2   8    3.23    0.15
   1   2  -8   12.62    0.32
   1   2  -8   12.51    0.26
   1   2  -8   11.83    0.37
  -1  -2   8   12.28    0.33
   0   2  -8    0.17    0.06
   0   2  -8    0.17    0.05
   0  -2   8    0.19    0.05
  -1   2  -8    7.29    0.23
  -1   2  -8    7.12    0.27
   1  -2   8    7.40    0.25
  -2   2  -8   14.32    0.45
  -2   2  -8   13.98    0.43
  -2   2  -8   14.68    0.39
   2  -2   8   14.85    0.40
  -3   2  -8    5.40    0.22
  -3   2  -8    5.15    0.25
  -3   2  -8    5.75    0.27
   3  -2   8    5.86    0.24
  -4   2  -8    9.93    0.37
  -4   2  -8   10.29    0.34
  -4   2  -8   10.02    0.39
   4  -2   8   10.46    0.36
  -5   2  -8    0.32    0.08
  -5   2  -8    0.52    0.12
  -5   2  -8    0.48    0.11
   5  -2   8    0.27    0.09
  -6   2  -8    0.47    0.12
  -6   2  -8    0.22    0.11
   6  -2   8    0.28    0.10
  -7   2  -8    3.28    0.28
  -7   2  -8    3.08    0.26
   7  -2   8    3.13    0.26
  -9  -1   8    2.36    0.26
   8   1  -8    0.08    0.09
  -8  -1   8    0.09    0.10
  -8  -1   8    0.09    0.09
   7   1  -8    0.52    0.11
  -7  -1   8    0.48    0.12
  -7  -1   8    0.44    0.11
   6   1  -8    5.53    0.26
  -6  -1   8    5.26    0.27
  -6  -1   8    5.29    0.26
   5   1  -8    6.16    0.25
  -5  -1   8    5.85    0.25
  -5  -1   8    6.45    0.27
   4   1  -8   19.10    0.50
   4   1  -8   19.30    0.52
  -4  -1   8   19.99    0.54
  -4  -1   8   19.33    0.51
   3   1  -8   41.91    0.96
   3   1  -8   43.66    0.92
  -3  -1   8   43.87    1.02
  -3  -1   8   43.08    0.92
   2   1  -8    0.60    0.09
   2   1  -8    0.54    0.08
  -2  -1   8    0.57    0.09
   1   1  -8   38.12    0.87
   1   1  -8   39.75    0.77
   1   1  -8   38.38    0.82
  -1  -1   8   38.58    0.83
   0   1  -8   15.64    0.44
   0   1  -8   15.72    0.40
   0  -1   8   15.84    0.38
   0  -1   8   15.62    0.41
  -1   1  -8   22.17    0.57
  -1   1  -8   21.79    0.53
   1  -1   8   22.27    0.53
   1  -1   8   21.76    0.54
  -2   1  -8    8.89    0.32
  -2   1  -8    8.14    0.31
  -2   1  -8    8.41    0.28
   2  -1   8    8.45    0.29
   2  -1   8    8.13    0.29
  -3   1  -8    4.62    0.22
  -3   1  -8    5.09    0.25
  -3   1  -8    4.87    0.24
   3  -1   8    4.64    0.23
   3  -1   8    4.82    0.23
  -4   1  -8   21.18    0.57
  -4   1  -8   21.56    0.61
  -4   1  -8   20.44    0.61
   4  -1   8   20.78    0.60
   4  -1   8   20.72    0.58
  -5   1  -8    6.58    0.32
  -5   1  -8    6.77    0.30
  -5   1  -8    7.01    0.33
   5  -1   8    7.42    0.33
   5  -1   8    6.10    0.32
  -6   1  -8    3.24    0.25
  -6   1  -8    3.25    0.25
  -6   1  -8    2.70    0.22
   6  -1   8    2.93    0.24
   6  -1   8    2.80    0.25
  -7   1  -8    4.20    0.30
  -7   1  -8    4.55    0.31
   7  -1   8    3.82    0.30
   9   0  -8    1.55    0.23
  -9   0   8    1.25    0.19
   8   0  -8    6.76    0.33
  -8   0   8    7.04    0.35
   7   0  -8    2.46    0.20
  -7   0   8    2.77    0.19
  -7   0   8    2.74    0.21
   6   0  -8    1.02    0.14
  -6   0   8    1.27    0.13
  -6   0   8    1.34    0.15
   5   0  -8    5.64    0.24
   5   0  -8    5.71    0.24
  -5   0   8    5.28    0.22
  -5   0   8    5.53    0.24
   4   0  -8   30.10    0.71
   4   0  -8   30.13    0.72
  -4   0   8   30.07    0.74
  -4   0   8   32.61    0.73
   3   0  -8    0.12    0.06
   3   0  -8    0.28    0.07
  -3   0   8    0.08    0.05
   2   0  -8    2.84    0.16
   2   0  -8    3.06    0.16
  -2   0   8    3.16    0.16
  -2   0   8    2.87    0.10
   1   0  -8    5.02    0.21
   1   0  -8    5.11    0.20
  -1   0   8    4.95    0.20
  -1   0   8    5.25    0.16
   0   0  -8    5.45    0.21
   0   0  -8    5.75    0.23
   0   0   8    5.92    0.20
   0   0   8    5.58    0.22
  -1   0  -8   21.86    0.54
  -1   0  -8   21.23    0.56
  -1   0  -8   21.15    0.57
   1   0   8   20.96    0.54
   1   0   8   22.30    0.54
  -2   0  -8    8.91    0.33
  -2   0  -8    9.44    0.31
  -2   0  -8    9.10    0.32
   2   0   8    9.22    0.32
   2   0   8    9.04    0.32
  -3   0  -8    1.97    0.17
  -3   0  -8    1.97    0.17
  -3   0  -8    2.09    0.16
   3   0   8    2.15    0.18
   3   0   8    2.22    0.17
  -4   0  -8    5.13    0.26
  -4   0  -8    5.01    0.26
  -4   0  -8    5.06    0.28
   4   0   8    5.23    0.27
   4   0   8    4.58    0.27
  -5   0  -8    1.52    0.19
  -5   0  -8    1.46    0.17
  -5   0  -8    1.45    0.17
   5   0   8    1.55    0.20
   5   0   8    1.34    0.18
  -6   0  -8    4.82    0.31
  -6   0  -8    5.36    0.31
  -6   0  -8    5.06    0.31
   6   0   8    5.25    0.33
   6   0   8    5.53    0.33
   9  -1  -8    0.01    0.10
  -9   1   8    0.07    0.10
  -9   1   8   -0.05    0.10
   8  -1  -8    1.07    0.17
  -8   1   8    1.62    0.22
  -8   1   8    1.24    0.19
   7  -1  -8   14.52    0.47
   7  -1  -8   15.48    0.44
  -7   1   8   14.43    0.48
  -7   1   8   13.83    0.51
   6  -1  -8    0.74    0.12
   6  -1  -8    0.70    0.12
  -6   1   8    0.61    0.09
  -6   1   8    0.62    0.11
   5  -1  -8    2.66    0.16
   5  -1  -8    2.78    0.18
  -5   1   8    2.71    0.18
  -5   1   8    2.81    0.11
  -5   1   8    2.84    0.14
   4  -1  -8    1.48    0.12
   4  -1  -8    1.26    0.12
  -4   1   8    1.39    0.07
  -4   1   8    1.27    0.13
   3  -1  -8    0.46    0.08
   3  -1  -8    0.43    0.07
  -3   1   8    0.42    0.08
  -3   1   8    0.37    0.05
   2  -1  -8    3.74    0.18
   2  -1  -8    4.07    0.18
  -2   1   8    4.06    0.14
  -2   1   8    4.34    0.19
   1  -1  -8    3.71    0.18
   1  -1  -8    3.79    0.18
  -1   1   8    3.22    0.14
  -1   1   8    3.67    0.18
   0  -1  -8    2.68    0.16
   0  -1  -8    2.99    0.17
   0   1   8    2.62    0.16
   0   1   8    3.08    0.15
  -1  -1  -8   20.74    0.57
  -1  -1  -8   20.53    0.55
  -1  -1  -8   21.90    0.55
   1   1   8   21.31    0.55
   1   1   8   21.67    0.56
  -2  -1  -8   14.41    0.42
  -2  -1  -8   13.59    0.45
  -2  -1  -8   12.85    0.41
   2   1   8   14.35    0.44
   2   1   8   14.40    0.44
  -3  -1  -8    0.23    0.08
  -3  -1  -8    0.19    0.08
  -3  -1  -8    0.31    0.08
   3   1   8    0.07    0.07
   3   1   8    0.26    0.09
  -4  -1  -8   19.92    0.59
  -4  -1  -8   18.91    0.61
  -4  -1  -8   20.58    0.59
   4   1   8   19.24    0.61
   4   1   8   20.52    0.61
  -5  -1  -8    0.37    0.12
  -5  -1  -8    0.26    0.10
  -5  -1  -8    0.11    0.08
   5   1   8    0.24    0.11
   5   1   8    0.11    0.10
  -6  -1  -8    0.08    0.10
  -6  -1  -8    0.22    0.11
   6   1   8    0.23    0.12
   6   1   8    0.11    0.11
  10  -2  -8   -0.08    0.10
 -10   2   8    0.08    0.12
 -10   2   8   -0.06    0.11
   9  -2  -8    0.13    0.11
  -9   2   8    0.12    0.11
  -9   2   8    0.03    0.09
   8  -2  -8    4.54    0.28
  -8   2   8    3.76    0.28
  -8   2   8    5.02    0.28
   7  -2  -8    0.30    0.10
   7  -2  -8    0.33    0.07
  -7   2   8    0.22    0.10
  -7   2   8    0.37    0.10
   6  -2  -8   16.96    0.50
   6  -2  -8   16.97    0.44
  -6   2   8   17.60    0.51
   5  -2  -8    2.80    0.19
   5  -2  -8    2.77    0.15
  -5   2   8    3.08    0.14
  -5   2   8    3.09    0.18
   4  -2  -8   26.57    0.61
   4  -2  -8   26.35    0.62
   4  -2  -8   27.66    0.66
  -4   2   8   26.57    0.59
  -4   2   8   26.99    0.65
   3  -2  -8    0.03    0.04
   3  -2  -8   -0.04    0.05
  -3   2   8    0.04    0.05
  -3   2   8    0.01    0.04
   2  -2  -8    1.72    0.13
   2  -2  -8    1.44    0.12
  -2   2   8    1.54    0.13
  -2   2   8    1.49    0.11
   1  -2  -8    3.88    0.19
   1  -2  -8    4.06    0.19
  -1   2   8    4.06    0.18
  -1   2   8    4.20    0.20
   0  -2  -8    9.50    0.29
   0  -2  -8    9.11    0.33
   0  -2  -8    9.28    0.32
   0   2   8   10.09    0.33
   0   2   8    9.57    0.31
  -1  -2  -8   84.54    1.75
  -1  -2  -8   85.40    1.81
  -1  -2  -8   89.35    1.80
   1   2   8   86.13    1.76
   1   2   8   84.40    1.79
  -2  -2  -8   16.23    0.51
  -2  -2  -8   16.93    0.47
  -2  -2  -8   17.13    0.50
   2   2   8   16.29    0.50
   2   2   8   16.01    0.50
  -3  -2  -8    0.01    0.05
  -3  -2  -8    0.05    0.07
  -3  -2  -8    0.13    0.08
   3   2   8    0.02    0.08
   3   2   8   -0.03    0.07
  -4  -2  -8    4.72    0.25
  -4  -2  -8    4.74    0.28
  -4  -2  -8    4.54    0.29
   4   2   8    4.66    0.28
   4   2   8    4.59    0.29
  -5  -2  -8   10.36    0.45
  -5  -2  -8   10.99    0.47
   5   2   8   10.96    0.48
   5   2   8   10.96    0.46
  10  -3  -8    0.35    0.14
 -10   3   8    0.11    0.12
 -10   3   8   -0.05    0.09
   9  -3  -8    2.65    0.25
  -9   3   8    3.35    0.26
  -9   3   8    2.75    0.27
   8  -3  -8    4.83    0.29
  -8   3   8    5.24    0.30
  -8   3   8    5.28    0.29
   7  -3  -8   25.70    0.69
  -7   3   8   25.27    0.72
  -7   3   8   26.28    0.69
   6  -3  -8    0.29    0.09
   6  -3  -8    0.29    0.06
  -6   3   8    0.33    0.07
  -6   3   8    0.18    0.08
   5  -3  -8   -0.05    0.06
   5  -3  -8    0.04    0.05
  -5   3   8    0.02    0.05
  -5   3   8   -0.02    0.05
   4  -3  -8   36.07    0.78
   4  -3  -8   35.12    0.82
  -4   3   8   34.61    0.77
  -4   3   8   34.89    0.81
   3  -3  -8    9.24    0.32
   3  -3  -8    9.24    0.29
  -3   3   8    8.93    0.31
  -3   3   8    9.09    0.28
   2  -3  -8    6.41    0.26
   2  -3  -8    6.93    0.25
  -2   3   8    6.68    0.24
  -2   3   8    6.68    0.26
   1  -3  -8    6.27    0.26
   1  -3  -8    6.67    0.26
  -1   3   8    6.63    0.26
  -1   3   8    6.49    0.25
   0  -3  -8   21.04    0.57
   0  -3  -8   21.99    0.59
   0  -3  -8   21.95    0.52
   0   3   8   20.79    0.57
   0   3   8   21.88    0.58
  -1  -3  -8    0.08    0.07
  -1  -3  -8    0.00    0.07
  -1  -3  -8    0.05    0.05
   1   3   8    0.03    0.07
   1   3   8   -0.02    0.06
  -2  -3  -8    8.68    0.31
  -2  -3  -8    8.50    0.36
  -2  -3  -8    8.49    0.35
   2   3   8    8.98    0.36
   2   3   8    8.74    0.35
  -3  -3  -8    0.24    0.10
  -3  -3  -8    0.13    0.08
   3   3   8    0.27    0.10
   3   3   8    0.04    0.08
  -4  -3  -8    0.13    0.10
  -4  -3  -8    0.13    0.10
   4   3   8    0.05    0.10
   4   3   8    0.17    0.10
  -5  -3  -8    0.20    0.12
  -5  -3  -8    0.29    0.12
   5   3   8    0.14    0.11
   5   3   8    0.18    0.12
  10  -4  -8    0.12    0.12
 -10   4   8    0.10    0.10
 -10   4   8    0.11    0.12
   9  -4  -8    0.03    0.10
  -9   4   8    0.07    0.09
  -9   4   8   -0.02    0.09
   8  -4  -8    0.82    0.14
  -8   4   8    1.29    0.19
  -8   4   8    0.92    0.14
   7  -4  -8    0.04    0.08
  -7   4   8    0.03    0.07
  -7   4   8    0.02    0.07
   6  -4  -8    0.48    0.10
  -6   4   8    0.43    0.08
  -6   4   8    0.21    0.08
   5  -4  -8    1.32    0.14
   5  -4  -8    1.20    0.11
  -5   4   8    1.50    0.13
  -5   4   8    1.33    0.14
   4  -4  -8    0.25    0.08
   4  -4  -8    0.21    0.06
  -4   4   8    0.23    0.08
  -4   4   8    0.34    0.08
   3  -4  -8    0.81    0.12
   3  -4  -8    1.07    0.11
  -3   4   8    0.90    0.13
  -3   4   8    0.85    0.11
   2  -4  -8    4.97    0.24
   2  -4  -8    4.93    0.22
  -2   4   8    5.11    0.23
  -2   4   8    4.93    0.23
   1  -4  -8    0.64    0.07
   1  -4  -8    0.36    0.09
   1  -4  -8    0.52    0.10
  -1   4   8    0.41    0.09
  -1   4   8    0.58    0.10
   0  -4  -8    8.09    0.33
   0  -4  -8    8.19    0.32
   0   4   8    8.57    0.32
   0   4   8    8.24    0.33
  -1  -4  -8    0.35    0.10
  -1  -4  -8    0.48    0.11
   1   4   8    0.57    0.11
   1   4   8    0.48    0.11
  -2  -4  -8   10.31    0.42
  -2  -4  -8   11.51    0.42
   2   4   8   11.14    0.41
   2   4   8   10.96    0.43
  -3  -4  -8    4.25    0.29
  -3  -4  -8    4.35    0.28
   3   4   8    3.86    0.27
   3   4   8    4.80    0.31
  -4  -4  -8    0.05    0.10
  -4  -4  -8    0.01    0.10
   4   4   8    0.10    0.10
   4   4   8    0.06    0.11
  10  -5  -8    5.12    0.34
 -10   5   8    4.39    0.31
 -10   5   8    4.44    0.33
   9  -5  -8    0.83    0.16
  -9   5   8    0.65    0.14
  -9   5   8    0.52    0.14
   8  -5  -8    3.04    0.24
  -8   5   8    2.93    0.24
  -8   5   8    2.71    0.22
   7  -5  -8    0.38    0.11
  -7   5   8    0.48    0.11
  -7   5   8    0.47    0.10
  -7   5   8    0.58    0.11
   6  -5  -8    7.25    0.31
  -6   5   8    6.98    0.30
  -6   5   8    7.26    0.29
   5  -5  -8    5.32    0.19
   5  -5  -8    5.60    0.27
  -5   5   8    5.46    0.25
  -5   5   8    5.41    0.26
   4  -5  -8    7.38    0.25
   4  -5  -8    7.49    0.31
  -4   5   8    6.98    0.29
  -4   5   8    7.75    0.29
   3  -5  -8   20.58    0.54
   3  -5  -8   20.73    0.57
  -3   5   8   21.59    0.57
  -3   5   8   21.32    0.57
   2  -5  -8    2.48    0.17
   2  -5  -8    2.19    0.17
  -2   5   8    1.93    0.17
  -2   5   8    2.12    0.17
   1  -5  -8    6.44    0.29
   1  -5  -8    7.20    0.30
  -1   5   8    7.12    0.30
  -1   5   8    6.79    0.29
   0  -5  -8    2.59    0.19
   0  -5  -8    2.77    0.20
   0   5   8    2.68    0.21
   0   5   8    2.79    0.20
  -1  -5  -8   13.16    0.47
  -1  -5  -8   13.17    0.46
   1   5   8   13.26    0.48
   1   5   8   13.22    0.46
  -2  -5  -8    0.65    0.14
  -2  -5  -8    0.59    0.13
   2   5   8    0.67    0.13
   2   5   8    0.73    0.15
  -3  -5  -8    0.59    0.14
  -3  -5  -8    1.02    0.17
   3   5   8    1.08    0.19
   3   5   8    0.68    0.15
  10  -6  -8    5.74    0.36
   9  -6  -8    4.34    0.30
  -9   6   8    4.18    0.29
   8  -6  -8   15.61    0.54
  -8   6   8   16.70    0.54
  -8   6   8   16.59    0.54
  -8   6   8   17.59    0.54
   7  -6  -8    0.38    0.11
  -7   6   8    0.29    0.10
  -7   6   8    0.43    0.10
  -7   6   8    0.21    0.08
   6  -6  -8    2.36    0.20
  -6   6   8    2.75    0.21
  -6   6   8    2.81    0.20
   5  -6  -8   -0.11    0.07
  -5   6   8   -0.03    0.06
  -5   6   8   -0.04    0.06
   4  -6  -8   10.21    0.37
   4  -6  -8    9.41    0.30
  -4   6   8    9.64    0.37
  -4   6   8    9.99    0.35
   3  -6  -8    2.91    0.17
   3  -6  -8    2.93    0.21
  -3   6   8    3.26    0.20
  -3   6   8    3.53    0.22
   2  -6  -8   10.21    0.36
   2  -6  -8   10.37    0.38
  -2   6   8    9.84    0.36
  -2   6   8   10.20    0.39
   1  -6  -8    5.37    0.27
   1  -6  -8    5.00    0.27
  -1   6   8    5.17    0.28
  -1   6   8    5.11    0.26
   0  -6  -8    1.27    0.17
   0  -6  -8    1.32    0.17
   0   6   8    1.29    0.17
   0   6   8    1.14    0.18
  -1  -6  -8    2.01    0.21
  -1  -6  -8    2.03    0.21
   1   6   8    2.17    0.21
   1   6   8    2.57    0.24
  -2  -6  -8    3.69    0.27
  -2  -6  -8    4.02    0.30
   2   6   8    4.28    0.31
   9  -7  -8    0.33    0.13
  -9   7   8    0.30    0.13
   8  -7  -8    0.65    0.13
  -8   7   8    0.69    0.14
   7  -7  -8    2.92    0.23
  -7   7   8    2.28    0.22
   6  -7  -8    0.17    0.09
  -6   7   8    0.26    0.10
   5  -7  -8    4.87    0.27
  -5   7   8    5.15    0.28
  -5   7   8    4.32    0.24
   4  -7  -8    1.96    0.19
  -4   7   8    1.82    0.17
  -4   7   8    1.67    0.19
   3  -7  -8    0.02    0.07
   3  -7  -8   -0.05    0.05
  -3   7   8   -0.01    0.06
  -3   7   8   -0.01    0.08
   2  -7  -8    0.25    0.08
   2  -7  -8    0.38    0.10
  -2   7   8    0.35    0.11
   1  -7  -8    0.07    0.08
   1  -7  -8    0.18    0.09
  -1   7   8    0.02    0.09
   0  -7  -8    1.05    0.16
   0  -7  -8    0.85    0.14
   0   7   8    0.99    0.17
  -1  -7  -8    2.89    0.25
   1   7   8    2.96    0.28
   9  -8  -8    2.47    0.25
   8  -8  -8    5.39    0.32
  -8   8   8    4.67    0.32
   7  -8  -8    4.38    0.29
  -7   8   8    4.82    0.31
   6  -8  -8    1.55    0.19
  -6   8   8    2.01    0.22
   5  -8  -8    4.16    0.26
  -5   8   8    4.23    0.28
   4  -8  -8    2.42    0.21
  -4   8   8    2.26    0.22
   3  -8  -8    3.63    0.25
  -3   8   8    3.97    0.28
   2  -8  -8    0.23    0.09
  -2   8   8    0.39    0.13
   1  -8  -8    9.15    0.41
  -1   8   8   10.06    0.45
   0  -8  -8   18.91    0.63
   0   8   8   19.55    0.68
   7  -9  -8    0.39    0.12
  -7   9   8    0.71    0.16
   6  -9  -8    0.24    0.11
  -6   9   8    0.12    0.11
   5  -9  -8    0.05    0.09
  -5   9   8    0.11    0.10
   4  -9  -8    7.66    0.36
  -4   9   8    7.28    0.38
   3  -9  -8    2.60    0.23
  -3   9   8    2.54    0.26
   2  -9  -8    0.30    0.11
  -2   9   8    0.31    0.13
   1   9  -9   -0.06    0.09
  -1  -9   9   -0.12    0.10
   0   9  -9   10.38    0.45
   0  -9   9   10.16    0.50
  -1   9  -9    9.05    0.40
  -2   9  -9   14.67    0.52
  -2   9  -9   14.81    0.55
  -3   9  -9    1.47    0.20
  -3   9  -9    1.29    0.18
  -4   9  -9    0.13    0.09
  -4   9  -9    0.03    0.08
  -5   9  -9    0.43    0.13
  -3  -8   9    7.70    0.45
  -2  -8   9    4.47    0.34
   1   8  -9    0.36    0.12
  -1  -8   9    0.72    0.17
   0   8  -9    3.18    0.25
   0  -8   9    3.43    0.29
  -1   8  -9    0.48    0.12
  -2   8  -9    0.04    0.08
  -2   8  -9    0.07    0.08
  -3   8  -9   12.10    0.49
  -3   8  -9   12.54    0.45
  -4   8  -9    0.66    0.13
  -4   8  -9    0.67    0.14
  -5   8  -9    0.09    0.08
  -5   8  -9    0.11    0.10
  -6   8  -9    1.81    0.24
  -4  -7   9    9.96    0.50
  -4  -7   9    9.61    0.35
  -3  -7   9   -0.04    0.09
  -3  -7   9    0.06    0.06
  -2  -7   9    4.25    0.31
  -2  -7   9    4.23    0.19
   1   7  -9    0.11    0.09
  -1  -7   9    0.15    0.05
  -1  -7   9    0.36    0.12
   0   7  -9    0.56    0.12
   0  -7   9    0.68    0.08
   0  -7   9    1.05    0.17
  -1   7  -9    9.86    0.39
  -2   7  -9    1.99    0.18
  -2   7  -9    1.59    0.19
  -3   7  -9    4.24    0.25
  -3   7  -9    4.46    0.28
   3  -7   9    4.11    0.16
  -4   7  -9    1.05    0.16
  -4   7  -9    0.72    0.14
   4  -7   9    0.94    0.10
  -5   7  -9    8.42    0.36
  -5   7  -9    8.68    0.42
   5  -7   9    8.66    0.30
  -6   7  -9    6.52    0.33
  -6   7  -9    5.83    0.37
   6  -7   9    5.56    0.26
  -5  -6   9    1.38    0.18
  -5  -6   9    1.92    0.26
  -4  -6   9    2.77    0.19
  -4  -6   9    3.04    0.29
  -3  -6   9   12.03    0.37
  -3  -6   9   12.92    0.52
   2   6  -9    7.34    0.35
  -2  -6   9    7.10    0.25
  -2  -6   9    7.37    0.37
   1   6  -9    7.76    0.35
  -1  -6   9    7.58    0.24
  -1  -6   9    8.07    0.38
   0   6  -9   12.14    0.43
   0  -6   9   11.84    0.30
  -1   6  -9    0.74    0.12
   1  -6   9    0.91    0.08
  -2   6  -9   21.54    0.62
  -2   6  -9   21.56    0.66
   2  -6   9   21.87    0.49
  -3   6  -9    8.37    0.35
  -3   6  -9    9.05    0.39
   3  -6   9    8.35    0.26
  -4   6  -9   11.49    0.46
  -4   6  -9   11.00    0.41
   4  -6   9   10.96    0.33
  -5   6  -9    0.78    0.13
  -5   6  -9    0.49    0.14
   5  -6   9    0.54    0.09
  -6   6  -9   -0.03    0.08
  -6   6  -9    0.03    0.09
   6  -6   9    0.10    0.07
  -6  -5   9    3.12    0.24
  -6  -5   9    3.59    0.31
  -5  -5   9    3.30    0.29
  -5  -5   9    3.21    0.21
  -4  -5   9    0.17    0.11
  -4  -5   9    0.33    0.08
  -3  -5   9    2.25    0.23
  -3  -5   9    2.16    0.16
   2   5  -9    1.48    0.18
  -2  -5   9    1.55    0.12
  -2  -5   9    1.41    0.19
   1   5  -9   61.67    1.41
  -1  -5   9   63.06    1.26
  -1  -5   9   64.03    1.53
   0   5  -9   14.19    0.46
   0  -5   9   13.80    0.35
  -1   5  -9    2.24    0.18
   1  -5   9    2.42    0.13
  -2   5  -9    0.04    0.07
  -2   5  -9   -0.01    0.06
   2  -5   9    0.00    0.04
  -3   5  -9    5.19    0.29
  -3   5  -9    4.91    0.26
   3  -5   9    4.95    0.21
  -4   5  -9    1.22    0.18
  -4   5  -9    1.38    0.17
   4  -5   9    1.44    0.13
  -5   5  -9    0.47    0.13
  -5   5  -9    0.24    0.10
   5  -5   9    0.43    0.09
  -6   5  -9   11.71    0.51
  -6   5  -9   11.89    0.44
   6  -5   9   11.50    0.41
  -7   5  -9    0.67    0.17
  -7   5  -9    0.59    0.13
  -7  -4   9    2.96    0.29
  -7  -4   9    3.13    0.25
  -6  -4   9    0.59    0.15
  -6  -4   9    0.73    0.13
  -5  -4   9    0.12    0.08
  -5  -4   9    0.32    0.11
  -4  -4   9   -0.03    0.05
  -4  -4   9   -0.02    0.08
   3   4  -9    0.14    0.08
  -3  -4   9    0.06    0.05
  -3  -4   9    0.02    0.08
   2   4  -9    0.99    0.15
  -2  -4   9    0.92    0.16
  -2  -4   9    0.89    0.11
   1   4  -9   26.73    0.70
  -1  -4   9   27.29    0.61
   0   4  -9    3.03    0.20
   0  -4   9    3.06    0.15
  -1   4  -9    2.61    0.19
   1  -4   9    2.47    0.14
  -2   4  -9    6.11    0.28
  -2   4  -9    6.09    0.29
   2  -4   9    6.32    0.23
  -3   4  -9   11.72    0.44
  -3   4  -9   11.94    0.41
   3  -4   9   12.38    0.37
  -4   4  -9    0.01    0.07
  -4   4  -9    0.01    0.07
   4  -4   9    0.00    0.06
  -5   4  -9    7.55    0.37
  -5   4  -9    7.15    0.33
   5  -4   9    7.06    0.31
  -6   4  -9    1.14    0.20
  -6   4  -9    1.05    0.18
   6  -4   9    1.02    0.15
  -7   4  -9    1.38    0.20
  -7   4  -9    1.10    0.18
   7  -4   9    1.16    0.19
  -7  -3   9    3.95    0.27
  -7  -3   9    4.25    0.31
  -6  -3   9    8.04    0.38
  -6  -3   9    7.68    0.34
  -5  -3   9    2.37    0.21
  -5  -3   9    2.35    0.18
  -4  -3   9   25.51    0.72
  -4  -3   9   23.73    0.62
   3   3  -9    0.73    0.11
  -3  -3   9    0.74    0.11
  -3  -3   9    0.60    0.12
   2   3  -9   21.46    0.50
   2   3  -9   20.72    0.58
  -2  -3   9   21.07    0.52
  -2  -3   9   21.77    0.62
   1   3  -9   13.35    0.34
   1   3  -9   12.80    0.41
  -1  -3   9   13.53    0.37
   0   3  -9   50.91    1.01
   0   3  -9   49.89    1.13
   0  -3   9   49.75    1.04
  -1   3  -9    7.51    0.30
  -1   3  -9    7.39    0.23
   1  -3   9    7.46    0.25
  -2   3  -9    6.31    0.27
  -2   3  -9    5.62    0.28
   2  -3   9    5.73    0.23
  -3   3  -9    4.98    0.27
  -3   3  -9    5.34    0.26
   3  -3   9    5.13    0.23
  -4   3  -9    8.04    0.37
  -4   3  -9    8.41    0.35
   4  -3   9    8.56    0.32
  -5   3  -9    3.15    0.23
  -5   3  -9    3.25    0.25
   5  -3   9    3.29    0.23
  -6   3  -9   21.14    0.71
  -6   3  -9   22.01    0.67
   6  -3   9   21.44    0.65
  -8  -2   9    0.82    0.16
  -7  -2   9    0.29    0.12
  -7  -2   9    0.18    0.10
  -6  -2   9    7.62    0.34
  -6  -2   9    6.61    0.31
   5   2  -9   13.61    0.42
  -5  -2   9   12.74    0.42
  -5  -2   9   14.57    0.47
   4   2  -9    1.35    0.13
   4   2  -9    1.19    0.15
  -4  -2   9    1.23    0.15
  -4  -2   9    1.23    0.13
   3   2  -9    1.38    0.12
   3   2  -9    1.71    0.16
  -3  -2   9    1.69    0.13
  -3  -2   9    1.46    0.15
   2   2  -9    4.49    0.18
   2   2  -9    4.24    0.22
  -2  -2   9    4.28    0.19
   1   2  -9    0.04    0.06
   1   2  -9    0.05    0.04
  -1  -2   9    0.09    0.05
   0   2  -9    2.02    0.16
   0   2  -9    2.07    0.13
   0  -2   9    2.17    0.14
  -1   2  -9    0.25    0.08
  -1   2  -9    0.17    0.05
   1  -2   9    0.14    0.06
  -2   2  -9    0.45    0.09
  -2   2  -9    0.45    0.08
  -2   2  -9    0.28    0.08
   2  -2   9    0.39    0.08
  -3   2  -9    7.71    0.29
  -3   2  -9    8.16    0.33
  -3   2  -9    8.70    0.35
   3  -2   9    8.18    0.31
  -4   2  -9    0.28    0.10
  -4   2  -9    0.19    0.09
  -4   2  -9    0.17    0.07
   4  -2   9    0.27    0.09
  -5   2  -9    2.12    0.21
  -5   2  -9    2.40    0.21
   5  -2   9    2.25    0.20
  -6   2  -9    0.04    0.09
  -6   2  -9    0.00    0.08
   6  -2   9   -0.07    0.08
  -8  -1   9    1.77    0.22
   7   1  -9    2.81    0.22
  -7  -1   9    2.86    0.22
  -7  -1   9    2.47    0.21
   6   1  -9    1.25    0.15
  -6  -1   9    1.25    0.16
  -6  -1   9    1.45    0.16
   5   1  -9   10.06    0.36
   5   1  -9    9.96    0.34
  -5  -1   9   10.25    0.36
  -5  -1   9   10.05    0.36
   4   1  -9    0.62    0.09
   4   1  -9    0.58    0.10
  -4  -1   9    0.50    0.09
  -4  -1   9    0.65    0.12
   3   1  -9    0.02    0.05
   3   1  -9   -0.07    0.05
  -3  -1   9    0.01    0.05
   2   1  -9   -0.02    0.05
   2   1  -9    0.01    0.05
  -2  -1   9    0.15    0.06
   1   1  -9    6.24    0.25
   1   1  -9    6.18    0.18
   1   1  -9    5.72    0.22
  -1  -1   9    6.04    0.23
   0   1  -9    1.90    0.15
   0   1  -9    1.67    0.12
   0  -1   9    1.36    0.12
   0  -1   9    1.68    0.11
  -1   1  -9    8.97    0.29
  -1   1  -9    8.98    0.33
  -1   1  -9    9.53    0.34
   1  -1   9    8.68    0.29
   1  -1   9    8.98    0.31
  -2   1  -9    1.10    0.14
  -2   1  -9    0.99    0.14
  -2   1  -9    1.03    0.12
   2  -1   9    1.03    0.13
   2  -1   9    1.08    0.12
  -3   1  -9    0.58    0.10
  -3   1  -9    0.54    0.11
  -3   1  -9    0.62    0.11
   3  -1   9    0.49    0.10
   3  -1   9    0.61    0.11
  -4   1  -9    2.62    0.21
  -4   1  -9    2.75    0.21
  -4   1  -9    2.82    0.20
   4  -1   9    2.83    0.22
   4  -1   9    2.65    0.20
  -5   1  -9    3.30    0.25
  -5   1  -9    2.74    0.21
  -5   1  -9    2.43    0.22
   5  -1   9    2.64    0.23
   5  -1   9    2.30    0.22
  -6   1  -9    2.87    0.25
  -6   1  -9    2.96    0.26
   6  -1   9    3.03    0.26
   9   0  -9    2.71    0.26
  -9   0   9    2.77    0.26
   8   0  -9    0.82    0.15
  -8   0   9    1.23    0.19
   7   0  -9    4.20    0.25
   7   0  -9    4.29    0.25
  -7   0   9    4.54    0.27
   6   0  -9    1.58    0.16
   6   0  -9    1.61    0.16
  -6   0   9    1.43    0.14
  -6   0   9    1.60    0.17
   5   0  -9    1.77    0.16
   5   0  -9    1.76    0.15
  -5   0   9    1.92    0.14
  -5   0   9    1.75    0.16
   4   0  -9    5.95    0.25
   4   0  -9    6.07    0.25
  -4   0   9    5.90    0.25
   3   0  -9    8.25    0.29
   3   0  -9    7.76    0.28
  -3   0   9    7.60    0.28
   2   0  -9    3.85    0.19
   2   0  -9    4.09    0.19
  -2   0   9    3.86    0.19
  -2   0   9    4.06    0.13
   1   0  -9    8.21    0.28
   1   0  -9    8.21    0.30
  -1   0   9    8.93    0.24
  -1   0   9    8.67    0.29
   0   0  -9   11.55    0.38
   0   0  -9   11.66    0.35
   0   0   9   12.20    0.34
   0   0   9   11.43    0.36
  -1   0  -9    8.30    0.30
  -1   0  -9    8.63    0.31
  -1   0  -9    8.50    0.32
   1   0   9    8.19    0.30
   1   0   9    8.68    0.29
  -2   0  -9   23.90    0.65
  -2   0  -9   24.65    0.66
  -2   0  -9   23.56    0.61
   2   0   9   23.83    0.63
   2   0   9   23.23    0.62
  -3   0  -9    8.75    0.33
  -3   0  -9    8.74    0.34
  -3   0  -9    8.77    0.36
   3   0   9    8.04    0.33
   3   0   9    8.14    0.34
  -4   0  -9    5.58    0.31
  -4   0  -9    5.73    0.29
  -4   0  -9    6.13    0.30
   4   0   9    6.34    0.31
   4   0   9    5.86    0.31
  -5   0  -9    0.43    0.12
  -5   0  -9    0.33    0.12
  -5   0  -9    0.37    0.11
   5   0   9    0.34    0.12
   5   0   9    0.27    0.11
  -6   0  -9   11.24    0.49
  -6   0  -9   11.60    0.48
   6   0   9   12.40    0.51
   6   0   9   11.56    0.49
   9  -1  -9    2.09    0.24
  -9   1   9    3.07    0.27
   8  -1  -9    3.03    0.24
  -8   1   9    2.87    0.24
   7  -1  -9    8.55    0.32
   7  -1  -9    8.73    0.36
  -7   1   9    8.29    0.36
   6  -1  -9    0.33    0.08
   6  -1  -9    0.24    0.09
  -6   1   9    0.20    0.06
  -6   1   9    0.30    0.09
   5  -1  -9    5.32    0.23
   5  -1  -9    5.22    0.25
  -5   1   9    4.87    0.24
   4  -1  -9    0.18    0.07
   4  -1  -9   -0.01    0.06
  -4   1   9    0.20    0.04
  -4   1   9    0.10    0.06
   3  -1  -9    8.88    0.31
   3  -1  -9    8.44    0.29
  -3   1   9    9.11    0.31
  -3   1   9    8.73    0.23
   2  -1  -9   16.71    0.46
   2  -1  -9   16.33    0.45
  -2   1   9   16.32    0.46
  -2   1   9   16.48    0.39
   1  -1  -9  100.92    2.11
   1  -1  -9  102.24    2.04
  -1   1   9  109.18    2.05
  -1   1   9  100.93    2.05
   0  -1  -9   16.72    0.46
   0  -1  -9   17.17    0.49
   0   1   9   16.50    0.44
   0   1   9   15.59    0.46
  -1  -1  -9    0.03    0.06
  -1  -1  -9    0.17    0.07
  -1  -1  -9    0.02    0.05
   1   1   9    0.05    0.06
   1   1   9    0.12    0.07
  -2  -1  -9    7.35    0.33
  -2  -1  -9    7.52    0.30
  -2  -1  -9    7.71    0.31
   2   1   9    8.21    0.32
   2   1   9    7.98    0.32
  -3  -1  -9   32.71    0.87
  -3  -1  -9   31.74    0.82
  -3  -1  -9   32.44    0.83
   3   1   9   33.19    0.85
   3   1   9   32.36    0.84
  -4  -1  -9    0.01    0.07
  -4  -1  -9    0.00    0.08
  -4  -1  -9   -0.05    0.06
   4   1   9   -0.02    0.08
   4   1   9    0.12    0.09
  -5  -1  -9    0.67    0.15
  -5  -1  -9    0.65    0.13
  -5  -1  -9    1.01    0.16
   5   1   9    0.48    0.14
   5   1   9    0.63    0.14
   9  -2  -9    0.29    0.13
  -9   2   9    0.22    0.11
  -9   2   9    0.16    0.12
   8  -2  -9    6.23    0.32
  -8   2   9    5.90    0.32
   7  -2  -9    4.09    0.25
   7  -2  -9    4.35    0.21
  -7   2   9    4.28    0.26
   6  -2  -9    2.50    0.16
   6  -2  -9    2.61    0.20
  -6   2   9    2.48    0.19
   5  -2  -9   -0.02    0.05
   5  -2  -9    0.14    0.07
  -5   2   9   -0.03    0.04
  -5   2   9   -0.05    0.05
   4  -2  -9    0.79    0.13
   4  -2  -9    0.85    0.12
  -4   2   9    0.57    0.09
  -4   2   9    0.66    0.08
   3  -2  -9    6.90    0.28
   3  -2  -9    7.02    0.26
  -3   2   9    7.41    0.29
  -3   2   9    7.27    0.23
   2  -2  -9    5.22    0.23
   2  -2  -9    5.11    0.24
  -2   2   9    5.10    0.24
  -2   2   9    5.32    0.20
   1  -2  -9   91.88    1.84
   1  -2  -9   90.97    1.89
  -1   2   9   89.71    1.84
  -1   2   9   92.30    1.85
   0  -2  -9    1.48    0.16
   0  -2  -9    1.22    0.12
   0  -2  -9    1.11    0.14
   0   2   9    1.10    0.14
   0   2   9    1.37    0.14
  -1  -2  -9    0.74    0.10
  -1  -2  -9    0.56    0.10
  -1  -2  -9    0.59    0.11
   1   2   9    0.71    0.11
   1   2   9    0.73    0.12
  -2  -2  -9   32.46    0.81
  -2  -2  -9   33.90    0.87
  -2  -2  -9   32.31    0.82
   2   2   9   32.84    0.84
   2   2   9   32.76    0.83
  -3  -2  -9    2.35    0.21
  -3  -2  -9    2.00    0.17
  -3  -2  -9    2.56    0.23
   3   2   9    2.20    0.21
   3   2   9    2.36    0.21
  -4  -2  -9    5.98    0.33
  -4  -2  -9    5.91    0.34
   4   2   9    5.99    0.34
   4   2   9    6.51    0.34
  -5  -2  -9    0.20    0.11
  -5  -2  -9    0.05    0.10
   5   2   9   -0.01    0.10
   5   2   9   -0.10    0.10
   9  -3  -9    6.54    0.35
  -9   3   9    5.18    0.32
  -9   3   9    5.64    0.35
   8  -3  -9    0.67    0.14
  -8   3   9    0.46    0.12
  -8   3   9    0.44    0.14
   7  -3  -9   10.65    0.40
  -7   3   9   10.23    0.40
   6  -3  -9   16.64    0.44
   6  -3  -9   17.14    0.52
  -6   3   9   16.78    0.51
  -6   3   9   17.73    0.45
   5  -3  -9    2.37    0.15
   5  -3  -9    2.05    0.18
  -5   3   9    2.33    0.18
  -5   3   9    2.14    0.14
   4  -3  -9    7.95    0.31
   4  -3  -9    7.79    0.27
  -4   3   9    7.32    0.30
  -4   3   9    7.65    0.25
   3  -3  -9    3.09    0.17
   3  -3  -9    2.92    0.19
  -3   3   9    3.42    0.17
  -3   3   9    3.32    0.20
   2  -3  -9   11.98    0.38
   2  -3  -9   12.07    0.39
  -2   3   9   12.98    0.40
  -2   3   9   12.97    0.37
   1  -3  -9   20.68    0.58
   1  -3  -9   20.74    0.57
   1  -3  -9   22.26    0.53
  -1   3   9   20.52    0.55
  -1   3   9   21.89    0.58
   0  -3  -9    0.91    0.14
   0  -3  -9    0.86    0.10
   0  -3  -9    0.96    0.15
   0   3   9    0.87    0.13
   0   3   9    0.78    0.13
  -1  -3  -9    2.07    0.19
  -1  -3  -9    2.29    0.20
   1   3   9    1.75    0.18
   1   3   9    1.76    0.17
  -2  -3  -9    0.82    0.13
  -2  -3  -9    0.59    0.13
   2   3   9    0.61    0.12
   2   3   9    1.22    0.17
  -3  -3  -9   13.02    0.49
  -3  -3  -9   13.72    0.52
   3   3   9   13.93    0.50
   3   3   9   13.48    0.51
  -4  -3  -9    8.95    0.41
  -4  -3  -9    7.87    0.40
   4   3   9    7.77    0.41
   4   3   9    7.72    0.39
  10  -4  -9    1.09    0.19
 -10   4   9    1.43    0.23
   9  -4  -9    3.55    0.27
  -9   4   9    3.67    0.30
  -9   4   9    3.40    0.28
   8  -4  -9    2.02    0.22
  -8   4   9    2.23    0.23
  -8   4   9    1.87    0.21
   7  -4  -9    1.55    0.19
  -7   4   9    1.30    0.17
  -7   4   9    1.35    0.15
   6  -4  -9    1.00    0.15
  -6   4   9    1.05    0.13
  -6   4   9    0.71    0.12
   5  -4  -9   10.56    0.38
   5  -4  -9   10.77    0.32
  -5   4   9   10.79    0.38
  -5   4   9   11.27    0.35
   4  -4  -9    1.47    0.16
   4  -4  -9    1.16    0.12
  -4   4   9    1.27    0.15
  -4   4   9    1.32    0.13
   3  -4  -9    0.68    0.11
   3  -4  -9    0.50    0.10
  -3   4   9    0.63    0.10
  -3   4   9    0.56    0.10
   2  -4  -9   -0.02    0.06
   2  -4  -9    0.13    0.07
  -2   4   9    0.15    0.07
  -2   4   9    0.13    0.07
   1  -4  -9    1.19    0.14
   1  -4  -9    1.41    0.15
  -1   4   9    1.32    0.15
  -1   4   9    1.18    0.14
   0  -4  -9    0.32    0.09
   0  -4  -9    0.29    0.09
   0   4   9    0.27    0.10
   0   4   9    0.40    0.10
  -1  -4  -9    3.89    0.26
  -1  -4  -9    4.11    0.25
   1   4   9    3.87    0.25
   1   4   9    4.26    0.26
  -2  -4  -9    0.01    0.08
  -2  -4  -9    0.00    0.08
   2   4   9    0.13    0.09
   2   4   9    0.20    0.10
  -3  -4  -9    2.54    0.24
  -3  -4  -9    3.28    0.27
   3   4   9    2.62    0.25
   3   4   9    3.20    0.27
   9  -5  -9    0.38    0.14
  -9   5   9    0.44    0.12
  -9   5   9    0.23    0.12
   8  -5  -9    0.38    0.12
  -8   5   9    0.68    0.13
  -8   5   9    0.48    0.12
  -8   5   9    0.34    0.12
   7  -5  -9    3.57    0.25
  -7   5   9    3.73    0.24
  -7   5   9    3.27    0.21
   6  -5  -9    4.23    0.25
  -6   5   9    4.50    0.23
  -6   5   9    4.31    0.25
   5  -5  -9    2.48    0.20
  -5   5   9    2.25    0.19
  -5   5   9    2.47    0.18
   4  -5  -9   11.74    0.36
   4  -5  -9   12.81    0.43
  -4   5   9   12.96    0.41
  -4   5   9   12.27    0.41
   3  -5  -9    0.15    0.07
   3  -5  -9    0.11    0.08
  -3   5   9    0.27    0.09
  -3   5   9    0.12    0.07
   2  -5  -9    1.51    0.15
   2  -5  -9    1.86    0.17
  -2   5   9    1.78    0.17
  -2   5   9    1.72    0.17
   1  -5  -9   17.75    0.54
   1  -5  -9   17.08    0.53
  -1   5   9   16.95    0.53
  -1   5   9   16.93    0.52
   0  -5  -9    0.26    0.10
   0  -5  -9    0.09    0.08
   0   5   9    0.25    0.10
   0   5   9    0.25    0.10
  -1  -5  -9   -0.08    0.07
  -1  -5  -9   -0.04    0.07
   1   5   9    0.04    0.08
   1   5   9    0.07    0.08
  -2  -5  -9    1.31    0.21
  -2  -5  -9    1.67    0.21
   2   5   9    1.48    0.20
   2   5   9    1.38    0.21
   9  -6  -9    1.16    0.19
  -9   6   9    0.99    0.17
   8  -6  -9    1.50    0.21
  -8   6   9    1.51    0.19
  -8   6   9    1.35    0.19
   7  -6  -9    0.29    0.11
  -7   6   9    0.43    0.11
  -7   6   9    0.31    0.11
   6  -6  -9    9.79    0.40
  -6   6   9    9.83    0.37
  -6   6   9    9.28    0.37
   5  -6  -9    0.58    0.13
  -5   6   9    0.66    0.12
  -5   6   9    0.78    0.12
   4  -6  -9   30.69    0.78
   4  -6  -9   28.50    0.70
  -4   6   9   30.32    0.77
  -4   6   9   29.08    0.76
   3  -6  -9    3.65    0.24
   3  -6  -9    3.26    0.20
  -3   6   9    3.23    0.23
  -3   6   9    3.51    0.22
   2  -6  -9    2.18    0.20
   2  -6  -9    2.33    0.18
  -2   6   9    2.32    0.21
  -2   6   9    2.46    0.20
   1  -6  -9   12.89    0.45
   1  -6  -9   12.50    0.46
  -1   6   9   12.79    0.46
  -1   6   9   12.13    0.44
   0  -6  -9    6.71    0.34
   0  -6  -9    6.84    0.34
   0   6   9    6.31    0.33
   0   6   9    6.71    0.35
  -1  -6  -9    3.99    0.29
  -1  -6  -9    4.25    0.29
   1   6   9    3.56    0.27
   1   6   9    4.34    0.30
   9  -7  -9    3.30    0.28
   8  -7  -9    0.59    0.14
  -8   7   9    0.99    0.16
   7  -7  -9    0.73    0.14
  -7   7   9    0.81    0.14
   6  -7  -9    0.08    0.09
  -6   7   9    0.20    0.10
   5  -7  -9    0.14    0.09
  -5   7   9    0.06    0.09
  -5   7   9    0.19    0.09
   4  -7  -9   11.93    0.44
  -4   7   9   12.14    0.45
  -4   7   9   12.47    0.46
   3  -7  -9   -0.07    0.06
   3  -7  -9    0.04    0.08
  -3   7   9    0.12    0.09
   2  -7  -9    4.34    0.25
   2  -7  -9    4.28    0.27
  -2   7   9    4.23    0.28
   1  -7  -9    1.82    0.20
   1  -7  -9    2.14    0.21
  -1   7   9    1.88    0.22
   0  -7  -9    2.46    0.23
   0  -7  -9    2.12    0.23
   0   7   9    2.72    0.26
   8  -8  -9    4.14    0.30
  -8   8   9    4.13    0.30
   7  -8  -9    1.25    0.20
  -7   8   9    1.27    0.21
   6  -8  -9   -0.08    0.08
  -6   8   9    0.05    0.09
   5  -8  -9    2.20    0.22
  -5   8   9    1.64    0.21
   4  -8  -9    4.09    0.27
  -4   8   9    3.89    0.28
   3  -8  -9    3.78    0.26
  -3   8   9    4.02    0.29
   2  -8  -9    3.25    0.26
  -2   8   9    3.68    0.29
   1  -8  -9   11.90    0.48
  -1   8   9   11.76    0.50
   6  -9  -9   13.05    0.50
  -6   9   9   14.00    0.54
   5  -9  -9    0.84    0.15
  -5   9   9    0.90    0.17
   4  -9  -9    5.54    0.32
  -4   9   9    5.41    0.35
   0   9 -10    7.12    0.38
  -1   9 -10   -0.03    0.08
  -2   9 -10    0.13    0.09
  -2   9 -10    0.04    0.08
  -3   9 -10    8.28    0.42
  -3   9 -10    7.77    0.37
   2   8 -10    2.04    0.24
  -2  -8  10    1.94    0.27
   1   8 -10    2.86    0.26
  -1  -8  10    3.54    0.31
   0   8 -10   -0.07    0.08
  -1   8 -10   16.59    0.56
  -2   8 -10    0.11    0.09
  -2   8 -10    0.00    0.08
  -3   8 -10    6.56    0.36
  -3   8 -10    6.29    0.33
  -4   8 -10    0.30    0.13
  -4   8 -10    0.22    0.10
  -5   8 -10    6.64    0.34
  -5   8 -10    6.87    0.39
  -4  -7  10   -0.09    0.07
   3   7 -10    0.48    0.14
  -3  -7  10    0.48    0.09
  -3  -7  10    0.66    0.17
   2   7 -10    4.44    0.30
  -2  -7  10    4.38    0.20
  -2  -7  10    4.84    0.34
   1   7 -10   -0.01    0.08
  -1  -7  10   -0.06    0.04
  -1  -7  10   -0.03    0.09
   0   7 -10    0.17    0.10
  -1   7 -10    0.45    0.11
  -2   7 -10    5.41    0.30
  -2   7 -10    6.05    0.33
  -3   7 -10    5.26    0.32
  -3   7 -10    4.99    0.28
   3  -7  10    4.64    0.18
  -4   7 -10    0.48    0.12
  -4   7 -10    0.80    0.16
   4  -7  10    0.82    0.11
  -5   7 -10   14.92    0.59
  -5   7 -10   14.40    0.52
   5  -7  10   15.71    0.44
  -5  -6  10    2.46    0.29
  -5  -6  10    2.00    0.20
  -4  -6  10    0.97    0.15
  -4  -6  10    0.86    0.18
   3   6 -10    8.80    0.41
  -3  -6  10    9.03    0.44
  -3  -6  10    9.06    0.32
   2   6 -10   12.17    0.47
  -2  -6  10   12.02    0.50
  -2  -6  10   11.69    0.35
   1   6 -10    3.00    0.24
  -1  -6  10    3.32    0.16
  -1  -6  10    3.50    0.28
   0   6 -10    7.48    0.34
   0  -6  10    7.57    0.24
  -1   6 -10    5.77    0.30
   1  -6  10    5.92    0.20
  -2   6 -10    0.06    0.08
  -2   6 -10   -0.04    0.07
   2  -6  10    0.07    0.05
  -3   6 -10    2.68    0.24
  -3   6 -10    3.20    0.23
   3  -6  10    3.02    0.16
  -4   6 -10    0.05    0.08
  -4   6 -10    0.18    0.11
   4  -6  10    0.16    0.07
  -5   6 -10   19.08    0.60
  -5   6 -10   18.73    0.67
   5  -6  10   19.00    0.53
  -6   6 -10    1.78    0.24
  -6   6 -10    1.51    0.20
   6  -6  10    1.71    0.18
  -6  -5  10    0.11    0.09
  -6  -5  10    0.06    0.12
  -5  -5  10    5.02    0.34
  -5  -5  10    4.61    0.26
  -4  -5  10    5.41    0.26
  -4  -5  10    5.84    0.35
   3   5 -10   47.32    1.16
  -3  -5  10   48.88    1.26
  -3  -5  10   46.27    1.03
   2   5 -10    9.51    0.39
  -2  -5  10   10.00    0.43
  -2  -5  10    9.24    0.30
   1   5 -10    0.82    0.13
  -1  -5  10    0.80    0.11
   0   5 -10   19.26    0.58
   0  -5  10   19.84    0.48
  -1   5 -10    5.48    0.28
   1  -5  10    5.45    0.21
  -2   5 -10   14.06    0.47
  -2   5 -10   13.67    0.50
   2  -5  10   14.18    0.39
  -3   5 -10    2.39    0.22
  -3   5 -10    2.29    0.20
   3  -5  10    2.40    0.16
  -4   5 -10   15.54    0.52
  -4   5 -10   14.66    0.55
   4  -5  10   15.14    0.45
  -5   5 -10    6.81    0.37
  -5   5 -10    6.55    0.33
   5  -5  10    7.01    0.30
  -6   5 -10    3.08    0.29
  -6   5 -10    2.91    0.24
   6  -5  10    3.06    0.23
  -6  -4  10    1.82    0.20
  -6  -4  10    1.94    0.26
  -5  -4  10    0.36    0.13
  -5  -4  10    0.13    0.08
   4   4 -10    1.68    0.20
  -4  -4  10    2.08    0.22
  -4  -4  10    1.86    0.17
   3   4 -10    1.42    0.18
  -3  -4  10    1.12    0.13
  -3  -4  10    1.00    0.17
   2   4 -10    0.07    0.08
  -2  -4  10    0.07    0.09
  -2  -4  10   -0.04    0.04
   1   4 -10    0.91    0.15
  -1  -4  10    0.76    0.10
   0   4 -10    0.07    0.07
   0  -4  10    0.10    0.05
  -1   4 -10    0.46    0.10
   1  -4  10    0.32    0.07
  -2   4 -10    4.63    0.26
  -2   4 -10    5.04    0.28
   2  -4  10    4.40    0.21
  -3   4 -10    2.54    0.22
  -3   4 -10    2.15    0.20
   3  -4  10    2.60    0.17
  -4   4 -10   -0.03    0.08
  -4   4 -10   -0.02    0.07
   4  -4  10   -0.01    0.06
  -5   4 -10    0.92    0.16
  -5   4 -10    1.14    0.18
   5  -4  10    1.19    0.16
  -6   4 -10    0.03    0.10
  -6   4 -10    0.07    0.09
   6  -4  10    0.04    0.08
  -7  -3  10    0.00    0.09
  -7  -3  10    0.03    0.10
  -6  -3  10    8.47    0.36
  -6  -3  10    7.68    0.38
   5   3 -10    0.23    0.10
  -5  -3  10    0.16    0.10
  -5  -3  10    0.18    0.08
   4   3 -10   17.28    0.55
  -4  -3  10   18.30    0.50
  -4  -3  10   17.35    0.57
   3   3 -10    2.47    0.20
  -3  -3  10    2.31    0.16
  -3  -3  10    2.60    0.21
   2   3 -10    7.66    0.32
  -2  -3  10    7.54    0.27
   1   3 -10    0.32    0.09
  -1  -3  10    0.21    0.07
   0   3 -10   22.05    0.61
   0  -3  10   21.79    0.54
  -1   3 -10    0.48    0.11
   1  -3  10    0.42    0.08
  -2   3 -10    1.58    0.17
  -2   3 -10    1.64    0.17
   2  -3  10    1.56    0.14
  -3   3 -10   10.89    0.43
  -3   3 -10   10.68    0.41
   3  -3  10   11.39    0.38
  -4   3 -10    8.23    0.36
  -4   3 -10    7.56    0.37
   4  -3  10    7.93    0.32
  -5   3 -10    3.92    0.29
  -5   3 -10    3.37    0.26
   5  -3  10    3.67    0.24
  -6   3 -10    7.18    0.37
  -6   3 -10    7.40    0.41
   6  -3  10    7.12    0.36
  -8  -2  10    4.91    0.32
  -7  -2  10    3.53    0.27
  -7  -2  10    3.93    0.27
   6   2 -10    0.11    0.09
  -6  -2  10    0.20    0.09
  -6  -2  10    0.04    0.09
   5   2 -10    0.07    0.08
  -5  -2  10   -0.05    0.07
  -5  -2  10   -0.01    0.07
   4   2 -10    4.09    0.21
   4   2 -10    4.76    0.25
  -4  -2  10    4.44    0.22
  -4  -2  10    4.83    0.26
   3   2 -10    9.95    0.36
   3   2 -10    9.26    0.31
  -3  -2  10    9.57    0.32
   2   2 -10   27.40    0.63
   2   2 -10   26.33    0.70
  -2  -2  10   27.47    0.65
   1   2 -10   10.49    0.31
   1   2 -10    9.78    0.36
  -1  -2  10   10.75    0.33
   0   2 -10   15.25    0.48
   0   2 -10   15.68    0.41
   0  -2  10   15.41    0.43
  -1   2 -10   14.46    0.40
  -1   2 -10   14.60    0.46
   1  -2  10   13.54    0.41
  -2   2 -10   17.63    0.54
  -2   2 -10   16.85    0.47
  -2   2 -10   18.10    0.56
   2  -2  10   17.91    0.50
  -3   2 -10    0.70    0.13
  -3   2 -10    0.50    0.11
   3  -2  10    0.53    0.10
  -4   2 -10    8.29    0.38
  -4   2 -10    9.00    0.38
   4  -2  10    9.11    0.36
  -5   2 -10    0.30    0.11
  -5   2 -10    0.26    0.11
   5  -2  10    0.16    0.10
  -6   2 -10    5.02    0.33
  -6   2 -10    4.88    0.32
   6  -2  10    4.77    0.31
   8   1 -10    0.93    0.16
  -8  -1  10    0.64    0.14
   7   1 -10    0.22    0.10
  -7  -1  10    0.03    0.09
   6   1 -10    0.83    0.13
   6   1 -10    0.62    0.12
  -6  -1  10    0.62    0.12
  -6  -1  10    0.80    0.15
   5   1 -10   19.82    0.54
   5   1 -10   19.42    0.56
  -5  -1  10   20.10    0.57
  -5  -1  10   18.34    0.55
   4   1 -10    0.46    0.10
   4   1 -10    0.46    0.09
  -4  -1  10    0.44    0.09
   3   1 -10    0.73    0.11
   3   1 -10    1.20    0.13
  -3  -1  10    0.96    0.13
   2   1 -10    5.67    0.23
   2   1 -10    5.06    0.24
  -2  -1  10    5.36    0.23
   1   1 -10    2.12    0.18
   1   1 -10    2.47    0.15
  -1  -1  10    2.15    0.16
   0   1 -10    0.32    0.07
   0   1 -10    0.24    0.07
   0  -1  10    0.13    0.06
   0  -1  10    0.32    0.06
  -1   1 -10    0.09    0.06
  -1   1 -10    0.02    0.06
  -1   1 -10    0.02    0.06
   1  -1  10    0.11    0.06
   1  -1  10    0.09    0.06
  -2   1 -10    2.29    0.17
  -2   1 -10    2.19    0.19
  -2   1 -10    2.32    0.20
   2  -1  10    2.24    0.18
   2  -1  10    2.32    0.17
  -3   1 -10   -0.01    0.06
  -3   1 -10    0.00    0.06
  -3   1 -10    0.07    0.08
   3  -1  10    0.02    0.07
   3  -1  10   -0.01    0.06
  -4   1 -10    0.05    0.08
  -4   1 -10    0.13    0.08
   4  -1  10   -0.02    0.08
   4  -1  10    0.03    0.08
  -5   1 -10    2.29    0.23
  -5   1 -10    1.72    0.21
   5  -1  10    1.28    0.20
   5  -1  10    1.40    0.20
  -9   0  10    0.48    0.15
   8   0 -10    1.08    0.18
   8   0 -10    1.02    0.16
  -8   0  10    1.31    0.20
   7   0 -10    0.45    0.11
   7   0 -10    0.41    0.11
  -7   0  10    0.39    0.11
   6   0 -10    0.36    0.10
   6   0 -10    0.29    0.09
  -6   0  10    0.61    0.10
  -6   0  10    0.25    0.09
   5   0 -10    0.93    0.14
   5   0 -10    0.85    0.14
  -5   0  10    0.96    0.14
   4   0 -10    3.97    0.21
   4   0 -10    3.61    0.21
  -4   0  10    4.28    0.22
   3   0 -10    0.96    0.13
   3   0 -10    0.57    0.10
  -3   0  10    0.56    0.10
   2   0 -10   59.43    1.21
   2   0 -10   56.34    1.26
  -2   0  10   56.29    1.13
  -2   0  10   56.44    1.22
   1   0 -10    0.65    0.11
   1   0 -10    0.74    0.11
  -1   0  10    0.70    0.09
  -1   0  10    0.84    0.12
   0   0 -10    7.76    0.29
   0   0 -10    7.16    0.31
   0   0  10    7.92    0.26
   0   0  10    7.27    0.29
  -1   0 -10   13.74    0.42
  -1   0 -10   13.87    0.46
  -1   0 -10   14.05    0.45
   1   0  10   14.14    0.44
   1   0  10   13.91    0.42
  -2   0 -10    4.92    0.25
  -2   0 -10    5.30    0.26
  -2   0 -10    5.09    0.27
   2   0  10    5.26    0.26
   2   0  10    4.93    0.25
  -3   0 -10    4.63    0.28
  -3   0 -10    4.95    0.26
  -3   0 -10    5.00    0.27
   3   0  10    4.94    0.28
   3   0  10    5.00    0.27
  -4   0 -10    5.05    0.29
  -4   0 -10    5.00    0.31
  -4   0 -10    5.24    0.29
   4   0  10    5.50    0.31
   4   0  10    5.32    0.30
  -5   0 -10   18.66    0.61
  -5   0 -10   17.69    0.62
   5   0  10   17.18    0.61
   5   0  10   16.88    0.60
   9  -1 -10    0.42    0.14
  -9   1  10    0.37    0.13
   8  -1 -10    0.07    0.10
  -8   1  10    0.08    0.10
   7  -1 -10   12.11    0.40
   7  -1 -10   12.05    0.44
  -7   1  10   11.93    0.44
   6  -1 -10    1.70    0.16
   6  -1 -10    1.31    0.17
  -6   1  10    1.49    0.18
   5  -1 -10   18.97    0.52
   5  -1 -10   19.41    0.55
  -5   1  10   19.21    0.55
   4  -1 -10    9.85    0.35
   4  -1 -10    9.15    0.32
  -4   1  10    9.77    0.35
   3  -1 -10   50.31    1.11
   3  -1 -10   48.90    1.12
  -3   1  10   52.74    1.12
  -3   1  10   50.28    1.01
   2  -1 -10    0.88    0.14
   2  -1 -10    0.88    0.13
  -2   1  10    0.83    0.09
  -2   1  10    0.83    0.12
   1  -1 -10    1.96    0.17
   1  -1 -10    1.63    0.15
  -1   1  10    1.86    0.16
  -1   1  10    1.96    0.13
   0  -1 -10   14.58    0.44
   0  -1 -10   15.34    0.45
   0  -1 -10   14.58    0.47
   0   1  10   14.89    0.46
   0   1  10   14.71    0.42
  -1  -1 -10   12.23    0.41
  -1  -1 -10   13.03    0.41
  -1  -1 -10   12.72    0.44
   1   1  10   12.33    0.40
   1   1  10   11.92    0.42
  -2  -1 -10    4.18    0.26
  -2  -1 -10    4.28    0.24
  -2  -1 -10    4.05    0.23
   2   1  10    4.53    0.25
   2   1  10    3.79    0.24
  -3  -1 -10    6.86    0.31
  -3  -1 -10    6.61    0.32
  -3  -1 -10    6.63    0.34
   3   1  10    6.87    0.33
   3   1  10    6.59    0.33
  -4  -1 -10    5.51    0.33
  -4  -1 -10    5.77    0.31
  -4  -1 -10    5.56    0.30
   4   1  10    4.79    0.31
   4   1  10    5.05    0.31
  -5  -1 -10    0.82    0.16
  -5  -1 -10    1.10    0.18
   5   1  10    0.70    0.16
   5   1  10    0.64    0.16
   9  -2 -10    0.06    0.10
  -9   2  10    0.06    0.09
   8  -2 -10    6.51    0.34
  -8   2  10    5.92    0.33
   7  -2 -10    0.68    0.14
  -7   2  10    0.76    0.14
   6  -2 -10    1.48    0.17
   6  -2 -10    1.69    0.15
  -6   2  10    1.47    0.17
   5  -2 -10    0.24    0.09
   5  -2 -10    0.28    0.08
  -5   2  10    0.39    0.10
   4  -2 -10    3.71    0.22
   4  -2 -10    4.06    0.21
  -4   2  10    3.90    0.22
  -4   2  10    4.01    0.16
   3  -2 -10    5.90    0.27
   3  -2 -10    6.01    0.26
  -3   2  10    6.14    0.21
  -3   2  10    6.14    0.27
   2  -2 -10    0.20    0.08
   2  -2 -10    0.35    0.09
  -2   2  10    0.22    0.06
  -2   2  10    0.16    0.07
   1  -2 -10    5.84    0.27
   1  -2 -10    5.96    0.27
  -1   2  10    5.52    0.23
  -1   2  10    5.80    0.27
   0  -2 -10    1.93    0.17
   0  -2 -10    1.88    0.15
   0  -2 -10    2.03    0.19
   0   2  10    1.86    0.17
   0   2  10    1.85    0.16
  -1  -2 -10    2.24    0.19
  -1  -2 -10    2.07    0.20
  -1  -2 -10    2.12    0.16
   1   2  10    2.20    0.18
   1   2  10    2.01    0.19
  -2  -2 -10    3.68    0.21
  -2  -2 -10    3.70    0.26
  -2  -2 -10    3.88    0.25
   2   2  10    4.49    0.27
   2   2  10    4.18    0.26
  -3  -2 -10    0.02    0.09
  -3  -2 -10    0.17    0.09
   3   2  10    0.09    0.09
   3   2  10    0.27    0.11
  -4  -2 -10    4.45    0.32
  -4  -2 -10    5.12    0.31
   4   2  10    5.04    0.32
   4   2  10    5.28    0.34
   9  -3 -10    0.95    0.18
  -9   3  10    0.91    0.17
   8  -3 -10    0.33    0.12
  -8   3  10    0.10    0.10
   7  -3 -10    5.95    0.31
  -7   3  10    6.76    0.32
   6  -3 -10    0.43    0.11
   6  -3 -10    0.73    0.12
  -6   3  10    0.56    0.12
   5  -3 -10    1.43    0.16
   5  -3 -10    1.46    0.14
  -5   3  10    1.32    0.12
  -5   3  10    1.70    0.17
   4  -3 -10    1.16    0.15
   4  -3 -10    1.29    0.14
  -4   3  10    1.14    0.11
  -4   3  10    1.07    0.15
   3  -3 -10   10.65    0.38
   3  -3 -10   10.69    0.36
  -3   3  10   10.35    0.37
  -3   3  10   10.95    0.33
   2  -3 -10    5.99    0.27
   2  -3 -10    5.78    0.27
  -2   3  10    5.59    0.27
  -2   3  10    5.70    0.24
   1  -3 -10    7.73    0.33
   1  -3 -10    8.48    0.34
   1  -3 -10    8.70    0.29
  -1   3  10    8.55    0.32
  -1   3  10    8.55    0.34
   0  -3 -10    0.14    0.08
   0  -3 -10    0.20    0.08
   0   3  10    0.10    0.08
   0   3  10    0.17    0.08
  -1  -3 -10   17.01    0.55
  -1  -3 -10   17.74    0.57
   1   3  10   17.50    0.54
   1   3  10   17.77    0.56
  -2  -3 -10    0.12    0.10
  -2  -3 -10    0.31    0.10
   2   3  10    0.06    0.09
   2   3  10    0.17    0.10
  -3  -3 -10   11.25    0.48
  -3  -3 -10   10.49    0.45
   3   3  10   11.25    0.46
   3   3  10    9.86    0.45
   9  -4 -10    8.57    0.42
  -9   4  10    7.72    0.39
   8  -4 -10    1.65    0.21
  -8   4  10    1.83    0.21
   7  -4 -10    3.63    0.26
  -7   4  10    3.35    0.24
   6  -4 -10    0.10    0.09
  -6   4  10    0.03    0.07
  -6   4  10    0.21    0.09
   5  -4 -10    9.75    0.39
   5  -4 -10   10.17    0.32
  -5   4  10   10.41    0.39
  -5   4  10   10.27    0.33
   4  -4 -10    4.03    0.24
   4  -4 -10    3.73    0.20
  -4   4  10    3.87    0.20
  -4   4  10    3.99    0.24
   3  -4 -10    9.90    0.38
   3  -4 -10   10.27    0.35
  -3   4  10    9.76    0.37
  -3   4  10   10.46    0.35
   2  -4 -10   10.78    0.40
   2  -4 -10   10.69    0.38
  -2   4  10   11.62    0.40
  -2   4  10   10.62    0.37
   1  -4 -10    0.90    0.14
   1  -4 -10    0.93    0.15
  -1   4  10    0.91    0.15
  -1   4  10    1.02    0.16
   0  -4 -10    6.50    0.32
   0  -4 -10    6.48    0.31
   0   4  10    6.35    0.31
   0   4  10    6.62    0.32
  -1  -4 -10   31.52    0.86
  -1  -4 -10   33.02    0.89
   1   4  10   32.60    0.87
   1   4  10   33.23    0.88
  -2  -4 -10   -0.01    0.08
  -2  -4 -10    0.19    0.11
   2   4  10    0.05    0.09
   2   4  10   -0.03    0.09
  -3  -4 -10    0.62    0.14
  -3  -4 -10    0.36    0.12
   3   4  10    0.43    0.16
   3   4  10    0.39    0.13
   9  -5 -10    1.37    0.20
  -9   5  10    1.45    0.21
   8  -5 -10    4.50    0.30
  -8   5  10    4.51    0.29
   7  -5 -10    0.53    0.13
  -7   5  10    0.72    0.13
   6  -5 -10    4.84    0.29
  -6   5  10    4.92    0.24
  -6   5  10    5.14    0.28
   5  -5 -10    3.95    0.26
  -5   5  10    3.72    0.24
  -5   5  10    4.03    0.22
   4  -5 -10    2.86    0.18
   4  -5 -10    2.96    0.22
  -4   5  10    3.18    0.22
  -4   5  10    3.07    0.20
   3  -5 -10    1.09    0.15
   3  -5 -10    1.09    0.14
  -3   5  10    1.08    0.16
  -3   5  10    0.97    0.14
   2  -5 -10    2.62    0.20
   2  -5 -10    2.88    0.22
  -2   5  10    2.49    0.20
  -2   5  10    2.83    0.21
   1  -5 -10    0.65    0.13
   1  -5 -10    0.69    0.12
  -1   5  10    0.78    0.14
  -1   5  10    0.74    0.13
   0  -5 -10    2.56    0.23
   0  -5 -10    2.68    0.23
   0   5  10    2.23    0.22
   0   5  10    2.58    0.23
  -1  -5 -10    1.68    0.21
  -1  -5 -10    2.12    0.23
   1   5  10    1.83    0.21
   1   5  10    2.11    0.23
  -2  -5 -10    0.46    0.14
  -2  -5 -10    0.67    0.16
   2   5  10    0.68    0.15
   2   5  10    0.47    0.15
   9  -6 -10    1.89    0.25
   8  -6 -10    1.40    0.21
  -8   6  10    1.24    0.20
   7  -6 -10    3.69    0.27
  -7   6  10    3.26    0.23
  -7   6  10    3.82    0.27
   6  -6 -10    1.16    0.17
  -6   6  10    1.12    0.18
  -6   6  10    1.28    0.17
   5  -6 -10    7.82    0.36
  -5   6  10    7.61    0.34
  -5   6  10    7.95    0.33
   4  -6 -10    3.25    0.24
  -4   6  10    2.96    0.22
  -4   6  10    3.06    0.22
   3  -6 -10    9.09    0.39
   3  -6 -10    8.93    0.34
  -3   6  10    9.78    0.39
  -3   6  10    8.96    0.38
   2  -6 -10    3.16    0.24
   2  -6 -10    3.16    0.22
  -2   6  10    2.77    0.22
  -2   6  10    3.05    0.23
   1  -6 -10    2.38    0.22
   1  -6 -10    2.42    0.23
  -1   6  10    2.67    0.23
  -1   6  10    2.52    0.23
   0  -6 -10    0.64    0.14
   0  -6 -10    0.66    0.14
   0   6  10    0.48    0.13
   0   6  10    0.61    0.14
  -1  -6 -10   10.59    0.46
  -1  -6 -10    9.48    0.44
   1   6  10    9.13    0.45
   8  -7 -10    0.71    0.16
   7  -7 -10    5.83    0.33
  -7   7  10    5.81    0.31
   6  -7 -10    6.11    0.34
  -6   7  10    6.36    0.32
   5  -7 -10    0.12    0.10
  -5   7  10    0.06    0.08
   4  -7 -10    3.14    0.25
  -4   7  10    2.85    0.24
   3  -7 -10    0.18    0.10
  -3   7  10    0.37    0.12
   2  -7 -10   -0.04    0.08
   2  -7 -10    0.01    0.08
  -2   7  10   -0.08    0.08
   1  -7 -10    0.07    0.09
   1  -7 -10    0.03    0.09
  -1   7  10   -0.01    0.10
   7  -8 -10    0.01    0.10
  -7   8  10   -0.01    0.10
   6  -8 -10   -0.03    0.09
  -6   8  10    0.02    0.09
   5  -8 -10    0.91    0.16
  -5   8  10    0.97    0.16
   4  -8 -10    4.21    0.29
  -4   8  10    3.87    0.29
   3  -8 -10    0.91    0.16
  -3   8  10    0.74    0.16
   1   8 -11    8.73    0.43
   0   8 -11    0.05    0.09
  -1   8 -11    2.06    0.23
  -2   8 -11    0.39    0.12
  -2   8 -11    0.28    0.12
  -3   8 -11    1.84    0.24
  -3   8 -11    1.88    0.22
   3   7 -11    0.17    0.11
  -3  -7  11    0.10    0.13
  -3  -7  11    0.12    0.07
   2   7 -11    0.43    0.14
  -2  -7  11    0.52    0.09
  -2  -7  11    0.34    0.14
   1   7 -11   16.88    0.59
   0   7 -11    1.99    0.22
  -1   7 -11    2.58    0.23
  -2   7 -11    0.63    0.13
  -2   7 -11    0.81    0.15
  -3   7 -11   14.65    0.53
  -3   7 -11   14.51    0.57
  -4   7 -11   -0.05    0.08
  -4   7 -11   -0.08    0.09
   4  -7  11   -0.04    0.06
   4   6 -11    2.76    0.27
  -4  -6  11    2.64    0.20
  -4  -6  11    2.10    0.28
   3   6 -11    6.53    0.36
  -3  -6  11    6.80    0.27
  -3  -6  11    6.53    0.39
   2   6 -11   -0.06    0.08
  -2  -6  11   -0.01    0.06
  -2  -6  11    0.00    0.11
   1   6 -11    2.44    0.23
  -1  -6  11    2.76    0.16
   0   6 -11    5.64    0.31
   0  -6  11    5.41    0.21
  -1   6 -11    3.45    0.25
   1  -6  11    3.67    0.17
  -2   6 -11    6.68    0.33
  -2   6 -11    6.55    0.35
   2  -6  11    6.05    0.24
  -3   6 -11    9.73    0.41
  -3   6 -11    9.97    0.44
   3  -6  11    9.10    0.31
  -4   6 -11    3.65    0.27
  -4   6 -11    3.71    0.30
   4  -6  11    4.40    0.22
  -5   6 -11    4.01    0.28
  -5   6 -11    3.84    0.32
   5  -6  11    3.99    0.23
   5   5 -11   24.53    0.77
  -5  -5  11   24.42    0.67
  -5  -5  11   24.26    0.81
   4   5 -11    9.36    0.42
  -4  -5  11    8.82    0.34
  -4  -5  11    9.01    0.44
   3   5 -11    2.07    0.23
  -3  -5  11    1.82    0.16
  -3  -5  11    1.57    0.23
   2   5 -11    1.64    0.20
  -2  -5  11    1.19    0.13
   1   5 -11    9.73    0.40
  -1  -5  11    9.28    0.31
   0   5 -11   11.23    0.43
   0  -5  11   11.28    0.34
  -1   5 -11    4.21    0.27
   1  -5  11    4.43    0.20
  -2   5 -11   13.80    0.51
  -2   5 -11   14.20    0.50
   2  -5  11   14.02    0.40
  -3   5 -11    7.46    0.37
  -3   5 -11    6.73    0.34
   3  -5  11    6.70    0.27
  -4   5 -11    0.20    0.11
  -4   5 -11    0.03    0.09
   4  -5  11    0.21    0.08
  -5   5 -11   12.05    0.52
  -5   5 -11   11.66    0.47
   5  -5  11   11.80    0.43
   6   4 -11    2.41    0.26
  -6  -4  11    2.24    0.26
  -6  -4  11    2.38    0.22
   5   4 -11    0.37    0.12
  -5  -4  11    0.59    0.15
  -5  -4  11    0.02    0.08
   4   4 -11   -0.16    0.07
  -4  -4  11    0.07    0.07
  -4  -4  11   -0.07    0.09
   3   4 -11    9.23    0.39
  -3  -4  11    9.08    0.41
  -3  -4  11    8.72    0.32
   2   4 -11    0.59    0.12
  -2  -4  11    0.55    0.09
   1   4 -11    1.38    0.17
  -1  -4  11    1.11    0.12
   0   4 -11    4.94    0.27
   0  -4  11    4.55    0.21
  -1   4 -11    1.79    0.19
   1  -4  11    1.82    0.15
  -2   4 -11    4.44    0.27
  -2   4 -11    4.76    0.28
   2  -4  11    4.50    0.22
  -3   4 -11    1.90    0.20
  -3   4 -11    2.18    0.22
   3  -4  11    1.96    0.17
  -4   4 -11    0.67    0.15
  -4   4 -11    0.87    0.15
   4  -4  11    0.80    0.12
  -5   4 -11    0.19    0.11
  -5   4 -11    0.12    0.10
   5  -4  11    0.19    0.10
   7   3 -11    0.35    0.13
  -7  -3  11    0.59    0.14
  -7  -3  11    0.50    0.15
   6   3 -11    0.55    0.14
  -6  -3  11    0.43    0.11
  -6  -3  11    0.37    0.13
   5   3 -11   -0.08    0.08
  -5  -3  11    0.03    0.07
  -5  -3  11    0.11    0.09
   4   3 -11    0.34    0.11
  -4  -3  11    0.18    0.10
  -4  -3  11    0.16    0.08
   3   3 -11    0.10    0.08
  -3  -3  11    0.04    0.06
   2   3 -11    0.11    0.08
  -2  -3  11    0.04    0.06
   1   3 -11   12.37    0.43
  -1  -3  11   11.60    0.36
   0   3 -11    0.72    0.13
   0  -3  11    0.78    0.12
  -1   3 -11    7.78    0.34
   1  -3  11    7.94    0.30
  -2   3 -11   -0.01    0.07
  -2   3 -11    0.03    0.08
   2  -3  11   -0.02    0.06
  -3   3 -11    2.20    0.22
  -3   3 -11    2.20    0.21
   3  -3  11    2.32    0.18
  -4   3 -11    0.33    0.12
  -4   3 -11    0.37    0.11
   4  -3  11    0.32    0.10
  -5   3 -11    1.75    0.23
  -5   3 -11    1.81    0.22
   5  -3  11    1.48    0.20
   7   2 -11    1.51    0.22
  -7  -2  11    1.69    0.21
   6   2 -11    6.48    0.33
  -6  -2  11    6.36    0.33
  -6  -2  11    5.98    0.31
   5   2 -11    6.55    0.32
  -5  -2  11    5.75    0.30
  -5  -2  11    5.50    0.28
   4   2 -11    1.55    0.18
  -4  -2  11    1.42    0.16
   3   2 -11    0.04    0.07
  -3  -2  11    0.04    0.06
   2   2 -11   37.32    0.86
   2   2 -11   36.02    0.90
  -2  -2  11   36.58    0.85
   1   2 -11    4.73    0.26
   1   2 -11    5.02    0.23
  -1  -2  11    4.46    0.22
   0   2 -11   14.72    0.49
   0  -2  11   15.72    0.45
  -1   2 -11    0.07    0.08
  -1   2 -11    0.16    0.08
   1  -2  11    0.09    0.07
  -2   2 -11   19.44    0.60
  -2   2 -11   18.81    0.60
   2  -2  11   19.18    0.55
  -3   2 -11    3.89    0.27
  -3   2 -11    3.83    0.26
   3  -2  11    3.60    0.24
  -4   2 -11   19.18    0.64
  -4   2 -11   18.50    0.62
   4  -2  11   18.33    0.58
  -5   2 -11    2.15    0.24
  -5   2 -11    2.23    0.24
   5  -2  11    2.20    0.23
   8   1 -11    2.80    0.26
  -8  -1  11    2.23    0.24
   7   1 -11   18.07    0.58
  -7  -1  11   17.85    0.58
   6   1 -11    0.48    0.12
  -6  -1  11    0.53    0.12
  -6  -1  11    0.65    0.13
   5   1 -11   12.10    0.42
   5   1 -11   10.60    0.38
  -5  -1  11   11.03    0.40
   4   1 -11    5.15    0.25
   4   1 -11    5.02    0.26
  -4  -1  11    5.79    0.27
   3   1 -11    2.20    0.16
   3   1 -11    2.86    0.20
  -3  -1  11    2.23    0.17
   2   1 -11    0.80    0.12
   2   1 -11    0.81    0.13
  -2  -1  11    1.01    0.14
   1   1 -11   25.99    0.70
   1   1 -11   26.04    0.64
  -1  -1  11   26.27    0.66
   0   1 -11    3.74    0.24
   0   1 -11    3.76    0.20
   0  -1  11    3.59    0.21
   0  -1  11    3.77    0.17
  -1   1 -11    0.09    0.08
  -1   1 -11    0.24    0.08
  -1   1 -11    0.27    0.10
   1  -1  11    0.06    0.07
   1  -1  11    0.15    0.07
  -2   1 -11    2.92    0.19
  -2   1 -11    2.74    0.22
  -2   1 -11    2.00    0.20
   2  -1  11    2.88    0.20
   2  -1  11    2.73    0.19
  -3   1 -11    5.38    0.30
  -3   1 -11    4.90    0.29
   3  -1  11    5.08    0.27
   3  -1  11    4.44    0.27
  -4   1 -11   -0.01    0.08
  -4   1 -11   -0.07    0.07
   4  -1  11    0.05    0.09
   4  -1  11   -0.07    0.08
  -5   1 -11    5.23    0.34
  -5   1 -11    5.70    0.34
   5  -1  11    4.53    0.31
  -8   0  11    0.61    0.14
   7   0 -11   -0.01    0.09
   7   0 -11    0.09    0.09
  -7   0  11    0.05    0.09
   6   0 -11    0.93    0.14
   6   0 -11    0.88    0.13
  -6   0  11    0.55    0.12
   5   0 -11    0.08    0.08
   5   0 -11   -0.01    0.07
  -5   0  11   -0.01    0.06
   4   0 -11    7.15    0.29
   4   0 -11    6.94    0.30
  -4   0  11    6.17    0.28
   3   0 -11    0.24    0.09
   3   0 -11    0.20    0.08
  -3   0  11    0.32    0.09
   2   0 -11    7.44    0.31
   2   0 -11    7.27    0.29
  -2   0  11    7.31    0.30
   1   0 -11    1.33    0.14
   1   0 -11    1.72    0.17
  -1   0  11    1.56    0.11
  -1   0  11    1.97    0.17
   0   0 -11    0.97    0.13
   0   0 -11    0.94    0.16
   0   0  11    0.94    0.11
   0   0  11    0.83    0.13
  -1   0 -11    1.29    0.15
  -1   0 -11    1.37    0.18
  -1   0 -11    1.33    0.16
   1   0  11    1.08    0.14
   1   0  11    1.44    0.16
  -2   0 -11    0.50    0.13
  -2   0 -11    0.33    0.10
  -2   0 -11    0.51    0.11
   2   0  11    0.29    0.10
   2   0  11    0.65    0.12
  -3   0 -11   19.86    0.61
  -3   0 -11   20.98    0.66
  -3   0 -11   20.90    0.64
   3   0  11   21.63    0.64
   3   0  11   20.28    0.63
  -4   0 -11    3.03    0.27
  -4   0 -11    2.97    0.25
   4   0  11    3.08    0.26
   4   0  11    2.59    0.24
   9  -1 -11    0.62    0.16
  -9   1  11    0.61    0.16
   8  -1 -11    1.28    0.19
  -8   1  11    1.59    0.22
   7  -1 -11    4.00    0.24
   7  -1 -11    3.51    0.26
  -7   1  11    3.25    0.25
   6  -1 -11    6.24    0.31
   6  -1 -11    6.91    0.29
  -6   1  11    7.26    0.33
   5  -1 -11   17.43    0.53
   5  -1 -11   17.60    0.51
  -5   1  11   16.99    0.53
   4  -1 -11    0.13    0.08
   4  -1 -11    0.15    0.08
  -4   1  11    0.08    0.08
   3  -1 -11   22.27    0.60
   3  -1 -11   21.75    0.60
  -3   1  11   22.44    0.61
   2  -1 -11   26.23    0.70
   2  -1 -11   27.13    0.68
  -2   1  11   26.41    0.69
  -2   1  11   26.45    0.61
   1  -1 -11    8.73    0.35
   1  -1 -11    8.95    0.34
  -1   1  11    9.07    0.29
  -1   1  11    8.53    0.34
   0  -1 -11   33.95    0.84
   0  -1 -11   31.34    0.80
   0  -1 -11   35.18    0.86
   0   1  11   31.30    0.82
   0   1  11   33.10    0.79
  -1  -1 -11    0.14    0.09
  -1  -1 -11    0.04    0.07
  -1  -1 -11   -0.05    0.06
   1   1  11    0.04    0.07
   1   1  11   -0.04    0.07
  -2  -1 -11    3.08    0.24
  -2  -1 -11    2.33    0.19
  -2  -1 -11    2.41    0.20
   2   1  11    2.57    0.22
   2   1  11    2.77    0.22
  -3  -1 -11    0.07    0.08
  -3  -1 -11    0.27    0.11
  -3  -1 -11    0.17    0.11
   3   1  11    0.26    0.11
   3   1  11    0.34    0.11
  -4  -1 -11    0.25    0.11
  -4  -1 -11    0.37    0.13
   4   1  11    0.56    0.14
   4   1  11    0.58    0.15
   9  -2 -11    1.68    0.24
  -9   2  11    2.25    0.26
   8  -2 -11    1.92    0.24
  -8   2  11    2.08    0.23
   7  -2 -11    0.02    0.09
  -7   2  11    0.05    0.09
   6  -2 -11    0.16    0.08
   6  -2 -11    0.27    0.11
  -6   2  11    0.31    0.10
   5  -2 -11    3.88    0.22
   5  -2 -11    3.92    0.25
  -5   2  11    3.36    0.23
   4  -2 -11    1.35    0.18
   4  -2 -11    1.31    0.15
  -4   2  11    1.20    0.17
   3  -2 -11   46.36    1.07
   3  -2 -11   47.51    1.09
  -3   2  11   46.96    1.00
  -3   2  11   47.98    1.08
   2  -2 -11    0.08    0.08
   2  -2 -11    0.00    0.07
  -2   2  11    0.14    0.08
  -2   2  11    0.06    0.06
   1  -2 -11    0.08    0.07
   1  -2 -11   -0.05    0.06
  -1   2  11    0.02    0.07
  -1   2  11    0.09    0.06
   0  -2 -11    6.20    0.27
   0  -2 -11    6.48    0.30
   0  -2 -11    6.43    0.31
   0   2  11    6.26    0.28
   0   2  11    6.10    0.30
  -1  -2 -11    5.03    0.25
  -1  -2 -11    5.56    0.29
  -1  -2 -11    6.03    0.32
   1   2  11    6.18    0.31
   1   2  11    6.13    0.29
  -2  -2 -11    2.79    0.23
  -2  -2 -11    2.97    0.25
   2   2  11    2.69    0.23
   2   2  11    2.14    0.21
  -3  -2 -11    0.10    0.09
  -3  -2 -11   -0.15    0.08
   3   2  11    0.11    0.11
   3   2  11    0.02    0.09
   9  -3 -11    0.66    0.16
  -9   3  11    0.89    0.17
   8  -3 -11    5.42    0.33
  -8   3  11    5.39    0.32
   7  -3 -11   -0.07    0.08
  -7   3  11   -0.03    0.08
   6  -3 -11    0.32    0.11
  -6   3  11    0.24    0.10
   5  -3 -11    3.33    0.20
   5  -3 -11    3.40    0.24
  -5   3  11    3.26    0.24
   4  -3 -11    7.59    0.30
   4  -3 -11    7.71    0.33
  -4   3  11    7.31    0.26
  -4   3  11    7.53    0.33
   3  -3 -11    0.09    0.08
   3  -3 -11    0.22    0.08
  -3   3  11    0.19    0.07
  -3   3  11    0.19    0.09
   2  -3 -11    0.16    0.08
   2  -3 -11    0.16    0.08
  -2   3  11    0.23    0.08
  -2   3  11    0.42    0.10
   1  -3 -11    2.16    0.20
   1  -3 -11    2.09    0.19
  -1   3  11    2.21    0.18
  -1   3  11    2.25    0.20
   0  -3 -11    5.53    0.30
   0  -3 -11    5.46    0.29
   0   3  11    5.58    0.28
   0   3  11    4.99    0.29
  -1  -3 -11   10.56    0.44
  -1  -3 -11   10.32    0.41
   1   3  11    9.89    0.41
   1   3  11   10.40    0.42
  -2  -3 -11    3.84    0.28
  -2  -3 -11    3.33    0.28
   2   3  11    4.23    0.29
   2   3  11    3.70    0.28
  -3  -3 -11    1.02    0.18
  -3  -3 -11    0.94    0.17
   3   3  11    0.84    0.18
   3   3  11    1.45    0.22
   9  -4 -11    1.08    0.19
  -9   4  11    1.09    0.18
   8  -4 -11    3.14    0.27
  -8   4  11    3.20    0.26
   7  -4 -11   -0.09    0.09
  -7   4  11    0.12    0.10
   6  -4 -11    4.90    0.30
  -6   4  11    4.59    0.28
   5  -4 -11   11.23    0.37
   5  -4 -11   11.91    0.44
  -5   4  11   12.20    0.44
   4  -4 -11    8.68    0.36
   4  -4 -11    7.77    0.31
  -4   4  11    8.25    0.30
  -4   4  11    7.82    0.35
   3  -4 -11    1.96    0.18
   3  -4 -11    2.47    0.21
  -3   4  11    2.16    0.20
  -3   4  11    2.46    0.18
   2  -4 -11   22.66    0.65
   2  -4 -11   21.82    0.63
  -2   4  11   21.86    0.61
  -2   4  11   23.08    0.65
   1  -4 -11    6.24    0.31
   1  -4 -11    5.31    0.30
  -1   4  11    5.86    0.29
  -1   4  11    6.00    0.31
   0  -4 -11    0.33    0.11
   0  -4 -11    0.42    0.12
   0   4  11    0.40    0.12
   0   4  11    0.35    0.11
  -1  -4 -11    4.72    0.30
  -1  -4 -11    4.69    0.29
   1   4  11    4.47    0.29
   1   4  11    4.51    0.30
  -2  -4 -11    5.45    0.33
  -2  -4 -11    5.25    0.34
   2   4  11    6.04    0.35
   2   4  11    6.39    0.36
   9  -5 -11    0.03    0.11
  -9   5  11   -0.13    0.10
   8  -5 -11   10.28    0.46
  -8   5  11   10.76    0.45
   7  -5 -11    7.42    0.37
  -7   5  11    7.65    0.37
   6  -5 -11    2.83    0.25
  -6   5  11    3.14    0.24
   5  -5 -11   -0.05    0.09
  -5   5  11    0.16    0.10
  -5   5  11    0.09    0.08
   4  -5 -11    3.35    0.25
   4  -5 -11    2.97    0.20
  -4   5  11    3.01    0.23
  -4   5  11    2.96    0.21
   3  -5 -11    2.47    0.21
   3  -5 -11    2.54    0.20
  -3   5  11    2.19    0.19
  -3   5  11    2.43    0.22
   2  -5 -11    1.24    0.17
   2  -5 -11    1.37    0.19
  -2   5  11    1.17    0.18
  -2   5  11    1.19    0.17
   1  -5 -11    0.04    0.09
   1  -5 -11   -0.03    0.08
  -1   5  11    0.18    0.10
  -1   5  11   -0.01    0.07
   0  -5 -11    0.17    0.10
   0  -5 -11    0.17    0.11
   0   5  11    0.24    0.11
   0   5  11    0.19    0.11
  -1  -5 -11   -0.02    0.09
  -1  -5 -11   -0.08    0.09
   1   5  11    0.11    0.10
   1   5  11    0.18    0.11
   8  -6 -11   -0.06    0.10
  -8   6  11    0.08    0.10
   7  -6 -11    3.14    0.27
  -7   6  11    2.76    0.25
   6  -6 -11    1.78    0.22
  -6   6  11    2.01    0.21
  -6   6  11    1.73    0.18
   5  -6 -11    0.26    0.12
  -5   6  11    0.31    0.11
  -5   6  11    0.55    0.12
   4  -6 -11    0.54    0.13
  -4   6  11    0.53    0.12
  -4   6  11    0.81    0.14
   3  -6 -11   -0.06    0.07
   3  -6 -11   -0.01    0.09
  -3   6  11    0.01    0.08
  -3   6  11    0.10    0.09
   2  -6 -11    0.17    0.10
   2  -6 -11    0.11    0.09
  -2   6  11    0.00    0.09
  -2   6  11    0.23    0.10
   1  -6 -11    1.88    0.21
   1  -6 -11    1.39    0.20
  -1   6  11    1.67    0.22
  -1   6  11    1.48    0.21
   0  -6 -11    1.14    0.18
   0  -6 -11    1.21    0.21
   0   6  11    1.18    0.18
   0   6  11    1.12    0.19
   7  -7 -11    1.50    0.22
   6  -7 -11    0.35    0.13
  -6   7  11    0.31    0.12
   5  -7 -11    0.75    0.15
  -5   7  11    0.80    0.15
   4  -7 -11    0.58    0.14
  -4   7  11    0.39    0.13
   3  -7 -11    0.54    0.13
  -3   7  11    0.36    0.12
   2  -7 -11   22.10    0.70
   2  -7 -11   21.09    0.66
  -2   7  11   21.81    0.70
   5  -8 -11    8.53    0.42
  -1   8 -12   -0.03    0.09
   2   7 -12    0.19    0.12
   1   7 -12    5.73    0.34
   0   7 -12    0.42    0.13
  -1   7 -12   13.33    0.52
  -2   7 -12   16.09    0.57
  -2   7 -12   16.52    0.62
  -3   7 -12    0.18    0.11
  -3   7 -12    0.18    0.12
   4   6 -12    4.87    0.35
  -4  -6  12    4.08    0.24
  -4  -6  12    5.11    0.37
   3   6 -12    1.77    0.23
  -3  -6  12    1.61    0.16
  -3  -6  12    1.67    0.26
   2   6 -12    8.19    0.40
  -2  -6  12    8.33    0.30
   1   6 -12    0.03    0.09
  -1  -6  12   -0.01    0.06
   0   6 -12    3.76    0.27
   0  -6  12    3.75    0.19
  -1   6 -12    1.82    0.22
   1  -6  12    2.02    0.15
  -2   6 -12    2.08    0.23
  -2   6 -12    2.26    0.24
   2  -6  12    2.03    0.16
  -3   6 -12    4.35    0.29
  -3   6 -12    4.64    0.32
   3  -6  12    4.40    0.23
  -4   6 -12    2.85    0.28
  -4   6 -12    3.12    0.27
   4  -6  12    3.09    0.21
   5   5 -12    8.86    0.44
  -5  -5  12    8.80    0.46
  -5  -5  12    8.28    0.36
   4   5 -12    0.56    0.14
  -4  -5  12    0.28    0.14
  -4  -5  12    0.37    0.10
   3   5 -12    6.76    0.36
  -3  -5  12    7.19    0.29
   2   5 -12    0.12    0.10
  -2  -5  12    0.42    0.09
   1   5 -12    1.40    0.19
  -1  -5  12    1.49    0.14
   0   5 -12    0.57    0.12
   0  -5  12    0.50    0.09
  -1   5 -12    0.50    0.13
   1  -5  12    0.40    0.09
  -2   5 -12    0.19    0.10
  -2   5 -12    0.42    0.13
   2  -5  12    0.41    0.09
  -3   5 -12    2.33    0.23
  -3   5 -12    2.57    0.26
   3  -5  12    2.37    0.18
  -4   5 -12    0.23    0.11
  -4   5 -12    0.27    0.12
   4  -5  12    0.34    0.10
   6   4 -12    1.68    0.25
  -6  -4  12    1.63    0.21
  -6  -4  12    2.12    0.27
   5   4 -12    0.24    0.11
  -5  -4  12    0.29    0.10
  -5  -4  12    0.24    0.13
   4   4 -12    1.37    0.21
  -4  -4  12    1.26    0.21
  -4  -4  12    1.15    0.16
   3   4 -12    5.70    0.32
  -3  -4  12    5.65    0.26
   2   4 -12    6.64    0.34
  -2  -4  12    7.28    0.29
   1   4 -12   11.04    0.44
  -1  -4  12   11.66    0.37
   0   4 -12    2.58    0.22
   0  -4  12    2.14    0.17
  -1   4 -12    2.94    0.24
   1  -4  12    3.04    0.19
  -2   4 -12    3.77    0.28
  -2   4 -12    4.00    0.27
   2  -4  12    4.14    0.23
  -3   4 -12    3.90    0.29
  -3   4 -12    4.00    0.28
   3  -4  12    3.95    0.24
  -4   4 -12    2.71    0.26
  -4   4 -12    3.13    0.27
   4  -4  12    2.40    0.21
   6   3 -12    8.25    0.41
  -6  -3  12    7.83    0.36
  -6  -3  12    7.98    0.40
   5   3 -12    2.29    0.23
  -5  -3  12    2.84    0.25
  -5  -3  12    2.76    0.22
   4   3 -12    7.75    0.37
  -4  -3  12    7.85    0.32
   3   3 -12    2.64    0.23
  -3  -3  12    2.47    0.19
   2   3 -12    0.46    0.11
  -2  -3  12    0.59    0.10
   1   3 -12    1.17    0.18
  -1  -3  12    1.14    0.14
   0   3 -12    1.53    0.18
   0  -3  12    1.11    0.14
  -1   3 -12    2.78    0.23
  -1   3 -12    2.44    0.22
   1  -3  12    2.26    0.18
  -2   3 -12    1.87    0.22
  -2   3 -12    1.96    0.22
   2  -3  12    2.41    0.19
  -3   3 -12    3.88    0.29
  -3   3 -12    4.00    0.28
   3  -3  12    3.99    0.25
  -4   3 -12    2.29    0.24
  -4   3 -12    2.70    0.26
   4  -3  12    2.60    0.22
   7   2 -12    1.95    0.25
  -7  -2  12    1.98    0.22
   6   2 -12    0.24    0.11
  -6  -2  12    0.28    0.12
  -6  -2  12    0.13    0.09
   5   2 -12    0.97    0.16
  -5  -2  12    1.12    0.17
   4   2 -12    0.02    0.08
  -4  -2  12    0.13    0.08
   3   2 -12    5.06    0.28
  -3  -2  12    4.41    0.24
   2   2 -12    7.52    0.33
  -2  -2  12    6.80    0.29
   1   2 -12    0.53    0.12
  -1  -2  12    0.41    0.10
   0   2 -12    1.68    0.19
   0  -2  12    1.63    0.16
  -1   2 -12    3.08    0.24
  -1   2 -12    3.44    0.25
   1  -2  12    3.03    0.21
  -2   2 -12   10.58    0.44
  -2   2 -12   12.07    0.46
   2  -2  12   10.94    0.41
  -3   2 -12    2.04    0.23
  -3   2 -12    1.69    0.21
   3  -2  12    1.95    0.20
  -4   2 -12    3.82    0.29
  -4   2 -12    3.29    0.28
   4  -2  12    3.43    0.26
   7   1 -12    1.28    0.21
  -7  -1  12    1.68    0.21
   6   1 -12    1.59    0.20
  -6  -1  12    1.71    0.20
   5   1 -12    5.94    0.31
  -5  -1  12    5.77    0.29
   4   1 -12    2.24    0.21
  -4  -1  12    2.09    0.19
   3   1 -12   13.56    0.42
   3   1 -12   13.70    0.47
  -3  -1  12   13.91    0.45
   2   1 -12    1.52    0.15
   2   1 -12    1.85    0.19
  -2  -1  12    1.81    0.17
   1   1 -12   17.43    0.49
   1   1 -12   17.14    0.54
  -1  -1  12   17.26    0.51
   0   1 -12    3.20    0.23
   0   1 -12    2.87    0.19
   0  -1  12    3.21    0.21
  -1   1 -12    6.04    0.32
  -1   1 -12    6.02    0.31
   1  -1  12    5.98    0.29
   1  -1  12    5.84    0.25
  -2   1 -12    3.14    0.25
  -2   1 -12    3.20    0.24
   2  -1  12    3.07    0.23
   2  -1  12    3.22    0.21
  -3   1 -12    2.64    0.25
  -3   1 -12    2.57    0.23
   3  -1  12    2.54    0.22
   3  -1  12    2.29    0.22
  -4   1 -12    0.12    0.10
  -4   1 -12    0.31    0.12
   4  -1  12    0.30    0.12
  -8   0  12   -0.05    0.09
   7   0 -12    0.78    0.14
  -7   0  12    0.47    0.13
   6   0 -12   -0.05    0.08
   6   0 -12   -0.04    0.08
  -6   0  12   -0.02    0.08
   5   0 -12    1.83    0.20
   5   0 -12    2.04    0.19
  -5   0  12    1.73    0.19
   4   0 -12   10.68    0.39
   4   0 -12   11.11    0.40
  -4   0  12   10.50    0.39
   3   0 -12    9.07    0.34
   3   0 -12    8.83    0.36
  -3   0  12    8.49    0.35
   2   0 -12    0.12    0.09
   2   0 -12    0.10    0.07
  -2   0  12    0.03    0.07
   1   0 -12    1.01    0.17
   1   0 -12    0.85    0.13
  -1   0  12    0.80    0.13
   0   0 -12    0.28    0.10
   0   0 -12    0.19    0.09
   0   0 -12    0.19    0.08
   0   0  12    0.26    0.08
   0   0  12    0.34    0.10
  -1   0 -12   -0.04    0.06
  -1   0 -12    0.05    0.08
  -1   0 -12    0.04    0.09
   1   0  12    0.05    0.08
   1   0  12    0.12    0.08
  -2   0 -12    0.04    0.08
  -2   0 -12    0.00    0.09
  -2   0 -12    0.13    0.09
   2   0  12    0.18    0.09
   2   0  12    0.02    0.08
  -3   0 -12   17.11    0.61
  -3   0 -12   17.69    0.59
   3   0  12   17.06    0.58
   3   0  12   16.94    0.57
  -4   0 -12   -0.07    0.09
   4   0  12    0.10    0.10
   8  -1 -12    0.68    0.15
  -8   1  12    0.39    0.13
   7  -1 -12    0.02    0.08
   7  -1 -12   -0.02    0.09
  -7   1  12   -0.11    0.08
   6  -1 -12    4.73    0.26
   6  -1 -12    4.40    0.27
  -6   1  12    4.66    0.28
   5  -1 -12   10.93    0.41
   5  -1 -12   11.32    0.40
  -5   1  12   10.97    0.42
   4  -1 -12   13.73    0.45
   4  -1 -12   13.65    0.46
  -4   1  12   13.59    0.46
   3  -1 -12   12.30    0.43
   3  -1 -12   11.51    0.41
  -3   1  12   12.65    0.43
   2  -1 -12    0.05    0.08
   2  -1 -12    0.01    0.07
  -2   1  12    0.03    0.08
   1  -1 -12    0.01    0.08
   1  -1 -12    0.03    0.07
  -1   1  12    0.00    0.07
  -1   1  12    0.02    0.06
   0  -1 -12    1.36    0.16
   0  -1 -12    1.11    0.16
   0  -1 -12    1.42    0.19
   0   1  12    1.05    0.14
   0   1  12    1.31    0.17
  -1  -1 -12    1.13    0.16
  -1  -1 -12    1.30    0.17
  -1  -1 -12    1.41    0.20
   1   1  12    0.88    0.15
   1   1  12    0.93    0.15
  -2  -1 -12    0.14    0.10
  -2  -1 -12    0.03    0.08
  -2  -1 -12    0.02    0.09
   2   1  12    0.09    0.08
   2   1  12    0.04    0.09
  -3  -1 -12   12.88    0.52
  -3  -1 -12   12.68    0.49
   3   1  12   12.32    0.50
   3   1  12   12.88    0.50
   8  -2 -12    0.94    0.17
  -8   2  12    0.65    0.15
   7  -2 -12    3.85    0.28
  -7   2  12    3.70    0.27
   6  -2 -12    3.58    0.23
   6  -2 -12    3.38    0.25
  -6   2  12    3.07    0.25
   5  -2 -12   21.54    0.60
   5  -2 -12   20.76    0.62
  -5   2  12   21.00    0.63
   4  -2 -12    2.94    0.23
   4  -2 -12    3.45    0.23
  -4   2  12    3.25    0.23
   3  -2 -12    5.68    0.29
   3  -2 -12    5.01    0.27
  -3   2  12    5.09    0.28
   2  -2 -12   15.64    0.50
   2  -2 -12   14.98    0.49
  -2   2  12   15.41    0.50
  -2   2  12   15.05    0.43
   1  -2 -12    2.88    0.23
   1  -2 -12    2.06    0.18
   1  -2 -12    2.38    0.20
  -1   2  12    2.42    0.21
  -1   2  12    2.26    0.17
   0  -2 -12    7.72    0.32
   0  -2 -12    7.93    0.35
   0  -2 -12    7.18    0.35
   0   2  12    7.64    0.35
   0   2  12    7.96    0.33
  -1  -2 -12    0.95    0.15
  -1  -2 -12    0.93    0.17
   1   2  12    0.91    0.15
   1   2  12    1.02    0.17
  -2  -2 -12   21.03    0.66
  -2  -2 -12   20.80    0.70
   2   2  12   21.03    0.67
   2   2  12   21.76    0.67
   8  -3 -12    1.88    0.24
  -8   3  12    1.52    0.23
   7  -3 -12    0.34    0.13
  -7   3  12    0.35    0.12
   6  -3 -12    9.15    0.41
  -6   3  12    9.61    0.41
   5  -3 -12    0.17    0.09
   5  -3 -12    0.43    0.12
  -5   3  12    0.34    0.11
   4  -3 -12    0.05    0.09
   4  -3 -12   -0.02    0.07
  -4   3  12   -0.03    0.08
   3  -3 -12   -0.04    0.07
   3  -3 -12   -0.14    0.07
  -3   3  12   -0.02    0.07
   2  -3 -12    1.33    0.18
   2  -3 -12    1.01    0.17
  -2   3  12    1.13    0.17
  -2   3  12    1.23    0.14
   1  -3 -12    2.07    0.20
   1  -3 -12    2.15    0.21
  -1   3  12    2.26    0.21
  -1   3  12    2.11    0.18
   0  -3 -12    3.01    0.25
   0  -3 -12    3.05    0.23
   0   3  12    3.37    0.24
   0   3  12    3.65    0.26
  -1  -3 -12    1.46    0.20
  -1  -3 -12    1.52    0.22
   1   3  12    1.15    0.19
   1   3  12    1.30    0.20
  -2  -3 -12    0.82    0.16
  -2  -3 -12    0.85    0.17
   2   3  12    0.74    0.16
   2   3  12    0.97    0.17
   8  -4 -12   11.76    0.49
  -8   4  12   12.33    0.49
   7  -4 -12    1.73    0.23
  -7   4  12    1.39    0.21
   6  -4 -12    0.18    0.11
  -6   4  12   -0.01    0.09
   5  -4 -12    0.05    0.10
  -5   4  12    0.31    0.12
   4  -4 -12    2.25    0.19
   4  -4 -12    2.01    0.21
  -4   4  12    2.13    0.21
   3  -4 -12    1.63    0.18
   3  -4 -12    1.76    0.20
  -3   4  12    1.74    0.20
  -3   4  12    1.69    0.17
   2  -4 -12    3.73    0.26
   2  -4 -12    4.10    0.26
  -2   4  12    3.88    0.27
  -2   4  12    3.86    0.24
   1  -4 -12    0.49    0.12
   1  -4 -12    0.20    0.10
  -1   4  12    0.34    0.12
  -1   4  12    0.48    0.12
   0  -4 -12    0.51    0.13
   0  -4 -12    0.51    0.13
   0   4  12    0.33    0.12
   0   4  12    0.63    0.14
  -1  -4 -12    3.83    0.29
  -1  -4 -12    4.37    0.31
   1   4  12    4.17    0.30
   1   4  12    3.95    0.30
   8  -5 -12    0.27    0.14
  -8   5  12    0.18    0.11
   7  -5 -12    0.08    0.11
  -7   5  12   -0.07    0.10
   6  -5 -12    8.76    0.40
  -6   5  12    7.81    0.38
   5  -5 -12    1.25    0.20
  -5   5  12    1.69    0.21
   4  -5 -12    2.47    0.20
   4  -5 -12    2.88    0.24
  -4   5  12    3.00    0.23
  -4   5  12    2.84    0.21
   3  -5 -12    0.17    0.09
   3  -5 -12    0.41    0.12
  -3   5  12    0.12    0.10
  -3   5  12    0.35    0.10
   2  -5 -12    3.43    0.26
   2  -5 -12    3.88    0.26
  -2   5  12    3.09    0.26
  -2   5  12    3.94    0.26
   1  -5 -12    4.01    0.29
   1  -5 -12    4.64    0.30
  -1   5  12    3.81    0.28
  -1   5  12    4.45    0.29
   0  -5 -12   13.13    0.52
   0  -5 -12   13.18    0.52
   0   5  12   13.51    0.52
   0   5  12   12.59    0.51
   7  -6 -12    0.68    0.15
  -7   6  12    0.26    0.12
   6  -6 -12    1.08    0.18
  -6   6  12    1.62    0.22
   5  -6 -12    3.19    0.27
  -5   6  12    2.92    0.25
   4  -6 -12    2.21    0.24
  -4   6  12    2.11    0.21
  -4   6  12    2.05    0.23
   3  -6 -12    1.35    0.21
   3  -6 -12    1.13    0.17
  -3   6  12    1.50    0.21
  -3   6  12    1.11    0.17
   2  -6 -12    0.16    0.10
   2  -6 -12    0.02    0.09
  -2   6  12    0.01    0.10
  -2   6  12    0.02    0.09
   6  -7 -12   -0.06    0.11
   5  -7 -12    0.64    0.16
  -5   7  12    0.64    0.14
   4  -7 -12   14.81    0.56
  -4   7  12   14.88    0.54
   0   7 -13    9.03    0.44
  -1   7 -13    2.35    0.27
  -1   7 -13    3.16    0.28
   3   6 -13    3.08    0.28
  -3  -6  13    3.02    0.21
   2   6 -13    2.12    0.25
  -2  -6  13    2.41    0.18
   1   6 -13    0.31    0.12
  -1  -6  13    0.25    0.08
   0   6 -13   -0.03    0.09
   0  -6  13    0.00    0.06
  -1   6 -13    8.37    0.41
   1  -6  13    8.65    0.31
  -2   6 -13    3.32    0.28
  -2   6 -13    3.41    0.30
   2  -6  13    3.28    0.20
  -3   6 -13    1.08    0.18
  -3   6 -13    0.98    0.19
   3  -6  13    1.24    0.16
   4   5 -13   -0.10    0.09
  -4  -5  13    0.06    0.08
   3   5 -13    0.11    0.11
  -3  -5  13    0.03    0.07
   2   5 -13    2.71    0.25
  -2  -5  13    2.56    0.19
   1   5 -13    0.35    0.12
  -1  -5  13    0.49    0.10
   0   5 -13    0.58    0.14
   0  -5  13    0.51    0.10
  -1   5 -13    7.20    0.37
   1  -5  13    6.55    0.28
  -2   5 -13    0.57    0.14
  -2   5 -13    0.49    0.14
   2  -5  13    0.48    0.10
  -3   5 -13    0.07    0.10
  -3   5 -13    0.14    0.11
   3  -5  13   -0.03    0.07
   5   4 -13   -0.06    0.10
  -5  -4  13    0.03    0.09
  -5  -4  13    0.01    0.11
   4   4 -13    2.25    0.24
  -4  -4  13    2.15    0.19
   3   4 -13    3.99    0.29
  -3  -4  13    4.89    0.26
   2   4 -13    2.58    0.24
  -2  -4  13    2.62    0.19
   1   4 -13    0.93    0.16
  -1  -4  13    0.79    0.12
   0   4 -13    8.23    0.39
   0  -4  13    7.66    0.31
  -1   4 -13    0.53    0.14
  -1   4 -13    0.43    0.13
   1  -4  13    0.47    0.10
  -2   4 -13    4.32    0.30
  -2   4 -13    3.88    0.29
   2  -4  13    3.87    0.24
  -3   4 -13    9.43    0.44
  -3   4 -13   10.47    0.48
   3  -4  13   10.26    0.40
   6   3 -13    2.96    0.28
  -6  -3  13    2.99    0.25
   5   3 -13    7.35    0.38
  -5  -3  13    7.24    0.34
   4   3 -13    3.10    0.26
  -4  -3  13    3.36    0.23
   3   3 -13    0.04    0.09
  -3  -3  13   -0.03    0.07
   2   3 -13    1.35    0.20
  -2  -3  13    1.53    0.17
   1   3 -13   13.18    0.49
  -1  -3  13   13.57    0.44
   0   3 -13    2.93    0.25
   0  -3  13    3.05    0.21
  -1   3 -13   17.91    0.62
  -1   3 -13   18.76    0.61
   1  -3  13   17.33    0.53
  -2   3 -13    0.48    0.14
  -2   3 -13    0.34    0.12
   2  -3  13    0.63    0.12
  -3   3 -13    0.13    0.12
  -3   3 -13   -0.07    0.09
   3  -3  13    0.06    0.09
   6   2 -13   -0.03    0.09
  -6  -2  13   -0.08    0.08
   5   2 -13    1.39    0.21
  -5  -2  13    1.61    0.19
   4   2 -13    1.37    0.20
  -4  -2  13    1.06    0.16
   3   2 -13    1.53    0.20
  -3  -2  13    1.35    0.17
   2   2 -13    2.02    0.21
  -2  -2  13    1.96    0.18
   1   2 -13    3.89    0.27
  -1  -2  13    4.13    0.24
   0   2 -13    0.16    0.10
   0  -2  13    0.37    0.10
  -1   2 -13    0.68    0.14
  -1   2 -13    0.74    0.15
   1  -2  13    0.80    0.13
  -2   2 -13    0.42    0.13
  -2   2 -13    0.17    0.10
   2  -2  13    0.18    0.09
  -3   2 -13    0.86    0.16
  -3   2 -13    1.02    0.17
   3  -2  13    1.02    0.17
   7   1 -13    0.52    0.14
  -7  -1  13    0.21    0.12
   6   1 -13    0.21    0.12
  -6  -1  13   -0.01    0.09
   5   1 -13    2.30    0.22
  -5  -1  13    2.22    0.21
   4   1 -13    0.47    0.12
  -4  -1  13    0.46    0.12
   3   1 -13    5.27    0.30
  -3  -1  13    5.32    0.28
   2   1 -13    1.82    0.21
  -2  -1  13    2.07    0.19
   1   1 -13    6.62    0.34
  -1  -1  13    7.24    0.32
   0   1 -13    4.98    0.30
   0  -1  13    5.10    0.28
  -1   1 -13    0.21    0.11
  -1   1 -13    0.21    0.10
   1  -1  13    0.34    0.10
  -2   1 -13    2.67    0.24
  -2   1 -13    2.64    0.25
   2  -1  13    2.89    0.24
  -3   1 -13    1.78    0.22
  -3   1 -13    1.90    0.24
   3  -1  13    1.57    0.21
   7   0 -13   -0.02    0.09
  -7   0  13   -0.01    0.10
   6   0 -13   20.94    0.63
  -6   0  13   20.41    0.64
   5   0 -13    2.32    0.22
  -5   0  13    2.27    0.22
   4   0 -13    0.83    0.14
   4   0 -13    0.80    0.14
  -4   0  13    0.85    0.14
   3   0 -13   19.47    0.61
   3   0 -13   20.87    0.59
  -3   0  13   20.21    0.60
   2   0 -13    0.34    0.10
   2   0 -13    0.39    0.12
  -2   0  13    0.40    0.11
   1   0 -13    2.95    0.24
   1   0 -13    2.89    0.21
  -1   0  13    3.21    0.23
   0   0 -13    0.12    0.10
   0   0 -13    0.03    0.08
   0   0 -13    0.07    0.08
   0   0  13    0.04    0.08
  -1   0 -13   52.90    1.29
  -1   0 -13   52.62    1.29
   1   0  13   51.93    1.24
  -2   0 -13    1.18    0.18
  -2   0 -13    0.73    0.16
   2   0  13    1.00    0.15
   2   0  13    1.04    0.17
  -3   0 -13    2.69    0.27
   3   0  13    2.91    0.26
   3   0  13    2.71    0.24
   7  -1 -13    4.10    0.29
  -7   1  13    3.46    0.28
   6  -1 -13    0.06    0.09
   6  -1 -13    0.22    0.12
  -6   1  13    0.02    0.10
   5  -1 -13   11.22    0.43
   5  -1 -13   11.54    0.43
  -5   1  13   11.60    0.45
   4  -1 -13    4.47    0.27
   4  -1 -13    4.31    0.26
  -4   1  13    4.00    0.27
   3  -1 -13    1.64    0.20
   3  -1 -13    1.26    0.17
  -3   1  13    1.47    0.19
   2  -1 -13   17.88    0.57
   2  -1 -13   16.85    0.54
  -2   1  13   17.24    0.55
   1  -1 -13    0.75    0.13
   1  -1 -13    0.83    0.14
  -1   1  13    0.79    0.13
   0  -1 -13    0.12    0.09
   0  -1 -13   -0.03    0.09
   0  -1 -13    0.04    0.08
   0   1  13    0.04    0.09
  -1  -1 -13    4.21    0.27
  -1  -1 -13    4.12    0.27
  -1  -1 -13    3.86    0.29
   1   1  13    3.46    0.24
   1   1  13    3.79    0.28
  -2  -1 -13    0.62    0.15
   2   1  13    0.63    0.14
   2   1  13    0.66    0.14
   8  -2 -13    2.14    0.26
  -8   2  13    2.32    0.26
   7  -2 -13    4.09    0.30
  -7   2  13    4.84    0.31
   6  -2 -13    6.69    0.35
   6  -2 -13    6.52    0.32
  -6   2  13    6.45    0.35
   5  -2 -13    0.83    0.14
   5  -2 -13    0.64    0.13
  -5   2  13    0.53    0.13
   4  -2 -13    1.91    0.20
   4  -2 -13    1.81    0.20
  -4   2  13    1.33    0.19
   3  -2 -13   11.56    0.43
   3  -2 -13   11.14    0.43
  -3   2  13   11.35    0.44
   2  -2 -13    1.98    0.21
   2  -2 -13    2.04    0.20
  -2   2  13    2.27    0.21
   1  -2 -13    1.57    0.19
   1  -2 -13    1.18    0.18
  -1   2  13    1.58    0.20
   0  -2 -13    6.16    0.32
   0  -2 -13    5.61    0.33
   0   2  13    6.20    0.34
   0   2  13    5.66    0.29
  -1  -2 -13    5.03    0.33
  -1  -2 -13    5.16    0.31
   1   2  13    4.60    0.29
   1   2  13    5.48    0.33
   8  -3 -13    1.46    0.23
  -8   3  13    1.43    0.23
   7  -3 -13    0.69    0.16
  -7   3  13    0.70    0.15
   6  -3 -13    0.31    0.13
  -6   3  13    0.42    0.13
   5  -3 -13    0.73    0.15
   5  -3 -13    0.80    0.14
  -5   3  13    1.05    0.16
   4  -3 -13   -0.08    0.09
   4  -3 -13   -0.10    0.08
  -4   3  13   -0.02    0.09
   3  -3 -13    1.69    0.21
   3  -3 -13    1.74    0.21
  -3   3  13    1.96    0.21
   2  -3 -13    5.11    0.30
   2  -3 -13    4.50    0.29
  -2   3  13    5.43    0.30
   1  -3 -13    6.96    0.35
   1  -3 -13    7.60    0.37
  -1   3  13    6.99    0.36
  -1   3  13    6.78    0.31
   0  -3 -13    0.91    0.16
   0  -3 -13    0.84    0.16
   0   3  13    0.87    0.16
   0   3  13    0.90    0.15
  -1  -3 -13    0.15    0.11
  -1  -3 -13    0.18    0.11
   1   3  13    0.17    0.11
   1   3  13    0.13    0.11
   7  -4 -13    0.07    0.11
  -7   4  13    0.07    0.11
   6  -4 -13    0.62    0.15
  -6   4  13    0.65    0.15
   5  -4 -13    0.03    0.09
  -5   4  13    0.10    0.11
   4  -4 -13    2.93    0.25
   4  -4 -13    2.96    0.23
  -4   4  13    3.18    0.26
   3  -4 -13    2.63    0.24
   3  -4 -13    2.75    0.23
  -3   4  13    2.83    0.25
   2  -4 -13    0.21    0.10
   2  -4 -13    0.01    0.09
  -2   4  13    0.18    0.11
   1  -4 -13    1.75    0.22
   1  -4 -13    1.77    0.22
  -1   4  13    1.47    0.19
  -1   4  13    1.44    0.21
   0  -4 -13    0.02    0.10
   0  -4 -13   -0.02    0.09
   0   4  13    0.04    0.10
   0   4  13   -0.07    0.09
   7  -5 -13    0.35    0.13
  -7   5  13    0.13    0.12
   6  -5 -13    3.40    0.29
  -6   5  13    3.24    0.27
   5  -5 -13    0.36    0.13
  -5   5  13    0.26    0.12
   4  -5 -13    4.45    0.31
  -4   5  13    4.87    0.31
   3  -5 -13    2.15    0.22
   3  -5 -13    1.88    0.23
  -3   5  13    2.37    0.24
   2  -5 -13    3.61    0.27
   2  -5 -13    3.79    0.29
  -2   5  13    3.18    0.27
  -2   5  13    3.34    0.26
   6  -6 -13    5.84    0.36
  -6   6  13    5.93    0.36
   5  -6 -13    0.94    0.17
  -5   6  13    1.00    0.17
   4  -6 -13   -0.04    0.10
  -4   6  13    0.08    0.10
   0   6 -14   12.44    0.52
   0  -6  14   12.57    0.40
   3   5 -14    0.75    0.16
  -3  -5  14    0.91    0.14
   2   5 -14    2.71    0.27
  -2  -5  14    2.70    0.21
   1   5 -14    4.96    0.34
  -1  -5  14    5.71    0.27
   0   5 -14   -0.13    0.10
   0  -5  14    0.04    0.07
  -1   5 -14    7.79    0.42
  -1   5 -14    7.79    0.41
   1  -5  14    7.37    0.32
  -2   5 -14    1.94    0.25
  -2   5 -14    1.95    0.25
   2  -5  14    2.16    0.20
   4   4 -14   -0.03    0.10
  -4  -4  14    0.03    0.09
   3   4 -14    2.06    0.24
  -3  -4  14    2.24    0.20
   2   4 -14    4.70    0.32
  -2  -4  14    4.46    0.26
   1   4 -14    0.75    0.15
  -1  -4  14    0.91    0.13
   0   4 -14    4.44    0.31
   0  -4  14    4.44    0.25
  -1   4 -14    3.59    0.30
  -1   4 -14    4.10    0.30
   1  -4  14    3.86    0.24
  -2   4 -14   10.12    0.47
  -2   4 -14    8.92    0.46
   2  -4  14    9.98    0.39
   5   3 -14    0.47    0.14
  -5  -3  14    0.51    0.12
   4   3 -14    3.03    0.27
  -4  -3  14    2.72    0.23
   3   3 -14    4.15    0.30
  -3  -3  14    3.89    0.25
   2   3 -14    2.39    0.24
  -2  -3  14    2.01    0.20
   1   3 -14    5.46    0.33
  -1  -3  14    4.93    0.27
   0   3 -14    0.45    0.14
   0  -3  14    0.23    0.10
  -1   3 -14    1.69    0.23
  -1   3 -14    1.72    0.22
   1  -3  14    1.80    0.19
  -2   3 -14    0.19    0.12
  -2   3 -14    0.35    0.14
   2  -3  14    0.31    0.11
  -6  -2  14    0.18    0.11
   5   2 -14    3.09    0.27
  -5  -2  14    2.97    0.24
   4   2 -14    4.72    0.31
  -4  -2  14    4.60    0.28
   3   2 -14    0.24    0.11
  -3  -2  14    0.23    0.10
   2   2 -14    3.89    0.29
  -2  -2  14    3.81    0.24
   1   2 -14    4.44    0.30
  -1  -2  14    4.71    0.27
   0   2 -14    2.58    0.25
   0  -2  14    2.84    0.22
  -1   2 -14    1.16    0.20
  -1   2 -14    0.70    0.15
   1  -2  14    1.39    0.18
  -2   2 -14    2.02    0.25
  -2   2 -14    2.73    0.26
   2  -2  14    2.69    0.24
   6   1 -14    0.02    0.11
  -6  -1  14    0.10    0.10
   5   1 -14    1.90    0.23
  -5  -1  14    1.74    0.22
   4   1 -14    0.60    0.14
  -4  -1  14    0.52    0.13
   3   1 -14    1.71    0.22
  -3  -1  14    1.54    0.19
   2   1 -14    0.03    0.10
  -2  -1  14   -0.02    0.08
   1   1 -14    0.72    0.15
  -1  -1  14    0.78    0.14
   0   1 -14    0.08    0.09
   0   1 -14    0.18    0.11
   0  -1  14    0.09    0.09
  -1   1 -14    2.17    0.26
  -1   1 -14    2.12    0.23
   1  -1  14    2.37    0.23
  -2   1 -14    1.33    0.21
  -2   1 -14    1.29    0.21
   2  -1  14    1.30    0.19
   6   0 -14    0.75    0.15
  -6   0  14    0.88    0.16
   5   0 -14    2.34    0.24
  -5   0  14    2.32    0.24
   4   0 -14   -0.13    0.09
  -4   0  14   -0.11    0.08
   3   0 -14    6.04    0.33
  -3   0  14    5.71    0.31
   2   0 -14    8.05    0.39
  -2   0  14    7.39    0.36
   1   0 -14   26.08    0.78
  -1   0  14   26.64    0.75
   0   0 -14    1.85    0.23
   0   0 -14    1.45    0.20
   0   0  14    1.60    0.21
  -1   0 -14    0.54    0.13
  -1   0 -14    0.49    0.14
   1   0  14    0.77    0.15
   2   0  14    1.45    0.22
  -7   1  14    8.34    0.41
   6  -1 -14    8.68    0.39
  -6   1  14    8.30    0.41
   5  -1 -14    4.71    0.30
   5  -1 -14    5.96    0.33
  -5   1  14    5.21    0.32
   4  -1 -14   11.21    0.45
   4  -1 -14   11.26    0.44
  -4   1  14   11.43    0.45
   3  -1 -14    5.71    0.33
   3  -1 -14    6.11    0.32
  -3   1  14    5.69    0.32
   2  -1 -14    3.09    0.24
   2  -1 -14    3.78    0.28
  -2   1  14    3.75    0.27
   1  -1 -14    0.86    0.16
   1  -1 -14    0.54    0.12
   1  -1 -14    0.54    0.12
  -1   1  14    0.77    0.15
   0  -1 -14    0.14    0.12
   0   1  14    0.54    0.13
  -1  -1 -14    2.92    0.28
   1   1  14    2.58    0.25
   7  -2 -14    4.28    0.31
  -7   2  14    4.36    0.32
   6  -2 -14    1.21    0.19
  -6   2  14    1.57    0.23
   5  -2 -14    1.04    0.17
   5  -2 -14    1.10    0.17
  -5   2  14    0.91    0.17
   4  -2 -14    6.70    0.35
   4  -2 -14    7.44    0.36
  -4   2  14    6.83    0.36
   3  -2 -14    0.79    0.15
   3  -2 -14    1.27    0.21
  -3   2  14    1.51    0.21
   2  -2 -14    0.62    0.14
   2  -2 -14    0.71    0.14
  -2   2  14    0.85    0.15
   1  -2 -14    3.95    0.28
   1  -2 -14    3.81    0.29
  -1   2  14    3.55    0.27
   0  -2 -14    2.54    0.26
   0  -2 -14    2.25    0.23
   0   2  14    2.42    0.24
   7  -3 -14    0.02    0.10
  -7   3  14    0.15    0.12
   6  -3 -14    1.72    0.23
  -6   3  14    1.32    0.19
   5  -3 -14    2.63    0.26
   5  -3 -14    3.14    0.28
  -5   3  14    2.71    0.25
   4  -3 -14   10.29    0.45
   4  -3 -14   10.70    0.43
  -4   3  14   11.64    0.47
   3  -3 -14    0.72    0.14
   3  -3 -14    0.64    0.14
  -3   3  14    0.75    0.15
   2  -3 -14    0.11    0.10
   2  -3 -14    0.05    0.09
  -2   3  14   -0.03    0.09
   1  -3 -14    5.22    0.33
   1  -3 -14    4.53    0.31
  -1   3  14    5.21    0.33
   6  -4 -14    2.66    0.27
  -6   4  14    2.84    0.27
   5  -4 -14    2.06    0.25
  -5   4  14    2.50    0.26
   4  -4 -14    4.88    0.30
   4  -4 -14    5.23    0.33
  -4   4  14    5.12    0.32
   3  -4 -14    0.08    0.10
   3  -4 -14    0.04    0.09
  -3   4  14    0.01    0.09
   2  -4 -14    1.31    0.21
   2  -4 -14    1.25    0.21
  -2   4  14    1.13    0.19
   5  -5 -14    1.63    0.24
  -5   5  14    0.99    0.18
   4  -5 -14    1.12    0.19
  -4   5  14    1.04    0.18
   2   4 -15    0.02    0.10
  -2  -4  15    0.07    0.08
   1   4 -15    0.06    0.12
  -1  -4  15   -0.04    0.08
   0   4 -15    0.01    0.11
   0  -4  15    0.29    0.10
  -4  -3  15    2.24    0.23
   3   3 -15    0.07    0.11
  -3  -3  15    0.11    0.09
   2   3 -15   -0.08    0.10
  -2  -3  15    0.07    0.09
   1   3 -15    0.05    0.12
  -1  -3  15    0.01    0.08
   0   3 -15    0.54    0.15
   0  -3  15    0.58    0.13
   1  -3  15    2.09    0.22
   4   2 -15    1.12    0.18
  -4  -2  15    1.12    0.17
   3   2 -15    9.39    0.44
  -3  -2  15    9.13    0.40
   2   2 -15    4.42    0.32
  -2  -2  15    4.28    0.28
   1   2 -15    6.33    0.37
  -1  -2  15    6.39    0.33
   0   2 -15    3.24    0.29
   0   2 -15    2.89    0.27
   0  -2  15    2.23    0.23
  -1   2 -15   11.17    0.50
  -1   2 -15   10.68    0.49
   1  -2  15   10.80    0.45
   5   1 -15    2.40    0.25
  -5  -1  15    2.00    0.24
   4   1 -15    0.01    0.11
  -4  -1  15    0.02    0.10
   3   1 -15    1.03    0.18
  -3  -1  15    0.98    0.16
   2   1 -15    1.51    0.24
  -2  -1  15    1.04    0.16
   1   1 -15    1.90    0.25
  -1  -1  15    1.91    0.21
   0   1 -15    2.72    0.27
   0   1 -15    1.99    0.24
   0  -1  15    1.93    0.23
   5   0 -15   -0.02    0.10
  -5   0  15   -0.05    0.10
   4   0 -15    2.50    0.27
  -4   0  15    2.73    0.25
   3   0 -15    0.57    0.15
  -3   0  15    0.42    0.13
   2   0 -15    7.63    0.40
  -2   0  15    7.29    0.37
   1   0 -15    2.98    0.28
  -1   0  15    2.41    0.24
   0   0 -15    0.19    0.11
   0   0 -15    0.27    0.13
   0   0  15    0.36    0.12
  -6   1  15    0.06    0.11
   5  -1 -15    1.43    0.23
  -5   1  15    0.96    0.18
   4  -1 -15    2.69    0.27
  -4   1  15    2.65    0.26
   3  -1 -15    0.04    0.10
  -3   1  15    0.13    0.10
   2  -1 -15    0.06    0.11
  -2   1  15    0.16    0.12
   1  -1 -15    6.87    0.39
  -1   1  15    7.07    0.37
   5  -2 -15    0.03    0.11
   5  -2 -15    0.06    0.11
  -5   2  15    0.07    0.11
   4  -2 -15    1.40    0.23
   4  -2 -15    1.14    0.18
  -4   2  15    1.81    0.23
   3  -2 -15    0.66    0.15
   3  -2 -15    1.04    0.17
  -3   2  15    1.06    0.17
   2  -2 -15    2.27    0.24
   2  -2 -15    2.51    0.26
  -2   2  15    2.68    0.26
  -1   2  15    0.06    0.11
   5  -3 -15    0.10    0.12
  -5   3  15    0.41    0.14
   4  -3 -15    3.89    0.29
   4  -3 -15    3.72    0.29
  -4   3  15    3.88    0.30
   3  -3 -15    0.11    0.12
   3  -3 -15    0.32    0.12
  -3   3  15    0.14    0.11
   0   0   0    0.00    0.00
;
_shelx_res_checksum              71955
_shelx_res_file
;
TITL jl098 in P-1
CELL 0.71069 7.5626 8.2241 11.3238 92.818 104.129 113.802
ZERR 2 0.0004 0.0004 0.0006 0.001 0.002 0.001
LATT 1

SFAC C H Cl N O
UNIT 26 22 2 4 6

L.S. 4
PLAN  25
TEMP -183.15
BOND $H
CONF
fmap 2
acta
MERG 2
REM <HKL>C:/xray%20work/Love/jl098/jl098.hkl</HKL>

WGHT    0.049700    0.350700
FVAR       0.26556
C1    1    1.281269    0.506774    1.040381    11.00000    0.01701    0.01293 =
         0.01449    0.00169    0.00324    0.00717
AFIX  43
H1    2    1.325004    0.603454    1.105938    11.00000   -1.20000
AFIX   0
C2    1    1.188256    0.517253    0.919622    11.00000    0.01585    0.01227 =
         0.01535    0.00377    0.00358    0.00632
C3    1    1.125112    0.374300    0.823056    11.00000    0.01421    0.01551 =
         0.01512    0.00208    0.00297    0.00510
C4    1    1.153577    0.220637    0.850203    11.00000    0.02047    0.01391 =
         0.01950   -0.00164    0.00250    0.00664
AFIX  43
H4    2    1.109750    0.122837    0.785458    11.00000   -1.20000
AFIX   0
C5    1    1.244406    0.208083    0.969608    11.00000    0.02176    0.01254 =
         0.02290    0.00327    0.00412    0.00866
AFIX  43
H5    2    1.262434    0.103153    0.987395    11.00000   -1.20000
AFIX   0
C6    1    1.308222    0.353881    1.062431    11.00000    0.01613    0.01427 =
         0.01555    0.00460    0.00284    0.00694
C7    1    1.028494    0.380349    0.690252    11.00000    0.01653    0.02022 =
         0.01398    0.00267    0.00262    0.00481
AFIX  23
H7A   2    1.077003    0.507851    0.678305    11.00000   -1.20000
H7B   2    1.074709    0.318864    0.635484    11.00000   -1.20000
AFIX   0
C8    1    0.800349    0.294512    0.650685    11.00000    0.01728    0.01368 =
         0.01263   -0.00051    0.00215    0.00544
C9    1    0.697857    0.345633    0.550450    11.00000    0.02217    0.02053 =
         0.01436    0.00509    0.00456    0.00805
AFIX  43
H9    2    0.771481    0.435563    0.509287    11.00000   -1.20000
AFIX   0
C10   1    0.490567    0.266015    0.511247    11.00000    0.02283    0.02383 =
         0.01325    0.00279    0.00145    0.01127
AFIX  43
H10   2    0.420719    0.301046    0.443148    11.00000   -1.20000
AFIX   0
C11   1    0.478464    0.084916    0.665604    11.00000    0.01826    0.01544 =
         0.02177    0.00416    0.00360    0.00504
AFIX  43
H11   2    0.400423   -0.005866    0.704442    11.00000   -1.20000
AFIX   0
C12   1    0.686516    0.161862    0.708185    11.00000    0.01831    0.01649 =
         0.01895    0.00477    0.00244    0.00605
AFIX  43
H12   2    0.752115    0.124366    0.776717    11.00000   -1.20000
AFIX   0
C13   1    1.164897    0.686684    0.900874    11.00000    0.02555    0.01792 =
         0.02166    0.00759    0.00656    0.01296
AFIX  43
H13   2    1.098947    0.697495    0.820760    11.00000   -1.20000
AFIX   0
N1    4    1.415459    0.348523    1.188282    11.00000    0.02091    0.01813 =
         0.01881    0.00763    0.00489    0.00978
N2    4    0.387209    0.139059    0.569126    11.00000    0.01481    0.01694 =
         0.01650   -0.00249   -0.00040    0.00529
O1    5    1.467449    0.476005    1.269490    11.00000    0.03117    0.02327 =
         0.01522    0.00255    0.00242    0.01209
O2    5    1.453894    0.218500    1.205121    11.00000    0.04027    0.02520 =
         0.02820    0.01132    0.00514    0.02128
O3    5    1.227706    0.810746    0.984985    11.00000    0.04703    0.01837 =
         0.02743    0.00423    0.00728    0.01899

CL1   3   -0.009184   -0.172058    0.609277    11.00000    0.01664    0.01598 =
         0.01746    0.00301   -0.00065    0.00419
H2    2    0.268438    0.097241    0.547559    11.00000    0.02793
HKLF 4

REM  jl098 in P-1
REM R1 =  0.0364 for    3267 Fo > 4sig(Fo)  and  0.0405 for all    3622 data
REM    176 parameters refined using      0 restraints

END

WGHT      0.0497      0.3507

REM Highest difference peak  0.549,  deepest hole -0.207,  1-sigma level  0.064
Q1    1   0.7317  0.3045  0.5930  11.00000  0.05    0.55
Q2    1   0.5890  0.2899  0.5247  11.00000  0.05    0.53
Q3    1   0.4497  0.1926  0.5428  11.00000  0.05    0.52
Q4    1   0.5850  0.1338  0.6811  11.00000  0.05    0.50
Q5    1   0.0118 -0.2253  0.5583  11.00000  0.05    0.50
Q6    1   0.4391  0.1160  0.6195  11.00000  0.05    0.44
Q7    1   1.2210  0.4974  0.9806  11.00000  0.05    0.44
Q8    1   0.7314  0.2352  0.6807  11.00000  0.05    0.42
Q9    1   0.9130  0.3405  0.6728  11.00000  0.05    0.42
Q10   1   1.1763  0.5960  0.9154  11.00000  0.05    0.39
Q11   1   1.1534  0.4364  0.8729  11.00000  0.05    0.38
Q12   1   1.1395  0.3013  0.8428  11.00000  0.05    0.37
Q13   1   1.3339  0.1847  1.2170  11.00000  0.05    0.36
Q14   1   1.0707  0.3778  0.7632  11.00000  0.05    0.34
Q15   1   1.2963  0.1406  1.0791  11.00000  0.05    0.34
Q16   1   1.2791  0.2853  1.0124  11.00000  0.05    0.34
Q17   1   1.2690  0.4210  1.0579  11.00000  0.05    0.33
Q18   1  -0.0900 -0.2082  0.6372  11.00000  0.05    0.32
Q19   1   1.3656  0.3535  1.1241  11.00000  0.05    0.31
Q20   1   1.1967  0.2210  0.9147  11.00000  0.05    0.31
Q21   1   0.0968 -0.1440  0.5969  11.00000  0.05    0.29
Q22   1  -0.1142 -0.2111  0.5550  11.00000  0.05    0.26
Q23   1   1.3679  0.3937  1.2331  11.00000  0.05    0.25
Q24   1   1.3565  0.8500  0.9802  11.00000  0.05    0.25
Q25   1   0.9329  0.0204  0.8011  11.00000  0.05    0.23
;
_shelx_space_group_comment
;
The symmetry employed for this shelxl refinement is uniquely defined
by the following loop, which should always be used as a source of
symmetry information in preference to the above space-group names.
They are only intended as comments.
;
_shelxl_version_number           2013-3
loop_
_space_group_symop_operation_xyz
'x, y, z'
'-x, -y, -z'
loop_
_atom_site_label
_atom_site_type_symbol
_atom_site_fract_x
_atom_site_fract_y
_atom_site_fract_z
_atom_site_U_iso_or_equiv
_atom_site_adp_type
_atom_site_occupancy
_atom_site_site_symmetry_order
_atom_site_calc_flag
_atom_site_refinement_flags_posn
_atom_site_refinement_flags_adp
C1 C 1.28127(17) 0.50677(15) 1.04038(10) 0.0148(2) Uani 1 1 d . .
H1 H 1.3250 0.6035 1.1059 0.018 Uiso 1 1 calc R U
C2 C 1.18826(17) 0.51725(15) 0.91962(11) 0.0145(2) Uani 1 1 d . .
C3 C 1.12511(17) 0.37430(16) 0.82306(11) 0.0156(2) Uani 1 1 d . .
C4 C 1.15358(19) 0.22064(16) 0.85020(12) 0.0190(2) Uani 1 1 d . .
H4 H 1.1097 0.1228 0.7855 0.023 Uiso 1 1 calc R U
C5 C 1.24441(19) 0.20808(16) 0.96961(12) 0.0191(2) Uani 1 1 d . .
H5 H 1.2624 0.1032 0.9874 0.023 Uiso 1 1 calc R U
C6 C 1.30822(17) 0.35388(15) 1.06243(11) 0.0154(2) Uani 1 1 d . .
C7 C 1.02849(18) 0.38035(17) 0.69025(11) 0.0183(2) Uani 1 1 d . .
H7A H 1.0770 0.5079 0.6783 0.022 Uiso 1 1 calc R U
H7B H 1.0747 0.3189 0.6355 0.022 Uiso 1 1 calc R U
C8 C 0.80035(18) 0.29451(16) 0.65068(10) 0.0155(2) Uani 1 1 d . .
C9 C 0.6979(2) 0.34563(17) 0.55045(11) 0.0195(2) Uani 1 1 d . .
H9 H 0.7715 0.4356 0.5093 0.023 Uiso 1 1 calc R U
C10 C 0.4906(2) 0.26601(18) 0.51125(11) 0.0203(2) Uani 1 1 d . .
H10 H 0.4207 0.3010 0.4431 0.024 Uiso 1 1 calc R U
C11 C 0.47846(19) 0.08492(17) 0.66560(12) 0.0196(2) Uani 1 1 d . .
H11 H 0.4004 -0.0059 0.7044 0.024 Uiso 1 1 calc R U
C12 C 0.68652(19) 0.16186(17) 0.70819(12) 0.0189(2) Uani 1 1 d . .
H12 H 0.7521 0.1244 0.7767 0.023 Uiso 1 1 calc R U
C13 C 1.1649(2) 0.68668(17) 0.90087(12) 0.0204(2) Uani 1 1 d . .
H13 H 1.0989 0.6975 0.8208 0.024 Uiso 1 1 calc R U
N1 N 1.41546(16) 0.34852(15) 1.18828(10) 0.0188(2) Uani 1 1 d . .
N2 N 0.38721(16) 0.13906(14) 0.56913(10) 0.0178(2) Uani 1 1 d . .
O1 O 1.46745(16) 0.47601(13) 1.26949(8) 0.0239(2) Uani 1 1 d . .
O2 O 1.45389(18) 0.21850(14) 1.20512(10) 0.0294(2) Uani 1 1 d . .
O3 O 1.22771(19) 0.81075(14) 0.98499(10) 0.0299(2) Uani 1 1 d . .
Cl1 Cl -0.00918(4) -0.17206(4) 0.60928(3) 0.01872(9) Uani 1 1 d . .
H2 H 0.268(3) 0.097(3) 0.5476(18) 0.028(5) Uiso 1 1 d . .
loop_
_atom_site_aniso_label
_atom_site_aniso_U_11
_atom_site_aniso_U_22
_atom_site_aniso_U_33
_atom_site_aniso_U_23
_atom_site_aniso_U_13
_atom_site_aniso_U_12
C1 0.0170(5) 0.0129(5) 0.0145(5) 0.0017(4) 0.0032(4) 0.0072(4)
C2 0.0159(5) 0.0123(5) 0.0154(5) 0.0038(4) 0.0036(4) 0.0063(4)
C3 0.0142(5) 0.0155(5) 0.0151(5) 0.0021(4) 0.0030(4) 0.0051(4)
C4 0.0205(6) 0.0139(5) 0.0195(5) -0.0016(4) 0.0025(4) 0.0066(4)
C5 0.0218(6) 0.0125(5) 0.0229(6) 0.0033(4) 0.0041(5) 0.0087(4)
C6 0.0161(5) 0.0143(5) 0.0155(5) 0.0046(4) 0.0028(4) 0.0069(4)
C7 0.0165(5) 0.0202(6) 0.0140(5) 0.0027(4) 0.0026(4) 0.0048(4)
C8 0.0173(5) 0.0137(5) 0.0126(5) -0.0005(4) 0.0022(4) 0.0054(4)
C9 0.0222(6) 0.0205(6) 0.0144(5) 0.0051(4) 0.0046(4) 0.0081(5)
C10 0.0228(6) 0.0238(6) 0.0133(5) 0.0028(4) 0.0015(4) 0.0113(5)
C11 0.0183(5) 0.0154(5) 0.0218(6) 0.0042(4) 0.0036(4) 0.0050(4)
C12 0.0183(5) 0.0165(5) 0.0190(5) 0.0048(4) 0.0024(4) 0.0061(4)
C13 0.0255(6) 0.0179(5) 0.0217(6) 0.0076(4) 0.0066(5) 0.0130(5)
N1 0.0209(5) 0.0181(5) 0.0188(5) 0.0076(4) 0.0049(4) 0.0098(4)
N2 0.0148(5) 0.0169(5) 0.0165(5) -0.0025(4) -0.0004(4) 0.0053(4)
O1 0.0312(5) 0.0233(5) 0.0152(4) 0.0026(3) 0.0024(4) 0.0121(4)
O2 0.0403(6) 0.0252(5) 0.0282(5) 0.0113(4) 0.0051(4) 0.0213(5)
O3 0.0470(6) 0.0184(5) 0.0274(5) 0.0042(4) 0.0073(5) 0.0190(5)
Cl1 0.01664(14) 0.01598(14) 0.01746(14) 0.00301(10) -0.00065(10) 0.00419(10)
loop_
_atom_type_symbol
_atom_type_description
_atom_type_scat_dispersion_real
_atom_type_scat_dispersion_imag
_atom_type_scat_source
C C 0.0033 0.0016 'International Tables Vol C Tables 4.2.6.8 and 6.1.1.4'
H H 0.0000 0.0000 'International Tables Vol C Tables 4.2.6.8 and 6.1.1.4'
Cl Cl 0.1484 0.1585 'International Tables Vol C Tables 4.2.6.8 and 6.1.1.4'
N N 0.0061 0.0033 'International Tables Vol C Tables 4.2.6.8 and 6.1.1.4'
O O 0.0106 0.0060 'International Tables Vol C Tables 4.2.6.8 and 6.1.1.4'
loop_
_geom_angle_atom_site_label_1
_geom_angle_atom_site_label_2
_geom_angle_atom_site_label_3
_geom_angle
C2 C1 H1 120.6
C6 C1 H1 120.6
C6 C1 C2 118.87(10)
C1 C2 C3 120.25(10)
C1 C2 C13 116.58(10)
C3 C2 C13 123.16(11)
C2 C3 C7 122.48(11)
C4 C3 C2 118.82(11)
C4 C3 C7 118.69(11)
C3 C4 H4 119.3
C5 C4 C3 121.49(11)
C5 C4 H4 119.3
C4 C5 H5 121.0
C4 C5 C6 117.98(11)
C6 C5 H5 121.0
C1 C6 C5 122.57(11)
C1 C6 N1 118.30(10)
C5 C6 N1 119.10(10)
C3 C7 H7A 108.6
C3 C7 H7B 108.6
H7A C7 H7B 107.5
C8 C7 C3 114.81(10)
C8 C7 H7A 108.6
C8 C7 H7B 108.6
C9 C8 C7 119.18(11)
C12 C8 C7 122.70(11)
C12 C8 C9 118.10(11)
C8 C9 H9 120.0
C10 C9 C8 120.04(12)
C10 C9 H9 120.0
C9 C10 H10 120.1
N2 C10 C9 119.88(11)
N2 C10 H10 120.1
C12 C11 H11 120.2
N2 C11 H11 120.2
N2 C11 C12 119.59(12)
C8 C12 H12 120.0
C11 C12 C8 120.01(11)
C11 C12 H12 120.0
C2 C13 H13 119.1
O3 C13 C2 121.80(12)
O3 C13 H13 119.1
O1 N1 C6 118.46(10)
O1 N1 O2 123.54(11)
O2 N1 C6 117.95(11)
C10 N2 C11 122.39(11)
C10 N2 H2 118.9(14)
C11 N2 H2 118.6(14)
loop_
_geom_bond_atom_site_label_1
_geom_bond_atom_site_label_2
_geom_bond_distance
C1 H1 0.9500
C1 C2 1.4011(15)
C1 C6 1.3776(16)
C2 C3 1.4041(16)
C2 C13 1.4924(16)
C3 C4 1.4012(17)
C3 C7 1.5160(16)
C4 H4 0.9500
C4 C5 1.3886(18)
C5 H5 0.9500
C5 C6 1.3917(16)
C6 N1 1.4702(15)
C7 H7A 0.9900
C7 H7B 0.9900
C7 C8 1.5114(17)
C8 C9 1.3951(16)
C8 C12 1.3931(17)
C9 H9 0.9500
C9 C10 1.3735(18)
C10 H10 0.9500
C10 N2 1.3377(17)
C11 H11 0.9500
C11 C12 1.3800(17)
C11 N2 1.3401(16)
C12 H12 0.9500
C13 H13 0.9500
C13 O3 1.2109(16)
N1 O1 1.2229(14)
N1 O2 1.2281(14)
N2 H2 0.79(2)
loop_
_geom_torsion_atom_site_label_1
_geom_torsion_atom_site_label_2
_geom_torsion_atom_site_label_3
_geom_torsion_atom_site_label_4
_geom_torsion
C1 C2 C3 C4 1.14(18)
C1 C2 C3 C7 -178.44(11)
C1 C2 C13 O3 1.86(19)
C1 C6 N1 O1 3.58(17)
C1 C6 N1 O2 -174.01(12)
C2 C1 C6 C5 -0.81(18)
C2 C1 C6 N1 176.86(10)
C2 C3 C4 C5 -0.74(19)
C2 C3 C7 C8 -94.74(14)
C3 C2 C13 O3 -177.10(13)
C3 C4 C5 C6 -0.40(19)
C3 C7 C8 C9 157.45(11)
C3 C7 C8 C12 -24.34(17)
C4 C3 C7 C8 85.69(14)
C4 C5 C6 C1 1.19(19)
C4 C5 C6 N1 -176.45(11)
C5 C6 N1 O1 -178.67(12)
C5 C6 N1 O2 3.74(18)
C6 C1 C2 C3 -0.39(17)
C6 C1 C2 C13 -179.38(11)
C7 C3 C4 C5 178.85(12)
C7 C8 C9 C10 178.43(11)
C7 C8 C12 C11 -178.17(12)
C8 C9 C10 N2 -0.19(19)
C9 C8 C12 C11 0.06(18)
C9 C10 N2 C11 0.03(19)
C12 C8 C9 C10 0.14(18)
C12 C11 N2 C10 0.17(19)
C13 C2 C3 C4 -179.94(11)
C13 C2 C3 C7 0.49(18)
N2 C11 C12 C8 -0.21(19)
