#------------------------------------------------------------------------------
#$Date: 2015-09-06 02:39:13 +0300 (Sun, 06 Sep 2015) $
#$Revision: 154679 $
#$URL: svn://www.crystallography.net/cod/cif/4/03/13/4031329.cif $
#------------------------------------------------------------------------------
#
# This file is available in the Crystallography Open Database (COD),
# http://www.crystallography.net/
#
# All data on this site have been placed in the public domain by the
# contributors.
#
data_4031329
loop_
_publ_author_name
'Ams, Mark R.'
'Fields, Michael'
'Grabnic, Timothy'
'Janesko, Benjamin G.'
'Zeller, Matthias'
'Sheridan, Rose'
'Shay, Amanda'
_publ_section_title
;
 Unraveling the Role of Alkyl F on CH-\p Interactions and Uncovering the
 Tipping Point for Fluorophobicity.
;
_journal_issue                   15
_journal_name_full               'The Journal of organic chemistry'
_journal_page_first              7764
_journal_page_last               7769
_journal_paper_doi               10.1021/acs.joc.5b01072
_journal_volume                  80
_journal_year                    2015
_chemical_formula_sum            'C11 H7 Br F6 O2'
_chemical_formula_weight         365.08
_chemical_name_systematic
;
 ?
;
_space_group_crystal_system      triclinic
_space_group_IT_number           2
_space_group_name_Hall           '-P 1'
_space_group_name_H-M_alt        'P -1'
_symmetry_space_group_name_Hall  '-P 1'
_symmetry_space_group_name_H-M   'P -1'
_atom_sites_solution_hydrogens   geom
_atom_sites_solution_primary     direct
_atom_sites_solution_secondary   difmap
_audit_creation_method           SHELXL-2013
_cell_angle_alpha                67.2457(17)
_cell_angle_beta                 86.5387(19)
_cell_angle_gamma                78.9053(18)
_cell_formula_units_Z            2
_cell_length_a                   7.1474(4)
_cell_length_b                   9.7769(5)
_cell_length_c                   10.0809(6)
_cell_measurement_reflns_used    7305
_cell_measurement_temperature    100(2)
_cell_measurement_theta_max      67.0338
_cell_measurement_theta_min      4.7574
_cell_volume                     637.40(6)
_computing_cell_refinement       'SAINT V8.34A (Bruker, 2014)'
_computing_data_collection       'Apex2 v2014.1-0 (Bruker, 2014)'
_computing_data_reduction        'SAINT V8.34A (Bruker, 2014)'
_computing_structure_refinement
;  
SHELXL-2013 (Sheldrick, 2013), 
SHELXLE Rev645 (H\"ubschle et al., 2011)
;
_computing_structure_solution    'SHELXS-97 (Sheldrick, 2008)'
_diffrn_ambient_temperature      100(2)
_diffrn_measured_fraction_theta_full 0.954
_diffrn_measured_fraction_theta_max 0.966
_diffrn_measurement_device_type  'Bruker AXS Prospector CCD diffractometer'
_diffrn_measurement_method       'omega and phi scans'
_diffrn_radiation_monochromator  'laterally graded multilayer (Goebel) mirror'
_diffrn_radiation_type           CuK\a
_diffrn_radiation_wavelength     1.54178
_diffrn_reflns_av_R_equivalents  0.0683
_diffrn_reflns_av_unetI/netI     0.0561
_diffrn_reflns_laue_measured_fraction_full 0.954
_diffrn_reflns_laue_measured_fraction_max 0.966
_diffrn_reflns_limit_h_max       8
_diffrn_reflns_limit_h_min       -8
_diffrn_reflns_limit_k_max       11
_diffrn_reflns_limit_k_min       -11
_diffrn_reflns_limit_l_max       11
_diffrn_reflns_limit_l_min       -12
_diffrn_reflns_number            8070
_diffrn_reflns_point_group_measured_fraction_full 0.954
_diffrn_reflns_point_group_measured_fraction_max 0.966
_diffrn_reflns_theta_full        67.679
_diffrn_reflns_theta_max         67.029
_diffrn_reflns_theta_min         4.757
_diffrn_source                   'I-mu-S microsource X-ray tube'
_exptl_absorpt_coefficient_mu    5.143
_exptl_absorpt_correction_T_max  0.7529
_exptl_absorpt_correction_T_min  0.3309
_exptl_absorpt_correction_type   multi-scan
_exptl_absorpt_process_details   'Apex2 v2014.1-0 (Bruker, 2014)'
_exptl_crystal_colour            colourless
_exptl_crystal_density_diffrn    1.902
_exptl_crystal_description       plate
_exptl_crystal_F_000             356
_exptl_crystal_size_max          0.250
_exptl_crystal_size_mid          0.130
_exptl_crystal_size_min          0.040
_refine_diff_density_max         0.730
_refine_diff_density_min         -0.637
_refine_diff_density_rms         0.089
_refine_ls_extinction_method     none
_refine_ls_goodness_of_fit_ref   1.138
_refine_ls_hydrogen_treatment    constr
_refine_ls_matrix_type           full
_refine_ls_number_parameters     182
_refine_ls_number_reflns         2206
_refine_ls_number_restraints     0
_refine_ls_restrained_S_all      1.138
_refine_ls_R_factor_all          0.0353
_refine_ls_R_factor_gt           0.0348
_refine_ls_shift/su_max          0.001
_refine_ls_shift/su_mean         0.000
_refine_ls_structure_factor_coef Fsqd
_refine_ls_weighting_details
'w=1/[\s^2^(Fo^2^)+(0.0072P)^2^+1.0174P] where P=(Fo^2^+2Fc^2^)/3'
_refine_ls_weighting_scheme      calc
_refine_ls_wR_factor_gt          0.0903
_refine_ls_wR_factor_ref         0.0906
_reflns_Friedel_coverage         0.000
_reflns_number_gt                2154
_reflns_number_total             2206
_reflns_threshold_expression     'I > 2\s(I)'
_cod_data_source_file            jo5b01072_si_007.cif
_cod_data_source_block           Prosp14mz119_0m
_cod_depositor_comments
'Adding full bibliography for 4031325--4031329.cif.'
_cod_database_code               4031329
_shelx_space_group_comment
;
The symmetry employed for this shelxl refinement is uniquely defined
by the following loop, which should always be used as a source of
symmetry information in preference to the above space-group names.
They are only intended as comments.
;
_shelxl_version_number           2013-4
_shelx_res_file
;
TITL Prosp14mz119_0m1 in P-1
CELL  1.54178    7.1474    9.7769   10.0809   67.2457   86.5387   78.9053
ZERR        2    0.0004    0.0005    0.0006    0.0017    0.0019    0.0018
LATT   1
SFAC C H O Br F
UNIT 22 14 4 2 12
LIST 4 ! automatically inserted. Change 6 to 4 for CHECKCIF!!
TEMP -173.15
L.S. 5
FMAP 2
PLAN 20
ACTA
BOND $H
CONF
WGHT    0.007200    1.017400
FVAR       0.79924
C1    1    0.624902    0.545895    0.252878    11.00000    0.01708    0.01300 =
         0.02043   -0.00401   -0.00118   -0.00416
C2    1    0.698485    0.508390    0.127414    11.00000    0.01415    0.01768 =
         0.01975   -0.00659    0.00079   -0.00720
C3    1    0.670753    0.623338   -0.009428    11.00000    0.01553    0.01522 =
         0.02298   -0.00514    0.00210   -0.00538
AFIX  43
H3    2    0.610834    0.722634   -0.020041    11.00000   -1.20000
AFIX   0
C4    1    0.730743    0.592059   -0.129093    11.00000    0.02071    0.02258 =
         0.01873   -0.00303    0.00082   -0.00898
AFIX  43
H4    2    0.709756    0.669409   -0.222416    11.00000   -1.20000
AFIX   0
C5    1    0.821267    0.448340   -0.113181    11.00000    0.01736    0.02765 =
         0.02123   -0.01030    0.00454   -0.00988
AFIX  43
H5    2    0.862927    0.428777   -0.196479    11.00000   -1.20000
AFIX   0
C6    1    0.853441    0.330567    0.022229    11.00000    0.01327    0.01982 =
         0.03010   -0.01160    0.00092   -0.00743
C7    1    0.787266    0.363481    0.141235    11.00000    0.01581    0.01268 =
         0.02469   -0.00379   -0.00081   -0.00593
C8    1    0.956504    0.176512    0.034916    11.00000    0.02563    0.02201 =
         0.03758   -0.01363    0.00327   -0.00667
AFIX 137
H8A   2    0.868647    0.104887    0.069743    11.00000   -1.50000
H8B   2    1.063982    0.143602    0.102835    11.00000   -1.50000
H8C   2    1.004025    0.180686   -0.059565    11.00000   -1.50000
AFIX   0
C9    1    0.588127    0.743650    0.339806    11.00000    0.02508    0.01400 =
         0.01732   -0.00473    0.00436   -0.00506
AFIX  13
H9    2    0.513610    0.672200    0.411480    11.00000   -1.20000
AFIX   0
C10   1    0.755438    0.760485    0.415073    11.00000    0.03338    0.01422 =
         0.02092   -0.00435    0.00021   -0.00446
C11   1    0.455707    0.891476    0.257513    11.00000    0.03101    0.01926 =
         0.02500   -0.00671   -0.00093   -0.00176
O1    3    0.539118    0.474493    0.352749    11.00000    0.03854    0.02130 =
         0.02227   -0.00836    0.01084   -0.01651
O2    3    0.666017    0.683518    0.236113    11.00000    0.02693    0.01393 =
         0.02010   -0.00617    0.00620   -0.00831
BR1   4    0.831441    0.206184    0.326167    11.00000    0.04335    0.01457 =
         0.02421   -0.00086   -0.00377   -0.00241
F1    5    0.851739    0.623697    0.493729    11.00000    0.03737    0.02165 =
         0.03933   -0.00359   -0.01182    0.00181
F2    5    0.695687    0.831111    0.503818    11.00000    0.04802    0.03115 =
         0.02495   -0.01454   -0.00202   -0.00655
F3    5    0.877005    0.835451    0.324756    11.00000    0.03560    0.03390 =
         0.03067   -0.01199    0.00575   -0.01885
F4    5    0.320434    0.864262    0.190274    11.00000    0.03665    0.03798 =
         0.04701   -0.01622   -0.01662    0.00180
F5    5    0.545352    0.990853    0.157075    11.00000    0.04923    0.01734 =
         0.03145    0.00372    0.00003   -0.00344
F6    5    0.370231    0.957033    0.343799    11.00000    0.04775    0.03027 =
         0.03579   -0.01533    0.00012    0.01290
HKLF 4

REM  Prosp14mz119_0m1 in P-1
REM R1 =  0.0348 for    2154 Fo > 4sig(Fo)  and  0.0353 for all    2206 data
REM    182 parameters refined using      0 restraints

END

WGHT      0.0072      1.0174

REM Highest difference peak  0.730,  deepest hole -0.637,  1-sigma level  0.089
Q1    1   0.8514  0.2793  0.3600  11.00000  0.05    0.73
Q2    1   0.8303  0.1063  0.3297  11.00000  0.05    0.68
Q3    1   0.7353  0.1761  0.2746  11.00000  0.05    0.56
Q4    1   0.7806  0.4645  0.1419  11.00000  0.05    0.39
Q5    1   0.6736  0.7471  0.3747  11.00000  0.05    0.37
Q6    1   0.7084  0.4382  0.1319  11.00000  0.05    0.36
Q7    1   0.8187  0.5502  0.4565  11.00000  0.05    0.29
Q8    1   0.5311  0.8186  0.2945  11.00000  0.05    0.27
Q9    1   0.8578  0.8807  0.6370  11.00000  0.05    0.26
Q10   1   0.6225  0.7161  0.2825  11.00000  0.05    0.25
Q11   1   0.7366  0.6422  0.0375  11.00000  0.05    0.24
Q12   1   0.6245  0.4855  0.4033  11.00000  0.05    0.24
Q13   1   0.6505  0.6213  0.2518  11.00000  0.05    0.24
Q14   1   0.5087  0.4389  0.2934  11.00000  0.05    0.24
Q15   1   0.7592  0.3237  0.0748  11.00000  0.05    0.24
Q16   1   0.9365  0.0772  0.4044  11.00000  0.05    0.24
Q17   1   0.7456  0.6219 -0.0625  11.00000  0.05    0.23
Q18   1   0.4712  0.7531 -0.3609  11.00000  0.05    0.23
Q19   1   0.7012  0.9991  0.3736  11.00000  0.05    0.23
Q20   1   0.3840  0.8607  0.3594  11.00000  0.05    0.22
;
_shelx_res_checksum              15531
_shelx_hkl_file
;
  -1   0   0 258.123 19.2790  17
   1   0   0 281.402 19.2772  17
  -2   0   0 2416.97 294.853   2
  -3   0   0 859.661 110.770   2
  -3   0   0 884.339 76.8070  10
  -3   0   0 829.223 76.8384  10
  -3   0   0 1073.12 142.026   1
  -4   0   0 827.324 67.2730  10
  -4   0   0 758.627 96.7578   2
  -5   0   0 3.71207 0.47766  10
   5   0   0 4.01226 1.15613   4
   5   0   0 1.28307 0.98993  16
   6   0   0 759.863 67.7619  16
   6   0   0 808.123 78.4560   4
   7   0   0 128.154 12.9004   4
   7   0   0 115.316 11.1954  16
   8   0   0 67.8928 7.33249   4
   8  -1   0 34.3296 3.70226  16
   8  -1   0 34.7150 4.10600   4
   7  -1   0 250.015 23.7222   4
   7  -1   0 210.363 20.3964  16
   6  -1   0 66.4627 7.07243   4
   6  -1   0 55.6198 6.07578  16
   5  -1   0 144.494 13.7791  12
   5  -1   0 152.070 14.1748  16
   5  -1   0 158.444 16.3120   4
  -5   1   0 174.233 13.5191  10
  -4   1   0 787.106 65.9485  10
  -4   1   0 769.049 95.0130   2
  -3   1   0 2.07546 0.41986  10
  -3   1   0 2.96329 0.96509   2
  -2   1   0 758.608 65.8350  10
  -2   1   0 791.992 94.9676   2
  -2   1   0 550.686 100.454  13
  -2   1   0 1008.63 112.871   1
  -2   1   0 767.350 65.6991  10
   1  -1   0 226.733 26.6755  13
   1  -1   0 218.855 29.8233   1
   1  -1   0 206.528 14.5060  17
  -1   1   0 194.968 25.0801   2
  -1   1   0 129.826 26.6933  13
  -1   1   0 244.518 30.0183   1
  -1   1   0 196.012 17.4220  10
   0  -1   0 3.82640 0.82944  13
   0  -1   0 2.10199 0.68191   2
   0  -1   0 4.78767 0.54562   3
   0  -1   0 1.17729 0.85702   1
   0   1   0 4.87434 0.72508   2
   0   1   0 5.43946 0.52135  10
   0   1   0 3.05997 0.89215  13
   0   1   0 3.92765 0.91362   1
  -1  -1   0 67.5528 7.99228  13
  -1  -1   0 63.3218 5.37185   3
  -1  -1   0 53.5640 5.20432  10
  -1  -1   0 65.3293 5.20771  10
   1   1   0 54.1420 7.99011  13
  -2  -1   0 5122.79 338.532  17
  -2  -1   0 4217.15 402.571  10
  -2  -1   0 4881.30 402.909  10
  -3  -1   0 2.78154 1.09766   2
  -3  -1   0 10.2771 0.66292  10
  -4  -1   0 1592.40 136.555  10
  -5  -1   0 97.9907 10.1484   3
  -5  -1   0 124.115 9.63153  10
   5   1   0 116.285 11.7403   4
   6   1   0 59.7177 6.06463   4
   6   1   0 46.1194 5.17226   5
   6   1   0 54.6046 5.36743  16
   7   1   0 301.655 30.5311   4
   7  -2   0 219.141 18.1068  16
   7  -2   0 187.399 20.8832   4
   6  -2   0 142.879 12.5698  16
   6  -2   0 127.953 12.1781  12
   6  -2   0 140.670 14.5537   4
   5  -2   0 34.2099 3.80968  16
   5  -2   0 33.8543 4.34604   4
   5  -2   0 32.8416 3.67539  12
  -5   2   0 38.8017 3.31746  10
  -4   2   0 117.774 10.0212  10
  -4   2   0 113.559 14.6007   2
  -3   2   0 243.640 20.9823  10
  -3   2   0 248.640 30.2982   2
   2  -2   0 2283.60 272.240  13
  -2   2   0 1748.58 284.823   1
  -2   2   0 2177.16 240.008   2
  -2   2   0 1559.87 254.518  13
  -2   2   0 2084.02 166.696  10
   1  -2   0 9064.61 629.131   3
   1  -2   0 8865.95 930.476  13
  -1   2   0 6563.30 597.213  10
  -1   2   0 5324.41 1019.60   1
  -1   2   0 7146.20 865.146   2
  -1   2   0 5021.47 900.195  13
   0  -2   0 1236.04 98.0962   3
   0  -2   0 1118.09 85.4130  10
   0  -2   0 1120.63 130.891  13
   0   2   0 711.230 130.376  13
   0   2   0 685.029 145.907   1
   0   2   0 1183.38 122.847   2
   0   2   0 1018.78 85.2681  10
  -1  -2   0 166.409 12.9766  10
  -1  -2   0 161.357 13.3079   3
  -1  -2   0 128.425 18.5621   2
  -1  -2   0 166.340 19.8870  13
   1   2   0 160.768 18.5983   2
   1   2   0 129.541 19.9331  13
  -2  -2   0 242.549 25.3122  10
  -2  -2   0 303.843 38.7699  13
  -2  -2   0 317.502 27.9251  10
  -2  -2   0 323.730 26.0165   3
   2   2   0 304.238 38.6958  13
  -3  -2   0 637.609 55.3132  10
  -3  -2   0 576.870 43.8787  17
  -3  -2   0 599.033 52.4938   3
  -4  -2   0 292.537 26.5304   3
  -4  -2   0 313.713 25.7303  10
  -5  -2   0 456.209 36.5172  10
   5   2   0 404.241 36.1188   5
   6   2   0 75.5244 7.18418   5
   7   2   0 25.5590 3.33748   5
   7  -3   0 0.54267 0.92840   4
   7  -3   0 1.08250 1.09167  16
   6  -3   0 122.242 10.9731  12
   6  -3   0 122.324 13.0333   4
   6  -3   0 123.721 11.2263  16
   5  -3   0 171.914 14.9992  16
   5  -3   0 160.952 14.6616  12
   5  -3   0 168.360 17.3967   4
   4  -3   0 34.5156 3.79024  12
   4  -3   0 33.4467 3.74044  16
   4  -3   0 34.8422 4.35856   4
  -4   3   0 44.2057 3.53588  10
  -3   3   0 63.1378 5.57915  10
  -3   3   0 62.6908 8.15061   2
   2  -3   0 2632.49 309.303  13
  -2   3   0 1895.59 307.703  13
  -2   3   0 2507.51 290.294   2
  -2   3   0 2467.67 201.780  10
   1  -3   0 114.238 10.1081   3
   1  -3   0 131.178 15.0811  13
  -1   3   0 79.7727 16.5917   1
  -1   3   0 123.493 9.77270  10
  -1   3   0 97.0494 15.1247  13
  -1   3   0 132.825 14.0805   2
   0  -3   0 1972.90 247.115  13
   0  -3   0 2120.83 165.735   3
   0  -3   0 1944.65 169.947  10
   0   3   0 1790.59 161.159  10
   0   3   0 2180.34 235.465   2
   0   3   0 1397.82 246.597  13
  -1  -3   0 1369.99 172.546  13
  -1  -3   0 1346.58 115.479   3
  -1  -3   0 1314.57 112.542  10
   1   3   0 1449.15 161.813   2
   1   3   0 1140.97 171.966  13
  -2  -3   0 600.221 50.5738   3
  -2  -3   0 569.529 49.2881  10
  -2  -3   0 559.778 75.1818  13
   2   3   0 585.938 75.2502  13
  -3  -3   0 298.600 23.6549  17
  -3  -3   0 349.340 28.4369  10
  -3  -3   0 353.809 29.2289   3
  -4  -3   0 98.4525 8.77889  10
  -4  -3   0 106.086 9.15177   3
  -5  -3   0 325.632 28.4535  10
   5   3   0 347.836 28.3150   5
   5   3   0 335.910 25.0455  14
   5   3   0 329.738 24.5691   7
   6   3   0 61.8507 4.99845   7
   6   3   0 56.4709 5.92359   5
   7   3   0 140.156 12.5237   5
   8   3   0 5.30733 1.45878   5
   7  -4   0 237.717 23.6787   4
   7  -4   0 231.929 20.4068  16
   6  -4   0 7.00015 1.69344  12
   6  -4   0 3.66893 1.18661  16
   6  -4   0 5.81689 1.53706   4
  -6   4   0 4.16666 0.93280  11
   5  -4   0 7.00599 1.78049   4
   5  -4   0 5.44736 1.39804  16
   5  -4   0 7.38953 1.74977  12
  -5   4   0 5.43719 1.01752  11
   4  -4   0 305.080 28.7403  16
   4  -4   0 334.282 28.3122  12
   4  -4   0 319.744 33.3730   4
  -4   4   0 362.250 28.3696  10
   3  -4   0 160.400 15.7911  12
  -3   4   0 203.966 15.7924  10
   2  -4   0 1210.57 164.293  13
  -2   4   0 1390.28 154.367   2
  -2   4   0 1333.05 107.368  10
  -2   4   0 1130.27 164.497  13
   1  -4   0 5.78093 1.13335   3
   1  -4   0 5.38986 1.57650  13
  -1   4   0 4.45894 1.91190  13
  -1   4   0 7.36195 1.40662   2
  -1   4   0 6.92934 0.95977  10
   0  -4   0 33.6246 4.63675  13
   0  -4   0 32.4207 3.06134   3
   0   4   0 35.1098 4.26621   2
   0   4   0 27.0695 4.78082  13
  -1  -4   0 1123.80 141.527  13
  -1  -4   0 1088.58 95.4514  10
  -1  -4   0 1091.55 103.800   3
   1   4   0 966.417 141.144  13
   1   4   0 1165.63 133.131   2
  -2  -4   0 182.326 15.9213  10
  -2  -4   0 183.409 24.4228  13
  -2  -4   0 185.897 16.3380   3
   2   4   0 186.137 24.5855  13
  -3  -4   0 223.739 19.2253  10
  -3  -4   0 216.491 16.0869  17
  -3  -4   0 234.930 19.7673   3
  -4  -4   0 618.247 52.4897  10
  -5  -4   0 447.325 40.2632  10
   5   4   0 521.966 34.7650   7
   5   4   0 447.603 35.2806  14
   5   4   0 478.596 39.7467   5
   6   4   0 52.1390 5.55264   5
   6   4   0 58.6760 4.88894   7
   7   4   0 292.726 25.0257   5
   8   4   0 29.1026 3.31617   5
   6  -5   0 162.360 13.6011  16
   6  -5   0 125.557 15.6633   4
  -6   5   0 175.047 12.6195  11
   5  -5   0 413.155 39.5655  16
   5  -5   0 441.229 45.9189   4
   5  -5   0 524.890 39.0295  12
  -5   5   0 452.240 36.9012  11
   4  -5   0 33.3480 4.18485   4
   4  -5   0 33.9921 3.65184  16
   4  -5   0 43.5802 3.94430  12
  -4   5   0 34.0018 3.25543  11
   3  -5   0 1191.07 98.8383   8
   3  -5   0 1167.95 97.8293  12
  -3   5   0 1167.21 98.6568  10
  -3   5   0 1291.67 154.374   6
  -3   5   0 992.326 93.1386  11
   2  -5   0 728.191 58.9376  12
   2  -5   0 674.656 90.8126  13
  -2   5   0 731.304 85.3439   2
  -2   5   0 655.254 91.1349  13
   1  -5   0 236.986 30.9591  13
   1  -5   0 221.539 20.7302   3
  -1   5   0 214.801 31.1950  13
  -1   5   0 265.765 29.0571   2
   0  -5   0 1879.77 160.764   3
   0  -5   0 1912.89 240.185  13
   0   5   0 1730.49 238.891  13
  -1  -5   0 1415.27 139.937   3
  -1  -5   0 1561.41 195.318  13
   1   5   0 1512.65 194.792  13
  -2  -5   0 75.5370 6.60765  10
  -2  -5   0 69.9943 10.1667  13
  -2  -5   0 78.3875 6.79083   3
   2   5   0 76.0663 10.4534  13
  -3  -5   0 693.815 58.9917  10
  -3  -5   0 695.233 60.5108   3
  -4  -5   0 93.3988 8.20280  10
   4   5   0 94.2867 8.37432   5
   4   5   0 95.2526 7.67530  14
   4   5   0 91.7965 7.58726   7
   5   5   0 5.97839 1.71382  14
   5   5   0 7.82108 1.93221   5
   5   5   0 9.61871 2.18420   7
   6   5   0 10.2119 2.30292   5
   6   5   0 11.7360 2.32002   7
   7   5   0 143.722 11.1913   7
   7   5   0 144.792 12.7286   5
   8   5   0 8.17216 1.74302   5
  -6   6   0 8.16327 0.96512  11
  -5   6   0 53.2065 4.60083  11
   4  -6   0 137.800 11.5292  12
  -4   6   0 119.844 10.6205  11
   3  -6   0 0.37282 0.82452   8
   3  -6   0 0.55573 1.34519  12
  -3   6   0 0.05908 0.57631  11
  -3   6   0 -0.5837 2.16662   6
   2  -6   0 287.627 22.8254  12
   2  -6   0 250.723 22.9993   8
  -2   6   0 220.599 35.2388  13
  -2   6   0 262.489 21.4907  11
  -2   6   0 302.940 36.3204   6
   1  -6   0 373.840 53.4178  13
   1  -6   0 392.925 35.0851   8
  -1   6   0 439.729 32.9236  11
  -1   6   0 385.421 53.8286  13
  -1   6   0 449.088 55.0575   6
   0  -6   0 680.617 86.3383  13
   0   6   0 644.075 86.6619  13
  -1  -6   0 431.269 55.2027  13
  -1  -6   0 388.997 36.8833   3
   1   6   0 446.052 55.5653  13
  -2  -6   0 347.574 47.1073   6
  -2  -6   0 401.617 28.3154  11
  -2  -6   0 326.502 45.9317  13
   2   6   0 304.209 30.2460   8
   2   6   0 372.779 46.2841  13
  -3  -6   0 4.41631 0.83194  11
  -3  -6   0 2.32605 0.63698  10
  -3  -6   0 8.44802 2.02017   6
   3   6   0 2.44689 1.27889   7
   3   6   0 1.03156 0.98181   8
   3   6   0 -0.0721 0.90544  14
  -4  -6   0 317.128 30.3000  10
  -4  -6   0 343.991 28.5848  11
  -4  -6   0 408.465 47.5439   6
   4   6   0 351.073 26.6084  14
   4   6   0 361.359 30.5293   8
   4   6   0 348.044 29.8144   5
   4   6   0 350.646 26.3794   7
  -5  -6   0 761.282 61.7153  11
   5   6   0 699.923 56.1304   7
   5   6   0 815.145 56.9407  14
   5   6   0 797.825 64.0707   5
  -6  -6   0 525.885 42.3126  11
   6   6   0 479.317 38.7404   7
   6   6   0 571.803 44.1507   5
  -7  -6   0 21.6065 2.09973  11
   7   6   0 21.4231 2.86754   7
   7   6   0 26.0977 2.99748   5
  -5   7   0 19.8289 1.85293  11
  -4   7   0 244.045 32.8492   6
   3  -7   0 421.747 38.2460   8
  -3   7   0 469.728 35.9880  11
   2  -7   0 10.8535 1.95095   8
  -2   7   0 16.4263 4.54833   6
  -2   7   0 14.6158 1.64041  11
   1  -7   0 766.968 74.0258   8
  -1   7   0 971.519 115.963   6
   0  -7   0 450.222 35.3707  15
   0  -7   0 450.458 40.1953   8
   0  -7   0 468.583 62.5751   6
   0   7   0 439.546 61.6817  13
   0   7   0 579.592 63.2288   6
   0   7   0 421.022 40.2425   8
  -1  -7   0 43.6509 7.09075  13
  -1  -7   0 52.4476 7.60976   6
  -1  -7   0 50.4268 4.21307  15
   1   7   0 45.5504 5.00415   8
   1   7   0 56.6331 8.43322   6
   1   7   0 48.6279 7.57175  13
  -2  -7   0 1011.03 76.5926  11
  -2  -7   0 1099.96 126.861   6
  -2  -7   0 769.806 124.173  13
   2   7   0 978.356 124.588  13
   2   7   0 917.479 81.4236   8
  -3  -7   0 738.843 88.6081   6
  -3  -7   0 679.548 53.4381  11
   3   7   0 653.292 48.5412   7
   3   7   0 640.126 56.8857   8
   3   7   0 613.305 49.0479  14
  -4  -7   0 77.5949 10.4289   6
  -4  -7   0 70.1586 6.00346  11
   4   7   0 65.1708 6.07381  14
   4   7   0 71.2118 6.26030   7
   4   7   0 70.2900 6.71186   8
  -5  -7   0 119.373 9.97112  11
   5   7   0 127.183 9.90166   7
   5   7   0 119.261 9.82893  14
   5   7   0 118.124 10.6936   5
  -6  -7   0 104.231 8.60686  11
   6   7   0 106.882 9.32339   5
   6   7   0 100.864 8.61276   7
  -7  -7   0 1.16882 0.40314  11
   7   7   0 0.94747 1.14367   7
   7   7   0 1.77830 0.97091   5
  -4   8   0 70.6028 10.1793   6
  -4   8   0 75.9367 5.38047   9
   3  -8   0 34.5027 3.55454   8
  -3   8   0 37.4285 5.74206   6
  -3   8   0 36.6083 3.03754   9
   2  -8   0 637.647 54.4995   8
   1  -8   0 55.2755 5.43285   8
   0  -8   0 46.6384 7.23316   6
   0  -8   0 43.0868 3.93022  15
   0  -8   0 46.9862 4.69367   8
   0   8   0 48.2721 4.86963   8
  -1  -8   0 1238.25 112.728   8
  -1  -8   0 1363.90 175.744   6
  -1  -8   0 1320.47 99.5408  15
   1   8   0 1381.78 112.908   8
  -2  -8   0 231.583 17.8474  15
  -2  -8   0 240.051 31.6913   6
   2   8   0 233.713 20.4938   8
   2   8   0 225.240 17.4187   7
  -3  -8   0 28.2820 4.70793   6
  -3  -8   0 24.6448 2.52765  15
  -3  -8   0 21.5274 2.26928  11
   3   8   0 24.4725 2.93081   7
   3   8   0 26.5248 3.16227   8
  -4  -8   0 1071.80 87.8653  11
  -4  -8   0 1167.73 145.399   6
   4   8   0 1083.61 93.2032   8
   4   8   0 1049.79 80.4638  14
   4   8   0 1107.97 79.5255   7
  -5  -8   0 4.31416 0.88667  11
  -5  -8   0 1.39861 1.40835   6
   5   8   0 2.98142 1.32357   7
  -6  -8   0 3.75991 0.78589  11
   6   8   0 4.03712 1.44627   7
  -3   9   0 143.574 19.4534   6
   2  -9   0 149.772 12.7704   8
  -2   9   0 141.255 19.8560   6
   1  -9   0 187.583 16.2751   8
  -1   9   0 183.510 25.2710   6
   0  -9   0 101.008 9.43935   8
   0   9   0 112.769 9.64539   8
   0   9   0 97.6359 14.5191   6
  -1  -9   0 137.035 18.9259   6
  -1  -9   0 120.240 10.5390  15
  -1  -9   0 136.847 12.2204   8
   1   9   0 152.291 12.4437   8
  -2  -9   0 374.823 29.9489  15
  -2  -9   0 397.714 53.0894   6
   2   9   0 428.661 34.2614   8
   2   9   0 381.771 29.0089   7
  -3  -9   0 518.295 66.2522   6
  -3  -9   0 469.435 37.4023  15
   3   9   0 503.183 42.5298   8
   3   9   0 491.011 36.2366   7
  -4  -9   0 94.8295 12.9429   6
  -4  -9   0 87.6912 7.21990  15
   4   9   0 92.2384 8.20346   8
   4   9   0 89.3516 7.29468   7
  -5  -9   0 389.136 29.5555  15
  -5  -9   0 361.037 31.3980  11
  -5  -9   0 390.804 52.1573   6
   5   9   0 424.617 28.7426   7
   1 -10   0 20.7876 2.22484   8
  -1  10   0 20.6558 3.46277   6
   0 -10   0 137.087 12.9922   8
   0  10   0 160.180 13.1699   8
  -1 -10   0 259.327 22.8316   8
  -1 -10   0 227.473 35.3961   6
   1  10   0 306.681 23.0257   8
  -2 -10   0 7.01922 2.27169   6
  -2 -10   0 6.98049 1.06011  15
   2  10   0 7.30090 1.75199   8
  -3 -10   0 111.078 10.3246  15
  -3 -10   0 138.207 18.5796   6
   3  10   0 147.477 11.9639   8
   3  10   0 145.111 10.3619   7
  -4 -10   0 6.48071 1.97675   6
  -4 -10   0 5.28809 1.00363  15
  -3 -10   1 13.1524 1.59408  15
  -3 -10   1 24.7859 3.40907   6
   2  10  -1 268.535 19.7523   8
  -2 -10   1 198.148 17.1982  15
  -2 -10   1 216.414 30.6007   6
   1  10  -1 248.039 21.4494   8
   0  10  -1 5.00090 1.30463   8
   0 -10   1 4.08172 0.99390   8
   5   9  -1 25.6607 2.24086   7
  -5  -9   1 19.9920 2.04551  15
  -5  -9   1 20.1927 3.72461   6
   4   9  -1 6.48214 1.29126   7
  -4  -9   1 3.90257 1.02694  15
  -4  -9   1 5.94843 2.13269   6
   3   9  -1 14.5205 2.04851   8
   3   9  -1 13.9467 1.93121   7
  -3  -9   1 13.4506 3.14990   6
  -3  -9   1 11.9708 1.68004  15
   2   9  -1 328.009 25.6563   8
  -2  -9   1 265.882 22.3788  15
  -2  -9   1 291.631 39.7667   6
   1   9  -1 84.7444 6.90935   8
  -1  -9   1 64.9870 10.2752   6
  -1  -9   1 69.1608 5.70109  15
  -1  -9   1 66.1424 6.63091   8
   0   9  -1 372.780 28.5101   8
   0  -9   1 289.764 24.8491  15
   0  -9   1 324.156 28.3558   8
  -1   9  -1 34.4411 5.38280   6
   1  -9   1 34.2568 3.50260   8
  -2   9  -1 20.2634 3.55571   6
   2  -9   1 22.0413 2.26352   8
   6   8  -1 31.0370 2.94667   7
  -6  -8   1 30.1760 2.68640  15
  -6  -8   1 30.6734 2.65552  11
   5   8  -1 585.334 40.1412   7
  -5  -8   1 544.507 44.0462  11
  -5  -8   1 512.439 72.9320   6
  -5  -8   1 552.212 41.3820  15
   4   8  -1 34.4828 3.41202   7
   4   8  -1 30.3854 3.49904   8
  -4  -8   1 30.0062 2.99498  11
  -4  -8   1 40.4576 3.24978  15
  -4  -8   1 37.8826 5.80510   6
   3   8  -1 555.333 42.9200   7
   3   8  -1 611.104 50.4203   8
  -3  -8   1 547.116 47.2380  11
  -3  -8   1 609.941 44.4620  15
  -3  -8   1 619.919 78.6019   6
   2   8  -1 170.278 15.1389   8
  -2  -8   1 171.969 23.4640   6
  -2  -8   1 167.079 13.1632  15
   1   8  -1 23.0100 2.89806   8
  -1  -8   1 18.4547 2.15110  15
  -1  -8   1 20.2551 4.15370   6
   0   8  -1 199.913 26.9525   6
   0   8  -1 213.315 17.5989   8
   0  -8   1 199.629 15.2395  15
   0  -8   1 177.636 27.0041   6
   0  -8   1 199.551 17.4683   8
  -1   8  -1 610.382 81.9877   6
   1  -8   1 654.753 52.7586   8
   1  -8   1 582.590 46.4052  15
  -2   8  -1 133.003 19.0822   6
   2  -8   1 144.395 12.3416   8
  -3   8  -1 190.190 26.2568   6
   3  -8   1 198.422 16.8294   8
  -7  -7   1 265.416 21.3744  11
   6   7  -1 24.4033 2.78543   5
   6   7  -1 24.4010 2.97498   7
  -6  -7   1 22.5848 2.19599  11
   5   7  -1 0.22799 1.38022   7
  -5  -7   1 1.31603 0.58346  11
   4   7  -1 4.38261 1.23332   8
   4   7  -1 6.18829 1.44344   7
  -4  -7   1 3.89705 1.00288  11
  -4  -7   1 2.01160 1.73221   6
   3   7  -1 1523.24 113.850   7
   3   7  -1 1479.72 115.291  14
   3   7  -1 1544.52 133.857   8
  -3  -7   1 1735.09 208.762   6
  -3  -7   1 1598.01 126.259  11
   2   7  -1 399.267 35.2583   8
   2   7  -1 368.190 29.9347   7
  -2  -7   1 407.747 32.8817  11
  -2  -7   1 439.999 54.9058   6
  -2  -7   1 427.660 31.0221  15
   1   7  -1 777.706 68.1662   8
  -1  -7   1 810.742 106.125   6
  -1  -7   1 804.705 60.0792  15
   0   7  -1 224.722 20.3820   8
   0  -7   1 238.757 17.8039  15
   0  -7   1 235.994 31.6067   6
   0  -7   1 227.962 20.3287   8
   1  -7   1 153.208 13.1735   8
   1  -7   1 140.090 11.4185  15
   2  -7   1 320.976 26.3348   8
   2  -7   1 284.804 23.0764  15
  -3   7  -1 171.388 24.4512   6
   3  -7   1 187.609 15.7862   8
  -4   7  -1 9.64299 1.34113   9
  -4   7  -1 6.82078 2.15262   6
   7   6  -1 69.1301 6.03392   5
   7   6  -1 59.7044 5.51418   7
  -7  -6   1 64.9056 5.37910  11
   6   6  -1 444.547 35.0728   5
   6   6  -1 378.885 30.8692   7
  -6  -6   1 425.903 33.5845  11
   5   6  -1 591.893 48.3551   5
   5   6  -1 552.458 42.5014   7
  -5  -6   1 589.604 46.5166  11
   4   6  -1 22.5684 2.71086   7
   4   6  -1 23.6151 2.82977  14
   4   6  -1 22.0648 2.68649   5
  -4  -6   1 23.0711 4.19870   6
  -4  -6   1 19.2179 2.11538  11
   3   6  -1 402.656 32.2452  14
   3   6  -1 422.928 37.2969   8
   3   6  -1 405.977 31.8733   7
  -3  -6   1 517.498 58.2128   6
  -3  -6   1 492.457 34.9949  11
  -3  -6   1 362.773 36.9985  10
   2   6  -1 459.466 63.0517  13
   2   6  -1 456.431 41.2633   8
   2   6  -1 449.738 35.1017   7
  -2  -6   1 563.445 64.3430   6
  -2  -6   1 426.610 62.8285  13
  -2  -6   1 528.779 38.6860  11
   1   6  -1 96.3375 14.3212  13
   1   6  -1 95.2316 9.39006   8
  -1  -6   1 100.276 8.12451  15
  -1  -6   1 95.3884 14.0094  13
  -1  -6   1 128.794 14.7045   6
   0   6  -1 1453.00 186.753  13
   0   6  -1 1305.96 121.937   8
   0  -6   1 1389.11 121.941   8
   0  -6   1 1514.28 107.729  15
   0  -6   1 1545.14 190.136   6
   0  -6   1 1404.56 186.404  13
  -1   6  -1 1497.82 159.060   6
  -1   6  -1 1130.97 155.727  13
   1  -6   1 1166.91 101.696   8
   1  -6   1 1157.05 89.7938  15
   1  -6   1 1027.00 155.292  13
  -2   6  -1 149.294 11.6687  11
   2  -6   1 139.437 12.7090   8
   2  -6   1 135.810 11.1251  15
  -3   6  -1 237.514 18.7630  11
   3  -6   1 222.712 20.1457   8
  -4   6  -1 179.223 24.4305   6
  -5   6  -1 2.36616 1.10199   6
   7   5  -1 160.826 12.8144   7
   7   5  -1 172.454 14.4991   5
   6   5  -1 10.1287 2.11169   7
   6   5  -1 11.0765 2.24043   5
   5   5  -1 0.34144 1.19265   7
   5   5  -1 2.73898 1.34134   5
   5   5  -1 2.94906 1.48002  14
   4   5  -1 1310.21 93.0039  14
   4   5  -1 1242.56 91.7511   7
   4   5  -1 1237.82 105.006   5
  -4  -5   1 1279.20 107.482  10
   3   5  -1 10.0971 1.85623  14
   3   5  -1 7.41338 1.77136   7
  -3  -5   1 10.6336 1.27140  10
   2   5  -1 314.744 36.1969  13
  -2  -5   1 271.340 35.9456  13
  -2  -5   1 242.315 23.9903   3
  -2  -5   1 266.238 23.3940  10
   1   5  -1 2025.88 255.984  13
  -1  -5   1 1864.31 171.847   3
  -1  -5   1 2026.86 257.002  13
   0   5  -1 262.882 34.4362  13
   0  -5   1 264.615 34.1729  13
   0  -5   1 250.452 22.8251   3
  -1   5  -1 849.583 107.394  13
  -1   5  -1 850.346 100.526   2
   1  -5   1 781.248 71.7294   3
   1  -5   1 808.972 107.067  13
  -2   5  -1 2025.97 166.250  11
  -2   5  -1 2489.62 274.979   6
  -2   5  -1 1938.21 269.579  13
   2  -5   1 2270.51 174.326  12
   2  -5   1 2039.50 176.105   8
   2  -5   1 1862.56 269.213  13
   2  -5   1 1908.39 155.683  15
  -3   5  -1 230.057 19.8331  11
   3  -5   1 234.865 21.3370   8
   3  -5   1 268.051 21.1611  12
  -4   5  -1 120.274 9.98956  11
  -4   5  -1 107.042 16.6803   6
   4  -5   1 112.789 10.7988   8
   4  -5   1 142.561 10.9095  12
  -5   5  -1 514.305 37.5513  11
   5  -5   1 416.522 40.1808  16
   6  -5   1 30.0058 2.96410  16
   8   4  -1 27.5758 3.08126   5
   7   4  -1 38.3079 3.70164   7
   7   4  -1 38.5677 4.28741   5
   6   4  -1 65.7978 5.50909   7
   6   4  -1 59.1414 6.12114   5
   5   4  -1 428.032 31.0638   7
   5   4  -1 426.319 35.5000   5
   5   4  -1 410.996 31.5791  14
   4   4  -1 30.7612 2.80122   7
   4   4  -1 25.6253 2.91123   5
   4   4  -1 22.9280 2.77657  14
  -4  -4   1 27.0452 2.53733  10
  -3  -4   1 31.6666 3.09146   3
  -3  -4   1 32.3011 2.97384  10
   2   4  -1 1942.23 237.043  13
  -2  -4   1 1839.44 236.233  13
  -2  -4   1 1813.21 161.532  10
  -2  -4   1 1692.38 159.324   3
   1   4  -1 289.406 38.1366  13
   1   4  -1 280.149 35.6482   2
  -1  -4   1 273.834 25.3706   3
  -1  -4   1 309.279 38.0008  13
  -1  -4   1 295.446 24.7501  10
   0   4  -1 2616.20 285.894   2
   0   4  -1 2087.10 304.168  13
   0  -4   1 2324.95 322.501  13
   0  -4   1 2310.28 203.865   3
  -1   4  -1 585.949 80.7470  13
  -1   4  -1 620.510 52.6143  10
  -1   4  -1 687.024 75.6407   2
   1  -4   1 587.294 54.0041   3
   1  -4   1 610.500 80.5716  13
  -2   4  -1 69.8713 5.95722  10
  -2   4  -1 72.1698 8.60581   2
  -2   4  -1 64.0176 9.47890  13
   2  -4   1 58.1472 9.13264  13
  -3   4  -1 380.156 40.5751   6
  -3   4  -1 259.918 23.9141  11
   3  -4   1 295.627 25.6693   8
   3  -4   1 320.311 25.3973  12
   3  -4   1 266.857 22.8428  15
   3  -4   1 257.380 25.7093  16
  -4   4  -1 70.0956 6.39507  11
   4  -4   1 87.7807 7.17351  12
   4  -4   1 75.1730 7.07837  16
   4  -4   1 72.3478 8.15544   4
  -5   4  -1 31.3034 3.06291  11
   5  -4   1 33.1269 4.09041   4
   5  -4   1 40.7188 3.79329  12
   5  -4   1 30.3648 3.54179  16
  -6   4  -1 230.165 17.3518  11
   6  -4   1 213.606 18.7238  16
   6  -4   1 195.934 21.6456   4
   8   3  -1 158.537 13.6695   5
   7   3  -1 59.9830 4.81449   7
   7   3  -1 52.5008 5.69148   5
   6   3  -1 89.1851 6.97095   7
   6   3  -1 83.2498 8.08437   5
   5   3  -1 1107.55 81.0009   7
   5   3  -1 1077.36 92.9851   5
  -5  -3   1 1175.71 94.9490  10
  -4  -3   1 177.884 15.6125   3
  -4  -3   1 175.566 15.1220  10
  -3  -3   1 48.0827 4.64232   3
  -3  -3   1 53.2166 4.49242  10
   2   3  -1 3483.10 426.080  13
  -2  -3   1 3176.17 285.674   3
  -2  -3   1 3279.26 294.494  10
  -2  -3   1 3188.87 426.169  13
   1   3  -1 125.810 15.3601   2
   1   3  -1 112.649 16.4389  13
  -1  -3   1 124.461 16.3822  13
  -1  -3   1 127.305 10.9360   3
  -1  -3   1 129.054 10.6624  10
   0   3  -1 28.4655 3.71276   2
   0   3  -1 31.8204 2.57319  10
   0   3  -1 24.2120 4.15538  13
   0  -3   1 25.7674 2.66157   3
   0  -3   1 26.3708 2.54299  10
   0  -3   1 27.5069 4.02210  13
  -1   3  -1 1536.61 210.601  13
  -1   3  -1 1845.56 198.475   2
  -1   3  -1 1678.53 137.736  10
   1  -3   1 1359.20 141.090   3
   1  -3   1 1681.80 211.257  13
  -2   3  -1 2869.16 406.516  13
  -2   3  -1 3211.08 265.985  10
  -2   3  -1 3315.75 382.034   2
   2  -3   1 3127.49 407.308  13
  -3   3  -1 32.7520 4.16719   2
  -3   3  -1 25.5027 2.77906  10
  -4   3  -1 1513.82 110.780  10
   4  -3   1 1198.74 111.995  16
   4  -3   1 1223.34 129.912   4
   4  -3   1 1327.80 98.2825  15
   4  -3   1 1259.14 109.742  12
   5  -3   1 238.478 25.0354   4
   5  -3   1 254.169 21.2328  12
   5  -3   1 242.945 21.6093  16
  -6   3  -1 85.9991 8.23478  11
   6  -3   1 102.382 10.6518   4
   6  -3   1 96.5725 9.16480  16
   6  -3   1 113.494 9.08285  12
   7  -3   1 18.9599 2.50658  16
   7  -3   1 26.4125 2.98169   4
   7   2  -1 77.1286 7.28380   5
   6   2  -1 250.551 17.7514   7
   6   2  -1 226.533 20.4752   5
   5   2  -1 3.32290 1.16736   5
   5   2  -1 2.48677 0.81952   7
  -5  -2   1 2.20460 0.46358  10
  -4  -2   1 35.4199 3.22722   3
  -4  -2   1 32.6760 2.99418  10
  -3  -2   1 1043.59 83.7840   3
  -3  -2   1 820.708 69.0071  17
  -3  -2   1 1012.99 81.6816  10
   2   2  -1 870.209 111.143  13
  -2  -2   1 872.286 74.8398   3
  -2  -2   1 847.446 72.8124  10
  -2  -2   1 833.503 113.738  13
   1   2  -1 3802.28 479.816  13
   1   2  -1 3763.81 470.541   2
  -1  -2   1 3831.27 481.310  13
  -1  -2   1 3933.28 327.184  10
  -1  -2   1 3156.70 260.597  17
  -1  -2   1 3719.70 335.436   3
   0   2  -1 578.908 82.4213  13
   0   2  -1 607.280 53.8480  10
   0   2  -1 700.733 89.0554   2
   0  -2   1 632.892 82.4984  13
   0  -2   1 662.671 55.5546   3
   0  -2   1 641.905 53.9052  10
  -1   2  -1 420.419 48.7898   2
  -1   2  -1 344.351 52.0054  13
  -1   2  -1 373.675 33.9103  10
   1  -2   1 415.664 51.9538  13
   1  -2   1 434.762 34.8787   3
  -2   2  -1 840.067 94.3671   2
  -2   2  -1 688.879 100.505  13
  -2   2  -1 764.959 65.7359  10
   2  -2   1 798.491 100.806  13
  -3   2  -1 322.504 39.2448   2
  -3   2  -1 316.092 27.2292  10
  -4   2  -1 319.360 39.4931   2
  -4   2  -1 320.188 27.3391  10
   5  -2   1 333.172 29.7542  12
   5  -2   1 357.770 30.4713  16
   5  -2   1 353.552 35.2975   4
   6  -2   1 104.082 9.44502  16
   6  -2   1 97.0702 10.8725   4
   7  -2   1 0.76991 1.20370   4
   7  -2   1 1.02071 1.14568  16
   6   1  -1 35.6848 4.22404   5
   6   1  -1 46.2963 4.90450   4
   5   1  -1 351.868 24.5204   7
   5   1  -1 318.090 28.1836   5
  -4  -1   1 859.031 74.6986   3
  -3  -1   1 1789.98 156.151   3
  -3  -1   1 1835.76 154.236  10
  -3  -1   1 1747.71 152.330  10
  -2  -1   1 459.868 32.0593  17
  -2  -1   1 417.625 38.4537  10
  -2  -1   1 468.339 38.5431  10
  -2  -1   1 472.424 43.6622   3
   1   1  -1 3428.31 452.476  13
  -1  -1   1 3468.91 298.835  10
  -1  -1   1 3487.09 460.414  13
  -1  -1   1 3207.06 249.980  17
  -1  -1   1 3594.12 309.824   3
   0   1  -1 398.702 46.3245   2
   0   1  -1 340.890 32.0464  10
   0   1  -1 381.572 26.8241  17
   0   1  -1 347.255 49.0787  13
   0  -1   1 374.168 32.0580  10
   0  -1   1 356.859 26.6516  17
   0  -1   1 424.955 33.1388   3
   0  -1   1 399.478 49.1496  13
  -1   1  -1 91.3288 11.6944   2
  -1   1  -1 84.4923 12.4774  13
  -1   1  -1 96.1226 6.77099  17
  -1   1  -1 93.3184 8.10797  10
   1  -1   1 103.986 8.37670   3
   1  -1   1 99.4012 12.4405  13
  -2   1  -1 2730.62 348.476   2
  -2   1  -1 2791.34 226.458  10
  -2   1  -1 2492.60 346.269  13
  -3   1  -1 3136.40 405.639   2
  -3   1  -1 3097.49 264.278  10
  -4   1  -1 267.917 22.8310  10
  -4   1  -1 267.290 33.0258   2
  -5   1  -1 83.2930 7.03535  10
   5  -1   1 79.0374 8.66554   4
   5  -1   1 74.4818 7.55330  16
   5  -1   1 83.0021 6.56395  15
   6  -1   1 47.2647 5.53019   4
   6  -1   1 43.4997 4.84402  16
   7  -1   1 50.4394 5.24266  16
   7  -1   1 50.7865 5.94714   4
   8  -1   1 2.34653 1.19129   4
   7   0  -1 141.532 14.0672  16
   7   0  -1 169.757 16.2233   4
   6   0  -1 5.17672 1.63266  16
   6   0  -1 9.35350 1.85761   4
   5   0  -1 66.6096 6.15280  12
   5   0  -1 64.3544 6.29503  16
   5   0  -1 64.1075 7.02014   4
  -4   0   1 1755.77 217.519   2
  -4   0   1 1809.70 155.218   3
  -3   0   1 126.434 18.6639   1
  -1   0   1 2837.90 251.137  10
  -1   0   1 2981.01 251.946  10
  -1   0   1 2928.53 261.932   3
  -1   0   1 3057.38 212.529  17
   0   0  -1 338.618 25.7191   3
   0   0  -1 266.920 38.2228  13
   0   0  -1 260.292 35.9877   2
   0   0  -1 297.717 20.8755  17
   0   0   1 311.879 42.9297   1
   0   0   1 276.460 20.7857  17
   0   0   1 277.132 24.9604  10
   0   0   1 312.604 25.6789   3
   0   0   1 287.680 38.2809  13
  -1   0  -1 2833.00 394.958  13
  -1   0  -1 2857.32 255.647  10
  -1   0  -1 3144.47 217.694  17
  -1   0  -1 3061.79 373.536   2
  -1   0  -1 2920.20 435.098   1
   1   0   1 3022.06 216.849  17
  -2   0  -1 1863.10 150.886  10
  -2   0  -1 1801.95 150.868  10
  -2   0  -1 1847.76 232.142   2
  -2   0  -1 1988.74 128.909  17
  -2   0  -1 1726.79 240.032  13
   2   0   1 1456.47 230.505  13
  -3   0  -1 1425.46 189.093   2
  -3   0  -1 1463.59 122.687  10
  -4   0  -1 336.045 28.1777  10
  -4   0  -1 327.103 40.7100   2
  -5   0  -1 340.313 27.1671  10
   5   0   1 317.625 24.2993  15
   5   0   1 308.085 27.9073  16
   5   0   1 309.906 32.2153   4
   6   0   1 22.9487 3.11092   4
   6   0   1 20.6301 2.94466  16
   7   0   1 17.9020 2.79954  16
   7   0   1 20.8103 3.04301   4
   8   0   1 1.36945 1.05260   4
   8   0   1 0.42083 0.97548  16
   7  -1  -1 0.41778 1.39848  16
   7  -1  -1 0.38862 1.21019   4
   6  -1  -1 85.7274 8.75988   4
   6  -1  -1 75.1344 7.60691  16
   6  -1  -1 74.4889 7.35480  12
   5  -1  -1 433.683 41.1205   4
   5  -1  -1 392.921 34.7249  12
   5  -1  -1 375.511 35.5150  16
  -5   1   1 427.681 34.5924  10
  -4   1   1 41.6978 5.89757   2
  -4   1   1 47.6111 3.89721  10
  -3   1   1 1092.33 131.626   1
  -3   1   1 869.960 78.3158  10
  -3   1   1 760.491 76.7726  10
  -3   1   1 899.119 110.615   2
   2  -1  -1 11.4362 0.98029  17
  -2   1   1 17.7328 2.23274   1
  -2   1   1 11.5311 1.15605  10
  -2   1   1 12.2918 1.15344  10
   1  -1  -1 2302.03 294.646  13
   1  -1  -1 1983.22 162.772  17
  -1   1   1 1764.77 289.961  13
  -1   1   1 2032.83 189.473  10
  -1   1   1 2442.05 199.323   3
  -1   1   1 2290.26 193.020  10
  -1   1   1 2881.28 346.993   1
   0  -1  -1 595.073 43.4611  17
   0  -1  -1 638.400 79.8441  13
   0   1   1 514.809 79.8244  13
   0   1   1 744.903 89.8233   1
   0   1   1 576.758 55.0634  10
   0   1   1 610.526 43.5017  17
  -1  -1  -1 1229.16 147.383  13
  -1  -1  -1 1291.13 88.8822  17
  -1  -1  -1 1196.11 96.2817  10
  -1  -1  -1 1165.55 142.598   2
   1   1   1 762.649 164.933   1
   1   1   1 1343.40 80.2883  17
   1   1   1 1148.99 138.309   2
   1   1   1 972.588 147.557  13
  -2  -1  -1 8380.95 802.447  10
  -2  -1  -1 9999.99 672.904  17
  -2  -1  -1 9460.26 1159.44   2
  -2  -1  -1 9586.80 1230.56  13
  -2  -1  -1 9674.25 803.310  10
  -3  -1  -1 692.448 49.3385  17
  -3  -1  -1 676.471 85.0687   2
  -3  -1  -1 725.239 59.2713  10
  -4  -1  -1 9.98864 1.00717  10
  -5  -1  -1 91.3680 7.53723  10
   5   1   1 86.8459 9.20856   4
   5   1   1 81.1118 8.01958  16
   5   1   1 89.9227 7.00510  15
   6   1   1 492.403 48.8226   4
   6   1   1 479.443 42.1881  16
   7   1   1 77.7447 8.44740   4
   7   1   1 77.8659 7.42684  16
   8   1   1 143.135 14.6975   4
   7  -2  -1 86.8095 7.87255  16
   7  -2  -1 77.9468 9.03237   4
   6  -2  -1 20.3869 2.64210  12
   6  -2  -1 20.0287 2.83248  16
   6  -2  -1 17.7327 3.16155   4
   5  -2  -1 1381.56 137.735   4
   5  -2  -1 1375.95 116.247  12
   5  -2  -1 1380.77 118.777  16
  -5   2   1 1387.39 117.041  10
  -4   2   1 1043.62 130.010   2
  -4   2   1 1087.81 90.3051  10
  -3   2   1 0.42837 0.23402  10
  -3   2   1 0.17321 0.51680   2
   2  -2  -1 1905.02 140.866  17
  -2   2   1 2774.20 290.961   1
  -2   2   1 1284.38 258.372  13
  -2   2   1 1905.16 169.195  10
  -2   2   1 2119.24 243.915   2
   1  -2  -1 1174.42 88.7778   3
   1  -2  -1 1120.17 144.654  13
  -1   2   1 1264.90 168.054   1
  -1   2   1 932.107 86.4518  10
  -1   2   1 662.787 132.052  13
   0  -2  -1 1986.93 225.626  13
   0  -2  -1 1789.39 147.369  10
   0  -2  -1 2135.33 157.545   3
   0   2   1 1658.71 147.294  10
   0   2   1 1190.55 225.443  13
   0   2   1 1659.10 252.738   1
  -1  -2  -1 4010.17 310.233  10
  -1  -2  -1 4385.50 475.758  13
  -1  -2  -1 3799.61 263.718  17
  -1  -2  -1 3970.71 318.691   3
   1   2   1 2536.91 464.036  13
   1   2   1 2858.08 519.571   1
  -2  -2  -1 8201.68 524.104  17
  -2  -2  -1 5967.13 617.563  10
  -2  -2  -1 7194.17 882.177   2
  -2  -2  -1 8211.77 621.774  10
  -2  -2  -1 8706.82 956.002  13
   2   2   1 5136.78 948.787  13
  -3  -2  -1 77.6106 5.84322  17
  -3  -2  -1 81.0967 6.99656  10
  -4  -2  -1 3401.06 288.292  10
  -5  -2  -1 488.287 37.6527  10
   5   2   1 452.991 44.4455   4
   5   2   1 388.126 37.1438   5
   6   2   1 239.194 21.7275   4
   6   2   1 185.462 18.2888   5
   7   2   1 0.50254 1.32051   5
   7   2   1 1.05922 0.95481   4
   7  -3  -1 0.34660 1.02925  12
   7  -3  -1 0.43116 0.91489  16
   7  -3  -1 0.70907 1.04804   4
   6  -3  -1 370.165 30.7661  16
   6  -3  -1 332.091 30.0445  12
   6  -3  -1 351.035 35.6880   4
   5  -3  -1 28.9090 3.32120  16
   5  -3  -1 30.5879 3.25438  12
   5  -3  -1 25.3541 3.81766   4
   4  -3  -1 241.671 22.0349  16
   4  -3  -1 234.149 25.5685   4
   4  -3  -1 246.363 21.6238  12
  -4   3   1 282.387 21.5346  10
  -3   3   1 614.865 53.7601  10
  -3   3   1 652.055 77.4341   2
   2  -3  -1 448.076 49.1342  13
  -2   3   1 417.929 46.2071   2
  -2   3   1 266.834 49.1816  13
  -2   3   1 391.111 32.0779  10
  -2   3   1 361.750 54.9389   1
   1  -3  -1 194.298 14.4803   3
   1  -3  -1 190.261 21.6098  13
  -1   3   1 170.863 14.0610  10
  -1   3   1 109.130 21.5868  13
  -1   3   1 178.341 20.2345   2
  -1   3   1 141.522 24.0772   1
   0  -3  -1 3633.40 299.412  10
   0  -3  -1 4551.37 323.868   3
   0  -3  -1 3708.72 458.405  13
   0   3   1 2797.38 512.933   1
   0   3   1 3710.52 299.511  10
   0   3   1 2404.10 458.114  13
   0   3   1 4045.33 444.952   2
  -1  -3  -1 276.550 22.1029   3
  -1  -3  -1 263.098 21.5659  10
  -1  -3  -1 285.321 33.0433  13
   1   3   1 185.798 33.0979  13
   1   3   1 308.234 30.9144   2
   1   3   1 197.257 37.0274   1
  -2  -3  -1 408.211 32.5958   3
  -2  -3  -1 388.539 33.7078  10
  -2  -3  -1 372.513 26.4662  17
  -2  -3  -1 405.232 48.6417  13
   2   3   1 298.047 48.6912  13
  -3  -3  -1 1840.69 147.797  10
  -3  -3  -1 1553.20 122.673  17
  -3  -3  -1 1827.03 151.929   3
  -4  -3  -1 348.275 28.7658  10
  -4  -3  -1 328.561 29.6114   3
  -5  -3  -1 21.7394 1.90959  10
   5   3   1 18.4042 2.36645  14
   5   3   1 19.1313 2.59730   5
   6   3   1 479.775 40.4376   5
   7   3   1 103.675 9.61951   5
   8   3   1 67.0087 6.29394   5
   7  -4  -1 8.15753 1.53637  12
   7  -4  -1 7.29918 1.58876   4
   7  -4  -1 7.47678 1.35232  16
  -7   4   1 8.29003 0.98021  11
   6  -4  -1 414.613 40.2164   4
   6  -4  -1 393.842 33.9432  12
   6  -4  -1 385.923 34.5908  16
   5  -4  -1 27.6057 3.72207   4
   5  -4  -1 27.2854 3.09362  16
   5  -4  -1 27.6073 3.15681  12
   4  -4  -1 245.628 24.5858   4
   4  -4  -1 218.177 21.1036  16
   4  -4  -1 239.583 20.8328  12
  -4   4   1 260.078 20.7297  10
  -3   4   1 323.725 40.0486   2
  -3   4   1 326.610 27.7719  10
   2  -4  -1 62.2462 7.96465  13
  -2   4   1 58.0170 5.13372  10
  -2   4   1 42.9440 8.09008  13
  -2   4   1 65.4252 7.50815   2
   1  -4  -1 893.036 95.4213  13
   1  -4  -1 734.188 63.6346   3
  -1   4   1 565.556 95.0372  13
  -1   4   1 861.077 89.1828   2
  -1   4   1 542.209 106.126   1
  -1   4   1 782.834 62.0326  10
   0  -4  -1 544.913 65.7584  13
   0  -4  -1 586.498 44.0397   3
   0   4   1 527.776 42.9565  10
   0   4   1 386.409 65.8448  13
   0   4   1 607.299 61.7073   2
   0   4   1 378.932 73.5250   1
  -1  -4  -1 674.103 57.0475  10
  -1  -4  -1 707.246 87.6340  13
  -1  -4  -1 722.296 58.6690   3
   1   4   1 579.601 87.3692  13
  -2  -4  -1 6.38918 0.93890   3
  -2  -4  -1 7.46861 1.47601  13
  -2  -4  -1 6.49236 0.93716  17
  -2  -4  -1 6.60713 0.92402  10
   2   4   1 9.45846 1.88371  13
  -3  -4  -1 223.664 18.0231  17
  -3  -4  -1 273.003 22.2109   3
  -3  -4  -1 263.502 21.6124  10
  -4  -4  -1 1131.29 98.5090   3
  -4  -4  -1 1134.51 96.3587  10
  -5  -4  -1 2.89429 0.65156  10
   5   4   1 2.52542 1.32436  14
   5   4   1 4.10390 1.16859   7
   5   4   1 2.20403 1.29478   5
   6   4   1 5.97282 1.82247   5
   6   4   1 3.48519 1.56210  14
   7   4   1 303.590 25.9927   5
   8   4   1 0.31297 1.32392   5
   6  -5  -1 242.117 24.1525   4
   6  -5  -1 221.523 20.7882  16
   6  -5  -1 265.541 20.5516  12
  -6   5   1 224.844 19.2969  11
   5  -5  -1 103.198 10.7740   4
   5  -5  -1 113.600 9.32780  12
   5  -5  -1 98.9223 9.25618  16
  -5   5   1 91.6389 8.43018  11
   4  -5  -1 936.426 81.9566  16
   4  -5  -1 1033.82 80.4725  12
   4  -5  -1 991.449 95.1168   4
  -4   5   1 851.045 76.4707  11
   3  -5  -1 306.483 32.9793   4
   3  -5  -1 282.938 28.4760  16
   3  -5  -1 331.177 28.0462  12
   3  -5  -1 377.998 28.3543   8
  -3   5   1 286.746 26.4626  11
  -3   5   1 338.777 44.2799   6
  -3   5   1 370.490 28.1131  10
   2  -5  -1 20.5007 3.90702  13
  -2   5   1 27.6548 3.80599   2
  -2   5   1 35.0327 2.66868  10
  -2   5   1 20.2167 4.25924  13
   1  -5  -1 691.709 85.9162  13
  -1   5   1 532.529 86.0735  13
  -1   5   1 664.989 56.1210  10
  -1   5   1 749.944 80.6909   2
   0  -5  -1 396.121 32.8123   3
   0  -5  -1 411.254 49.0617  13
   0   5   1 318.958 49.2354  13
  -1  -5  -1 399.851 50.3534  13
  -1  -5  -1 405.541 33.6849   3
   1   5   1 351.198 50.5776  13
  -2  -5  -1 2189.63 180.613   3
  -2  -5  -1 2019.03 146.456  17
  -2  -5  -1 2017.42 269.533  13
  -2  -5  -1 2037.49 175.939  10
   2   5   1 2091.81 268.607  13
  -3  -5  -1 315.872 27.3814  10
  -3  -5  -1 326.148 28.1003   3
  -4  -5  -1 124.704 10.5396  10
   4   5   1 125.780 9.59681   7
   4   5   1 121.205 10.6324   5
   4   5   1 113.603 9.60878  14
   5   5   1 39.4882 4.15869   5
   5   5   1 41.8672 3.94431   7
   5   5   1 34.6248 4.07582  14
   6   5   1 105.019 9.58158  14
   6   5   1 117.730 10.4999   5
   6   5   1 124.221 9.29809   7
   7   5   1 27.3797 3.55985   5
   8   5   1 17.9777 2.62197   5
  -6   6   1 53.2558 4.49260  11
   5  -6  -1 141.350 13.9360  16
   5  -6  -1 189.269 13.9883  12
   5  -6  -1 143.556 16.1615   4
  -5   6   1 161.303 13.0011  11
   4  -6  -1 53.0252 4.92417  12
   4  -6  -1 39.7381 5.30788   4
  -4   6   1 45.8534 4.25531  11
  -4   6   1 56.7428 8.20584   6
   3  -6  -1 173.932 15.0316  12
   3  -6  -1 175.817 15.1322   8
  -3   6   1 151.933 14.0339  11
  -3   6   1 184.761 23.9832   6
   2  -6  -1 534.563 44.8591   8
   2  -6  -1 581.888 44.4839  12
  -2   6   1 437.200 68.6956  13
  -2   6   1 543.203 70.2190   6
  -2   6   1 522.064 42.2012  11
   1  -6  -1 140.743 18.2235  13
   1  -6  -1 132.587 12.0304   8
  -1   6   1 143.575 19.2189   6
  -1   6   1 127.393 18.5998  13
   0  -6  -1 1151.82 142.332  13
   0   6   1 1039.46 142.667  13
  -1  -6  -1 128.729 16.6817  13
  -1  -6  -1 120.120 11.0816   3
   1   6   1 125.258 17.0654  13
  -2  -6  -1 879.182 114.154  13
  -2  -6  -1 836.012 76.4162   3
   2   6   1 919.932 114.488  13
  -3  -6  -1 586.652 65.9218   6
  -3  -6  -1 497.748 39.7082  11
  -3  -6  -1 469.532 42.0563  10
   3   6   1 462.612 36.5394  14
   3   6   1 452.476 42.2921   8
  -4  -6  -1 220.040 17.4746  11
  -4  -6  -1 237.246 29.1327   6
  -4  -6  -1 197.590 18.5250  10
   4   6   1 221.613 16.5734  14
   4   6   1 211.816 18.3853   5
   4   6   1 208.162 18.7925   8
   4   6   1 211.879 16.4507   7
  -5  -6  -1 42.4207 3.90862  11
   5   6   1 39.0441 4.41549   7
   5   6   1 49.1803 4.72268   5
   5   6   1 50.1784 4.71279  14
  -6  -6  -1 768.608 60.0872  11
   6   6   1 699.998 54.6580   7
   6   6   1 772.824 55.5618  14
   6   6   1 749.874 62.4097   5
  -7  -6  -1 9.40979 1.17554  11
   7   6   1 9.33027 2.10036   7
   7   6   1 9.20092 1.98782   5
  -5   7   1 71.2061 5.95663  11
  -4   7   1 720.393 57.9080  11
   3  -7  -1 62.0800 5.81993  12
   3  -7  -1 52.7910 5.59607   8
  -3   7   1 66.6067 9.71508   6
  -3   7   1 56.7501 5.15225  11
   2  -7  -1 224.653 18.7368  12
   2  -7  -1 200.575 18.8400   8
  -2   7   1 213.920 17.6039  11
  -2   7   1 224.032 29.8810   6
   1  -7  -1 712.535 58.8201   8
   1  -7  -1 609.554 89.6401  13
  -1   7   1 832.634 92.2630   6
  -1   7   1 600.892 90.1499  13
   0  -7  -1 218.470 30.2818  13
   0  -7  -1 248.344 31.0767   6
   0  -7  -1 218.152 19.9458   8
   0   7   1 265.322 31.6513   6
   0   7   1 207.347 20.0768   8
   0   7   1 217.741 30.7917  13
  -1  -7  -1 553.050 51.3238   8
  -1  -7  -1 712.518 80.0863   6
  -1  -7  -1 639.451 45.3002  15
  -1  -7  -1 555.663 78.3383  13
   1   7   1 572.239 51.4939   8
   1   7   1 532.566 78.7232  13
   1   7   1 640.160 80.4281   6
  -2  -7  -1 495.650 73.6192  13
  -2  -7  -1 614.433 45.3619  11
  -2  -7  -1 647.322 75.2600   6
   2   7   1 527.322 48.4043   8
   2   7   1 537.164 73.9952  13
  -3  -7  -1 42.5524 3.86713  11
  -3  -7  -1 52.3377 6.91385   6
   3   7   1 42.6569 4.05232  14
   3   7   1 40.3623 4.55142   8
  -4  -7  -1 238.002 29.7168   6
  -4  -7  -1 201.304 17.7567  11
   4   7   1 200.533 19.1187   8
   4   7   1 235.595 16.8459   7
   4   7   1 220.348 16.8355  14
  -5  -7  -1 118.723 10.1386  11
   5   7   1 125.918 10.9450   5
   5   7   1 122.883 10.0878   7
   5   7   1 124.949 10.0911  14
  -6  -7  -1 10.2663 1.29446  11
   6   7   1 8.69931 2.14069   5
   6   7   1 11.8408 2.59497  14
   6   7   1 4.81834 1.79182   7
  -7  -7  -1 106.261 8.84398  11
   7   7   1 113.420 9.52364   5
   7   7   1 104.267 8.56313   7
  -4   8   1 55.5572 7.94572   6
   3  -8  -1 202.147 17.5640   8
   2  -8  -1 61.0239 6.54404   8
  -2   8   1 81.3274 11.2211   6
   1  -8  -1 32.2501 3.76274   8
  -1   8   1 42.2863 7.08642   6
   0  -8  -1 820.506 116.462   6
   0  -8  -1 805.033 74.7732   8
   0   8   1 812.158 74.9269   8
   0   8   1 1074.30 117.321   6
  -1  -8  -1 3.16034 1.08807  15
  -1  -8  -1 2.91913 1.06173   8
  -1  -8  -1 4.12753 1.77805   6
   1   8   1 1.63202 2.40019   6
   1   8   1 6.22722 1.59777   8
  -2  -8  -1 240.091 29.7987   6
  -2  -8  -1 206.153 16.7398  15
   2   8   1 208.894 19.3036   8
  -3  -8  -1 301.850 36.4748   6
  -3  -8  -1 254.676 21.7208  11
   3   8   1 278.137 20.2076   7
   3   8   1 255.595 23.4859   8
   3   8   1 254.763 20.3250  14
  -4  -8  -1 148.370 19.4215   6
  -4  -8  -1 135.062 11.4428  11
   4   8   1 132.126 12.4846   8
   4   8   1 139.557 11.1054  14
   4   8   1 144.317 11.0952   7
  -5  -8  -1 141.487 12.0665  11
  -5  -8  -1 143.735 20.2238   6
   5   8   1 163.495 11.7551   7
   5   8   1 143.322 11.6958  14
  -6  -8  -1 128.403 10.5877  11
   6   8   1 130.714 10.2911   7
   3  -9  -1 29.6841 2.63288   8
  -3   9   1 24.7166 4.24762   6
   2  -9  -1 321.935 27.7012   8
   1  -9  -1 337.082 29.1020   8
   0  -9  -1 406.207 36.4538   8
   0   9   1 441.379 36.6617   8
  -1  -9  -1 498.397 47.7646   8
  -1  -9  -1 556.018 74.4138   6
   1   9   1 620.021 48.0977   8
  -2  -9  -1 38.1651 3.44892  15
  -2  -9  -1 38.7507 6.34721   6
   2   9   1 40.6289 4.35998   8
  -3  -9  -1 289.452 24.7072  15
  -3  -9  -1 335.090 43.8821   6
   3   9   1 339.753 24.2038   7
   3   9   1 339.795 28.3129   8
  -4  -9  -1 638.042 58.0957  11
  -4  -9  -1 680.074 54.5341  15
  -4  -9  -1 780.452 96.4188   6
   4   9   1 761.357 53.4830  14
   4   9   1 725.868 61.7901   8
   4   9   1 765.202 52.8435   7
  -5  -9  -1 59.8845 8.86664   6
  -5  -9  -1 58.1645 5.09268  11
   5   9   1 67.1359 5.32067   7
  -6  -9  -1 114.602 9.54705  11
  -6  -9  -1 117.650 9.09419  15
   6   9   1 121.108 9.09385   7
   2 -10  -1 1.62207 0.58367   8
  -2  10   1 1.95656 1.06629   6
   1 -10  -1 519.106 44.0588   8
  -1  10   1 513.243 68.6731   6
   0 -10  -1 9.46836 1.52472   8
   0  10   1 7.53126 1.84666   8
   0  10   1 7.48108 2.31023   6
  -1 -10  -1 59.9011 5.65936   8
  -1 -10  -1 52.2420 8.55373   6
   1  10   1 66.4605 5.93383   8
  -2 -10  -1 160.897 23.8394   6
   2  10   1 192.317 15.6053   8
   2  10   1 172.983 13.1728   7
  -3 -10  -1 163.905 13.6872  15
  -3 -10  -1 172.205 24.4017   6
   3  10   1 196.576 15.8459   8
   3  10   1 186.060 13.5223   7
  -4 -10  -1 16.4619 1.66877  15
  -4 -10  -1 16.8198 3.22960   6
   4  10   1 17.7094 1.93535   8
   4  10   1 14.7968 2.00290   7
   2  11   1 8.03491 1.41284   8
  -4  -9   2 284.113 38.6239   6
  -4  -9   2 292.326 21.8270  15
   3   9  -2 190.960 15.2083   8
  -3  -9   2 167.698 23.7622   6
  -3  -9   2 164.973 13.3525  15
   2   9  -2 67.0943 5.71947   8
  -2  -9   2 51.8181 8.70919   6
  -2  -9   2 59.9195 4.84891  15
   1   9  -2 495.890 36.2778   8
  -1  -9   2 377.352 56.2259   6
  -1  -9   2 392.168 31.8007  15
   0   9  -2 7.22382 1.63072   8
   0  -9   2 7.30433 1.39466   8
   0  -9   2 7.16459 1.11650  15
  -1   9  -2 9.23268 2.09206   6
   1  -9   2 9.38075 1.18287  15
   1  -9   2 12.0175 1.55189   8
   5   8  -2 100.562 7.21597   7
  -5  -8   2 82.9283 12.6635   6
  -5  -8   2 87.1094 7.46138  11
  -5  -8   2 95.3867 7.20087  15
   4   8  -2 227.095 16.3909   7
  -4  -8   2 205.840 17.6870  11
  -4  -8   2 206.108 29.6984   6
  -4  -8   2 238.207 16.8342  15
   3   8  -2 127.156 11.5879   8
  -3  -8   2 130.178 10.1606  15
  -3  -8   2 131.717 18.1534   6
   2   8  -2 251.737 20.6786   8
  -2  -8   2 222.627 18.0701  15
  -2  -8   2 233.758 32.1580   6
   1   8  -2 38.6413 4.02455   8
  -1  -8   2 38.6772 3.35870  15
  -1  -8   2 32.6193 6.05438   6
   0   8  -2 872.830 68.3616   8
   0   8  -2 819.706 106.331   6
   0  -8   2 716.071 106.257   6
   0  -8   2 807.348 68.2824   8
   0  -8   2 783.846 60.1903  15
  -1   8  -2 169.373 23.4058   6
   1  -8   2 162.851 13.2183  15
   1  -8   2 183.316 15.2015   8
  -2   8  -2 154.632 20.7896   6
   2  -8   2 159.657 13.4157   8
   2  -8   2 142.714 11.6971  15
  -3   8  -2 223.076 29.8135   6
   3  -8   2 221.205 19.0675   8
   6   7  -2 4.38205 1.28078   7
   6   7  -2 6.64140 1.41934   5
  -6  -7   2 5.81376 1.10240  15
  -6  -7   2 7.70788 0.92370  11
   5   7  -2 26.0088 3.00081   7
  -5  -7   2 24.8661 2.37758  11
  -5  -7   2 26.1914 2.56252  15
   4   7  -2 252.106 19.1014   7
  -4  -7   2 256.067 19.5275  15
  -4  -7   2 262.565 34.5979   6
  -4  -7   2 248.420 20.6177  11
   3   7  -2 11.8588 2.06847   7
  -3  -7   2 22.0987 2.16061  15
  -3  -7   2 16.3314 3.91512   6
   2   7  -2 221.966 19.3533   8
  -2  -7   2 218.546 16.9339  15
  -2  -7   2 219.607 30.1094   6
   1   7  -2 65.5150 6.54039   8
  -1  -7   2 71.3822 5.62492  15
  -1  -7   2 65.2292 10.1175   6
   0   7  -2 87.9000 13.4097   6
   0   7  -2 100.755 8.93785   8
   0  -7   2 94.7950 13.7490   6
   0  -7   2 95.5500 8.86112   8
   0  -7   2 97.9645 7.65679  15
  -1   7  -2 155.050 22.0877   6
   1  -7   2 162.908 12.5198  15
   1  -7   2 164.631 14.3877   8
  -2   7  -2 189.957 27.5437   6
  -2   7  -2 220.128 14.4563   9
   2  -7   2 190.957 15.5848  15
   2  -7   2 209.962 17.8516   8
  -3   7  -2 6.08291 2.22127   6
  -3   7  -2 6.35195 1.34018   9
   3  -7   2 6.50150 1.33595   8
  -4   7  -2 378.749 24.4210   9
  -4   7  -2 323.696 46.7921   6
   7   6  -2 52.2499 4.50143   5
   7   6  -2 46.1003 4.22045   7
  -7  -6   2 44.8501 3.97142  11
   6   6  -2 181.079 15.0524   5
   6   6  -2 165.554 13.4695   7
  -6  -6   2 176.836 14.2052  11
   5   6  -2 39.5264 4.31812   7
   5   6  -2 39.9743 4.47686   5
  -5  -6   2 52.5932 3.97531  11
   4   6  -2 327.770 26.1429   7
   4   6  -2 346.067 29.8451   5
  -4  -6   2 368.498 47.5135   6
  -4  -6   2 367.379 28.4863  11
   3   6  -2 714.770 64.0814   8
   3   6  -2 660.349 54.5617   7
  -3  -6   2 835.937 100.083   6
  -3  -6   2 792.471 60.3144  11
   2   6  -2 5.66081 1.46097   8
  -2  -6   2 4.64834 1.16858  15
  -2  -6   2 4.54099 0.90259  11
  -2  -6   2 6.16587 2.52324   6
  -2  -6   2 5.38535 1.74961  13
   1   6  -2 1860.92 163.399   8
   1   6  -2 1998.02 250.153  13
  -1  -6   2 1696.78 249.818  13
  -1  -6   2 2065.09 254.834   6
  -1  -6   2 2006.82 144.388  15
   0   6  -2 85.1873 11.8666  13
   0   6  -2 79.8984 11.7012   6
   0   6  -2 80.1224 7.76381   8
   0  -6   2 75.6739 11.4722  13
   0  -6   2 84.5321 6.69071  15
   0  -6   2 88.6136 12.1316   6
   0  -6   2 82.9378 7.76700   8
  -1   6  -2 305.490 21.1829   9
  -1   6  -2 286.359 40.3903   6
   1  -6   2 304.631 22.9505  15
   1  -6   2 304.291 26.1598   8
  -2   6  -2 148.569 20.9562   6
  -2   6  -2 153.637 10.9650   9
   2  -6   2 148.153 11.9214  15
   2  -6   2 157.392 13.6692   8
  -3   6  -2 332.202 47.9402   6
  -3   6  -2 362.887 28.8591  11
   3  -6   2 376.085 30.9564   8
   3  -6   2 359.155 27.2725  15
  -4   6  -2 5.86061 1.23122   9
  -4   6  -2 3.57606 1.61929   6
  -4   6  -2 6.57314 1.00062  11
   4  -6   2 5.85048 1.19595   8
  -5   6  -2 148.931 23.6916   6
  -5   6  -2 189.490 14.3043  11
  -5   6  -2 191.825 12.4907   9
   7   5  -2 -1.0566 1.04104   7
   7   5  -2 1.98274 1.16221   5
   6   5  -2 109.603 9.34431   5
   6   5  -2 96.0796 8.44165   7
   5   5  -2 619.082 49.1332   7
   5   5  -2 724.901 56.1511   5
   4   5  -2 7.89718 1.74099   5
   4   5  -2 7.48235 1.77795   7
  -4  -5   2 9.21852 1.19202  11
   3   5  -2 878.624 73.0982   7
   3   5  -2 943.537 85.8784   8
   3   5  -2 1013.37 74.1603  14
  -3  -5   2 1175.96 134.145   6
  -3  -5   2 966.176 85.7436  10
  -3  -5   2 1082.64 81.0131  11
   2   5  -2 211.613 29.5060  13
   2   5  -2 199.678 19.3544   8
  -2  -5   2 201.890 29.4350  13
  -2  -5   2 202.883 19.1228  10
  -2  -5   2 283.782 30.6861   6
  -2  -5   2 237.295 18.0263  11
   1   5  -2 61.1693 9.09518  13
  -1  -5   2 60.7504 8.88152  13
  -1  -5   2 66.9158 5.95006   3
   0   5  -2 106.750 14.4740  13
   0  -5   2 101.367 14.2180  13
  -1   5  -2 2522.54 319.400  13
   1  -5   2 2421.75 208.636   8
   1  -5   2 2373.70 319.659  13
   1  -5   2 2524.05 184.422  15
  -2   5  -2 117.350 15.7879  13
   2  -5   2 88.7318 15.1911  13
   2  -5   2 118.729 9.03238  15
   2  -5   2 125.522 10.3556   8
  -3   5  -2 2044.18 270.382   6
   3  -5   2 2120.22 173.606   8
   3  -5   2 1970.56 153.493  15
  -4   5  -2 68.4994 9.61800   6
   4  -5   2 64.2303 5.60261  15
   4  -5   2 62.1512 6.15611   8
  -5   5  -2 33.1719 2.85994  11
  -5   5  -2 29.2410 4.97662   6
  -6   5  -2 22.7735 1.99931   9
  -6   5  -2 23.5398 2.08812  11
   7   4  -2 107.852 9.52180   5
   7   4  -2 103.080 8.35476   7
   6   4  -2 90.5143 8.43116   5
   6   4  -2 91.9652 7.56107   7
   5   4  -2 12.0648 2.19256   7
   5   4  -2 12.6753 2.10520   5
   4   4  -2 553.712 41.9736   7
   4   4  -2 563.399 47.9931   5
  -4  -4   2 607.824 48.9492  10
  -3  -4   2 658.291 53.5682  10
  -3  -4   2 601.666 54.9393   3
   2   4  -2 232.734 28.5058  13
  -2  -4   2 215.609 28.5176  13
  -2  -4   2 194.099 18.9893   3
  -2  -4   2 220.949 18.5316  10
   1   4  -2 903.533 114.209  13
  -1  -4   2 879.341 114.101  13
  -1  -4   2 884.461 74.4841  10
  -1  -4   2 839.660 76.3643   3
   0   4  -2 114.725 15.8934  13
   0   4  -2 126.226 14.7837   2
   0  -4   2 109.385 15.7076  13
   0  -4   2 114.417 10.4972   3
  -1   4  -2 890.496 102.782   2
  -1   4  -2 878.133 109.706  13
   1  -4   2 806.654 73.3610   3
   1  -4   2 788.780 109.436  13
  -2   4  -2 1143.26 136.722  13
   2  -4   2 954.331 136.299  13
  -3   4  -2 2.57862 0.66023  11
  -3   4  -2 1.90888 1.57297   6
  -3   4  -2 0.69498 0.64002  10
   3  -4   2 -1.0472 1.21225  15
   3  -4   2 5.42895 1.40326  12
   3  -4   2 0.22654 0.89836   8
  -4   4  -2 375.922 50.9798   6
  -4   4  -2 402.518 30.7527  11
   4  -4   2 349.364 32.9739  16
   4  -4   2 360.383 32.7976   8
   4  -4   2 477.263 32.6522  12
   4  -4   2 317.052 29.0701  15
  -5   4  -2 395.890 30.5689  11
   5  -4   2 360.198 32.8100  16
  -6   4  -2 25.6038 2.26240  11
   6  -4   2 23.3289 2.88286   4
   6  -4   2 23.0408 2.57834  16
   7   3  -2 4.91110 1.61300   5
   7   3  -2 5.57891 1.34614   7
   6   3  -2 546.390 38.1419   7
   6   3  -2 494.699 43.6737   5
   5   3  -2 236.689 21.2703   5
   5   3  -2 248.065 18.5853   7
  -5  -3   2 262.337 21.3375  10
   4   3  -2 41.6782 4.32064   5
   4   3  -2 42.3811 3.84619   7
  -4  -3   2 42.1997 4.18177   3
  -4  -3   2 49.7722 4.02750  10
  -3  -3   2 3106.23 318.584   3
  -3  -3   2 3818.24 295.685  10
   2   3  -2 632.597 78.1231  13
  -2  -3   2 556.615 52.3564   3
  -2  -3   2 625.922 51.0738  10
  -2  -3   2 589.858 78.2430  13
   1   3  -2 83.3289 11.5126   2
   1   3  -2 85.9172 12.2698  13
  -1  -3   2 88.7630 12.2677  13
  -1  -3   2 92.4883 7.94273  10
  -1  -3   2 95.5961 8.18156   3
   0   3  -2 1338.47 162.886   2
   0   3  -2 1324.58 173.320  13
   0  -3   2 1346.73 174.072  13
   0  -3   2 1328.97 116.827   3
  -1   3  -2 4694.61 533.713   2
  -1   3  -2 4068.82 533.830  13
   1  -3   2 3468.49 380.702   3
   1  -3   2 4188.95 534.317  13
  -2   3  -2 373.051 50.0509  13
  -2   3  -2 382.008 32.5425  10
  -2   3  -2 405.994 46.8333   2
   2  -3   2 362.108 49.8266  13
  -3   3  -2 561.056 47.8441  10
  -4   3  -2 1074.05 148.580   6
  -4   3  -2 1180.49 95.3251  10
  -4   3  -2 1007.27 89.9082  11
   4  -3   2 1019.37 111.706   4
   4  -3   2 1186.29 95.3798   8
   4  -3   2 1077.07 96.3530  16
   4  -3   2 1103.41 84.5513  15
   4  -3   2 1323.95 94.5468  12
  -5   3  -2 6.69496 1.02681  11
   5  -3   2 2.45276 1.43530  12
   5  -3   2 3.21509 1.24669  16
   5  -3   2 3.49744 1.59949  15
   5  -3   2 2.31284 1.15465   4
   6  -3   2 146.304 12.5486  16
   6  -3   2 132.915 14.4546   4
  -7   3  -2 175.807 13.9399  11
   7  -3   2 174.269 17.4243   4
   7  -3   2 165.644 15.0542  16
   7   2  -2 53.8762 4.48597   7
   7   2  -2 51.4378 5.23645   5
   6   2  -2 30.8135 3.71147   5
   6   2  -2 33.2671 3.12163   7
   5   2  -2 264.837 24.6145  12
   5   2  -2 262.155 24.1729   5
   5   2  -2 277.188 21.0418   7
  -5  -2   2 334.352 24.2795  10
  -4  -2   2 3.32642 0.76184   3
  -4  -2   2 4.52223 0.65673  10
  -3  -2   2 65.2086 6.55699   3
  -3  -2   2 79.9069 6.37170  10
   2   2  -2 422.774 56.3937  13
  -2  -2   2 449.192 36.9299  10
  -2  -2   2 432.548 56.5733  13
  -2  -2   2 434.634 37.8837   3
   1   2  -2 2436.03 315.637  13
   1   2  -2 2321.61 296.471   2
  -1  -2   2 2439.60 228.330   3
  -1  -2   2 2513.95 316.088  13
  -1  -2   2 2432.03 206.184  10
   0   2  -2 223.396 20.2519  10
   0   2  -2 240.367 29.1970   2
   0   2  -2 236.075 31.1168  13
   0  -2   2 223.236 20.8304   3
   0  -2   2 240.589 31.0859  13
   0  -2   2 239.010 20.2648  10
  -1   2  -2 5559.22 725.689  13
  -1   2  -2 5751.27 717.713   2
  -1   2  -2 5348.49 473.931  10
   1  -2   2 5718.79 521.388   3
   1  -2   2 5610.08 725.562  13
  -2   2  -2 30.7340 3.82539   2
  -2   2  -2 25.1836 2.55909  10
  -2   2  -2 26.2744 4.14919  13
   2  -2   2 25.4630 3.95632  13
  -3   2  -2 61.8256 7.87040   2
  -3   2  -2 58.3281 5.39099  10
  -4   2  -2 654.755 51.1389  10
   4  -2   2 537.538 60.0146   4
   4  -2   2 660.834 45.5164  15
   4  -2   2 592.634 50.7559  12
   4  -2   2 554.243 51.8007  16
   5  -2   2 244.556 21.5739  16
   5  -2   2 256.185 19.0427  15
   5  -2   2 232.059 24.9253   4
   6  -2   2 -0.1459 1.33246  15
   6  -2   2 0.91261 1.20680   4
   6  -2   2 2.45459 1.39737  16
  -7   2  -2 75.5840 6.59498  11
   7  -2   2 82.5269 7.38326  16
   7  -2   2 80.4669 8.52226   4
   6   1  -2 392.609 34.6653   5
   6   1  -2 432.693 30.2085   7
   5   1  -2 71.4466 6.47773  12
   5   1  -2 74.0750 5.47662   7
   5   1  -2 59.3047 6.27014   5
  -4  -1   2 1735.41 244.487   1
  -4  -1   2 1632.83 142.735  10
  -3  -1   2 1376.67 125.127   3
  -3  -1   2 1499.40 122.058  10
  -2  -1   2 839.095 68.7006  10
  -2  -1   2 778.322 104.813  13
  -2  -1   2 806.523 70.4326   3
   1   1  -2 1812.97 247.411   2
   1   1  -2 2054.47 263.177  13
   1   1  -2 1990.08 143.157  17
  -1  -1   2 2185.76 176.766   3
  -1  -1   2 2156.36 172.116  10
  -1  -1   2 1888.31 143.086  17
  -1  -1   2 2106.01 263.544  13
   0   1  -2 988.885 91.8496  10
   0   1  -2 1047.23 140.639  13
   0   1  -2 1103.60 76.6782  17
   0   1  -2 1088.51 132.476   2
   0  -1   2 1070.94 91.8342  10
   0  -1   2 1074.45 140.932  13
   0  -1   2 1201.21 94.6282   3
  -1   1  -2 276.610 25.7275  10
  -1   1  -2 291.741 37.0431   2
  -1   1  -2 289.400 39.4471  13
  -1   1  -2 306.232 21.4313  17
   1  -1   2 310.918 26.4557   3
   1  -1   2 297.319 39.4186  13
   1  -1   2 336.096 43.9621   1
  -2   1  -2 18.3106 2.62739  13
  -2   1  -2 17.0398 2.45041   2
  -2   1  -2 15.1936 1.38196  17
  -2   1  -2 15.7627 1.60518  10
   2  -1   2 14.8780 2.46229  13
  -3   1  -2 1595.56 133.731  10
  -3   1  -2 1550.61 191.826   2
  -4   1  -2 9.28492 1.18398  10
  -4   1  -2 8.95886 1.90556   2
  -5   1  -2 20.9833 2.16955  10
   5  -1   2 20.6147 2.94650   4
   5  -1   2 19.7386 2.66258  16
   5  -1   2 22.3952 2.52865  15
   6  -1   2 816.255 85.7133   4
   6  -1   2 880.699 64.7495  15
   6  -1   2 873.645 74.0006  16
   7  -1   2 1.06209 1.35236  16
   7  -1   2 -0.4307 1.06725   4
   6   0  -2 137.801 13.7099   4
   6   0  -2 128.810 9.96504   7
   6   0  -2 129.975 11.7966  12
   6   0  -2 128.342 12.0678  16
   5   0  -2 409.962 37.2445  16
   5   0  -2 438.147 36.4709  12
   5   0  -2 430.533 31.1650   7
   5   0  -2 432.527 42.9383   4
  -4   0   2 136.237 19.5448   1
  -4   0   2 125.812 11.1206  10
  -3   0   2 129.429 17.9371   1
  -3   0   2 107.744 10.6106   3
  -3   0   2 126.378 10.2704  10
  -3   0   2 119.441 10.2695  10
   2   0  -2 1540.80 117.893  17
  -2   0   2 1651.02 117.965  17
  -2   0   2 1684.24 147.060  10
  -2   0   2 1833.84 271.366   1
  -2   0   2 1742.69 145.698   3
  -2   0   2 1623.81 141.852  10
   1   0  -2 5045.89 386.009  17
   1   0  -2 5672.18 701.454  13
  -1   0   2 5364.24 475.062   3
  -1   0   2 5404.70 458.593  10
  -1   0   2 5115.86 385.249  17
  -1   0   2 4961.56 707.207  13
  -1   0   2 5810.66 800.897   1
   0   0  -2 1177.59 116.770  10
   0   0  -2 1154.86 161.944   2
   0   0  -2 1367.93 93.7669  17
   0   0  -2 1273.74 172.404  13
   0   0   2 1470.89 115.670   3
   0   0   2 1400.60 172.687  13
   0   0   2 1241.03 101.941  17
   0   0   2 1315.05 112.719  10
   0   0   2 1519.55 193.142   1
  -1   0  -2 465.511 56.2911   2
  -1   0  -2 430.836 59.6308  13
  -1   0  -2 467.307 33.5821  17
  -1   0  -2 417.117 38.9506  10
   1   0   2 461.890 59.6520  13
   1   0   2 506.164 69.1568   1
  -2   0  -2 1673.16 229.108  13
  -2   0  -2 1661.06 149.717  10
  -2   0  -2 1872.66 124.822  17
  -2   0  -2 1759.86 215.446   2
   2   0   2 1868.17 247.707  13
  -3   0  -2 245.984 21.2394  10
  -3   0  -2 245.077 17.6933  17
  -3   0  -2 257.386 30.6523   2
  -4   0  -2 1126.09 94.3411  10
  -4   0  -2 1097.69 135.573   2
  -5   0  -2 39.1480 3.60193  10
   5   0   2 36.3138 4.57436   4
   5   0   2 45.0009 3.64009  15
   5   0   2 37.4338 4.10935  16
   6   0   2 9.38581 1.69587  15
   6   0   2 2.73772 1.35061  16
   6   0   2 4.52763 1.54360   4
   7   0   2 20.6878 2.91983  16
   7   0   2 22.3692 3.19326   4
   8   0   2 30.8890 3.05230  16
   8   0   2 22.4845 3.22526   4
   7  -1  -2 46.5576 5.25897  16
   7  -1  -2 44.3558 4.96790  12
   7  -1  -2 59.7854 5.98205   4
   6  -1  -2 93.1275 8.93851   4
   6  -1  -2 71.7259 7.81049  16
   6  -1  -2 76.0658 7.53118  12
   5  -1  -2 110.836 10.8534  16
   5  -1  -2 126.360 12.4233   4
   5  -1  -2 127.173 10.6231  12
   5  -1  -2 114.152 8.90118   7
  -5   1   2 112.331 10.0633  10
  -4   1   2 8.00652 0.77813  10
  -4   1   2 8.15681 1.61202   2
  -3   1   2 1029.60 135.490   1
  -3   1   2 835.666 79.1071  10
   2  -1  -2 368.481 26.1757  17
  -2   1   2 374.301 31.6023  10
  -2   1   2 336.559 31.4899  10
  -2   1   2 353.702 32.2906   3
  -2   1   2 422.192 54.1411   1
   1  -1  -2 2135.28 153.593  17
   1  -1  -2 2130.92 282.279  13
  -1   1   2 2177.08 184.620  10
  -1   1   2 2481.91 316.813   1
  -1   1   2 2221.05 293.380  13
  -1   1   2 1981.71 153.552  17
  -1   1   2 2107.85 191.942   3
   0  -1  -2 294.177 27.8417  10
   0  -1  -2 276.127 28.6204   3
   0  -1  -2 343.764 24.4162  17
   0  -1  -2 318.514 42.6056  13
   0   1   2 384.804 42.8126  13
   0   1   2 319.145 27.8520  10
   0   1   2 348.061 47.7329   1
   0   1   2 326.575 23.1818  17
  -1  -1  -2 948.130 62.0436  17
  -1  -1  -2 821.958 106.661   2
  -1  -1  -2 832.284 76.3444  10
  -1  -1  -2 842.067 122.177  13
   1   1   2 793.387 127.326   1
   1   1   2 997.725 113.640  13
  -2  -1  -2 1553.76 208.107  13
  -2  -1  -2 1641.80 207.374   2
  -2  -1  -2 1730.44 113.347  17
  -2  -1  -2 1624.58 136.784  10
   2   1   2 1469.46 208.382  13
  -3  -1  -2 898.394 111.953   2
  -3  -1  -2 939.652 65.0304  17
  -3  -1  -2 920.323 83.6386  10
  -4  -1  -2 12.0248 1.25050  10
  -5  -1  -2 761.792 61.0429  10
   5   1   2 745.673 62.0661  16
   5   1   2 756.403 54.2559  15
   5   1   2 611.702 59.8058   5
   5   1   2 720.740 71.8604   4
   6   1   2 305.307 26.6367  16
   6   1   2 301.846 30.7654   4
   7   1   2 145.947 13.1314  16
   7   1   2 145.276 15.1541   4
   8   1   2 78.5253 8.34238   4
   7  -2  -2 35.0075 3.97830  16
   7  -2  -2 36.9970 4.52014   4
   7  -2  -2 31.9599 3.65766  12
   6  -2  -2 162.010 16.7702   4
   6  -2  -2 160.755 14.5143  16
   6  -2  -2 155.262 14.1108  12
   5  -2  -2 170.531 15.6163  16
   5  -2  -2 176.702 15.2525  12
   5  -2  -2 185.316 18.1112   4
  -5   2   2 162.892 14.8479  10
  -4   2   2 87.1769 11.1193   2
  -3   2   2 1361.51 167.137   2
  -3   2   2 1221.93 116.082  10
  -3   2   2 1522.00 198.719   1
  -2   2   2 5066.18 657.340   1
  -2   2   2 3963.83 391.075  10
   1  -2  -2 47.0727 3.56813  17
   1  -2  -2 44.5858 6.46625  13
  -1   2   2 57.9856 7.42199   1
  -1   2   2 39.6001 6.64066  13
  -1   2   2 46.6413 4.22392  10
   0  -2  -2 360.696 33.1614  10
   0  -2  -2 374.886 27.6057  17
   0  -2  -2 439.962 50.9038  13
   0  -2  -2 382.732 35.3294   3
   0   2   2 347.592 50.9243  13
   0   2   2 395.700 33.1819  10
   0   2   2 434.662 56.9240   1
  -1  -2  -2 1713.54 201.608  13
  -1  -2  -2 1601.08 139.028  10
  -1  -2  -2 1627.87 109.776  17
   1   2   2 1424.34 201.809  13
   1   2   2 1366.01 243.670   1
  -2  -2  -2 111.928 7.61694  17
  -2  -2  -2 112.600 13.9425  13
  -2  -2  -2 102.909 12.9856   2
  -2  -2  -2 116.457 9.08755  10
   2   2   2 79.5109 13.9983  13
  -3  -2  -2 124.111 8.79882  17
  -3  -2  -2 122.003 10.5244  10
  -4  -2  -2 427.181 36.2832  10
  -5  -2  -2 5.69974 0.79770  10
   5   2   2 6.07265 1.67417   5
   5   2   2 6.86058 1.34643   4
   5   2   2 5.16636 1.34965  16
   6   2   2 268.392 24.6159   4
   6   2   2 214.016 20.7056   5
   7   2   2 6.58303 1.80945   5
   7   2   2 8.74107 1.83228   4
   8   2   2 8.41858 1.59783   4
   7  -3  -2 -0.2009 1.12551   4
   7  -3  -2 0.41495 1.14966  16
   7  -3  -2 0.80406 1.08493  12
   6  -3  -2 7.71104 1.86515  12
   6  -3  -2 8.18713 2.25698   4
   6  -3  -2 8.48673 1.96504  16
   5  -3  -2 147.831 12.7021  12
   5  -3  -2 148.613 12.9563  16
   5  -3  -2 130.623 14.9635   4
   4  -3  -2 560.029 49.0143  16
   4  -3  -2 528.275 56.8628   4
   4  -3  -2 569.912 48.0228  12
  -4   3   2 608.161 48.1487  10
  -3   3   2 652.686 79.7603   2
  -2   3   2 559.832 62.5129   2
  -2   3   2 512.287 43.3904  10
  -2   3   2 625.287 74.5573   1
  -2   3   2 348.970 66.5400  13
   1  -3  -2 1753.33 128.951  17
   1  -3  -2 2009.92 237.094  13
  -1   3   2 1332.13 236.785  13
  -1   3   2 1852.13 154.847  10
  -1   3   2 2267.52 300.005   1
   0  -3  -2 41.4109 3.00895  17
   0  -3  -2 41.9181 3.53442   3
   0  -3  -2 36.7857 3.48268  10
   0  -3  -2 41.9995 5.38448  13
   0   3   2 45.6286 6.19662   1
   0   3   2 30.3146 5.55922  13
   0   3   2 38.9333 3.49217  10
  -1  -3  -2 1955.90 163.523   3
  -1  -3  -2 1995.45 131.353  17
  -1  -3  -2 2198.69 241.573  13
  -1  -3  -2 1983.61 157.628  10
   1   3   2 1580.53 270.018   1
   1   3   2 1427.83 241.170  13
  -2  -3  -2 1990.71 157.492  10
  -2  -3  -2 1920.67 131.326  17
  -2  -3  -2 2124.51 241.242  13
  -2  -3  -2 1944.49 161.633   3
   2   3   2 1293.09 240.344  13
  -3  -3  -2 315.864 25.5119  10
  -3  -3  -2 283.789 21.2435  17
  -4  -3  -2 2494.25 219.072  10
  -4  -3  -2 2408.05 213.453   3
  -5  -3  -2 284.697 22.9742  10
   5   3   2 269.556 27.1671   4
   5   3   2 252.846 22.9020   5
   6   3   2 28.5382 3.32933   4
   6   3   2 22.5175 3.47560   5
   7   3   2 104.771 11.1492   5
   7   3   2 141.774 12.9066   4
   7  -4  -2 106.842 8.63928  16
   7  -4  -2 90.4807 8.42701  12
   7  -4  -2 88.6727 9.96735   4
   6  -4  -2 71.0449 6.65460  16
   6  -4  -2 73.6159 7.78156   4
   6  -4  -2 63.1801 6.49975  12
   5  -4  -2 24.2182 3.51550   4
   5  -4  -2 23.7353 2.90597  16
   5  -4  -2 25.0767 3.01959  12
   4  -4  -2 64.9763 6.16487  12
   4  -4  -2 60.2875 6.14655  16
   4  -4  -2 66.1239 7.25748   4
  -4   4   2 69.2731 5.83773  10
  -3   4   2 1311.36 113.131  10
  -3   4   2 1358.45 162.757   2
  -2   4   2 720.878 53.5928  10
  -2   4   2 613.809 91.8056   1
  -2   4   2 436.675 82.0751  13
  -2   4   2 750.102 77.1192   2
   1  -4  -2 821.945 58.9621  17
   1  -4  -2 947.625 108.742  13
  -1   4   2 1012.09 102.078   2
  -1   4   2 798.585 121.839   1
  -1   4   2 596.918 108.501  13
   0  -4  -2 4337.27 342.249   3
   0  -4  -2 4019.63 489.841  13
   0  -4  -2 3904.00 295.132  17
   0   4   2 4388.04 459.900   2
   0   4   2 3270.19 581.346   1
   0   4   2 2727.45 489.764  13
  -1  -4  -2 384.594 44.4947  13
  -1  -4  -2 355.653 24.2738  17
  -1  -4  -2 355.950 29.0424  10
  -1  -4  -2 390.777 29.7482   3
   1   4   2 259.383 44.6153  13
   1   4   2 297.729 49.9038   1
  -2  -4  -2 30.3275 4.00657  13
  -2  -4  -2 30.4693 2.28726  17
  -2  -4  -2 29.2866 2.57028  10
  -2  -4  -2 29.1666 2.63255   3
   2   4   2 20.1961 4.16090  13
  -3  -4  -2 554.559 41.4840  17
  -3  -4  -2 583.911 51.1307   3
  -3  -4  -2 622.070 49.8464  10
  -4  -4  -2 1393.89 127.775   3
  -4  -4  -2 1543.08 124.900  10
  -5  -4  -2 952.341 75.6579  10
   5   4   2 925.179 74.2394   5
   5   4   2 796.789 65.6180  14
   6   4   2 1537.16 127.573   5
   7   4   2 7.11678 2.09253   5
   8   4   2 76.3155 7.10758   5
   6  -5  -2 4.24706 1.31712  12
   6  -5  -2 2.35575 1.01068   4
   6  -5  -2 2.99040 1.06788  16
  -6   5   2 2.59521 0.61807  11
   5  -5  -2 434.416 36.0749  16
   5  -5  -2 448.876 41.9066   4
  -5   5   2 362.713 33.4587  11
   4  -5  -2 25.6614 2.91364  16
   4  -5  -2 29.4987 3.53082   4
   4  -5  -2 27.5545 3.14416  12
  -4   5   2 23.6299 2.47924  11
   3  -5  -2 27.2384 3.09986  12
   3  -5  -2 29.2142 2.96770   8
   3  -5  -2 29.2362 3.43739   4
   3  -5  -2 23.5866 2.86524  16
  -3   5   2 32.5075 2.79765  10
  -3   5   2 25.2752 2.58083  11
  -3   5   2 28.1969 5.25385   6
  -2   5   2 1323.65 239.027  13
  -2   5   2 2149.01 224.466   2
  -2   5   2 2053.93 156.272  10
   1  -5  -2 539.536 60.8753  13
  -1   5   2 373.654 61.0399  13
  -1   5   2 556.099 57.1772   2
  -1   5   2 397.413 68.0902   1
   0  -5  -2 158.723 10.6695  17
   0  -5  -2 170.257 19.3420  13
   0   5   2 127.965 21.6714   1
   0   5   2 125.764 19.5717  13
  -1  -5  -2 638.236 51.4336   3
  -1  -5  -2 639.533 41.9296  17
  -1  -5  -2 648.767 76.8795  13
   1   5   2 503.428 77.0891  13
   1   5   2 520.211 86.1576   1
  -2  -5  -2 1539.58 104.617  17
  -2  -5  -2 1604.44 193.247  13
  -2  -5  -2 1501.75 126.119  10
  -2  -5  -2 1534.97 139.270   3
   2   5   2 1245.95 192.529  13
  -3  -5  -2 125.792 10.7542   3
  -3  -5  -2 118.177 8.92692  17
  -3  -5  -2 111.069 16.1249  13
  -3  -5  -2 129.012 10.4868  10
  -4  -5  -2 345.880 27.9188  10
   4   5   2 299.672 24.5233  14
   4   5   2 314.738 27.5110   5
   4   5   2 347.088 24.3731   7
   5   5   2 42.6187 3.96747   7
   5   5   2 43.0118 4.40855   5
   5   5   2 38.5137 4.25465  14
   6   5   2 32.6004 3.84760  14
   6   5   2 32.2707 3.96607   5
   7   5   2 35.9427 4.25742   5
   8   5   2 174.597 15.1012   5
   6  -6  -2 88.3087 6.57226  12
   6  -6  -2 56.2528 6.41123  16
   6  -6  -2 64.1501 7.47065   4
  -6   6   2 79.6018 5.99524  11
   5  -6  -2 221.965 23.4726   4
   5  -6  -2 255.547 20.0410  12
   5  -6  -2 217.374 20.2210  16
  -5   6   2 231.373 18.8293  11
   4  -6  -2 141.483 13.3110  16
   4  -6  -2 158.966 13.2955  12
   4  -6  -2 146.065 15.4669   4
  -4   6   2 153.518 12.3737  11
   3  -6  -2 256.280 19.9431   8
   3  -6  -2 233.365 19.8064  12
   3  -6  -2 201.057 23.1445   4
  -3   6   2 217.828 18.6163  11
  -3   6   2 234.663 31.3520   6
   2  -6  -2 357.238 28.4229   8
   2  -6  -2 292.964 33.0914   4
   2  -6  -2 345.232 28.1859  12
  -2   6   2 338.772 26.6976  11
  -2   6   2 313.941 44.5288   6
   1  -6  -2 1334.56 158.979  13
  -1   6   2 1114.00 159.351  13
   0  -6  -2 19.3164 2.83416  13
   0  -6  -2 15.8879 1.68071  17
   0   6   2 12.5466 3.12616   1
   0   6   2 21.3920 3.59664  13
  -1  -6  -2 11.6158 2.06442  13
   1   6   2 10.6669 2.72451  13
  -2  -6  -2 557.161 69.4265  13
  -2  -6  -2 516.808 46.4185   3
   2   6   2 523.783 69.7429  13
  -3  -6  -2 686.262 56.6582  10
  -3  -6  -2 746.272 53.5455  11
  -3  -6  -2 648.625 86.7341  13
   3   6   2 605.324 56.9255   8
   3   6   2 644.147 49.1041  14
  -4  -6  -2 9.06070 1.31211  10
  -4  -6  -2 10.4433 1.19482  11
  -4  -6  -2 11.3195 2.46201   6
   4   6   2 12.0301 2.42293   7
   4   6   2 9.51890 1.99259  14
   4   6   2 8.56493 1.69251   8
   4   6   2 10.0610 1.94299   5
  -5  -6  -2 1325.46 106.200  11
   5   6   2 1353.19 109.960   5
   5   6   2 1263.67 96.0816   7
   5   6   2 1359.23 97.4705  14
  -6  -6  -2 24.3908 2.34323  11
   6   6   2 24.9095 3.59786  14
   6   6   2 24.2144 3.30428   5
   6   6   2 24.4304 3.10102   7
  -7  -6  -2 23.8860 2.23480  11
   7   6   2 23.7647 3.13628   5
   5  -7  -2 218.875 16.4991  12
   5  -7  -2 138.806 19.1731   4
  -5   7   2 215.604 15.5484  11
   4  -7  -2 218.189 28.1574   4
   4  -7  -2 293.905 24.0776  12
  -4   7   2 288.999 22.7643  11
  -4   7   2 321.827 38.2214   6
   3  -7  -2 927.059 75.8659  12
   3  -7  -2 871.854 76.5049   8
  -3   7   2 938.390 119.797   6
  -3   7   2 859.165 72.2240  11
   2  -7  -2 625.444 52.1900  12
   2  -7  -2 584.655 52.6525   8
  -2   7   2 626.510 82.5763   6
  -2   7   2 628.711 49.6482  11
   1  -7  -2 115.590 10.9340   8
   1  -7  -2 135.766 10.8937  12
   1  -7  -2 113.189 16.4559  13
  -1   7   2 130.383 17.6917   6
  -1   7   2 136.415 10.1868  11
  -1   7   2 104.741 17.0117  13
   0  -7  -2 312.550 27.7192   8
   0  -7  -2 321.115 42.2181  13
   0  -7  -2 364.964 43.2041   6
   0   7   2 282.231 27.8702   8
   0   7   2 310.563 42.7882  13
   0   7   2 337.515 43.7029   6
  -1  -7  -2 328.203 44.1866  13
  -1  -7  -2 409.423 45.2542   6
  -1  -7  -2 306.262 28.9766   8
   1   7   2 312.787 29.2024   8
   1   7   2 348.646 45.6340   6
   1   7   2 315.929 44.6785  13
  -2  -7  -2 10.9569 1.23045  11
  -2  -7  -2 11.0355 2.16478  13
  -2  -7  -2 10.0549 2.47626   6
   2   7   2 8.79486 1.65077  14
   2   7   2 9.24298 1.95210   8
   2   7   2 11.5053 2.73906  13
  -3  -7  -2 94.4030 14.6071  13
  -3  -7  -2 106.526 8.91767  11
  -3  -7  -2 130.360 15.1728   6
   3   7   2 103.432 9.91290   8
   3   7   2 106.655 8.67086  14
  -4  -7  -2 42.5993 4.04517  11
  -4  -7  -2 50.1189 7.16011   6
   4   7   2 44.3286 4.72181   8
   4   7   2 51.5787 4.87183   7
   4   7   2 48.2424 4.45427  14
  -5  -7  -2 8.68595 1.26211  11
  -5  -7  -2 10.9097 2.87958   6
   5   7   2 7.49896 1.97336  14
   5   7   2 7.73600 2.25591   7
   5   7   2 9.70174 2.13613   5
  -6  -7  -2 22.8308 2.20593  11
   6   7   2 22.3520 3.03858   5
   6   7   2 20.2274 3.15724   7
   6   7   2 23.0040 3.51948  14
  -7  -7  -2 139.583 11.0987  11
   7   7   2 132.088 11.8375   5
  -4   8   2 377.336 30.4075  11
   3  -8  -2 53.3334 5.50666   8
  -3   8   2 61.2617 5.14892  11
  -3   8   2 65.2642 9.64595   6
   2  -8  -2 884.836 81.0532   8
  -2   8   2 1035.70 127.038   6
  -2   8   2 937.826 76.5457  11
   1  -8  -2 194.806 18.8350   8
  -1   8   2 237.732 30.0921   6
   0  -8  -2 183.063 17.0831   8
   0  -8  -2 197.647 26.5454   6
   0   8   2 181.880 17.3096   8
   0   8   2 217.110 27.3777   6
  -1  -8  -2 221.716 27.2898   6
  -1  -8  -2 174.045 17.4769   8
   1   8   2 191.332 17.7837   8
   1   8   2 213.078 27.8756   6
  -2  -8  -2 813.087 99.4927   6
   2   8   2 682.663 64.0275   8
  -3  -8  -2 98.0549 8.45596  11
  -3  -8  -2 122.197 14.5948   6
   3   8   2 97.2300 8.32068  14
   3   8   2 92.8488 9.51842   8
  -4  -8  -2 681.657 59.8982  11
  -4  -8  -2 798.923 99.2469   6
   4   8   2 859.515 54.7343   7
   4   8   2 702.839 55.1150  14
   4   8   2 691.350 63.7232   8
  -5  -8  -2 33.2273 5.47925   6
  -5  -8  -2 32.0236 3.06680  11
   5   8   2 37.2400 3.83532  14
   5   8   2 35.3536 3.88296   7
  -6  -8  -2 8.54985 1.19138  11
   6   8   2 9.91167 2.21675   7
   6   8   2 11.9042 2.10805  14
   6   8   2 7.26994 1.84830   5
  -7  -8  -2 7.56388 0.91827  11
   3  -9  -2 45.4496 4.16644   8
   2  -9  -2 117.462 12.7485   8
  -2   9   2 177.081 20.8923   6
   1  -9  -2 5.77501 1.59242   8
  -1   9   2 10.8159 4.26762   6
   0  -9  -2 962.696 92.0069   8
   0   9   2 1295.61 144.291   6
   0   9   2 989.127 92.2160   8
  -1  -9  -2 282.316 28.6524   8
  -1  -9  -2 312.616 44.5849   6
   1   9   2 338.335 29.0175   8
   1   9   2 398.649 45.9135   6
  -2  -9  -2 273.023 36.5058   6
   2   9   2 266.865 23.7408   8
  -3  -9  -2 321.489 26.7641  15
  -3  -9  -2 379.369 47.5245   6
   3   9   2 364.128 30.7349   8
   3   9   2 348.895 26.4839  14
  -4  -9  -2 13.7740 1.56014  11
  -4  -9  -2 16.4813 3.47596   6
   4   9   2 15.6862 2.36655   8
   4   9   2 20.9300 2.58025   7
   4   9   2 17.2544 2.55335  14
  -5  -9  -2 65.1804 5.80978  11
  -5  -9  -2 66.9898 10.0160   6
   5   9   2 70.4271 6.06100  14
   5   9   2 80.3645 6.08422   7
   6   9   2 271.964 20.2019   7
   2 -10  -2 236.267 19.8190   8
  -2  10   2 225.123 30.9674   6
   1 -10  -2 71.7086 6.57349   8
   0 -10  -2 13.4155 1.91403   8
   0  10   2 14.2414 2.36511   8
  -1 -10  -2 32.2323 3.51719   8
  -1 -10  -2 29.6082 5.28447   6
   1  10   2 38.9476 3.98471   8
  -2 -10  -2 214.306 30.3974   6
   2  10   2 235.409 19.8521   8
  -3 -10  -2 54.9219 8.18132   6
   3  10   2 54.8062 4.79788   7
   3  10   2 55.2646 5.50622   8
  -4 -10  -2 31.9461 3.35720  15
  -4 -10  -2 44.2436 6.39342   6
   4  10   2 44.4998 4.09278   8
   4  10   2 43.0422 3.84212   7
   4  10   2 45.3183 3.87893  14
  -5 -10  -2 37.6776 3.37426  15
  -5 -10  -2 40.1739 6.05966   6
   5  10   2 46.4030 3.67898   7
   0 -11  -2 524.701 44.7003   8
  -1 -11  -2 14.1102 1.78517   8
   1  11   2 16.7423 2.11050   8
  -2 -11  -2 207.602 33.2709   6
   2  11   2 281.285 21.6614   8
   2  11   2 259.752 18.4537   7
  -3 -11  -2 251.145 36.2046   6
   3  11   2 290.455 23.3293   8
  -3  -9   3 61.3734 8.75344   6
   2   9  -3 360.164 26.9596   8
  -2  -9   3 287.565 41.9559   6
  -2  -9   3 294.234 23.6948  15
   1   9  -3 16.2638 1.84071   8
  -1  -9   3 10.9749 2.71562   6
  -1  -9   3 12.0466 1.38509  15
   0   9  -3 43.3930 4.21065   8
  -4  -8   3 359.075 26.5838  15
  -4  -8   3 343.576 47.0302   6
   3   8  -3 135.584 11.0912   8
  -3  -8   3 118.992 9.73015  15
  -3  -8   3 120.799 17.4231   6
   2   8  -3 146.938 12.1374   8
  -2  -8   3 124.863 18.8753   6
  -2  -8   3 136.023 10.5759  15
   1   8  -3 727.564 56.8795   8
  -1  -8   3 658.173 50.1009  15
  -1  -8   3 609.902 88.5308   6
   0   8  -3 289.872 23.1694   8
   0  -8   3 248.425 20.2540  15
   0  -8   3 260.538 23.0886   8
  -1   8  -3 275.022 36.8615   6
  -1   8  -3 281.171 23.7915   8
   1  -8   3 265.460 20.8825  15
   1  -8   3 278.053 23.7784   8
  -2   8  -3 132.796 17.5052   6
   2  -8   3 119.611 9.85171  15
   2  -8   3 133.079 11.2872   8
  -6  -7   3 116.366 9.44406  11
   5   7  -3 30.9734 2.87449   7
  -5  -7   3 28.5516 2.54068  11
  -5  -7   3 26.7390 2.63741  15
   4   7  -3 1.53446 1.01084   7
  -4  -7   3 2.23236 1.05194  15
  -4  -7   3 0.79985 0.47105  11
  -4  -7   3 1.79897 1.66491   6
   3   7  -3 471.592 40.7029   8
   3   7  -3 578.238 40.9315  12
  -3  -7   3 460.421 35.9272  15
  -3  -7   3 414.098 38.1295  11
  -3  -7   3 453.754 63.5986   6
   2   7  -3 0.64872 1.11127   8
  -2  -7   3 1.56403 1.84122   6
  -2  -7   3 1.96421 1.11938  15
   1   7  -3 205.625 16.8919   8
  -1  -7   3 181.886 14.6819  15
  -1  -7   3 183.340 26.2203   6
   0   7  -3 532.703 42.7880   8
   0   7  -3 497.733 66.4431   6
   0  -7   3 458.498 66.4962   6
   0  -7   3 498.319 42.7487   8
   0  -7   3 496.979 37.6048  15
  -1   7  -3 295.499 25.4746   8
  -1   7  -3 289.615 39.4113   6
   1  -7   3 299.297 25.4907   8
   1  -7   3 286.843 22.3422  15
  -2   7  -3 194.999 13.1174   9
  -2   7  -3 180.264 25.0196   6
   2  -7   3 171.920 14.1615  15
   2  -7   3 188.254 16.1860   8
  -3   7  -3 241.177 15.9009   9
  -3   7  -3 217.597 30.3595   6
   3  -7   3 212.407 17.1814  15
   3  -7   3 231.651 19.5166   8
   6   6  -3 5.97323 1.46447   7
   6   6  -3 3.73810 1.18205   5
  -6  -6   3 4.06303 0.78127  11
   5   6  -3 294.440 26.5547   5
   5   6  -3 321.266 23.5099   7
  -5  -6   3 326.084 25.4818  11
  -5  -6   3 320.352 24.0174  15
   4   6  -3 251.981 19.6156   7
  -4  -6   3 270.940 21.2331  11
  -4  -6   3 260.223 20.0734  15
  -4  -6   3 264.597 35.6499   6
   3   6  -3 54.2254 5.52040   8
   3   6  -3 54.2571 4.88180   7
  -3  -6   3 55.8166 4.85119  15
  -3  -6   3 62.6242 8.95202   6
  -3  -6   3 56.1651 4.82532  11
   2   6  -3 413.940 36.8658   8
  -2  -6   3 442.760 32.4985  15
  -2  -6   3 443.459 57.6359   6
  -2  -6   3 412.402 34.4380  11
   1   6  -3 2173.35 186.254   8
  -1  -6   3 2213.97 290.502   6
  -1  -6   3 2198.78 164.581  15
   0   6  -3 149.938 21.8969   6
   0   6  -3 157.160 14.3153   8
   0  -6   3 155.419 22.3015   6
   0  -6   3 164.499 14.3789   8
   0  -6   3 172.492 12.5154  15
  -1   6  -3 79.6706 7.92627   8
  -1   6  -3 82.4612 6.35214   9
  -1   6  -3 82.3216 12.0401   6
   1  -6   3 87.5681 6.90566  15
   1  -6   3 88.4417 8.00581   8
  -2   6  -3 352.127 46.1191   6
  -2   6  -3 334.567 24.0044   9
   2  -6   3 338.146 26.1623  15
   2  -6   3 346.420 29.7698   8
  -3   6  -3 113.716 8.09948   9
  -3   6  -3 109.808 15.4100   6
   3  -6   3 111.968 9.98942   8
   3  -6   3 104.149 8.75746  15
  -4   6  -3 300.521 19.2787   9
  -4   6  -3 271.054 36.8709   6
   4  -6   3 261.790 20.8819  15
   4  -6   3 265.838 23.5644   8
   7   5  -3 13.0991 1.86649   5
   7   5  -3 11.3206 1.80372   7
  -7  -5   3 12.8785 1.25727  11
   6   5  -3 27.4741 3.13472   5
   6   5  -3 22.9347 3.16912   7
  -6  -5   3 28.1190 2.46678  11
   5   5  -3 49.2917 4.80225   5
   5   5  -3 43.2423 4.48912   7
  -5  -5   3 48.4757 4.11496  11
   4   5  -3 408.023 31.0583   7
   4   5  -3 430.104 35.3400   5
   4   5  -3 357.421 36.3255  12
  -4  -5   3 485.681 33.9757  11
   3   5  -3 62.5119 6.64676   8
   3   5  -3 66.9158 5.91465   7
  -3  -5   3 77.9455 6.04890  11
  -3  -5   3 59.6205 6.53288  10
  -3  -5   3 80.8819 10.8932   6
  -3  -5   3 82.5985 5.92665  15
   2   5  -3 90.3808 8.57769   8
  -2  -5   3 107.641 13.6765   6
  -2  -5   3 82.0028 12.9144  13
  -2  -5   3 97.8262 7.75291  11
  -2  -5   3 90.4698 7.46061  15
   1   5  -3 793.856 71.4556   8
  -1  -5   3 781.532 109.211  13
  -1  -5   3 801.216 67.1757  11
  -1  -5   3 910.945 111.621   6
  -1  -5   3 902.581 63.1168  15
   0   5  -3 66.8258 9.47128  13
   0   5  -3 59.5459 6.14876   8
   0   5  -3 60.3281 9.27016   6
   0  -5   3 58.4955 9.15200  13
   0  -5   3 64.7724 5.30554  15
   0  -5   3 74.4819 6.35527   8
   0  -5   3 63.3431 9.78193   6
  -1   5  -3 16.8748 1.83928   9
  -1   5  -3 19.9408 3.61767   6
  -1   5  -3 15.4371 2.44285   8
  -1   5  -3 21.6368 3.88142  13
   1  -5   3 21.1277 4.37561   6
   1  -5   3 14.1142 3.34317  13
   1  -5   3 16.2159 2.07271  15
   1  -5   3 17.7243 2.48325   8
  -2   5  -3 85.8455 12.4443   6
  -2   5  -3 88.8387 6.53861   9
   2  -5   3 88.8967 7.17793  15
   2  -5   3 83.1928 8.17607   8
  -3   5  -3 89.7032 6.72874   9
  -3   5  -3 88.5293 7.46369  11
  -3   5  -3 89.8955 12.8638   6
   3  -5   3 89.3604 8.42180   8
   3  -5   3 90.4923 7.45246  15
  -4   5  -3 59.7852 9.73478   6
  -4   5  -3 70.0287 5.21775   9
  -4   5  -3 68.8147 5.67635  11
   4  -5   3 68.3828 5.74834  15
   4  -5   3 68.7585 6.32913   8
  -5   5  -3 75.2647 5.62090   9
  -5   5  -3 73.4830 10.5868   6
  -5   5  -3 77.0596 6.24704  11
   7   4  -3 41.8715 4.08426   7
   7   4  -3 48.0781 4.52598   5
   6   4  -3 137.891 11.4967   7
   6   4  -3 157.432 13.0144   5
   5   4  -3 63.0148 6.08294   5
   5   4  -3 63.3212 5.60352   7
   4   4  -3 3.86477 1.36648   7
   4   4  -3 3.86013 1.76246  12
   4   4  -3 5.19574 1.38168   5
   3   4  -3 6.44592 1.52415   5
   3   4  -3 6.56621 1.49080   7
   3   4  -3 10.2183 1.47024   8
  -3  -4   3 8.62165 1.11628  11
  -3  -4   3 8.01569 2.58163   6
  -3  -4   3 6.64931 1.21075  10
  -2  -4   3 947.049 94.2702   3
  -2  -4   3 1126.66 140.871  13
  -2  -4   3 1174.90 91.9481  10
   1   4  -3 163.302 21.3418  13
  -1  -4   3 159.115 14.1756   3
  -1  -4   3 153.756 21.2834  13
   0   4  -3 832.483 105.351   2
   0   4  -3 925.156 112.351  13
   0  -4   3 847.011 75.1166   3
   0  -4   3 840.433 112.169  13
  -1   4  -3 745.209 92.0807   2
  -1   4  -3 806.008 98.1077  13
   1  -4   3 690.783 97.8079  13
   1  -4   3 758.906 56.5981  15
  -2   4  -3 16.0629 3.37206   6
  -2   4  -3 23.1355 3.78863  13
  -2   4  -3 18.8115 1.75351  11
   2  -4   3 15.7408 2.36770   8
   2  -4   3 14.1445 2.14518  15
   2  -4   3 13.7418 3.19789  13
  -3   4  -3 730.785 93.2297   6
   3  -4   3 661.066 53.0547  15
   3  -4   3 708.916 60.0043   8
  -4   4  -3 295.886 36.2442   6
   4  -4   3 254.605 23.2821  16
   4  -4   3 258.359 20.7190  15
   4  -4   3 259.438 23.2887   8
  -5   4  -3 58.1911 4.11289   9
  -5   4  -3 45.9098 7.48439   6
  -5   4  -3 52.9713 4.35788  11
   5  -4   3 47.0824 4.40869  15
   5  -4   3 46.8040 4.79225  16
  -6   4  -3 61.9163 4.88543  11
  -6   4  -3 61.5410 4.41250   9
   6  -4   3 51.3391 5.28505  16
   7   3  -3 84.5035 7.78259   5
   7   3  -3 85.4183 6.86964   7
   6   3  -3 230.199 17.1316   7
   6   3  -3 224.061 19.5369   5
   5   3  -3 67.7079 6.04700   5
   5   3  -3 56.3697 5.26941   7
   5   3  -3 60.9712 6.24032  12
   4   3  -3 691.682 58.8388  12
   4   3  -3 672.613 57.7490   5
   4   3  -3 640.073 50.3584   7
  -4  -3   3 768.091 58.9660  10
  -3  -3   3 2574.37 251.377   3
  -3  -3   3 2923.10 234.311  10
   2   3  -3 2718.49 339.115  13
  -2  -3   3 2426.35 226.923   3
  -2  -3   3 2721.67 221.671  10
  -2  -3   3 2584.97 339.268  13
   1   3  -3 1213.89 175.072   2
   1   3  -3 1546.18 186.605  13
  -1  -3   3 1479.41 121.842  10
  -1  -3   3 1460.66 124.853   3
  -1  -3   3 1479.30 186.935  13
   0   3  -3 319.126 40.0562  13
   0   3  -3 297.601 37.5564   2
   0  -3   3 302.647 26.7774   3
   0  -3   3 297.733 39.9724  13
  -1   3  -3 96.5030 11.4010   2
  -1   3  -3 90.9865 12.2454  13
   1  -3   3 81.9880 8.13689   3
   1  -3   3 83.3066 12.0834  13
  -2   3  -3 597.425 71.6453   2
  -2   3  -3 629.310 76.5310  13
   2  -3   3 526.119 76.2083  13
  -3   3  -3 1046.09 82.2950  10
  -3   3  -3 939.963 128.188   6
  -3   3  -3 1034.65 77.6120  11
   3  -3   3 888.002 83.0482  16
   3  -3   3 847.593 72.9023  15
   3  -3   3 1044.78 82.4597   8
  -4   3  -3 97.4458 13.8131   6
   4  -3   3 101.797 8.95382  16
   4  -3   3 86.5996 8.13664  15
   4  -3   3 103.778 9.04337   8
   5  -3   3 561.103 54.3405   4
   5  -3   3 443.096 41.1902  15
   5  -3   3 621.375 46.9660  16
  -6   3  -3 9.87357 1.41914   9
  -6   3  -3 8.79474 1.17696  11
   6  -3   3 6.11272 1.44386  15
   6  -3   3 7.87481 1.60545  16
   6  -3   3 8.55470 1.65154   4
   7   2  -3 22.1729 2.43286   7
   7   2  -3 20.9702 2.76302   5
   6   2  -3 39.1239 3.59479   7
   6   2  -3 37.4568 4.31581  12
   6   2  -3 36.5897 4.14143   5
   5   2  -3 118.492 10.4863   5
   5   2  -3 118.777 9.10022   7
   5   2  -3 114.664 10.6582  12
   4   2  -3 15.6955 1.91430   7
   4   2  -3 17.4396 2.35964  12
   4   2  -3 17.0502 2.37785   5
  -4  -2   3 21.3495 1.86702  10
  -3  -2   3 476.099 37.5464  10
  -3  -2   3 406.332 38.5173   3
   2   2  -3 424.564 57.4546  13
  -2  -2   3 462.793 37.6221  10
  -2  -2   3 430.350 57.6476  13
  -2  -2   3 449.733 38.6107   3
   1   2  -3 61.6406 8.00273  13
   1   2  -3 50.8663 7.57687   2
  -1  -2   3 58.9841 5.40109   3
  -1  -2   3 58.5429 5.20237  10
  -1  -2   3 63.3101 8.10716  13
   0   2  -3 2102.35 267.738   2
   0   2  -3 2332.09 312.812  13
   0  -2   3 2267.10 284.822  13
   0  -2   3 2165.43 185.662  10
   0  -2   3 2098.38 191.131   3
  -1   2  -3 1142.99 143.772  13
  -1   2  -3 1100.27 135.001   2
  -1   2  -3 1102.69 93.8803  10
   1  -2   3 1096.13 143.947  13
   1  -2   3 1090.83 96.3514   3
  -2   2  -3 372.194 45.5300   2
  -2   2  -3 378.894 48.5669  13
  -2   2  -3 375.355 31.6241  10
   2  -2   3 352.972 48.4071  13
  -3   2  -3 1550.34 127.220  10
  -3   2  -3 1449.06 182.875   2
  -4   2  -3 379.936 33.3965  11
  -4   2  -3 442.346 35.5224  10
  -4   2  -3 388.095 55.2734   6
   4  -2   3 408.112 35.9841  16
   4  -2   3 451.600 35.6275   8
   4  -2   3 372.389 41.6169   4
   4  -2   3 458.573 31.7463  15
   5  -2   3 128.676 10.6215  15
   5  -2   3 133.243 11.8460  16
   5  -2   3 128.517 13.6366   4
  -6   2  -3 652.886 42.2472   9
  -6   2  -3 609.330 49.0100  11
   6  -2   3 462.720 46.1056  15
   6  -2   3 644.043 61.0853   4
   6  -2   3 677.637 52.7439  16
  -7   2  -3 93.8565 7.82611  11
   7  -2   3 102.558 8.60332  16
   7  -2   3 88.7765 9.84525   4
   7   1  -3 117.638 10.6791   5
   7   1  -3 126.607 9.33889   7
   6   1  -3 1.47379 0.91907   7
   6   1  -3 1.70487 1.34716  12
   6   1  -3 1.76341 1.19039   5
   5   1  -3 112.094 10.4207   5
   5   1  -3 118.090 9.08262   7
   5   1  -3 121.182 10.6821  12
  -5  -1   3 120.711 10.1086  10
  -4  -1   3 1334.31 112.486  10
  -4  -1   3 1322.29 193.065   1
  -3  -1   3 15.3722 1.70563   3
  -3  -1   3 20.5209 3.18172   1
  -3  -1   3 14.3659 1.57466  10
  -2  -1   3 549.892 47.2468   3
  -2  -1   3 533.847 46.0268  10
   1   1  -3 2481.46 335.988   2
   1   1  -3 2629.37 194.014  17
   1   1  -3 2767.70 357.044  13
  -1  -1   3 3053.89 401.244   1
  -1  -1   3 2805.57 245.689  10
  -1  -1   3 2751.30 357.529  13
  -1  -1   3 2769.16 239.591   3
   0   1  -3 892.593 62.6655  17
   0   1  -3 859.733 118.853   2
   0   1  -3 864.192 115.283  13
   0  -1   3 942.562 77.4791   3
   0  -1   3 843.158 75.1477  10
   0  -1   3 917.529 128.739   1
   0  -1   3 868.704 122.599  13
  -1   1  -3 38.8693 5.12030  13
  -1   1  -3 34.1677 3.26164  10
  -1   1  -3 37.9800 2.80106  17
  -1   1  -3 34.1876 4.80378   2
   1  -1   3 36.2619 5.10855  13
   1  -1   3 34.9731 3.43262   3
  -2   1  -3 3657.12 465.096  13
  -2   1  -3 3598.81 252.889  17
  -2   1  -3 3536.86 303.986  10
  -2   1  -3 3613.45 437.168   2
   2  -1   3 3485.13 497.845  13
  -3   1  -3 48.4049 4.81717  10
  -3   1  -3 58.6623 7.15356   2
  -4   1  -3 37.0101 3.37363  10
   4  -1   3 38.7135 3.37493  15
   4  -1   3 29.2525 4.04635   4
   4  -1   3 34.9072 3.66526  16
   5  -1   3 357.621 39.3177   4
   5  -1   3 425.774 29.9089  15
   5  -1   3 386.851 34.0270  16
   6  -1   3 68.2256 5.85014  15
   6  -1   3 57.0691 7.26078   4
   6  -1   3 71.2734 6.47599  16
  -7   1  -3 90.9061 8.26898  11
   7  -1   3 107.853 9.23779  16
   7  -1   3 102.821 10.6083   4
   7   0  -3 7.99183 1.99085  12
   6   0  -3 284.204 20.9083   7
   6   0  -3 282.900 24.5551  12
   5   0  -3 6.11268 1.62820  12
   5   0  -3 6.35128 1.73086  16
   5   0  -3 5.56792 1.20655   7
   5   0  -3 9.34173 1.57811   5
  -5   0   3 4.39034 0.53033  10
  -4   0   3 630.233 92.9635   1
  -4   0   3 644.700 54.0609  10
  -3   0   3 1276.50 111.797  10
  -3   0   3 1356.53 191.358   1
  -2   0   3 83.1375 7.60050   3
  -2   0   3 89.8233 12.8373   1
  -2   0   3 83.8451 7.37916  10
   1   0  -3 799.320 56.0354  17
   1   0  -3 785.702 102.738  13
  -1   0   3 813.222 115.495   1
  -1   0   3 764.924 67.2347  10
  -1   0   3 752.880 102.865  13
  -1   0   3 832.625 68.9911   3
   0   0  -3 1298.34 170.425  13
   0   0  -3 1383.30 104.791  17
   0   0  -3 1182.08 160.353   2
   0   0  -3 1144.10 112.235  10
   0   0   3 1258.10 111.287  10
   0   0   3 1338.45 170.819  13
   0   0   3 1422.51 190.833   1
   0   0   3 1429.72 114.381   3
  -1   0  -3 322.263 40.1866   2
  -1   0  -3 309.727 27.9205  10
  -1   0  -3 348.485 23.2778  17
  -1   0  -3 313.722 42.7689  13
   1   0   3 393.085 47.8376   1
   1   0   3 332.445 42.8064  13
   1   0   3 278.842 27.9152  10
  -2   0  -3 162.800 15.0843  10
  -2   0  -3 175.888 12.6164  17
  -2   0  -3 178.817 23.1773  13
  -2   0  -3 165.740 21.7508   2
   2   0   3 198.393 23.4219  13
  -3   0  -3 1283.35 156.905   2
  -3   0  -3 1327.37 90.7177  17
  -3   0  -3 1251.65 109.112  10
  -4   0  -3 785.392 63.2204  10
  -4   0  -3 703.094 90.9480   2
  -5   0  -3 974.290 85.6825  10
   5   0   3 1009.64 86.9553  16
   5   0   3 986.021 100.731   4
   5   0   3 1068.57 76.0605  15
   6   0   3 51.4562 4.36218  15
   6   0   3 44.4735 4.80165  16
   6   0   3 40.5073 5.33465   4
   7   0   3 11.7093 2.38004   4
   7   0   3 15.1120 2.23608  16
   8   0   3 2.87952 1.07801   4
   7  -1  -3 117.495 10.2013  12
   7  -1  -3 107.301 10.4339  16
   6  -1  -3 1.59337 1.51326  16
   6  -1  -3 3.22733 1.48143  12
   6  -1  -3 2.51984 0.86567   7
   6  -1  -3 3.06218 1.30333   4
   5  -1  -3 807.067 65.8340  12
   5  -1  -3 786.386 56.3028   7
   5  -1  -3 689.692 67.2304  16
   5  -1  -3 828.524 77.8057   4
  -4   1   3 66.2086 6.31784  10
  -4   1   3 81.5154 11.3928   1
  -3   1   3 389.041 33.0521  10
  -3   1   3 389.855 56.8806   1
  -2   1   3 2782.54 246.508  10
  -2   1   3 3031.43 423.166   1
   1  -1  -3 31.1786 4.46077  13
   1  -1  -3 30.2819 2.48842  17
  -1   1   3 31.7836 2.93294  10
  -1   1   3 28.9528 2.50058  17
  -1   1   3 36.0666 2.94932   3
  -1   1   3 40.2329 5.18076   1
   0  -1  -3 5.15704 0.87515  13
   0  -1  -3 3.88814 0.57272  17
   0  -1  -3 2.94616 0.49902  10
   0   1   3 4.08785 1.29972  13
   0   1   3 4.53693 0.59028  10
   0   1   3 3.42567 1.09056   1
  -1  -1  -3 6830.74 938.671   2
  -1  -1  -3 7796.24 554.860  17
  -1  -1  -3 7248.39 652.025  10
  -1  -1  -3 7064.65 1001.47  13
   1   1   3 7015.22 652.750  10
   1   1   3 9129.89 1043.97  13
   1   1   3 8125.31 1133.43   1
  -2  -1  -3 4.06798 1.01140  13
  -2  -1  -3 4.18853 0.91683   2
  -2  -1  -3 5.69086 0.63718  17
  -2  -1  -3 6.91122 0.68076  10
   2   1   3 4.55432 1.45951  13
   2   1   3 3.02175 1.04181   1
  -3  -1  -3 670.060 56.3429  10
  -3  -1  -3 648.035 86.3276  13
  -3  -1  -3 702.123 46.8814  17
  -3  -1  -3 636.711 80.9851   2
  -4  -1  -3 857.772 72.7596  10
  -5  -1  -3 4.68430 0.84487  10
   5   1   3 4.63383 1.18156  15
   5   1   3 2.59672 1.08398   4
   5   1   3 3.19080 1.13908  16
   6   1   3 4.90956 1.48652   4
   6   1   3 3.36662 1.23984  15
   6   1   3 1.90695 1.16329  16
   7   1   3 279.028 23.2535  16
   7   1   3 249.744 26.8547   4
   8   1   3 142.891 14.6589   4
   7  -2  -3 462.988 43.5410  12
   7  -2  -3 502.032 44.6110  16
   7  -2  -3 576.079 51.7552   4
   6  -2  -3 151.786 14.3134  12
   6  -2  -3 183.442 17.0977   4
   6  -2  -3 150.783 14.7297  16
   5  -2  -3 14.3163 2.08627  16
   5  -2  -3 8.22242 1.76949  12
   5  -2  -3 8.97943 2.19042   4
   5  -2  -3 8.93637 1.37764   7
   4  -2  -3 144.178 12.3550  12
   4  -2  -3 136.625 12.6451  16
  -4   2   3 140.027 11.9911  10
  -3   2   3 2039.98 183.626  10
  -3   2   3 2289.02 314.832   1
  -2   2   3 46.6522 4.44038  10
  -2   2   3 54.9021 7.87244   1
   1  -2  -3 1790.72 126.538  17
   1  -2  -3 1814.16 232.068  13
  -1   2   3 1608.57 231.942  13
  -1   2   3 1976.84 260.146   1
  -1   2   3 1739.47 154.558  10
   0  -2  -3 2190.06 274.902  13
   0  -2  -3 2036.39 149.462  17
   0  -2  -3 1885.48 179.434  10
   0   2   3 2169.42 179.669  10
   0   2   3 2077.66 275.588  13
   0   2   3 2342.72 308.053   1
  -1  -2  -3 530.089 34.8643  17
  -1  -2  -3 470.741 41.8553  10
  -1  -2  -3 494.012 64.0714  13
   1   2   3 525.376 64.3846  13
   1   2   3 459.406 71.8215   1
   1   2   3 482.749 41.8760  10
  -2  -2  -3 63.0768 4.14200  17
  -2  -2  -3 60.3460 4.85990  10
  -2  -2  -3 50.3914 6.91274   2
  -2  -2  -3 64.0211 7.50639  13
   2   2   3 37.3532 8.42759   1
   2   2   3 54.4914 7.75215  13
  -3  -2  -3 1772.85 122.153  17
  -3  -2  -3 1732.66 146.675  10
  -3  -2  -3 1668.43 235.281  13
  -4  -2  -3 0.68384 0.30202  17
  -4  -2  -3 0.50464 0.38826  10
  -5  -2  -3 106.548 8.93037  10
   5   2   3 106.570 10.7583   4
   5   2   3 86.5847 9.19966   5
   5   2   3 104.320 9.32016  16
   5   2   3 107.696 8.18894  15
   6   2   3 28.7238 3.70017   4
   6   2   3 23.8508 3.53476   5
   6   2   3 35.0967 3.37356  16
   7   2   3 7.14849 1.70262   4
   7   2   3 2.95056 1.21310  16
   8   2   3 49.5186 5.40961   4
   7  -3  -3 126.112 10.1034  16
   7  -3  -3 105.823 9.74724  12
   7  -3  -3 97.7539 11.5670   4
   6  -3  -3 1.81375 1.67638   4
   6  -3  -3 2.37490 1.37837  12
   6  -3  -3 2.25911 1.34895  16
   5  -3  -3 382.863 31.1606  12
   5  -3  -3 326.912 36.8584   4
   5  -3  -3 379.320 31.8245  16
   4  -3  -3 15.3440 1.60842   7
   4  -3  -3 17.0208 2.12497  16
   4  -3  -3 11.8891 2.53297   4
   4  -3  -3 16.8152 2.08382  12
  -3   3   3 1494.41 175.754   2
  -3   3   3 1369.43 122.499  10
  -3   3   3 1462.68 209.399   1
  -2   3   3 1.65147 0.50311  10
  -2   3   3 2.24220 1.11086   1
   1  -3  -3 20.8958 2.83311  13
   1  -3  -3 15.3209 1.59010  17
  -1   3   3 20.4302 3.42061   1
  -1   3   3 15.4586 3.18523  13
  -1   3   3 21.0754 1.86224  10
   0  -3  -3 2971.08 266.786   3
   0  -3  -3 3351.03 394.005  13
   0  -3  -3 2863.68 214.324  17
   0   3   3 3166.76 441.176   1
   0   3   3 3215.12 257.400  10
   0   3   3 2625.87 394.487  13
  -1  -3  -3 1590.83 188.002  13
  -1  -3  -3 1476.66 122.672  10
  -1  -3  -3 1461.81 115.732  17
   1   3   3 1357.16 187.588  13
   1   3   3 1311.83 210.501   1
   1   3   3 1470.52 126.301  10
  -2  -3  -3 370.738 41.9491  13
  -2  -3  -3 345.959 27.3692  10
  -2  -3  -3 342.009 22.8373  17
   2   3   3 275.561 42.1137  13
   2   3   3 271.652 47.1248   1
  -3  -3  -3 4837.09 333.098  17
  -3  -3  -3 5365.68 600.437  13
  -3  -3  -3 5110.78 400.565  10
   3   3   3 3214.91 599.161  13
  -4  -3  -3 68.3764 5.52612  17
  -4  -3  -3 83.1531 6.64095  10
  -5  -3  -3 0.76583 0.43433  10
   5   3   3 4.62549 1.56653   5
   5   3   3 2.12851 0.91073   4
   6   3   3 8.34352 1.65914   4
   6   3   3 3.78743 1.67891   5
   7   3   3 314.999 29.3618   4
   7   3   3 264.754 24.8241   5
   8   3   3 0.92781 0.84394   4
   7  -4  -3 130.258 10.7807  12
   7  -4  -3 101.456 12.6841   4
   7  -4  -3 137.920 11.0205  16
   6  -4  -3 0.94805 1.13718  12
   6  -4  -3 0.87139 1.31296   4
   6  -4  -3 0.73985 1.13400  16
   5  -4  -3 4.88591 1.48309  16
   5  -4  -3 2.89009 1.49166   4
   5  -4  -3 5.85837 1.56985  12
   4  -4  -3 420.896 35.6686  12
   4  -4  -3 440.500 36.3965  16
   4  -4  -3 388.225 30.3955   7
   4  -4  -3 410.543 42.2636   4
  -4   4   3 431.970 35.6607  10
  -3   4   3 57.1457 7.60845   2
  -2   4   3 199.011 23.3590   2
  -2   4   3 189.488 27.9073   1
  -2   4   3 177.385 16.1330  10
   1  -4  -3 382.956 26.7188  17
   1  -4  -3 386.919 48.9791  13
  -1   4   3 399.122 32.0122  10
  -1   4   3 296.188 49.2220  13
  -1   4   3 413.930 55.0729   1
   0  -4  -3 827.228 56.5443  17
   0  -4  -3 868.904 104.293  13
   0   4   3 776.402 116.480   1
   0   4   3 872.736 67.9340  10
   0   4   3 659.506 104.177  13
  -1  -4  -3 577.557 48.5127  10
  -1  -4  -3 612.045 40.4491  17
  -1  -4  -3 657.500 74.3000  13
  -1  -4  -3 586.055 49.8544   3
   1   4   3 504.675 74.5569  13
   1   4   3 491.878 83.2744   1
  -2  -4  -3 985.311 110.511  13
  -2  -4  -3 915.676 72.1153  10
  -2  -4  -3 877.343 59.8115  17
  -2  -4  -3 885.651 73.8366   3
   2   4   3 751.204 123.363   1
   2   4   3 670.694 110.149  13
  -3  -4  -3 3.50607 1.04569  13
  -3  -4  -3 5.11270 0.70863   3
  -3  -4  -3 2.24150 0.51079  17
  -3  -4  -3 3.44074 0.65432  10
   3   4   3 2.50531 1.44678  13
  -4  -4  -3 231.913 21.3428   3
  -4  -4  -3 253.402 20.7564  10
  -5  -4  -3 221.963 18.6803  10
   5   4   3 230.702 22.1076   4
   5   4   3 191.745 16.6539  14
   5   4   3 225.712 18.8000   5
   6   4   3 23.1890 3.60041   5
   6   4   3 26.4741 3.22277   4
   7   4   3 195.286 18.5365   4
   7   4   3 167.333 16.0026   5
   8   4   3 9.86411 1.87989   5
   6  -5  -3 82.2829 7.70065  16
   6  -5  -3 82.9782 7.62434  12
   6  -5  -3 93.8235 9.03297   4
  -6   5   3 76.4519 6.94718  11
   5  -5  -3 91.8411 8.45713  16
   5  -5  -3 102.842 9.93640   4
   5  -5  -3 89.1522 8.39113  12
  -5   5   3 82.0742 7.70934  11
   4  -5  -3 177.615 16.3589  16
   4  -5  -3 191.140 19.0826   4
   4  -5  -3 185.299 16.1639  12
   3  -5  -3 138.502 10.9940   8
   3  -5  -3 134.079 12.9697   4
   3  -5  -3 118.006 9.29664   7
   3  -5  -3 121.552 10.9742  12
   3  -5  -3 105.639 11.0245  16
  -3   5   3 110.818 10.1855  11
  -3   5   3 139.496 10.8640  10
  -2   5   3 394.868 34.1222  10
  -2   5   3 404.920 49.1063   2
   1  -5  -3 434.345 53.5562  13
  -1   5   3 398.954 60.1506   1
  -1   5   3 489.053 50.3827   2
  -1   5   3 320.004 53.8319  13
   0  -5  -3 1509.71 173.317  13
   0  -5  -3 1456.21 93.7765  17
   0   5   3 1111.04 172.650  13
   0   5   3 1239.07 193.689   1
  -1  -5  -3 1148.32 131.691  13
  -1  -5  -3 994.309 88.0912   3
  -1  -5  -3 1146.99 71.3676  17
   1   5   3 910.580 146.875   1
   1   5   3 850.460 131.348  13
  -2  -5  -3 1494.91 123.244   3
  -2  -5  -3 1468.04 120.218  10
  -2  -5  -3 1459.72 99.8659  17
  -2  -5  -3 1564.29 184.609  13
   2   5   3 1096.05 183.822  13
  -3  -5  -3 47.2418 4.37706   3
  -3  -5  -3 50.4356 4.28628  10
  -3  -5  -3 51.4333 6.65842  13
   3   5   3 40.7554 6.84300  13
  -4  -5  -3 110.407 9.45537  10
   4   5   3 112.671 9.62892   5
   4   5   3 101.903 8.75519  14
   5   5   3 15.2049 2.42146   5
   5   5   3 10.8773 2.50991  14
   6   5   3 694.586 53.5750   5
   6   5   3 581.038 47.3801  14
   7   5   3 0.98295 1.48965   5
   8   5   3 287.086 24.3595   5
   6  -6  -3 1.87743 0.92023  12
   6  -6  -3 1.35180 0.70190  16
   6  -6  -3 1.98047 0.85565   4
  -6   6   3 1.73375 0.51349  11
   5  -6  -3 266.648 22.5025  12
   5  -6  -3 260.729 22.8384  16
   5  -6  -3 250.722 26.4954   4
  -5   6   3 267.755 21.2411  11
   4  -6  -3 53.6171 5.35019  16
   4  -6  -3 58.4830 6.28347   4
   4  -6  -3 60.1609 5.49747  12
  -4   6   3 51.4405 4.84741  11
   3  -6  -3 142.158 14.2450  16
   3  -6  -3 190.600 14.2566   8
   3  -6  -3 165.661 16.6350   4
   3  -6  -3 163.193 14.1863  12
  -3   6   3 157.118 22.5108   6
  -3   6   3 150.440 13.2547  11
   2  -6  -3 363.744 29.8162   8
   2  -6  -3 350.426 29.6069  12
   2  -6  -3 330.512 34.8676   4
  -2   6   3 407.367 29.7894  10
  -2   6   3 286.270 46.6850   6
  -2   6   3 342.300 28.0696  11
   1  -6  -3 513.407 56.4376  13
  -1   6   3 392.301 63.2775   1
  -1   6   3 388.932 56.8434  13
   0  -6  -3 128.795 15.2962  13
   0  -6  -3 116.620 8.51911  17
   0   6   3 107.114 17.3223   1
   0   6   3 102.928 15.7488  13
  -1  -6  -3 2121.32 251.609  13
   1   6   3 1756.88 250.630  13
   1   6   3 1914.05 281.518   1
  -2  -6  -3 1022.17 122.032  13
   2   6   3 855.743 122.354  13
  -3  -6  -3 77.4349 10.8101  13
  -3  -6  -3 87.9645 6.59144  11
  -3  -6  -3 80.5512 7.02138  10
  -3  -6  -3 82.1118 7.16711   3
   3   6   3 70.6725 7.41774   8
   3   6   3 75.3987 6.47938  14
  -4  -6  -3 906.013 68.8558  11
  -4  -6  -3 972.296 113.831   6
  -4  -6  -3 823.699 72.9098  10
   4   6   3 879.642 71.3827   5
   4   6   3 711.271 73.0976   8
   4   6   3 857.334 63.3103  14
  -5  -6  -3 383.198 31.4068  11
   5   6   3 403.448 29.5407  14
   5   6   3 392.948 32.9112   5
   5   6   3 380.423 28.9276   7
  -6  -6  -3 16.1201 1.70486  11
   6   6   3 15.1086 3.00779  14
   6   6   3 16.6638 2.75523   5
  -7  -6  -3 120.784 9.89706  11
   7   6   3 120.803 10.8241   5
   5  -7  -3 0.29251 0.60160   4
   5  -7  -3 1.30848 1.00129  12
  -5   7   3 0.62847 0.53064  11
   4  -7  -3 92.2439 11.5578   4
   4  -7  -3 115.376 10.0084  12
  -4   7   3 130.312 16.1417   6
  -4   7   3 111.279 9.32820  11
   3  -7  -3 10.4527 1.47869   8
   3  -7  -3 5.05884 1.49406   4
   3  -7  -3 5.38385 1.53667  12
  -3   7   3 6.34243 2.68116   6
  -3   7   3 6.12653 1.27660  11
   2  -7  -3 381.091 31.4971  12
   2  -7  -3 315.814 37.0213   4
   2  -7  -3 387.063 31.7753   8
  -2   7   3 389.444 29.9055  11
  -2   7   3 372.454 50.0020   6
   1  -7  -3 195.161 16.6719   8
   1  -7  -3 176.981 25.2011  13
  -1   7   3 219.578 15.6357  11
  -1   7   3 169.783 25.8665  13
  -1   7   3 190.952 26.5241   6
   0  -7  -3 1506.72 162.778   6
   0  -7  -3 1160.38 104.344   8
   0  -7  -3 1245.52 159.582  13
   0   7   3 1123.41 163.134   6
   0   7   3 1107.70 160.137  13
  -1  -7  -3 193.337 25.4384  13
  -1  -7  -3 239.531 26.1398   6
  -1  -7  -3 185.881 16.7398   8
   1   7   3 169.186 25.9593  13
   1   7   3 182.917 26.5434   6
   1   7   3 179.932 17.0206   8
  -2  -7  -3 1.81858 1.14501  13
  -2  -7  -3 1.80516 0.49638  11
  -2  -7  -3 0.95324 0.99964   6
   2   7   3 4.34575 2.31619  13
   2   7   3 1.08386 0.85919  14
   2   7   3 1.64021 1.17120   8
  -3  -7  -3 246.809 30.1946   6
  -3  -7  -3 219.618 18.0937  11
   3   7   3 208.963 19.6586   8
   3   7   3 217.089 17.0151  14
  -4  -7  -3 42.2861 6.02874   6
  -4  -7  -3 37.0223 3.38541  11
   4   7   3 37.1456 3.95556  14
   4   7   3 36.8584 4.10719   8
  -5  -7  -3 81.4628 6.52333  11
  -5  -7  -3 77.6181 11.0404   6
   5   7   3 64.7158 6.81260   7
   5   7   3 81.6546 7.33537   5
   5   7   3 80.5212 6.92150  14
  -6  -7  -3 235.566 18.9084  11
   6   7   3 258.424 18.2660  14
   6   7   3 204.103 17.6586   7
   6   7   3 234.824 20.0129   5
  -7  -7  -3 83.6160 7.03718  11
   7   7   3 86.7993 7.74482   5
   4  -8  -3 50.4729 6.27631   4
  -4   8   3 68.2991 5.10574  11
   3  -8  -3 354.225 32.6859  12
   3  -8  -3 367.122 32.9346   8
  -3   8   3 384.393 31.0840  11
  -3   8   3 434.183 52.1542   6
   2  -8  -3 1239.46 112.550   8
   2  -8  -3 1386.13 111.495  12
  -2   8   3 1311.84 176.072   6
  -2   8   3 1364.20 106.311  11
   1  -8  -3 234.744 21.5746   8
  -1   8   3 262.417 34.3361   6
   0  -8  -3 576.914 51.6792   8
   0   8   3 577.674 51.9890   8
   0   8   3 659.889 81.2807   6
  -1  -8  -3 349.552 34.2088   8
  -1  -8  -3 449.849 53.3753   6
   1   8   3 372.015 34.5433   8
   1   8   3 422.083 54.0000   6
  -2  -8  -3 201.358 24.9347   6
   2   8   3 176.628 16.3702   8
   2   8   3 168.622 13.9743  14
  -3  -8  -3 122.681 10.5069  11
  -3  -8  -3 142.132 17.8567   6
   3   8   3 122.229 10.2099  14
   3   8   3 126.472 11.8158   8
  -4  -8  -3 392.294 47.6782   6
  -4  -8  -3 326.627 28.6111  11
   4   8   3 340.040 30.7376   8
   4   8   3 361.118 26.7675  14
  -5  -8  -3 69.4392 6.30511  11
  -5  -8  -3 74.6297 10.7698   6
   5   8   3 76.3706 6.65041  14
   5   8   3 83.2182 6.87696   7
  -6  -8  -3 11.6186 1.42717  11
   6   8   3 13.1838 2.19146   5
   6   8   3 12.9493 2.59251  14
   6   8   3 11.8194 2.23725   7
  -7  -8  -3 95.9437 8.47760  11
   7   8   3 112.871 9.21895   5
  -3   9   3 191.873 26.4196   6
   2  -9  -3 3.36496 0.99865   8
  -2   9   3 3.56649 2.53932   6
   1  -9  -3 863.558 80.1611   8
  -1   9   3 1021.35 125.700   6
   0  -9  -3 105.993 10.5775   8
   0   9   3 133.125 17.4036   6
   0   9   3 116.133 10.9748   8
  -1  -9  -3 169.489 17.0182   8
  -1  -9  -3 190.310 26.4498   6
   1   9   3 231.376 27.4253   6
   1   9   3 188.249 17.3991   8
  -2  -9  -3 900.171 119.251   6
   2   9   3 896.964 76.9061   8
  -3  -9  -3 6.94674 2.53391   6
   3   9   3 5.57675 1.76991   8
   3   9   3 6.61215 1.63122  14
  -4  -9  -3 26.9729 2.72805  11
  -4  -9  -3 35.5563 5.38702   6
   4   9   3 32.3802 3.51019  14
   4   9   3 28.4260 3.63190   8
   4   9   3 36.4272 3.68268   7
  -5  -9  -3 211.675 18.3695  11
  -5  -9  -3 230.247 30.7028   6
   5   9   3 238.775 17.2756   7
   5   9   3 230.279 17.4017  14
  -6  -9  -3 5.87547 0.87744  11
   6   9   3 7.94643 1.63694  14
   6   9   3 8.30180 1.69186   7
   2 -10  -3 99.6133 8.76597   8
   1 -10  -3 92.1671 9.68592   8
  -1  10   3 128.621 15.9875   6
   0 -10  -3 132.735 13.4089   8
   0  10   3 146.986 13.7081   8
   0  10   3 179.620 21.7720   6
  -1 -10  -3 333.902 30.8916   8
  -1 -10  -3 345.951 48.0015   6
   1  10   3 397.505 31.2798   8
  -2 -10  -3 52.2330 8.19197   6
   2  10   3 59.6881 5.81656   8
  -3 -10  -3 181.396 24.5288   6
   3  10   3 178.488 16.0219   8
  -4 -10  -3 108.947 14.7369   6
   4  10   3 107.918 8.35502   7
   4  10   3 109.226 8.48457  14
   4  10   3 96.9303 9.49691   8
  -5 -10  -3 13.4451 2.58369   6
  -5 -10  -3 9.08774 1.28181  15
   5  10   3 11.8393 1.93233  14
   5  10   3 14.1202 1.74681   7
   0 -11  -3 6.89184 1.17406   8
  -1 -11  -3 306.665 28.5400   8
   1  11   3 359.635 28.7787   8
  -2 -11  -3 156.122 24.8790   6
   2  11   3 194.815 16.3046   8
   2  11   3 205.908 13.8887   7
  -3 -11  -3 175.936 26.2944   6
   3  11   3 203.098 14.5817   7
   3  11   3 208.277 17.0865   8
  -4 -11  -3 254.020 34.0239   6
  -3  -8   4 38.3442 3.06483  15
  -3  -8   4 33.9445 5.62346   6
   2   8  -4 540.100 39.0412  12
   2   8  -4 470.462 39.1325   8
  -2  -8   4 434.153 34.5256  15
  -2  -8   4 388.556 61.0339   6
   1   8  -4 212.382 16.1082   8
  -1  -8   4 183.347 14.0751  15
  -1  -8   4 156.339 24.9248   6
   0   8  -4 346.707 28.0488   8
   0  -8   4 321.420 24.6691  15
   0  -8   4 309.776 27.9950   8
   1  -8   4 206.353 17.3929   8
   1  -8   4 195.550 15.2739  15
  -5  -7   4 6.30931 0.76828  11
  -4  -7   4 139.396 11.5978  11
  -4  -7   4 134.926 19.6794   6
  -4  -7   4 154.987 11.0807  15
   3   7  -4 50.0229 4.71866  12
   3   7  -4 41.0501 4.05319   8
  -3  -7   4 39.2028 3.59443  15
  -3  -7   4 37.0521 6.63596   6
   2   7  -4 387.287 31.8443   8
  -2  -7   4 379.899 28.0440  15
  -2  -7   4 340.672 49.7137   6
   1   7  -4 38.8538 3.92373   8
  -1  -7   4 31.0027 6.05369   6
  -1  -7   4 37.9132 3.29095  15
   0   7  -4 186.891 14.8101   8
   0  -7   4 170.057 12.8732  15
   0  -7   4 139.200 22.7895   6
   0  -7   4 168.520 14.7486   8
  -1   7  -4 2.59303 1.05242   8
  -1   7  -4 4.39244 1.62269   6
   1  -7   4 4.44325 1.25218   8
   1  -7   4 5.81526 1.23159  15
  -2   7  -4 593.253 83.1993   6
   2  -7   4 662.782 53.5204   8
   2  -7   4 625.080 47.2168  15
  -3   7  -4 59.8559 8.11872   6
   3  -7   4 54.7446 5.16133   8
   6   6  -4 131.473 9.65704   7
  -6  -6   4 122.261 10.2718  11
   5   6  -4 267.099 21.9936   5
   5   6  -4 262.492 19.3755   7
  -5  -6   4 253.697 21.0678  11
   4   6  -4 30.8062 3.28849   7
   4   6  -4 37.4303 4.38969  12
  -4  -6   4 35.4744 3.05244  11
  -4  -6   4 29.9665 5.88832   6
  -4  -6   4 38.1105 3.24052  15
   3   6  -4 140.016 12.8790   8
   3   6  -4 171.818 13.6547  12
  -3  -6   4 139.847 20.4109   6
  -3  -6   4 142.574 11.3687  15
  -3  -6   4 136.319 11.8528  11
   2   6  -4 1226.03 103.691   8
  -2  -6   4 1211.72 91.5810  15
   1   6  -4 9.11595 1.97330   8
  -1  -6   4 7.52540 3.13811   6
  -1  -6   4 10.8373 1.66256  15
   0   6  -4 508.510 41.0151   8
   0  -6   4 427.281 63.8139   6
   0  -6   4 505.324 36.0917  15
   0  -6   4 461.108 40.9990   8
  -1   6  -4 982.116 65.7250   9
  -1   6  -4 927.216 81.1651   8
  -1   6  -4 938.663 126.275   6
   1  -6   4 970.130 81.2607   8
   1  -6   4 941.396 71.6571  15
  -2   6  -4 2.19801 0.96370   9
   2  -6   4 2.42949 1.00104   8
  -3   6  -4 293.514 20.3742   9
  -3   6  -4 291.332 39.0442   6
   3  -6   4 286.257 22.1597  15
   3  -6   4 291.475 25.1264   8
  -4   6  -4 94.4474 6.42909   9
  -4   6  -4 86.6437 12.1467   6
   4  -6   4 82.9791 6.86703  15
   6   5  -4 41.7707 3.90083   7
   6   5  -4 46.5241 4.21792   5
  -6  -5   4 39.8651 3.62055  11
   5   5  -4 85.9629 8.58404  12
   5   5  -4 80.1522 7.08789   7
   5   5  -4 86.2723 7.83651   5
  -5  -5   4 92.3472 7.20413  11
   4   5  -4 422.098 33.2328   7
   4   5  -4 421.855 39.1223  12
   4   5  -4 458.071 37.9040   5
  -4  -5   4 481.406 36.4673  11
  -4  -5   4 450.633 60.8548   6
  -4  -5   4 479.228 34.3235  15
   3   5  -4 78.5162 7.88164   8
   3   5  -4 81.8780 8.60059  12
  -3  -5   4 84.8421 12.7626   6
  -3  -5   4 90.9269 7.01468  15
  -3  -5   4 92.4160 7.18912  11
   2   5  -4 617.663 56.7027   8
  -2  -5   4 654.815 53.2726  11
  -2  -5   4 692.458 50.0962  15
  -2  -5   4 688.780 88.7669   6
   1   5  -4 74.4922 7.36762   8
  -1  -5   4 76.3022 11.7453   6
  -1  -5   4 82.2057 6.41377  15
   0   5  -4 74.2252 11.8027   6
   0   5  -4 93.6492 6.41888   9
   0   5  -4 90.2062 7.91762   8
   0  -5   4 79.4278 7.91538   8
   0  -5   4 80.7224 6.76751  15
   0  -5   4 80.8239 12.4175   6
  -1   5  -4 380.977 34.9034   8
  -1   5  -4 408.505 54.1410   6
  -1   5  -4 419.044 28.2586   9
   1  -5   4 420.057 35.0583   8
   1  -5   4 427.571 30.8012  15
   1  -5   4 367.477 54.4658   6
  -2   5  -4 631.092 82.9757   6
  -2   5  -4 616.426 43.1609   9
   2  -5   4 616.254 53.4553   8
   2  -5   4 625.741 47.1374  15
  -3   5  -4 18.0322 2.01403   9
  -3   5  -4 16.4948 3.72863   6
   3  -5   4 16.6032 2.42082   8
   3  -5   4 17.5873 2.22243  15
  -4   5  -4 123.377 8.71539   9
  -4   5  -4 120.703 16.5957   6
   4  -5   4 116.360 10.6114   8
   4  -5   4 117.901 9.47560  15
  -5   5  -4 261.219 35.5486   6
  -5   5  -4 270.956 18.5645   9
   7   4  -4 41.4253 3.81448   5
   7   4  -4 35.4583 3.50143   7
   6   4  -4 399.936 30.3199   7
   6   4  -4 422.835 34.5507   5
   5   4  -4 38.3239 5.25065  12
   5   4  -4 51.6526 4.72839   5
   5   4  -4 42.8308 4.24637   7
  -5  -4   4 47.1442 3.97419  11
   4   4  -4 12.3811 3.08729  12
   4   4  -4 11.8855 2.17079   7
   4   4  -4 14.8109 2.30737   5
  -4  -4   4 16.6271 1.65739  11
   3   4  -4 426.318 38.5486   5
   3   4  -4 419.338 39.6510  12
   3   4  -4 404.679 33.7238   7
   3   4  -4 435.048 39.4574   8
  -3  -4   4 505.656 34.9855  15
  -3  -4   4 540.372 37.1930  11
  -3  -4   4 518.666 62.1940   6
  -3  -4   4 438.952 39.4546  10
   2   4  -4 43.5552 4.85627   8
  -2  -4   4 55.2851 8.25663   6
  -2  -4   4 49.3625 4.32829  15
  -2  -4   4 53.9072 4.35062  11
   1   4  -4 29.1415 4.77082  13
   1   4  -4 27.1720 3.16666   8
  -1  -4   4 26.2477 4.77218  13
  -1  -4   4 29.9515 2.81843  15
  -1  -4   4 34.1047 5.64889   6
  -1  -4   4 28.3505 2.60692  11
   0   4  -4 2305.89 332.027   6
   0   4  -4 2378.37 213.104   8
   0   4  -4 2657.68 326.287  13
   0   4  -4 2644.82 172.654   9
   0  -4   4 2375.39 326.136  13
   0  -4   4 2808.64 189.043  15
   0  -4   4 2538.83 332.594   6
   0  -4   4 2405.54 213.241   8
  -1   4  -4 23.3479 3.81582   6
  -1   4  -4 17.9997 2.57375   8
  -1   4  -4 20.0183 3.88736  13
  -1   4  -4 23.2314 2.17039   9
   1  -4   4 17.7030 4.37508   6
   1  -4   4 19.7043 2.59882   8
   1  -4   4 18.1774 2.25397  15
   1  -4   4 15.7419 3.54652  13
  -2   4  -4 161.455 22.4525   6
  -2   4  -4 163.848 11.7483   9
   2  -4   4 168.276 12.9221  15
   2  -4   4 159.316 14.6759   8
  -3   4  -4 345.437 27.1227  11
  -3   4  -4 339.256 45.2390   6
  -3   4  -4 335.556 23.5526   9
   3  -4   4 334.515 25.8458  15
   3  -4   4 323.436 29.2166   8
  -4   4  -4 96.1451 13.7647   6
  -4   4  -4 97.5811 8.03954  11
  -4   4  -4 102.418 7.26837   9
   4  -4   4 91.5764 8.90391   8
   4  -4   4 96.4748 8.02378  15
  -5   4  -4 35.7773 2.95590   9
  -5   4  -4 31.0687 5.32255   6
  -5   4  -4 35.8955 3.03115  11
   5  -4   4 33.8699 3.25651  15
   7   3  -4 216.443 15.8744   7
   7   3  -4 208.001 18.0657   5
   6   3  -4 25.7141 3.07464   7
   6   3  -4 31.6715 3.91131  12
   6   3  -4 28.9925 3.41999   5
   5   3  -4 312.770 23.5570   7
   5   3  -4 315.004 27.6232  12
   5   3  -4 322.570 26.8838   5
   4   3  -4 241.229 20.4996   5
   4   3  -4 229.008 17.9539   7
   4   3  -4 250.326 21.1750  12
   3   3  -4 73.3412 6.94442   5
   3   3  -4 68.0830 6.81001   8
   3   3  -4 76.5576 7.34888  12
   3   3  -4 75.5710 6.13143   7
  -3  -3   4 79.2018 6.87741  10
  -3  -3   4 84.6855 6.40816  11
  -2  -3   4 443.461 41.3649   3
  -2  -3   4 479.592 40.3473  10
  -2  -3   4 494.970 69.2473   1
   1   3  -4 730.732 87.3982  13
   1   3  -4 545.787 82.1105   2
  -1  -3   4 692.178 87.4693  13
  -1  -3   4 711.577 58.5551   3
   0   3  -4 103.986 13.0246  13
   0   3  -4 72.6758 12.0327   2
   0  -3   4 112.238 13.1122  13
   0  -3   4 87.2483 8.62939   3
  -1   3  -4 673.680 98.8054   2
  -1   3  -4 925.734 105.436  13
   1  -3   4 822.473 105.246  13
  -2   3  -4 110.021 15.3494   6
  -2   3  -4 119.726 15.3859  13
  -2   3  -4 114.575 8.10154   9
  -2   3  -4 114.589 9.07532  11
   2  -3   4 116.074 10.1225   8
   2  -3   4 102.435 15.0971  13
   2  -3   4 92.8671 8.79847  15
  -3   3  -4 9.60562 1.53182   9
  -3   3  -4 9.76027 3.01439   6
  -3   3  -4 12.9988 1.44256  11
  -3   3  -4 9.69292 2.97001  13
   3  -3   4 11.4610 2.03299   8
   3  -3   4 10.1809 2.04248  15
   3  -3   4 13.9102 1.72539  16
  -4   3  -4 39.6989 3.43500  11
  -4   3  -4 42.7653 3.39045   9
  -4   3  -4 37.3212 6.24493   6
   4  -3   4 27.3961 3.79839  15
   4  -3   4 38.4802 3.89168  16
   4  -3   4 38.8409 4.11740   8
  -5   3  -4 11.2200 1.65201   9
  -5   3  -4 11.3258 2.85281   6
  -5   3  -4 10.3855 1.36512  11
   5  -3   4 9.36057 1.71087  16
   5  -3   4 8.60955 1.94718  15
  -6   3  -4 51.3926 4.06617   9
  -6   3  -4 57.7143 4.47453  11
   6  -3   4 53.9566 4.91894  16
   6  -3   4 46.4383 4.39805  15
   7   2  -4 102.882 9.28172   5
   7   2  -4 106.794 8.16297   7
   6   2  -4 42.8168 3.91221   7
   6   2  -4 38.7526 4.71021  12
   6   2  -4 45.2669 4.55517   5
   5   2  -4 5.72391 1.69892  12
   5   2  -4 8.20700 1.62627   7
   5   2  -4 5.25713 1.49020   5
   4   2  -4 538.723 45.5416  12
   4   2  -4 496.207 38.9356   7
   4   2  -4 502.562 44.6783   5
  -4  -2   4 599.812 45.5421  10
  -3  -2   4 6.14554 1.06011  10
  -2  -2   4 46.2447 4.36221   3
  -2  -2   4 49.6404 7.39626   1
  -2  -2   4 41.5984 4.18365  10
   1   2  -4 3403.51 413.778  13
   1   2  -4 2797.68 388.662   2
  -1  -2   4 3224.49 277.434   3
  -1  -2   4 3250.00 462.794   1
  -1  -2   4 3262.86 269.855  10
  -1  -2   4 3147.78 414.132  13
   0   2  -4 6.03428 1.80177   2
   0   2  -4 8.67145 1.79658  13
   0  -2   4 5.49279 1.22459   3
   0  -2   4 9.36219 1.94267  13
  -1   2  -4 222.416 26.8080  13
  -1   2  -4 183.765 25.0736   2
   1  -2   4 190.024 17.9332   3
   1  -2   4 209.113 26.7362  13
  -2   2  -4 1147.70 138.406  13
  -2   2  -4 1006.61 129.869   2
   2  -2   4 1035.93 138.237  13
  -3   2  -4 1128.68 73.5076   9
  -3   2  -4 1076.75 138.902  13
  -3   2  -4 998.366 85.5141  11
  -3   2  -4 1027.73 141.251   6
   3  -2   4 1000.91 91.6005  16
   3  -2   4 1106.77 80.3950  15
   3  -2   4 1127.05 90.8168   8
  -4   2  -4 304.583 19.8109   9
  -4   2  -4 264.033 22.7219  11
  -4   2  -4 270.401 37.7795   6
   4  -2   4 290.787 24.4248   8
   4  -2   4 281.512 24.5643  16
   4  -2   4 271.644 21.7264  15
  -5   2  -4 863.637 54.1730   9
  -5   2  -4 806.125 62.8886  11
  -5   2  -4 723.827 103.886   6
   5  -2   4 849.533 67.5233  16
   5  -2   4 701.413 59.2269  15
   5  -2   4 750.354 78.1392   4
  -6   2  -4 14.0042 1.52247  11
  -6   2  -4 13.7553 1.69923   9
   6  -2   4 13.6236 1.96514  16
   6  -2   4 8.61940 1.93168  15
   6  -2   4 11.6543 2.00058   4
  -7   2  -4 128.902 10.4812  11
   7   1  -4 36.1801 3.17827   7
   7   1  -4 32.8015 3.89861  12
   7   1  -4 35.2107 3.60797   5
   6   1  -4 74.8367 6.00744   7
   6   1  -4 70.9337 7.16017  12
   6   1  -4 74.9239 6.89807   5
   5   1  -4 611.891 54.1630   5
   5   1  -4 663.654 47.2317   7
   5   1  -4 672.837 55.2059  12
   4   1  -4 126.307 12.0157   5
   4   1  -4 139.076 12.3248  12
   4   1  -4 130.648 10.4731   7
  -4  -1   4 157.299 11.9807  10
  -3  -1   4 44.6558 7.36918   1
  -3  -1   4 47.0957 4.13389  10
  -2  -1   4 1842.82 256.597   1
  -2  -1   4 1670.86 153.345   3
  -2  -1   4 1783.84 149.946  10
   1   1  -4 525.843 38.9973  17
   1   1  -4 544.665 71.6753  13
  -1  -1   4 555.763 48.0927   3
  -1  -1   4 544.233 71.7835  13
  -1  -1   4 591.442 80.3123   1
  -1  -1   4 546.923 46.8596  10
   0   1  -4 1276.84 158.461  13
   0   1  -4 1099.11 159.501   2
   0   1  -4 1291.19 85.7769  17
   0  -1   4 1237.33 176.930   1
   0  -1   4 1196.07 158.418  13
   0  -1   4 1249.75 106.283   3
   0  -1   4 1152.10 103.128  10
  -1   1  -4 2374.30 306.697   2
  -1   1  -4 2524.22 326.198  13
  -1   1  -4 2593.08 177.229  17
   1  -1   4 2504.89 326.598  13
   1  -1   4 2547.41 218.664   3
  -2   1  -4 50.3009 4.82621  10
  -2   1  -4 56.6653 7.57661  13
  -2   1  -4 55.8943 4.14084  17
  -2   1  -4 50.1909 7.05264   2
  -3   1  -4 828.786 107.806   2
  -3   1  -4 933.509 74.9742  10
  -3   1  -4 883.889 114.810  13
  -4   1  -4 136.637 19.4157   6
  -4   1  -4 143.266 12.4662  10
   4  -1   4 146.754 12.6132   8
   4  -1   4 145.310 12.7913  16
   4  -1   4 127.227 14.6426   4
   4  -1   4 153.148 11.3404  15
  -5   1  -4 438.763 31.2182   9
  -5   1  -4 418.082 36.1415  11
   5  -1   4 472.831 39.0266  16
   5  -1   4 474.227 34.2995  15
   5  -1   4 438.060 45.1172   4
  -6   1  -4 207.846 17.1009  11
   6  -1   4 203.867 21.4627   4
   6  -1   4 232.379 18.6659  16
   6  -1   4 195.183 16.4382  15
  -7   1  -4 240.181 19.1540  11
   7  -1   4 220.979 23.8794   4
   7  -1   4 248.739 20.7148  16
   7   0  -4 98.8668 7.84743   7
   7   0  -4 106.746 9.43649  12
   6   0  -4 85.6735 7.82191   5
   6   0  -4 85.1073 6.87470   7
   6   0  -4 91.0210 8.28088  12
   5   0  -4 53.6271 4.34460   7
   5   0  -4 50.9328 5.19501  12
   5   0  -4 48.9119 4.91268   5
   4   0  -4 18.8364 2.38232   9
   4   0  -4 26.1947 2.92713  12
   4   0  -4 25.8507 2.87688   5
   4   0  -4 26.4255 2.46749   7
  -4   0   4 31.4488 2.47109  10
  -3   0   4 335.935 48.7031   1
  -3   0   4 328.220 28.2582  10
  -2   0   4 1456.17 127.573  10
  -2   0   4 1553.51 219.119   1
   1   0  -4 1034.45 129.875  13
   1   0  -4 999.059 70.3236  17
  -1   0   4 1012.99 145.019   1
  -1   0   4 1027.89 87.2274   3
  -1   0   4 953.505 129.577  13
  -1   0   4 960.095 84.6612  10
   0   0  -4 175.596 23.3292  13
   0   0  -4 185.299 12.7528  17
   0   0  -4 159.575 21.9439   2
   0   0   4 174.241 23.3942  13
   0   0   4 184.952 15.6398   3
   0   0   4 167.547 15.2297  10
   0   0   4 199.185 26.1311   1
  -1   0  -4 1354.27 174.324   2
  -1   0  -4 1422.35 185.001  13
  -1   0  -4 1344.54 124.671  10
  -1   0  -4 1475.38 100.732  17
   1   0   4 1520.57 207.479   1
  -2   0  -4 1487.38 105.549  17
  -2   0  -4 1516.30 190.634  13
  -2   0  -4 1356.42 124.258  10
  -2   0  -4 1349.64 178.862   2
   2   0   4 1618.08 190.376  13
  -3   0  -4 780.409 96.5531  13
  -3   0  -4 790.529 63.0443  10
  -3   0  -4 715.585 90.6576   2
   3   0   4 681.390 96.6741  13
  -4   0  -4 509.590 67.6191   6
  -4   0  -4 434.984 35.2313   9
  -4   0  -4 547.310 43.3888  10
   4   0   4 531.330 44.1081  16
   4   0   4 547.330 38.5733  15
   4   0   4 496.938 43.4552   8
   4   0   4 493.461 51.0025   4
  -5   0  -4 711.988 65.0064  11
   5   0   4 857.688 69.9473  16
   5   0   4 791.742 80.9663   4
   5   0   4 879.633 61.2175  15
  -6   0  -4 -0.5485 0.50382  11
   6   0   4 -0.0178 1.28245  15
   6   0   4 1.14517 1.28898  16
   6   0   4 0.24997 1.10611   4
  -7   0  -4 83.1516 7.07879  11
   7   0   4 86.6129 9.07259   4
   7   0   4 85.3028 7.90768  16
   7  -1  -4 21.6104 2.09511   7
   7  -1  -4 19.5366 2.69175  12
   6  -1  -4 293.886 29.1309  16
   6  -1  -4 353.079 28.5572  12
   6  -1  -4 345.469 24.2870   7
   5  -1  -4 219.801 22.7775  16
   5  -1  -4 284.337 22.3563  12
   5  -1  -4 266.448 18.9783   7
   4  -1  -4 322.290 32.1800  16
   4  -1  -4 374.352 31.4882  12
   4  -1  -4 364.364 26.9013   7
   4  -1  -4 357.112 25.7150   9
  -4   1   4 423.654 31.3730  10
  -3   1   4 367.230 52.8896   1
  -3   1   4 355.005 30.7045  10
  -2   1   4 9.32770 2.04631   1
  -2   1   4 10.9793 1.10654  10
   1  -1  -4 15.6627 2.13425  13
   1  -1  -4 15.3841 1.25779  17
  -1   1   4 12.3885 2.47118   1
  -1   1   4 12.2558 1.39653  10
   0  -1  -4 2364.68 161.324  17
   0  -1  -4 2246.94 296.177  13
   0   1   4 2382.59 331.280   1
   0   1   4 2120.44 193.436  10
  -1  -1  -4 909.299 82.9005  10
  -1  -1  -4 829.060 119.037   2
  -1  -1  -4 944.766 127.241  13
  -1  -1  -4 990.145 69.0069  17
   1   1   4 1129.13 127.167  13
   1   1   4 1068.17 147.387   1
  -2  -1  -4 1467.51 100.940  17
  -2  -1  -4 1395.75 121.490  10
  -2  -1  -4 1442.57 186.181  13
  -2  -1  -4 1302.04 174.739   2
   2   1   4 1544.41 185.775  13
  -3  -1  -4 305.002 37.1943  13
  -3  -1  -4 307.451 20.2581  17
  -3  -1  -4 298.970 24.2451  10
  -3  -1  -4 256.059 34.8217   2
   3   1   4 251.063 37.3014  13
  -4  -1  -4 948.449 79.8887  10
   4   1   4 996.149 81.0228  16
   4   1   4 904.188 93.8219   4
   4   1   4 916.436 70.7836  15
   5   1   4 31.1019 3.06358  15
   5   1   4 35.5796 4.02756   4
   5   1   4 28.2187 3.43092  16
  -6  -1  -4 540.370 47.1449  11
   6   1   4 628.037 50.8430  16
   6   1   4 604.295 44.4729  15
   6   1   4 573.901 58.8273   4
  -7  -1  -4 29.9888 2.83747  11
   7   1   4 32.0741 3.93316   4
   7   1   4 32.0976 3.50135  16
   7  -2  -4 3.02220 1.38838  16
   7  -2  -4 4.71473 1.30053  12
   6  -2  -4 105.326 9.75523  12
   6  -2  -4 97.4077 10.0539  16
   6  -2  -4 102.608 8.14874   7
   6  -2  -4 121.403 11.5614   4
   5  -2  -4 120.679 9.47762   7
   5  -2  -4 111.580 11.5329  16
   5  -2  -4 141.943 13.3689   4
   5  -2  -4 126.130 11.2634  12
   4  -2  -4 473.763 33.8160   9
   4  -2  -4 528.303 49.0511   4
   4  -2  -4 471.671 35.3717   7
   4  -2  -4 484.504 41.3872  12
   4  -2  -4 458.196 42.3167  16
  -4   2   4 505.986 41.3709  10
  -3   2   4 16.9561 3.08981   1
  -3   2   4 15.0854 1.57155  10
  -2   2   4 1011.54 87.1911  10
  -2   2   4 1038.60 148.943   1
   1  -2  -4 1500.95 116.895  17
   1  -2  -4 1572.80 198.182  13
  -1   2   4 1452.66 129.523  10
  -1   2   4 1600.85 222.126   1
  -1   2   4 1495.39 197.917  13
   0  -2  -4 1529.75 121.570  17
   0  -2  -4 1528.23 199.773  13
   0   2   4 1455.55 130.334  10
   0   2   4 1551.09 223.691   1
   0   2   4 1609.16 199.342  13
  -1  -2  -4 210.385 32.0286   2
  -1  -2  -4 268.103 34.1842  13
  -1  -2  -4 250.128 22.3035  10
  -1  -2  -4 276.757 18.6533  17
   1   2   4 280.578 34.5837  13
   1   2   4 285.587 38.4287   1
  -2  -2  -4 68.9119 5.62291  10
  -2  -2  -4 54.2048 8.00639   2
  -2  -2  -4 72.5181 4.80419  17
  -2  -2  -4 74.0410 8.69955  13
   2   2   4 72.7213 9.11291  13
   2   2   4 43.8416 9.73563   1
  -3  -2  -4 76.0304 5.27564  17
  -3  -2  -4 76.4244 9.59974  13
  -3  -2  -4 72.7192 6.20681  10
   3   2   4 56.4563 9.72078  13
  -4  -2  -4 43.2152 3.94939  10
  -5  -2  -4 334.319 29.6191  10
   5   2   4 380.920 30.2511  16
   5   2   4 291.658 29.3384   5
   5   2   4 357.138 34.9899   4
   5   2   4 369.498 26.4654  15
   6   2   4 44.0579 5.45731   5
   6   2   4 63.2102 5.37058  16
   6   2   4 52.7760 6.03419   4
  -7  -2  -4 43.3763 3.91773  11
   7   2   4 46.4843 4.55781  16
   7   2   4 47.0010 5.24241   4
   8   2   4 19.9869 2.56608   4
   7  -3  -4 124.126 10.9961  16
   7  -3  -4 122.720 10.7097  12
   7  -3  -4 117.178 12.6944   4
   6  -3  -4 454.406 47.2848   4
   6  -3  -4 457.471 39.8593  12
   6  -3  -4 491.893 40.8264  16
   5  -3  -4 68.6905 8.35192   4
   5  -3  -4 69.8658 5.79303   7
   5  -3  -4 78.9748 7.06730  12
   5  -3  -4 77.7994 7.24916  16
   4  -3  -4 515.840 56.8252   4
   4  -3  -4 579.672 41.0028   7
   4  -3  -4 577.742 49.0055  16
   4  -3  -4 592.411 47.9740  12
  -4   3   4 560.782 47.9977  10
  -3   3   4 233.869 33.0783   1
  -3   3   4 213.387 19.0903  10
  -2   3   4 462.284 64.8377   1
  -2   3   4 424.929 37.7032  10
   1  -3  -4 5441.54 421.650  17
   1  -3  -4 6308.87 798.282  13
  -1   3   4 5110.58 776.634  13
  -1   3   4 6643.80 869.350   1
  -1   3   4 6426.42 507.237  10
   0  -3  -4 1444.22 105.597  17
   0  -3  -4 1607.16 194.324  13
   0   3   4 1509.25 217.469   1
   0   3   4 1500.99 126.769  10
   0   3   4 1406.19 193.852  13
  -1  -3  -4 483.504 33.4456  17
  -1  -3  -4 450.773 40.1097  10
  -1  -3  -4 503.072 61.4360  13
   1   3   4 445.238 68.9194   1
   1   3   4 472.254 61.8370  13
  -2  -3  -4 1257.67 110.530  10
  -2  -3  -4 1325.35 95.2392  17
  -2  -3  -4 1343.18 159.408  13
   2   3   4 1006.23 177.729   1
   2   3   4 1206.84 158.966  13
  -3  -3  -4 2864.57 223.058  10
  -3  -3  -4 2675.37 185.594  17
  -3  -3  -4 2884.72 341.295  13
   3   3   4 2081.35 340.202  13
  -4  -3  -4 16.3321 1.72044  10
  -5  -3  -4 562.768 49.8170  10
   5   3   4 601.134 58.6275   4
   5   3   4 560.296 49.1566   5
   5   3   4 618.924 50.5594  16
   6   3   4 292.890 26.6204   4
   6   3   4 229.502 22.5661   5
  -7  -3  -4 4.72388 0.86520  11
   7   3   4 1.94684 1.59561   5
   7   3   4 5.23103 1.58600   4
  -8  -3  -4 4.67985 0.81366  11
   8   3   4 7.58871 1.28899   4
   7  -4  -4 106.106 9.59109  12
   7  -4  -4 111.780 9.78362  16
   6  -4  -4 11.6729 1.95255  12
   6  -4  -4 9.57586 1.87596  16
   6  -4  -4 7.73182 2.28653   4
   5  -4  -4 453.358 46.7899   4
   5  -4  -4 492.392 39.4703  12
   5  -4  -4 488.365 40.2686  16
   5  -4  -4 415.969 33.5782   7
   4  -4  -4 602.126 43.0075   7
   4  -4  -4 590.500 51.3316  16
   4  -4  -4 571.765 59.6541   4
   4  -4  -4 608.097 50.3078  12
   3  -4  -4 85.7719 8.08623  12
   3  -4  -4 94.9457 9.73524   4
   3  -4  -4 85.7381 8.22853  16
   3  -4  -4 87.7060 6.90260   7
  -3   4   4 96.3844 7.88639  10
  -2   4   4 1092.11 93.0690  10
  -2   4   4 1103.70 159.644   1
   1  -4  -4 132.059 16.6119  13
  -1   4   4 128.268 18.8670   1
  -1   4   4 134.544 10.8787  10
  -1   4   4 106.953 17.0066  13
   0  -4  -4 198.797 14.6612  17
   0  -4  -4 226.018 26.8258  13
   0   4   4 195.793 30.1906   1
   0   4   4 218.298 17.5334  10
   0   4   4 183.171 27.2097  13
  -1  -4  -4 982.601 117.201  13
  -1  -4  -4 871.769 60.7539  17
   1   4   4 792.784 125.211   1
   1   4   4 804.966 112.105  13
  -2  -4  -4 131.649 15.9514  13
  -2  -4  -4 126.139 10.3711  10
  -2  -4  -4 115.025 10.5855   3
  -2  -4  -4 132.864 8.77958  17
   2   4   4 102.944 18.1406   1
   2   4   4 111.773 16.3349  13
  -3  -4  -4 34.2841 2.94951  10
  -3  -4  -4 37.6662 4.64889  13
  -3  -4  -4 28.9187 2.55199  17
   3   4   4 25.0741 4.84846  13
  -4  -4  -4 1004.54 84.7868  10
   4   4   4 992.292 82.9944   5
   4   4   4 1001.71 99.5323   4
   5   4   4 56.7751 6.29175   4
   5   4   4 58.8589 5.80691   5
  -6  -4  -4 4.85791 1.04734  11
   6   4   4 10.5785 2.47670   5
   6   4   4 8.78959 1.66441   4
  -7  -4  -4 14.8816 1.50545  11
   7   4   4 10.5028 2.69693   5
   7   4   4 15.6361 2.17209   4
  -8  -4  -4 39.1569 3.33260  11
   6  -5  -4 1.56691 1.03943  12
   6  -5  -4 1.45808 0.93057  16
   6  -5  -4 1.34267 1.11263   4
  -6   5   4 1.17200 0.48649  11
   5  -5  -4 19.3151 2.53644  16
   5  -5  -4 24.9325 3.21102   4
   5  -5  -4 16.1593 2.55124  12
   4  -5  -4 6.85022 1.48469  16
   4  -5  -4 3.73787 1.06242   7
   4  -5  -4 6.94531 1.58438  12
   4  -5  -4 7.31961 1.96350   4
   3  -5  -4 1295.22 105.892  12
   3  -5  -4 1271.47 90.7301   7
   3  -5  -4 1322.32 125.462   4
   3  -5  -4 1199.48 108.042  16
  -3   5   4 1204.07 100.876  11
  -2   5   4 377.927 42.6565   2
  -2   5   4 314.380 50.8593   1
   1  -5  -4 993.760 129.423  13
  -1   5   4 1142.86 84.6548  10
  -1   5   4 1024.80 145.217   1
  -1   5   4 827.811 129.846  13
   0  -5  -4 158.275 18.9121  13
   0  -5  -4 144.735 10.4324  17
   0   5   4 133.906 19.4176  13
   0   5   4 133.897 21.3874   1
  -1  -5  -4 395.525 26.6221  17
  -1  -5  -4 426.688 48.7313  13
   1   5   4 340.470 49.1660  13
   1   5   4 329.406 54.7221   1
  -2  -5  -4 843.753 57.3019  17
  -2  -5  -4 920.051 105.285  13
  -2  -5  -4 852.322 70.4791   3
   2   5   4 747.577 118.162   1
   2   5   4 684.757 105.580  13
  -3  -5  -4 276.787 30.7909  13
  -3  -5  -4 232.880 20.5009   3
  -3  -5  -4 253.623 20.0268  10
   3   5   4 171.092 30.8515  13
  -4  -5  -4 40.1729 3.54098  11
  -4  -5  -4 42.6534 3.84949  10
  -4  -5  -4 47.7421 6.21829   6
   4   5   4 42.6208 4.27122   5
   4   5   4 35.2473 4.24027   8
   4   5   4 36.5093 4.01158  14
   4   5   4 44.4356 4.67945   4
  -5  -5  -4 377.614 29.8568  11
   5   5   4 303.735 27.8902  14
   5   5   4 401.156 37.2792   4
   5   5   4 398.373 31.4458   5
   6   5   4 -0.2214 1.43888   5
   6   5   4 1.23260 0.88979   4
  -7  -5  -4 48.7919 4.20105  11
   7   5   4 48.9177 5.28147   5
   7   5   4 50.0813 5.36678   4
   6  -6  -4 57.6397 5.34471  16
   6  -6  -4 58.9963 5.32363  12
  -6   6   4 58.2005 4.90222  11
   5  -6  -4 156.584 14.8650   4
   5  -6  -4 130.039 12.5186  12
   5  -6  -4 144.864 12.7408  16
  -5   6   4 140.242 11.7602  11
   4  -6  -4 15.1057 2.32092  12
   4  -6  -4 19.1077 2.65913   4
   4  -6  -4 15.6413 2.14946  16
  -4   6   4 16.3908 1.86061  11
   3  -6  -4 1236.49 90.1588   8
   3  -6  -4 1005.43 89.3205  12
   3  -6  -4 1120.96 76.5824   7
   3  -6  -4 1119.72 105.813   4
   3  -6  -4 993.429 91.1212  16
  -3   6   4 1040.77 85.1323  11
  -3   6   4 907.027 140.804   6
   2  -6  -4 2.73994 1.04980  12
   2  -6  -4 2.99432 0.85225   8
   2  -6  -4 4.51253 1.22467   4
   2  -6  -4 4.50982 1.06215   7
  -2   6   4 10.1519 1.20833  11
  -2   6   4 4.25712 1.03272  10
  -2   6   4 2.46329 2.02557   6
   1  -6  -4 72.8313 6.77274   8
   1  -6  -4 90.1147 10.2792  13
  -1   6   4 65.9138 10.8359  13
  -1   6   4 81.2808 6.37317  11
  -1   6   4 71.9931 11.8590   1
  -1   6   4 65.8031 11.2227   6
   0  -6  -4 135.047 16.2720  13
   0   6   4 110.647 16.8350  13
   0   6   4 118.342 18.5443   1
  -1  -6  -4 380.961 44.3377  13
   1   6   4 315.541 44.8660  13
   1   6   4 318.446 49.9029   1
  -2  -6  -4 7.50171 1.50064  13
   2   6   4 4.55000 2.06032   1
   2   6   4 6.16227 2.32471  13
  -3  -6  -4 1939.82 215.835   6
  -3  -6  -4 1783.13 130.876  11
  -3  -6  -4 1637.01 211.778  13
   3   6   4 1232.82 211.929  13
   3   6   4 1585.04 138.737   8
   3   6   4 1617.94 119.455  14
  -4  -6  -4 172.921 16.5699  10
  -4  -6  -4 215.652 26.0651   6
  -4  -6  -4 198.881 15.6112  11
   4   6   4 203.534 16.5947   5
   4   6   4 199.792 15.0187  14
   4   6   4 163.675 16.9238   8
  -5  -6  -4 50.3698 4.34406  11
  -5  -6  -4 51.9538 7.48660   6
   5   6   4 51.1873 5.20999   5
   5   6   4 48.7921 5.06082  14
  -6  -6  -4 104.287 8.24982  11
   6   6   4 105.854 9.26883   5
   6   6   4 86.6940 8.47500  14
  -7  -6  -4 63.1817 5.30655  11
   5  -7  -4 42.2758 4.51094  16
   5  -7  -4 50.2908 4.58369  12
  -5   7   4 53.6014 4.25520  11
   4  -7  -4 318.076 26.7248  12
   4  -7  -4 314.241 31.5474   4
   4  -7  -4 286.559 27.1787  16
  -4   7   4 331.149 25.3644  11
   3  -7  -4 90.5661 8.66417  12
   3  -7  -4 108.174 8.69960   8
   3  -7  -4 92.9201 10.1373   4
  -3   7   4 95.8877 14.1813   6
  -3   7   4 93.9492 8.11526  11
   2  -7  -4 58.0588 6.69009   4
   2  -7  -4 67.8760 5.82991   8
  -2   7   4 58.1441 9.74921   6
  -2   7   4 62.3085 5.38399  11
   1  -7  -4 483.282 38.1994   8
   1  -7  -4 411.243 58.1215  13
  -1   7   4 513.251 36.0022  11
  -1   7   4 392.809 58.8554  13
  -1   7   4 425.329 60.0305   6
   0   7   4 37.1212 6.35019   6
   0   7   4 31.5493 5.91419  13
  -1  -7  -4 588.851 75.1777  13
  -1  -7  -4 720.400 76.7588   6
  -1  -7  -4 550.953 49.2000   8
   1   7   4 552.552 49.5506   8
   1   7   4 534.729 77.2155   6
   1   7   4 579.628 42.5683  14
   1   7   4 506.948 75.7651  13
  -2  -7  -4 174.256 19.8888   6
  -2  -7  -4 134.323 19.3320  13
   2   7   4 150.228 13.2125   8
   2   7   4 148.825 11.2983  14
   2   7   4 117.546 19.8387  13
  -3  -7  -4 85.2765 10.3774   6
  -3  -7  -4 62.4960 9.93641  13
  -3  -7  -4 72.6788 6.03827  11
   3   7   4 69.6170 7.03712   8
   3   7   4 70.8056 6.13312  14
  -4  -7  -4 497.270 41.3104  11
  -4  -7  -4 581.771 68.5103   6
   4   7   4 546.736 43.0715   5
   4   7   4 436.673 44.1141   8
   4   7   4 505.742 38.3049  14
  -5  -7  -4 17.1198 3.22669   6
  -5  -7  -4 15.3485 1.66552  11
   5   7   4 15.3779 2.47351   5
   5   7   4 11.1647 2.57456   7
   5   7   4 15.6366 2.96003  14
  -6  -7  -4 7.97662 1.12390  11
   6   7   4 4.11814 1.50848   5
   6   7   4 6.21455 2.02813  14
  -7  -7  -4 196.291 16.3051  11
   7   7   4 206.753 17.2604   5
   4  -8  -4 188.088 23.7544   4
   4  -8  -4 226.624 20.1691  12
  -4   8   4 254.885 19.1991  11
  -4   8   4 277.654 32.2402   6
   3  -8  -4 539.248 61.9445   4
   3  -8  -4 601.573 52.4070  12
  -3   8   4 680.313 83.1858   6
  -3   8   4 662.350 49.9671  11
   2  -8  -4 24.4443 2.79118   8
   2  -8  -4 21.8551 3.02657   4
  -2   8   4 25.6006 5.63151   6
  -2   8   4 26.3041 2.52130  11
   1  -8  -4 427.278 35.0928   8
   1  -8  -4 362.041 40.8744   4
  -1   8   4 435.920 55.3808   6
   0  -8  -4 352.836 30.7536   8
   0   8   4 361.369 48.6469   6
  -1  -8  -4 107.648 10.6520   8
  -1  -8  -4 135.058 16.6331   6
   1   8   4 113.418 11.0808   8
   1   8   4 121.521 17.3819   6
  -2  -8  -4 526.470 63.4686   6
   2   8   4 455.501 35.3194  14
   2   8   4 443.132 41.1022   8
  -3  -8  -4 780.870 65.4951  11
  -3  -8  -4 878.968 108.438   6
   3   8   4 772.265 69.9256   8
   3   8   4 834.604 60.2621  14
  -4  -8  -4 172.468 14.9208  11
  -4  -8  -4 197.081 25.0661   6
   4   8   4 187.137 14.3784  14
   4   8   4 177.924 16.3640   8
  -5  -8  -4 106.655 9.90615  11
  -5  -8  -4 124.259 16.7428   6
   5   8   4 128.569 9.96437  14
   5   8   4 128.800 9.95541   7
   5   8   4 118.332 10.7311   5
  -6  -8  -4 244.096 21.5300  11
   6   8   4 254.369 22.5750   5
   6   8   4 304.078 20.4859  14
  -7  -8  -4 20.3134 1.85559  11
  -3   9   4 9.30248 3.35733   6
   2  -9  -4 148.424 14.2782   8
  -2   9   4 179.513 23.1109   6
   1  -9  -4 49.1877 4.98216   8
  -1   9   4 54.1982 8.78849   6
   0  -9  -4 119.998 11.6381   8
   0   9   4 142.599 19.0962   6
  -1  -9  -4 161.416 22.2584   6
  -1  -9  -4 149.879 14.3583   8
   1   9   4 172.447 23.1902   6
   1   9   4 168.459 14.8573   8
  -2  -9  -4 43.0913 6.23572   6
   2   9   4 37.2092 4.59914   8
   2   9   4 35.8988 3.83527  14
  -3  -9  -4 161.376 21.9168   6
   3   9   4 158.178 12.5351  14
   3   9   4 159.543 14.5373   8
  -4  -9  -4 361.075 47.8082   6
   4   9   4 361.817 26.8499  14
   4   9   4 347.084 30.9030   8
  -5  -9  -4 44.4808 6.78034   6
  -5  -9  -4 39.8043 3.78917  11
   5   9   4 47.6180 4.40333  14
   5   9   4 49.8978 4.41283   7
  -6  -9  -4 18.2553 1.76696  11
  -6  -9  -4 20.0621 3.23697   6
   6   9   4 19.5555 2.43147  14
   2 -10  -4 18.8233 2.20033   8
  -2  10   4 26.3962 4.57194   6
   1 -10  -4 450.845 44.7992   8
  -1  10   4 601.243 70.6107   6
   0 -10  -4 184.672 18.6287   8
   0  10   4 246.136 29.8490   6
  -1 -10  -4 144.636 21.1303   6
  -1 -10  -4 131.249 13.5845   8
   1  10   4 179.478 22.2140   6
   1  10   4 165.907 14.0880   8
  -2 -10  -4 628.466 87.6442   6
   2  10   4 691.607 56.6929   8
  -3 -10  -4 8.05687 2.44200   6
   3  10   4 8.52510 1.99406   8
   3  10   4 7.34384 1.60121  14
  -4 -10  -4 89.8229 12.5117   6
   4  10   4 96.3331 7.21896   7
   4  10   4 83.5103 8.15444   8
   4  10   4 86.1159 7.30123  14
  -5 -10  -4 18.6602 3.29058   6
   5  10   4 17.4767 2.23651  14
   5  10   4 19.5306 2.19457   7
   1 -11  -4 0.73573 0.43193   8
   0 -11  -4 177.873 15.4304   8
  -1 -11  -4 168.744 16.0081   8
   1  11   4 200.765 16.3120   8
  -2 -11  -4 24.9409 4.30881   6
   2  11   4 30.5798 3.32075   8
  -3 -11  -4 387.193 53.9917   6
   3  11   4 424.505 34.8767   8
  -4 -11  -4 276.618 37.9482   6
   4  11   4 291.986 20.8911   7
   3   7  -5 24.8184 2.74125  12
  -3  -7   5 17.3129 3.74975   6
  -3  -7   5 21.1249 1.98332  15
   2   7  -5 268.479 22.5848   8
   2   7  -5 314.555 22.7874  12
  -2  -7   5 246.195 19.8857  15
  -2  -7   5 219.835 35.3052   6
   1   7  -5 74.7977 6.24730   8
  -1  -7   5 59.2199 9.66212   6
  -1  -7   5 64.6186 5.36427  15
   0   7  -5 110.453 8.87255   8
   0  -7   5 101.801 7.67915  15
   0  -7   5 98.4530 8.82512   8
   0  -7   5 79.2037 13.6482   6
  -1   7  -5 466.034 39.6283   8
   1  -7   5 461.050 39.6485   8
   1  -7   5 463.354 34.9702  15
  -5  -6   5 31.5287 2.69865  11
   4   6  -5 24.8456 2.97088  12
  -4  -6   5 17.2550 3.91341   6
  -4  -6   5 19.2296 1.82563  11
   3   6  -5 200.937 17.0151   8
   3   6  -5 237.092 17.5909  12
  -3  -6   5 179.023 26.8664   6
  -3  -6   5 180.377 15.8241  11
  -3  -6   5 184.049 15.0033  15
   2   6  -5 217.889 17.6362   8
  -2  -6   5 195.114 15.4420  15
  -2  -6   5 188.823 27.6446   6
   1   6  -5 713.166 57.6080   8
  -1  -6   5 690.397 50.8028  15
  -1  -6   5 616.371 89.8664   6
   0   6  -5 124.225 10.3340   8
   0  -6   5 112.372 10.3206   8
   0  -6   5 119.525 8.96311  15
   0  -6   5 94.3278 15.9543   6
  -1   6  -5 53.9242 8.58162   6
  -1   6  -5 61.2164 5.79709   8
  -1   6  -5 60.9941 4.67681   9
   1  -6   5 60.6265 5.80490   8
   1  -6   5 59.9450 4.97835  15
  -2   6  -5 375.315 52.9106   6
  -2   6  -5 409.309 27.6296   9
   2  -6   5 401.725 34.1230   8
   2  -6   5 399.903 30.0626  15
  -3   6  -5 237.874 32.4753   6
  -3   6  -5 259.260 16.9775   9
   3  -6   5 227.274 18.4000  15
   3  -6   5 244.400 20.8637   8
   6   5  -5 19.4907 2.23775   7
   6   5  -5 20.3139 2.29060   5
  -6  -5   5 21.9080 1.86866  11
   5   5  -5 108.103 8.55705   7
   5   5  -5 118.249 10.4139  12
   5   5  -5 112.573 9.61008   5
  -5  -5   5 102.835 9.00805  11
   4   5  -5 1.01326 1.06848   5
   4   5  -5 1.23170 1.00617   7
   4   5  -5 -0.4159 1.69435  12
  -4  -5   5 1.08101 1.85471   6
  -4  -5   5 3.10097 0.78228  11
   3   5  -5 361.869 32.7684   8
   3   5  -5 428.190 33.3340  12
  -3  -5   5 370.005 51.6113   6
  -3  -5   5 371.839 30.7394  11
  -3  -5   5 377.850 28.9717  15
   2   5  -5 274.029 23.0736   8
  -2  -5   5 276.897 20.2959  15
  -2  -5   5 245.573 21.3509  11
  -2  -5   5 261.800 36.2896   6
   1   5  -5 144.435 12.5659   8
  -1  -5   5 145.221 10.9616  15
  -1  -5   5 126.490 19.7070   6
   0   5  -5 573.353 47.1917   8
   0   5  -5 567.480 38.2162   9
   0  -5   5 487.510 73.5977   6
   0  -5   5 577.041 41.5932  15
   0  -5   5 538.052 47.2654   8
  -1   5  -5 326.435 29.4009   8
  -1   5  -5 341.183 23.8134   9
  -1   5  -5 330.404 45.5311   6
   1  -5   5 349.065 25.9202  15
   1  -5   5 347.372 29.5573   8
  -2   5  -5 29.1225 2.72521   9
  -2   5  -5 27.9050 5.03566   6
   2  -5   5 29.9665 3.46814   8
   2  -5   5 27.7871 2.97247  15
  -3   5  -5 254.290 35.5752   6
  -3   5  -5 266.574 18.6007   9
   3  -5   5 267.130 20.2621  15
   3  -5   5 268.053 22.9835   8
  -4   5  -5 274.512 35.2117   6
  -4   5  -5 272.305 18.3746   9
   4  -5   5 246.779 22.4993   8
   4  -5   5 256.138 19.9795  15
   6   4  -5 32.3388 3.91801  12
   6   4  -5 26.1170 2.98318   7
   6   4  -5 30.5609 3.26760   5
  -6  -4   5 31.9934 2.68502  11
   5   4  -5 3.96745 2.32698  12
   5   4  -5 4.61993 1.45619   5
   5   4  -5 1.98058 1.20859   7
  -5  -4   5 4.76399 0.92796  11
   4   4  -5 460.315 47.4753  12
   4   4  -5 537.986 40.5199   7
   4   4  -5 602.202 46.3589   5
  -4  -4   5 613.871 44.6196  11
   3   4  -5 193.615 16.8938   8
   3   4  -5 171.251 17.3544  12
   3   4  -5 185.212 16.5523   5
  -3  -4   5 213.131 15.7864  11
  -3  -4   5 202.238 27.0702   6
   2   4  -5 257.503 24.2519   8
  -2  -4   5 304.120 21.4791  15
  -2  -4   5 270.553 38.3235   6
  -2  -4   5 286.979 22.6505  11
   1   4  -5 253.543 22.9309   8
  -1  -4   5 262.278 36.1724   6
  -1  -4   5 278.605 20.2306  15
  -1  -4   5 258.475 21.3043  11
   0   4  -5 196.060 18.0333   8
   0   4  -5 212.240 14.7126   9
   0  -4   5 199.024 18.2144   8
   0  -4   5 198.937 28.4680   6
   0  -4   5 216.818 15.8999  15
  -1   4  -5 171.946 16.3401   8
  -1   4  -5 186.150 25.2434   6
  -1   4  -5 183.732 13.2532   9
   1  -4   5 191.450 16.5657   8
   1  -4   5 166.123 25.7222   6
   1  -4   5 206.129 14.5018  15
  -2   4  -5 529.664 72.1467   6
  -2   4  -5 533.994 37.5866   9
   2  -4   5 528.697 46.5635   8
   2  -4   5 568.853 41.1006  15
  -3   4  -5 331.245 23.6220   9
  -3   4  -5 347.996 45.3544   6
   3  -4   5 339.149 29.3056   8
   3  -4   5 327.810 25.8393  15
  -4   4  -5 301.772 20.9882   9
  -4   4  -5 306.432 40.2578   6
   4  -4   5 305.389 22.9528  15
   4  -4   5 282.205 25.8384   8
  -5   4  -5 240.045 33.0783   6
  -5   4  -5 254.915 17.2966   9
   5  -4   5 245.668 18.8249  15
   7   3  -5 0.46541 0.92834   7
   6   3  -5 628.694 49.0878   7
   6   3  -5 721.031 56.2521   5
   5   3  -5 68.9621 8.04553  12
   5   3  -5 92.1590 7.65542   5
   5   3  -5 83.3046 6.78451   7
  -5  -3   5 81.3357 6.86146  11
   4   3  -5 198.593 18.3003  12
   4   3  -5 206.621 17.6127   5
   4   3  -5 186.095 15.4295   7
  -4  -3   5 226.022 16.7032  11
   3   3  -5 535.722 44.0881   5
   3   3  -5 517.854 45.1470  12
   3   3  -5 477.175 44.9422   8
   3   3  -5 478.481 38.4429   7
  -3  -3   5 553.569 70.8814   6
  -3  -3   5 599.799 42.4743  11
   2   3  -5 355.512 32.6442   5
   2   3  -5 362.667 33.4396   8
  -2  -3   5 413.343 52.7941   6
  -2  -3   5 428.344 31.4806  11
   1   3  -5 115.053 9.69015   9
   1   3  -5 136.811 17.8894  13
   1   3  -5 127.084 11.7369   8
  -1  -3   5 130.519 18.7826   6
  -1  -3   5 123.656 18.0095  13
  -1  -3   5 139.950 10.8341  11
  -1  -3   5 149.972 10.4581  15
   0   3  -5 974.316 84.5311   8
   0   3  -5 982.643 68.5859   9
   0   3  -5 940.498 131.546   6
   0   3  -5 1102.57 129.462  13
   0  -3   5 941.103 129.368  13
   0  -3   5 1058.70 74.7760  15
   0  -3   5 951.183 132.143   6
  -1   3  -5 257.705 33.7699   6
  -1   3  -5 260.754 33.4114  13
  -1   3  -5 242.619 21.7982   8
  -1   3  -5 270.647 17.7615   9
   1  -3   5 221.744 33.2187  13
   1  -3   5 218.731 34.2129   6
   1  -3   5 268.854 22.0250   8
   1  -3   5 258.095 19.2977  15
  -2   3  -5 413.578 55.2035   6
  -2   3  -5 414.028 28.7997   9
   2  -3   5 398.433 31.4595  15
   2  -3   5 421.921 35.7135   8
  -3   3  -5 172.699 11.9527   9
  -3   3  -5 170.993 13.4801  11
  -3   3  -5 168.610 22.7797   6
   3  -3   5 163.270 14.8501   8
   3  -3   5 148.810 13.0967  15
  -4   3  -5 144.212 10.6347  11
  -4   3  -5 141.463 9.51756   9
  -4   3  -5 128.646 18.0357   6
   4  -3   5 123.936 11.5064  16
   4  -3   5 119.073 11.6586   8
   4  -3   5 115.771 10.4254  15
  -5   3  -5 24.6373 2.13045  11
  -5   3  -5 22.7780 2.23990   9
  -5   3  -5 19.8210 3.95805   6
   5  -3   5 21.0620 2.62779  15
   7   2  -5 5.44881 1.22121   7
   7   2  -5 4.11959 1.17046   5
   6   2  -5 68.7903 5.71577   7
   6   2  -5 60.4992 6.84294  12
   6   2  -5 75.5911 6.52913   5
   5   2  -5 322.587 24.1326   7
   5   2  -5 328.361 27.6150   5
   5   2  -5 326.276 28.3174  12
   4   2  -5 431.037 36.6139   5
   4   2  -5 450.907 31.9952   7
   4   2  -5 425.406 37.3820  12
   3   2  -5 7.00362 1.68309   5
   3   2  -5 8.68081 1.48735   7
   3   2  -5 8.67510 1.88197  12
  -3  -2   5 8.44098 1.33748  10
  -3  -2   5 10.0520 1.25774  11
   2   2  -5 1066.68 95.3940   5
   2   2  -5 1030.83 97.6799   8
  -2  -2   5 1311.56 92.3599  11
  -2  -2   5 1196.69 97.7823  10
   1   2  -5 248.364 30.8848  13
  -1  -2   5 225.254 20.7312   3
  -1  -2   5 228.227 31.0229  13
   0   2  -5 338.932 38.6094  13
   0   2  -5 249.218 36.2137   2
   0  -2   5 299.327 38.5912  13
   0  -2   5 281.615 25.8216   3
  -1   2  -5 292.927 22.7136   9
  -1   2  -5 363.447 42.9090  13
   1  -2   5 317.784 42.8064  13
  -2   2  -5 875.953 63.5929   9
  -2   2  -5 924.917 73.9312  11
  -2   2  -5 959.106 120.211  13
  -2   2  -5 918.190 122.211   6
   2  -2   5 952.855 69.5165  15
   2  -2   5 865.201 79.1773  16
   2  -2   5 956.301 78.6481   8
  -3   2  -5 15.8273 3.22942   6
  -3   2  -5 14.7797 1.66699  11
  -3   2  -5 14.7084 1.81284   9
   3  -2   5 15.6424 1.95831  16
   3  -2   5 12.0024 2.18852  15
   3  -2   5 14.3863 2.19606   8
  -4   2  -5 1138.69 147.359   6
  -4   2  -5 1167.95 89.1500  11
  -4   2  -5 1116.55 76.6320   9
   4  -2   5 1162.60 95.5312  16
   4  -2   5 1079.69 94.6465   8
   4  -2   5 1000.14 83.7576  15
  -5   2  -5 303.636 20.3546   9
  -5   2  -5 323.346 23.4107  11
  -5   2  -5 264.224 38.8257   6
   5  -2   5 312.646 25.2523  16
   5  -2   5 238.330 22.2407  15
  -6   2  -5 56.9358 4.25271  11
  -6   2  -5 48.2973 3.93691   9
   6  -2   5 54.7659 4.74703  16
   6  -2   5 36.8339 4.19517  15
   7   1  -5 21.9677 2.97672  12
   7   1  -5 24.8431 2.60294   5
   7   1  -5 22.1168 2.33450   7
   6   1  -5 435.590 37.5502  12
   6   1  -5 436.345 36.7026   5
   6   1  -5 441.038 32.0497   7
   5   1  -5 18.1514 2.79764  12
   5   1  -5 18.5921 2.65750   5
   5   1  -5 17.3460 2.12457   7
   4   1  -5 131.921 11.5605  12
   4   1  -5 125.389 11.2660   5
   4   1  -5 126.183 9.80232   7
   3   1  -5 597.206 52.2101   5
   3   1  -5 595.043 45.4493   7
   3   1  -5 609.109 53.0763  12
  -3  -1   5 704.356 53.3363  10
  -2  -1   5 215.592 31.7018   1
  -2  -1   5 212.750 18.4112  10
   1   1  -5 56.2880 6.95821  13
  -1  -1   5 50.8563 7.08402  13
  -1  -1   5 45.9492 7.77833   1
  -1  -1   5 47.2406 4.52570  10
  -1  -1   5 48.8438 4.69185   3
   0   1  -5 431.875 59.1476   2
   0   1  -5 516.161 62.9118  13
   0   1  -5 494.036 34.2612  17
   0  -1   5 495.442 42.1786   3
   0  -1   5 472.910 62.9527  13
  -1   1  -5 37.6964 4.74545   2
  -1   1  -5 31.4149 4.79966  13
   1  -1   5 27.9033 4.78703  13
  -2   1  -5 278.593 33.1955  13
  -2   1  -5 222.490 31.0975   2
  -3   1  -5 137.516 18.6639   6
  -3   1  -5 132.191 18.4477  13
  -3   1  -5 132.199 11.1674  11
  -3   1  -5 126.837 9.82323   9
   3  -1   5 145.236 10.8206  15
   3  -1   5 141.639 12.2263  16
   3  -1   5 136.719 12.1692   8
  -4   1  -5 11.2588 2.75834   6
  -4   1  -5 10.1340 1.67497   9
  -4   1  -5 9.95894 1.44191  11
   4  -1   5 10.8295 1.85156  16
   4  -1   5 13.5006 1.92402   8
   4  -1   5 10.1414 1.81729  15
  -5   1  -5 114.237 8.79346  11
  -5   1  -5 98.3084 14.6827   6
  -5   1  -5 101.121 7.79179   9
   5  -1   5 103.394 8.71557  15
   5  -1   5 112.149 9.72534  16
   5  -1   5 100.564 11.0382   4
  -6   1  -5 4.11324 1.01206  11
   6  -1   5 1.91336 1.00179   4
   6  -1   5 1.29900 1.43252  15
   6  -1   5 4.75777 1.41404  16
  -7   1  -5 20.9123 1.92804  11
   7   0  -5 3.57580 1.39121  12
   7   0  -5 5.73256 1.18325   7
   6   0  -5 296.039 25.4992   5
   6   0  -5 301.355 26.2180  12
   6   0  -5 311.546 22.3382   7
   5   0  -5 19.0049 2.54135   5
   5   0  -5 18.6597 2.22811   7
   5   0  -5 17.3792 2.57521  12
   4   0  -5 319.132 22.4224   9
   4   0  -5 305.641 26.8023   5
   4   0  -5 306.465 23.3596   7
   4   0  -5 317.837 27.3652  12
  -4   0   5 341.719 27.1923  10
   3   0  -5 955.839 87.9143  12
   3   0  -5 1057.73 86.6949   5
  -3   0   5 1119.06 88.5940  10
  -2   0   5 1313.49 188.716   1
  -2   0   5 1284.67 110.103  10
   1   0  -5 34.8224 4.15302  13
  -1   0   5 25.3150 4.24252  13
  -1   0   5 29.2731 2.70264  10
  -1   0   5 22.8030 4.64154   1
   0   0  -5 1169.74 77.9454  17
   0   0  -5 938.597 134.658   2
   0   0  -5 1141.25 143.771  13
   0   0   5 1110.38 96.4293   3
   0   0   5 1113.28 148.115  13
   0   0   5 1155.77 160.429   1
  -1   0  -5 1277.96 156.157  13
  -1   0  -5 1123.08 146.337   2
  -2   0  -5 30.8712 4.41701  13
  -2   0  -5 27.7890 4.10778   2
   2   0   5 28.3283 4.86759  13
  -3   0  -5 531.299 43.9376  11
  -3   0  -5 550.370 46.6051  10
  -3   0  -5 518.523 72.5928   6
  -3   0  -5 568.779 71.4100  13
   3   0   5 550.896 46.7446   8
   3   0   5 467.997 71.5880  13
   3   0   5 585.199 41.3431  15
   3   0   5 600.126 47.3331  16
  -4   0  -5 1456.73 192.510   6
  -4   0  -5 1439.24 123.536  10
  -4   0  -5 1384.13 116.651  11
  -4   0  -5 1372.21 100.054   9
   4   0   5 1495.25 123.630   8
   4   0   5 1381.17 144.900   4
   4   0   5 1553.25 125.096  16
   4   0   5 1564.84 109.422  15
  -5   0  -5 56.0200 8.81732   6
  -5   0  -5 57.3036 5.22729  11
   5   0   5 58.8272 6.79269   4
   5   0   5 66.4878 6.03983  16
   5   0   5 66.8421 5.41523  15
  -6   0  -5 0.96180 0.61357  11
   6   0   5 -0.8645 0.99452   4
   6   0   5 0.24918 1.15092  16
   6   0   5 -0.1826 1.20979  15
  -7   0  -5 286.417 23.4196  11
   7   0   5 293.750 29.2028   4
   7  -1  -5 28.5239 2.44495   7
   7  -1  -5 24.4601 2.98711  12
   6  -1  -5 121.120 10.8175  12
   6  -1  -5 126.696 9.12115   7
   6  -1  -5 108.491 11.0501  16
   5  -1  -5 3.86801 1.78685  16
   5  -1  -5 4.89920 1.53489  12
   5  -1  -5 4.40702 1.11888   7
   4  -1  -5 282.351 19.7931   7
   4  -1  -5 279.335 23.1898  12
   4  -1  -5 208.753 23.6672  16
   4  -1  -5 272.909 18.9580   9
   4  -1  -5 266.213 22.6270   5
  -4   1   5 300.163 22.9700  10
  -3   1   5 423.939 36.0903  10
  -2   1   5 0.75146 0.41403  10
  -2   1   5 2.17035 1.11312   1
   1  -1  -5 338.725 44.4362  13
  -1   1   5 385.047 45.0191  13
  -1   1   5 319.254 49.8664   1
  -1   1   5 322.870 29.0677  10
   0  -1  -5 453.545 58.8414  13
   0  -1  -5 450.985 32.0627  17
   0   1   5 408.261 38.4446  10
   0   1   5 449.393 65.9222   1
   0   1   5 499.022 59.3482  13
  -1  -1  -5 98.4670 12.7685  13
  -1  -1  -5 104.862 7.05572  17
  -1  -1  -5 77.1427 11.9175   2
   1   1   5 97.3186 14.4347   1
   1   1   5 99.9205 13.2075  13
  -2  -1  -5 1684.98 138.675  10
  -2  -1  -5 1702.51 115.197  17
  -2  -1  -5 1726.80 212.575  13
  -2  -1  -5 1444.30 199.570   2
   2   1   5 1615.49 212.343  13
  -3  -1  -5 229.953 29.2394   2
  -3  -1  -5 262.243 20.3544  10
  -3  -1  -5 260.433 31.2495  13
   3   1   5 193.954 31.3842  13
  -4  -1  -5 929.251 131.041   6
  -4  -1  -5 943.063 79.4003  11
  -4  -1  -5 971.209 84.0983  10
   4   1   5 1004.91 98.7741   4
   4   1   5 1104.29 85.3045  16
   4   1   5 972.065 84.2030   8
   4   1   5 1008.17 74.5130  15
  -5  -1  -5 235.885 34.4951   6
  -5  -1  -5 250.288 20.8527  11
   5   1   5 263.824 19.8262  15
   5   1   5 281.653 22.7317  16
   5   1   5 255.361 26.1921   4
  -6  -1  -5 26.0575 2.69241  11
   6   1   5 33.9104 3.42593  16
   6   1   5 30.4951 3.06354  15
   6   1   5 25.8884 3.68483   4
  -7  -1  -5 22.1949 2.17736  11
   7   1   5 20.6343 2.94940   4
   7   1   5 25.4252 2.73529  16
   7  -2  -5 42.1661 5.12756  16
   7  -2  -5 60.1966 5.10175  12
   7  -2  -5 55.7860 4.20466   7
   6  -2  -5 10.2895 1.44220   7
   6  -2  -5 6.99958 1.79784  12
   6  -2  -5 2.03056 1.59567  16
   5  -2  -5 466.133 32.4972   7
   5  -2  -5 462.511 38.0700  12
   5  -2  -5 407.109 38.9644  16
   4  -2  -5 185.342 13.6145   7
   4  -2  -5 191.398 16.0331  12
   4  -2  -5 177.408 13.0527   9
   4  -2  -5 172.720 16.4410  16
  -4   2   5 187.027 15.7029  10
   3  -2  -5 836.670 61.3327   9
   3  -2  -5 845.421 64.2645   7
  -3   2   5 986.957 75.5194  10
  -2   2   5 29.0284 2.63982  10
  -2   2   5 26.8271 4.71792   1
   1  -2  -5 60.1296 8.08159  13
  -1   2   5 64.2534 8.68592  13
  -1   2   5 56.3245 9.24070   1
  -1   2   5 59.7357 5.32314  10
   0  -2  -5 4.40656 0.65563  17
   0  -2  -5 3.53612 1.01121  13
   0   2   5 4.19531 1.30128   1
   0   2   5 2.32889 0.64508  10
   0   2   5 4.46288 1.94855  13
  -1  -2  -5 1481.82 104.194  17
  -1  -2  -5 1486.83 192.061  13
   1   2   5 1457.93 215.275   1
   1   2   5 1489.78 192.150  13
  -2  -2  -5 66.9526 4.71980  17
  -2  -2  -5 71.6958 8.53102  13
  -2  -2  -5 60.9254 5.47560  10
  -2  -2  -5 49.2278 7.80870   2
   2   2   5 62.2625 8.93772  13
  -3  -2  -5 1374.23 104.181  10
  -3  -2  -5 1387.13 159.484  13
   3   2   5 923.557 159.546  13
  -4  -2  -5 1.37771 1.03317   6
  -4  -2  -5 0.96905 0.56534  10
   4   2   5 1.51745 0.76879  15
   4   2   5 1.62085 1.00139   4
   4   2   5 1.15260 0.78688   8
   4   2   5 1.87372 0.93432  16
  -5  -2  -5 44.6256 4.02082  11
   5   2   5 46.0350 5.36598   4
   5   2   5 53.8865 4.74695  16
   5   2   5 50.8363 4.15981  15
   5   2   5 36.0842 4.99680   5
  -6  -2  -5 423.824 35.1065  11
   6   2   5 419.858 43.8267   4
   6   2   5 394.475 36.7003   5
   6   2   5 493.814 37.9267  16
   6   2   5 447.056 33.1560  15
  -7  -2  -5 88.2085 7.01344  11
   7   2   5 79.9214 8.93171   4
   7  -3  -5 1.08240 1.11985  16
   7  -3  -5 0.48146 0.82413  12
   6  -3  -5 76.2940 7.93356   4
   6  -3  -5 63.7338 5.45535   7
   6  -3  -5 68.4493 6.86166  16
   6  -3  -5 70.7775 6.62168  12
   5  -3  -5 199.996 18.1176  16
   5  -3  -5 200.175 17.6309  12
   5  -3  -5 192.565 14.9510   7
   5  -3  -5 213.910 21.0350   4
   4  -3  -5 141.497 10.6099   7
   4  -3  -5 138.067 12.4704  12
   4  -3  -5 145.118 14.9342   4
   4  -3  -5 137.477 12.8249  16
   4  -3  -5 142.035 10.1993   9
   3  -3  -5 8.25879 1.24757   7
   3  -3  -5 10.2387 1.53778  12
   3  -3  -5 6.39557 1.03173   9
   3  -3  -5 6.53199 1.85152   4
   3  -3  -5 7.26041 1.49468  16
  -3   3   5 8.55720 1.06242  10
  -2   3   5 552.582 46.9184  10
  -2   3   5 551.409 80.6001   1
   1  -3  -5 2973.09 350.277  13
  -1   3   5 2463.22 349.702  13
  -1   3   5 2630.21 240.756  10
  -1   3   5 2717.15 392.694   1
   0  -3  -5 545.339 38.6689  17
   0  -3  -5 601.260 71.0214  13
   0   3   5 517.714 79.6122   1
   0   3   5 553.794 71.5059  13
   0   3   5 511.023 46.4101  10
  -1  -3  -5 1612.65 196.186  13
  -1  -3  -5 1509.61 106.163  17
   1   3   5 1496.57 195.808  13
   1   3   5 1409.26 218.792   1
  -2  -3  -5 795.074 92.1884  13
  -2  -3  -5 752.088 60.2111  10
  -2  -3  -5 738.439 50.1473  17
   2   3   5 577.577 103.348   1
   2   3   5 681.736 92.5686  13
  -3  -3  -5 68.3399 5.79837  10
  -3  -3  -5 70.4947 8.99096  13
   3   3   5 56.5022 9.26606  13
  -4  -3  -5 171.994 14.7931  10
  -4  -3  -5 155.291 13.8740  11
  -4  -3  -5 173.173 23.1203   6
   4   3   5 172.679 13.2462  15
   4   3   5 192.314 15.1806  16
   4   3   5 161.734 14.9801   8
   4   3   5 172.383 17.5099   4
  -5  -3  -5 696.492 59.3616  11
   5   3   5 671.332 61.8983   5
   5   3   5 772.579 55.8198  15
   5   3   5 765.507 73.9422   4
   5   3   5 792.940 63.7752  16
  -6  -3  -5 159.467 12.8230  11
   6   3   5 120.990 13.8888   5
   6   3   5 165.965 16.2318   4
   6   3   5 179.842 14.0373  16
  -7  -3  -5 149.693 11.9226  11
   7   3   5 131.035 12.8182   5
   7   3   5 156.580 15.0480   4
   6  -4  -5 410.164 32.5372  12
   6  -4  -5 361.341 27.6953   7
   6  -4  -5 314.367 38.4387   4
   6  -4  -5 439.283 33.2924  16
   5  -4  -5 5.24220 1.56003  16
   5  -4  -5 3.23773 1.73961   4
   5  -4  -5 5.67530 1.50928  12
   5  -4  -5 5.67923 1.29259   7
   4  -4  -5 513.176 60.2581   4
   4  -4  -5 609.585 43.4867   7
   4  -4  -5 626.315 51.9515  16
   4  -4  -5 648.602 50.8818  12
   3  -4  -5 245.719 16.7394   9
   3  -4  -5 216.114 24.3049   4
   3  -4  -5 225.225 20.4103  12
   3  -4  -5 241.616 17.4959   7
   3  -4  -5 228.666 20.8611  16
  -3   4   5 266.733 20.3980  10
  -2   4   5 76.2870 12.6511   1
  -2   4   5 87.6479 7.23095  10
   1  -4  -5 114.000 14.5542  13
  -1   4   5 117.885 9.55868  10
  -1   4   5 111.785 16.6375   1
  -1   4   5 94.4930 15.0738  13
   0  -4  -5 747.378 54.7655  17
   0  -4  -5 895.697 100.690  13
   0   4   5 707.617 101.123  13
   0   4   5 748.278 112.861   1
  -1  -4  -5 17.1342 2.39185  13
   1   4   5 7.50091 2.79120   1
   1   4   5 19.5614 3.36418  13
  -2  -4  -5 1222.82 83.6059  17
  -2  -4  -5 1376.73 165.745  13
   2   4   5 1068.89 154.183  13
   2   4   5 1097.57 172.467   1
  -3  -4  -5 29.0806 3.97548  13
  -3  -4  -5 29.3716 2.54259  10
   3   4   5 18.8227 4.28600  13
  -4  -4  -5 15.2622 1.53317  11
  -4  -4  -5 16.5805 2.93247   6
  -4  -4  -5 15.2137 1.73482  10
   4   4   5 16.4807 2.23440   4
  -5  -4  -5 459.393 61.2389   6
  -5  -4  -5 430.958 36.9964  11
   5   4   5 460.814 46.1636   4
   5   4   5 490.734 38.9514   5
  -6  -4  -5 22.1714 2.06288  11
   6   4   5 18.5865 3.47272   5
   6   4   5 21.3174 2.86889   4
  -7  -4  -5 23.3370 2.08097  11
   7   4   5 13.9055 3.10230   5
   7   4   5 24.8252 2.84091   4
   6  -5  -5 53.2411 5.43681   4
   6  -5  -5 42.4162 4.44393  12
   6  -5  -5 50.0239 4.56024  16
  -6   5   5 41.9599 3.98621  11
   5  -5  -5 657.902 55.3086  12
   5  -5  -5 654.407 56.4413  16
   5  -5  -5 696.068 65.6503   4
   5  -5  -5 620.408 47.2688   7
  -5   5   5 638.070 52.5324  11
   4  -5  -5 10.9253 2.01391  16
   4  -5  -5 12.7389 2.15501  12
   4  -5  -5 10.6681 1.72799   7
   4  -5  -5 14.3568 2.72786   4
  -4   5   5 21.8341 1.73913  11
   3  -5  -5 86.4039 8.53715  16
   3  -5  -5 92.6217 7.19661   7
   3  -5  -5 106.035 10.1675   4
   3  -5  -5 89.9637 8.43041  12
  -3   5   5 92.5146 7.78128  11
   2  -5  -5 1366.59 97.8551   9
   2  -5  -5 1560.58 102.686   7
   2  -5  -5 1406.35 120.732   8
   2  -5  -5 1340.08 122.170  16
  -2   5   5 1498.18 114.164  11
  -2   5   5 1108.95 188.614   6
  -2   5   5 1689.19 120.820  10
   1  -5  -5 1191.07 159.047  13
  -1   5   5 1410.76 104.056  10
  -1   5   5 1236.68 178.439   1
  -1   5   5 1066.54 159.622  13
   0  -5  -5 689.749 49.3941  17
   0  -5  -5 796.705 90.6973  13
   0   5   5 627.737 91.1975  13
   0   5   5 674.581 101.761   1
  -1  -5  -5 2153.87 240.649  13
  -1  -5  -5 1930.84 130.103  17
   1   5   5 1657.14 275.099   1
   1   5   5 1635.97 239.808  13
  -2  -5  -5 155.432 18.2400  13
   2   5   5 129.024 18.7674  13
   2   5   5 125.517 20.7760   1
  -3  -5  -5 219.972 25.5846   6
  -3  -5  -5 196.342 15.2975  11
  -3  -5  -5 200.600 24.9927  13
   3   5   5 132.642 25.1436  13
   3   5   5 182.101 14.5523  14
   3   5   5 201.183 16.8059   8
  -4  -5  -5 598.369 49.0107  11
  -4  -5  -5 672.128 81.0961   6
  -4  -5  -5 568.915 51.9257  10
   4   5   5 646.696 61.0434   4
   4   5   5 554.259 45.3258  14
   4   5   5 654.196 51.0553   5
   4   5   5 578.264 52.3139   8
  -5  -5  -5 306.668 24.3721  11
  -5  -5  -5 323.573 40.4578   6
   5   5   5 231.197 22.8756  14
   5   5   5 330.400 25.8632   5
   5   5   5 315.357 30.4721   4
  -6  -5  -5 54.9557 4.70321  11
   6   5   5 58.0467 5.91983   5
   6   5   5 53.5526 6.04764   4
  -7  -5  -5 182.047 15.3540  11
   7   5   5 197.498 16.6578   5
   6  -6  -5 13.8369 2.01200   4
  -6   6   5 13.2947 1.41850  11
   5  -6  -5 10.7495 1.95633   4
   5  -6  -5 9.15510 1.67544  12
   5  -6  -5 9.00063 1.60624  16
  -5   6   5 8.00380 1.28165  11
   4  -6  -5 69.7993 5.99704   7
   4  -6  -5 75.6142 7.18785  16
   4  -6  -5 88.7279 8.49599   4
   4  -6  -5 73.8565 7.10522  12
  -4   6   5 76.9621 6.55053  11
   3  -6  -5 623.052 53.5618  16
   3  -6  -5 617.835 44.9846   7
   3  -6  -5 710.005 62.2713   4
   3  -6  -5 602.462 52.4768  12
  -3   6   5 653.949 49.9586  11
  -3   6   5 513.777 82.8142   6
   2  -6  -5 18.1162 2.34158  16
   2  -6  -5 23.5965 2.37084   8
   2  -6  -5 22.1248 2.94053   4
   2  -6  -5 23.2324 2.27052   7
  -2   6   5 17.3932 4.62943   6
  -2   6   5 21.5860 2.19843  11
   1  -6  -5 1614.23 129.294   8
   1  -6  -5 1678.79 197.757  13
  -1   6   5 1373.95 198.408  13
  -1   6   5 1317.42 202.031   6
  -1   6   5 1637.20 122.226  11
   0  -6  -5 20.2488 2.11136   8
   0  -6  -5 18.8358 2.92937  13
   0   6   5 16.5374 4.27853   6
   0   6   5 14.6314 3.75372  13
  -1  -6  -5 8.24432 1.72337  13
   1   6   5 7.65581 2.73009  13
  -2  -6  -5 473.865 53.4251   6
  -2  -6  -5 420.973 52.3770  13
   2   6   5 306.310 52.7791  13
   2   6   5 420.706 34.7434   8
   2   6   5 380.168 29.7757  14
  -3  -6  -5 257.052 36.6969  13
  -3  -6  -5 290.911 22.5612  11
  -3  -6  -5 329.021 37.5033   6
   3   6   5 286.836 24.5262   8
   3   6   5 315.423 23.7070   5
   3   6   5 272.167 21.1152  14
   3   6   5 204.777 36.9463  13
  -4  -6  -5 32.5597 4.77796   6
  -4  -6  -5 29.2936 2.66019  11
   4   6   5 29.1633 3.46508  14
   4   6   5 30.9314 3.44028   5
   4   6   5 24.9631 3.43816   8
  -5  -6  -5 296.306 23.2749  11
  -5  -6  -5 318.548 38.6798   6
   5   6   5 314.020 24.6359   5
   5   6   5 220.145 24.8734   8
   5   6   5 291.011 22.2089  14
  -6  -6  -5 218.394 16.5483  11
   6   6   5 209.251 17.7178   5
   6   6   5 180.373 16.1211  14
  -7  -6  -5 1.03374 0.49164  11
   7   6   5 1.60612 1.31504   5
   5  -7  -5 69.2579 6.95537   4
   5  -7  -5 62.0415 5.88270  12
   5  -7  -5 55.3492 5.90058  16
  -5   7   5 74.3233 5.55476  11
   4  -7  -5 65.1749 6.21437  16
   4  -7  -5 63.6326 6.16798  12
   4  -7  -5 68.9203 7.28039   4
  -4   7   5 69.6779 5.76338  11
   3  -7  -5 17.6452 2.53480   4
   3  -7  -5 17.0345 2.09017  16
   3  -7  -5 16.2569 2.19856  12
  -3   7   5 16.7987 4.32338   6
  -3   7   5 16.7884 1.95197  11
   2  -7  -5 178.769 18.0388   4
   2  -7  -5 185.470 15.3910   8
  -2   7   5 183.055 14.4636  11
  -2   7   5 154.701 24.5244   6
   1  -7  -5 181.088 14.3633   8
  -1   7   5 129.410 22.5719  13
  -1   7   5 184.791 13.4551  11
  -1   7   5 155.172 23.0070   6
   0  -7  -5 197.883 24.0182  13
   0  -7  -5 197.099 15.8094   8
   0   7   5 174.356 25.2854   6
   0   7   5 158.870 24.6990  13
   0   7   5 173.528 13.9450  14
  -1  -7  -5 353.023 38.0139   6
  -1  -7  -5 277.518 24.3671   8
  -1  -7  -5 283.975 37.1445  13
   1   7   5 279.336 24.8019   8
   1   7   5 289.673 21.2690  14
   1   7   5 230.964 38.4595   6
   1   7   5 261.478 37.9097  13
  -2  -7  -5 5.64009 1.46156  13
  -2  -7  -5 2.84970 1.29501   6
   2   7   5 2.60325 1.04083  14
   2   7   5 3.81100 1.50844   8
   2   7   5 2.48911 2.27361  13
  -3  -7  -5 378.946 31.7752  11
  -3  -7  -5 442.063 52.7620   6
   3   7   5 375.491 34.2844   8
   3   7   5 381.805 29.5237  14
  -4  -7  -5 75.2308 6.68328  11
  -4  -7  -5 88.4336 11.4556   6
   4   7   5 86.5988 7.49128   5
   4   7   5 81.2598 6.97975  14
   4   7   5 70.0079 7.67422   8
  -5  -7  -5 23.0146 2.16286  11
  -5  -7  -5 23.0654 3.98425   6
   5   7   5 21.4449 2.96264   5
   5   7   5 23.2640 3.40487  14
   5   7   5 19.4380 2.75963   8
  -6  -7  -5 192.639 15.8848  11
   6   7   5 198.821 16.9169   5
   6   7   5 195.358 15.4430  14
  -7  -7  -5 47.2888 3.89914  11
   7   7   5 44.0908 4.49971   5
   4  -8  -5 160.396 14.7983  12
   4  -8  -5 155.872 17.4941   4
  -4   8   5 193.142 23.9793   6
  -4   8   5 182.116 14.0902  11
   3  -8  -5 212.211 23.6911   4
  -3   8   5 237.458 19.0661  11
  -3   8   5 253.828 32.3079   6
   2  -8  -5 887.149 101.088   4
   2  -8  -5 1087.86 86.3282   8
  -2   8   5 1032.47 135.272   6
  -2   8   5 1053.28 81.5040  11
   1  -8  -5 133.896 14.5165   4
   1  -8  -5 151.016 12.5537   8
  -1   8   5 138.998 20.2677   6
   0  -8  -5 213.750 18.6281   8
   0   8   5 213.688 29.8008   6
  -1  -8  -5 296.500 28.5052   8
  -1  -8  -5 391.881 44.4834   6
   1   8   5 335.773 24.8562  14
   1   8   5 316.217 45.1652   6
   1   8   5 314.987 28.9647   8
  -2  -8  -5 368.729 45.6957   6
   2   8   5 331.251 25.5886  14
   2   8   5 321.743 29.7980   8
  -3  -8  -5 3.35446 1.51184   6
   3   8   5 7.15201 2.02050   8
   3   8   5 3.73777 1.33857  14
  -4  -8  -5 6.31693 1.07959  11
  -4  -8  -5 8.16955 2.39035   6
   4   8   5 9.09595 1.99484  14
   4   8   5 6.59698 1.78593   8
  -5  -8  -5 292.178 25.4354  11
  -5  -8  -5 333.553 42.3209   6
   5   8   5 289.018 27.2159   8
   5   8   5 312.005 26.6695   5
   5   8   5 352.204 24.0596  14
  -6  -8  -5 12.7210 2.66992   6
  -6  -8  -5 14.2674 1.49333  11
   6   8   5 17.1566 2.62248  14
   6   8   5 13.1578 2.11579   5
   3  -9  -5 59.2473 7.96694   4
  -3   9   5 101.935 11.6972   6
   2  -9  -5 13.1374 2.02273   4
   2  -9  -5 15.5889 1.91130   8
  -2   9   5 17.9026 4.38648   6
   1  -9  -5 109.435 9.20553   8
   1  -9  -5 85.3084 10.4640   4
  -1   9   5 111.708 15.1844   6
   0  -9  -5 174.011 15.6555   8
   0   9   5 182.985 25.2282   6
  -1  -9  -5 10.6284 2.54344   6
  -1  -9  -5 7.31910 1.52484   8
   1   9   5 10.3177 2.48067   8
   1   9   5 9.45252 3.72858   6
  -2  -9  -5 91.3640 11.9666   6
  -2  -9  -5 76.6663 7.84044   8
   2   9   5 83.4348 8.26878   8
   2   9   5 83.7668 7.03356  14
  -3  -9  -5 153.339 21.0961   6
   3   9   5 154.802 14.0963   8
   3   9   5 153.885 12.1216  14
  -4  -9  -5 127.336 16.8048   6
   4   9   5 122.706 9.77182  14
   4   9   5 112.511 11.0793   8
  -5  -9  -5 559.343 71.9363   6
  -5  -9  -5 421.436 43.3780  11
   5   9   5 548.397 40.1364  14
   5   9   5 638.067 39.7469   7
  -6  -9  -5 191.726 16.9099  11
  -6  -9  -5 203.448 28.1083   6
   6   9   5 236.632 16.0267  14
   2 -10  -5 147.156 14.5006   8
  -2  10   5 191.098 23.3939   6
   1 -10  -5 331.712 30.9210   8
  -1  10   5 390.878 48.8826   6
   0 -10  -5 23.5723 2.75719   8
   0  10   5 27.2996 5.19442   6
  -1 -10  -5 350.581 34.3055   8
   1  10   5 405.173 34.7373   8
   1  10   5 445.816 54.1941   6
  -2 -10  -5 59.0982 9.10099   6
  -2 -10  -5 61.5631 5.99750   8
   2  10   5 71.5872 6.58589   8
  -3 -10  -5 52.2159 8.45480   6
   3  10   5 63.3515 5.21681  14
   3  10   5 61.7457 6.03075   8
  -4 -10  -5 114.716 17.0127   6
   4  10   5 124.819 9.81723  14
   4  10   5 122.330 11.1641   8
   4  10   5 135.948 9.68486   7
  -5 -10  -5 36.5933 5.60650   6
   5  10   5 36.6206 3.50400  14
   5  10   5 39.5362 3.37155   7
   1 -11  -5 281.441 31.4119   8
  -1  11   5 460.799 49.8915   6
   0 -11  -5 144.984 14.6991   8
   0  11   5 196.203 23.5010   6
  -1 -11  -5 117.780 11.1092   8
   1  11   5 135.747 11.4377   8
  -2 -11  -5 2.49840 0.83055   8
  -2 -11  -5 2.47713 1.18257   6
   2  11   5 2.92427 1.24046   8
  -3 -11  -5 183.501 27.4232   6
   3  11   5 208.750 17.8985   8
   3  11   5 221.995 15.2459   7
  -4 -11  -5 7.26427 1.86953   6
   4  11   5 8.63059 1.37387   7
   1   7  -6 57.8221 5.13791  12
   1   7  -6 48.1193 4.79683   8
   3   6  -6 25.2137 2.88594  12
  -3  -6   6 18.6829 3.96666   6
   2   6  -6 352.551 28.0846  12
   2   6  -6 342.635 27.9938   8
  -2  -6   6 320.855 24.6777  15
  -2  -6   6 287.147 43.8657   6
   1   6  -6 208.150 16.4907   8
  -1  -6   6 170.512 25.7909   6
  -1  -6   6 185.309 14.4258  15
   0   6  -6 5.51426 1.46915   8
   0  -6   6 4.77851 1.07850  15
   0  -6   6 5.90911 2.08708   6
   0  -6   6 4.84920 1.30004   8
  -1   6  -6 291.691 24.3604   8
   1  -6   6 267.417 24.3609   8
   1  -6   6 287.196 21.4548  15
   2  -6   6 106.818 8.24577  15
   2  -6   6 105.445 9.39344   8
   5   5  -6 12.0838 1.50397   5
   5   5  -6 12.6395 2.12768  12
  -5  -5   6 9.94212 1.11581  11
   4   5  -6 245.763 17.3401  12
  -4  -5   6 159.208 26.2057   6
  -4  -5   6 177.985 15.5494  11
   3   5  -6 101.600 8.73613   8
   3   5  -6 112.061 9.47613  12
  -3  -5   6 87.4516 8.00103  11
  -3  -5   6 92.4988 14.1757   6
   2   5  -6 21.3828 2.67517   8
   2   5  -6 26.9330 3.46138  12
  -2  -5   6 20.1226 2.29573  15
  -2  -5   6 20.5652 4.77257   6
   1   5  -6 255.334 21.2582   8
  -1  -5   6 258.100 18.6760  15
  -1  -5   6 214.792 33.2737   6
   0   5  -6 1013.97 65.3834   9
   0   5  -6 1001.34 80.7113   8
   0  -5   6 919.729 80.7686   8
   0  -5   6 787.853 125.815   6
   0  -5   6 1008.70 71.2652  15
  -1   5  -6 86.8022 12.7756   6
  -1   5  -6 90.3049 6.85817   9
  -1   5  -6 90.4868 8.44069   8
   1  -5   6 97.5960 7.40503  15
   1  -5   6 90.0695 8.50795   8
  -2   5  -6 299.160 21.1900   9
  -2   5  -6 288.209 40.5190   6
   2  -5   6 306.629 26.2297   8
   2  -5   6 315.049 23.0823  15
  -3   5  -6 347.530 48.9977   6
  -3   5  -6 388.299 25.5970   9
   3  -5   6 368.548 27.8534  15
   3  -5   6 366.394 31.5357   8
   5   4  -6 58.7928 6.36482  12
   5   4  -6 71.2147 5.79413   5
   5   4  -6 61.0603 5.11176   7
  -5  -4   6 58.7445 5.21732  11
   4   4  -6 285.107 26.2453  12
   4   4  -6 345.846 25.3278   5
  -4  -4   6 306.709 24.1989  11
  -4  -4   6 259.220 40.5813   6
   3   4  -6 301.261 25.6809  12
   3   4  -6 276.151 24.5989   5
   3   4  -6 283.592 25.1650   8
  -3  -4   6 284.321 39.9452   6
  -3  -4   6 314.060 23.6212  11
   2   4  -6 72.8558 6.81262   8
  -2  -4   6 71.8981 11.2451   6
  -2  -4   6 69.9786 5.98785  11
   1   4  -6 162.416 10.8679   9
   1   4  -6 139.633 13.0869   8
  -1  -4   6 148.398 11.5013  15
  -1  -4   6 134.405 20.8195   6
   0   4  -6 61.4686 4.89512   9
   0   4  -6 58.3970 5.95697   8
   0  -4   6 70.5230 5.27996  15
   0  -4   6 57.3104 6.10733   8
   0  -4   6 52.1436 9.56182   6
  -1   4  -6 33.1822 5.55890   6
  -1   4  -6 33.9987 3.75630   8
  -1   4  -6 35.3884 3.11979   9
   1  -4   6 38.7076 3.42287  15
   1  -4   6 23.1962 6.01497   6
   1  -4   6 35.6792 3.94444   8
  -2   4  -6 295.388 38.9803   6
  -2   4  -6 286.234 20.3673   9
   2  -4   6 295.014 22.2305  15
   2  -4   6 277.808 25.2483   8
  -3   4  -6 188.815 25.7583   6
  -3   4  -6 186.564 13.4935   9
   3  -4   6 192.568 14.7243  15
   3  -4   6 187.792 16.7100   8
  -4   4  -6 281.957 19.1913   9
  -4   4  -6 279.996 36.7522   6
   4  -4   6 278.349 20.8976  15
   4  -4   6 255.068 23.5376   8
   6   3  -6 9.42675 2.16997  12
   6   3  -6 12.1150 1.73957   7
   6   3  -6 14.5671 1.93655   5
  -6  -3   6 13.4845 1.33385  11
   5   3  -6 384.507 28.1994   7
   5   3  -6 331.357 33.0776  12
   5   3  -6 421.545 32.2622   5
  -5  -3   6 395.014 30.9221  11
   4   3  -6 39.4391 3.89386   7
   4   3  -6 36.3562 4.92024  12
   4   3  -6 43.9593 4.45073   5
  -4  -3   6 47.9924 3.81311  11
   3   3  -6 92.3890 8.62133   8
   3   3  -6 97.7952 8.67498   5
   3   3  -6 86.7332 9.27845  12
  -3  -3   6 99.6711 14.4796   6
  -3  -3   6 103.367 8.04946  11
   2   3  -6 72.2726 7.57672   5
   2   3  -6 87.5840 6.73650   9
   2   3  -6 86.2800 7.79369   8
  -2  -3   6 83.6103 12.8865   6
  -2  -3   6 92.8775 7.11133  11
   1   3  -6 987.570 85.7619   8
   1   3  -6 1023.99 69.7464   9
  -1  -3   6 1005.11 80.7768  11
  -1  -3   6 903.224 134.138   6
  -1  -3   6 1116.29 75.8995  15
   0   3  -6 118.788 11.0330   8
   0   3  -6 130.916 9.17353   9
   0  -3   6 127.281 9.74898  15
   0  -3   6 110.633 17.6238   6
  -1   3  -6 149.515 19.8904   6
  -1   3  -6 147.013 10.5602   9
  -1   3  -6 133.283 12.8773   8
   1  -3   6 142.906 13.1093   8
   1  -3   6 125.300 20.4534   6
   1  -3   6 163.577 11.4863  15
  -2   3  -6 1187.51 157.420   6
  -2   3  -6 1185.93 81.9143   9
   2  -3   6 1192.67 89.4522  15
   2  -3   6 1183.50 101.271   8
  -3   3  -6 34.8805 6.17711   6
  -3   3  -6 42.0691 3.38814   9
   3  -3   6 39.5335 3.81691  15
   3  -3   6 32.7952 4.07221   8
  -4   3  -6 57.7286 4.59258   9
  -4   3  -6 57.8161 8.64309   6
   4  -3   6 56.7009 5.60825   8
   4  -3   6 59.0890 5.12628  15
  -5   3  -6 100.185 7.08440   9
  -5   3  -6 93.7202 13.3985   6
   5  -3   6 97.3750 7.72236  15
   6   2  -6 113.088 8.07584   7
   6   2  -6 97.8433 9.63145  12
   6   2  -6 104.232 9.12212   5
  -6  -2   6 96.7236 8.45227  11
   5   2  -6 257.138 19.4693   7
   5   2  -6 270.121 22.2504   5
   5   2  -6 253.937 22.9103  12
  -5  -2   6 262.965 21.1781  11
   4   2  -6 455.494 35.1688   7
   4   2  -6 468.483 41.2197  12
   4   2  -6 487.309 40.3317   5
  -4  -2   6 509.802 38.7512  11
   3   2  -6 344.470 28.5712   5
   3   2  -6 321.892 24.9239   7
   3   2  -6 311.008 28.9374   8
   3   2  -6 333.341 29.2274  12
  -3  -2   6 371.540 27.3738  11
  -3  -2   6 345.532 45.9932   6
   2   2  -6 272.180 22.3209   9
   2   2  -6 325.568 27.3466  12
   2   2  -6 302.697 27.1601   8
   2   2  -6 307.977 26.6557   5
  -2  -2   6 349.622 25.5952  11
  -2  -2   6 336.821 43.1322   6
   1   2  -6 159.154 20.2190  13
   1   2  -6 141.284 12.9647   5
   1   2  -6 146.105 13.2528   8
   1   2  -6 137.276 11.0060   9
  -1  -2   6 150.966 20.4552  13
  -1  -2   6 150.158 21.2661   6
  -1  -2   6 167.102 12.3584  11
   0   2  -6 425.193 31.2605   9
   0   2  -6 490.645 58.7665  13
   0   2  -6 439.688 38.3763   8
   0  -2   6 465.663 33.9487  15
   0  -2   6 425.973 60.2735   6
   0  -2   6 435.681 58.8008  13
  -1   2  -6 584.798 74.5184   6
  -1   2  -6 569.724 73.3193  13
  -1   2  -6 530.342 47.8745   8
  -1   2  -6 545.089 38.9151   9
   1  -2   6 505.115 75.0434   6
   1  -2   6 592.178 48.1434   8
   1  -2   6 587.262 42.3932  15
  -2   2  -6 147.456 11.1838   9
  -2   2  -6 157.981 21.2332   6
   2  -2   6 155.268 12.2108  15
   2  -2   6 155.032 13.9024   8
  -3   2  -6 388.946 49.0592   6
  -3   2  -6 353.238 25.5898   9
   3  -2   6 358.252 31.6825   8
   3  -2   6 357.755 27.9888  15
  -4   2  -6 296.165 19.2998   9
  -4   2  -6 270.588 36.7953   6
  -4   2  -6 284.583 22.0214  11
   4  -2   6 256.102 21.0564  15
   4  -2   6 252.261 23.7322   8
  -5   2  -6 1.44526 0.52282  11
  -5   2  -6 0.35415 1.16370   6
  -5   2  -6 2.90274 1.03961   9
   5  -2   6 0.55172 1.31617  15
   6  -2   6 240.736 18.4591  15
   6   1  -6 37.3308 3.80994   5
   6   1  -6 35.9708 3.35992   7
   6   1  -6 34.8529 4.16514  12
   5   1  -6 122.867 9.45630   7
   5   1  -6 121.236 11.1808  12
   5   1  -6 120.163 10.7909   5
   4   1  -6 746.620 53.8359   7
   4   1  -6 737.102 62.8840  12
   4   1  -6 739.345 61.7644   5
   3   1  -6 3.10841 1.29755   5
   3   1  -6 5.79071 1.55203  12
   3   1  -6 3.50837 1.16468   9
   3   1  -6 4.98556 1.13519   7
  -3  -1   6 4.66247 1.08550  11
  -3  -1   6 4.84278 1.16345  10
   2   1  -6 385.402 35.0298   8
   2   1  -6 390.279 28.7066   9
   2   1  -6 379.786 34.3893   5
   2   1  -6 419.534 35.0300  12
  -2  -1   6 457.414 33.1207  11
  -2  -1   6 424.853 55.2833   6
  -2  -1   6 414.177 35.0945  10
   1   1  -6 689.681 82.7924  13
   1   1  -6 582.833 54.0855   8
   1   1  -6 607.949 52.9043   5
   1   1  -6 614.368 44.0711   9
  -1  -1   6 646.423 84.9046   6
  -1  -1   6 642.626 83.0065  13
  -1  -1   6 664.206 51.0940  11
   0   1  -6 60.3827 8.17833  13
   0   1  -6 56.5831 4.54723   9
   0   1  -6 54.1650 5.33684   8
   0  -1   6 59.6231 5.49976   3
   0  -1   6 55.4023 8.87270   6
   0  -1   6 58.7200 8.32422  13
  -1   1  -6 776.818 90.3159  13
  -1   1  -6 704.855 91.7855   6
  -1   1  -6 653.712 58.9404   8
  -1   1  -6 675.915 47.8779   9
   1  -1   6 717.200 59.1676   8
   1  -1   6 743.894 52.1776  15
   1  -1   6 568.521 92.1740   6
  -2   1  -6 108.128 8.33664   9
  -2   1  -6 110.167 15.6782   6
  -2   1  -6 112.334 15.5567  13
   2  -1   6 115.379 10.3479   8
   2  -1   6 122.156 9.08391  15
   2  -1   6 111.433 16.1611  13
  -3   1  -6 57.7853 5.05414  11
  -3   1  -6 52.2259 4.69562   9
  -3   1  -6 61.3177 8.78450   6
   3  -1   6 67.6200 5.22750  15
   3  -1   6 56.3354 5.80922   8
  -4   1  -6 132.362 18.1470   6
  -4   1  -6 136.029 10.7680  11
  -4   1  -6 119.669 9.53444   9
   4  -1   6 128.345 10.5059  15
   4  -1   6 128.491 11.8141   8
   4  -1   6 136.500 11.8337  16
  -5   1  -6 208.002 16.0092  11
  -5   1  -6 198.920 26.7360   6
  -5   1  -6 191.762 14.0083   9
   5  -1   6 185.689 15.3778  15
  -6   1  -6 14.9368 1.44685  11
  -6   1  -6 11.5534 2.52579   6
   6  -1   6 11.8663 2.04304  15
   7   0  -6 70.3414 5.51014   7
   6   0  -6 181.927 13.2463   7
   6   0  -6 175.371 15.0651   5
   6   0  -6 171.772 15.5799  12
   5   0  -6 15.5840 2.53051  12
   5   0  -6 16.0427 2.37870   5
   5   0  -6 16.6993 2.11035   7
   4   0  -6 254.393 22.3615  12
   4   0  -6 266.406 19.1084   7
   4   0  -6 248.872 18.3508   9
   4   0  -6 260.594 21.9103   5
   3   0  -6 777.420 53.4605   9
   3   0  -6 760.753 55.9146   7
   3   0  -6 738.994 64.1941   5
   3   0  -6 756.026 65.2530  12
  -3   0   6 826.337 65.6512  10
   2   0  -6 91.4888 8.70616   8
   2   0  -6 101.053 7.37013   9
   2   0  -6 91.1290 8.88198  12
   2   0  -6 99.9063 8.81818   5
  -2   0   6 105.837 8.77019  10
  -2   0   6 106.375 8.23526  11
   1   0  -6 335.248 41.3075  13
  -1   0   6 296.171 46.3533   1
   0   0  -6 3553.08 461.788  13
  -1   0  -6 0.97263 0.97111   2
  -1   0  -6 8.26451 1.63004  13
   1   0   6 2.21066 2.07227  13
  -2   0  -6 216.767 30.5825   6
  -2   0  -6 239.918 30.1968  13
  -2   0  -6 216.925 16.0426   9
   2   0   6 225.269 30.7114  13
   2   0   6 239.185 17.4772  15
   2   0   6 228.248 19.8745   8
  -3   0  -6 580.529 77.2885   6
  -3   0  -6 581.274 46.7434  11
  -3   0  -6 561.782 75.9909  13
  -3   0  -6 545.755 40.2524   9
   3   0   6 625.381 50.3409  16
   3   0   6 589.740 43.9703  15
   3   0   6 584.573 49.7959   8
  -4   0  -6 263.440 34.3964   6
  -4   0  -6 257.391 20.6910  11
  -4   0  -6 227.501 17.9297   9
   4   0   6 264.110 22.4869  16
   4   0   6 247.391 22.2196   8
   4   0   6 268.615 19.7031  15
  -5   0  -6 123.159 10.0517  11
  -5   0  -6 113.221 16.7746   6
   5   0   6 113.589 10.9045   8
   5   0   6 133.128 11.1592  16
   5   0   6 116.101 12.6440   4
   5   0   6 129.282 9.84698  15
  -6   0  -6 301.230 22.0491  11
  -6   0  -6 250.186 36.4841   6
   6   0   6 262.525 20.9226  15
   6   0   6 273.505 27.4471   4
   7  -1  -6 79.1685 7.40002  12
   6  -1  -6 14.2733 1.76969   7
   6  -1  -6 13.1659 2.23147  12
   5  -1  -6 206.745 18.0015  12
   5  -1  -6 190.079 17.4193   5
   5  -1  -6 219.345 15.3525   7
   4  -1  -6 3.22777 1.17922   5
   4  -1  -6 1.38054 1.38635  16
   4  -1  -6 1.80371 0.85784   9
   4  -1  -6 8.27628 1.34544   7
   4  -1  -6 3.23207 1.24044  12
   3  -1  -6 219.330 14.9671   9
   3  -1  -6 202.626 18.1910  12
   3  -1  -6 218.234 15.5963   7
   3  -1  -6 159.087 18.6764  16
   3  -1  -6 214.301 17.8690   5
  -3   1   6 245.874 18.1408  10
   2  -1  -6 1035.72 76.0232   9
  -2   1   6 1172.71 93.7142  10
   1  -1  -6 463.963 58.3045  13
  -1   1   6 425.657 38.1388  10
  -1   1   6 484.863 59.0171  13
  -1   1   6 417.137 65.4210   1
   0  -1  -6 822.017 104.815  13
   0  -1  -6 778.838 57.1085  17
   0   1   6 758.863 117.386   1
   0   1   6 867.868 105.440  13
  -1  -1  -6 42.2196 6.13023   2
  -1  -1  -6 47.4844 6.55266  13
   1   1   6 50.0623 7.22523  13
  -2  -1  -6 4.93076 1.40065   2
  -2  -1  -6 6.06571 1.60858  13
   2   1   6 6.60530 2.68060  13
  -3  -1  -6 21.7763 3.69084  13
  -3  -1  -6 29.5105 2.20558  11
  -3  -1  -6 20.0535 2.04320   9
  -3  -1  -6 23.8377 3.80896   6
   3   1   6 13.7056 4.01251  13
   3   1   6 18.8115 2.81510   4
   3   1   6 24.0883 2.62248   8
   3   1   6 24.6046 2.73115  16
   3   1   6 24.3933 2.20244  15
  -4  -1  -6 317.595 25.6231  11
  -4  -1  -6 315.263 42.4340   6
   4   1   6 309.802 27.4067   8
   4   1   6 348.031 27.8309  16
   4   1   6 306.299 24.1882  15
   4   1   6 304.547 32.0266   4
  -5  -1  -6 33.8119 5.55084   6
  -5  -1  -6 34.7013 3.23298  11
   5   1   6 35.8979 3.42246  15
   5   1   6 35.7417 4.33560   4
   5   1   6 41.8178 3.96515  16
   5   1   6 30.6024 3.61634   8
  -6  -1  -6 233.778 18.3323  11
   6   1   6 212.887 22.9099   4
   6   1   6 229.454 17.4539  15
  -7  -1  -6 26.1376 2.44463  11
   7   1   6 27.8787 3.20634   4
   6  -2  -6 43.0714 3.28513   7
   6  -2  -6 40.6027 3.99727  12
   6  -2  -6 26.7102 4.07074  16
   5  -2  -6 5.56569 1.25098   7
   5  -2  -6 3.39015 1.44841  12
   5  -2  -6 0.52820 1.45040  16
   4  -2  -6 463.360 44.4285  16
   4  -2  -6 531.457 35.5088   9
   4  -2  -6 522.249 37.1035   7
   4  -2  -6 521.351 43.3761  12
   3  -2  -6 367.769 32.7851   5
   3  -2  -6 390.870 27.4004   9
   3  -2  -6 388.033 33.4662  12
   3  -2  -6 400.214 28.6682   7
   3  -2  -6 380.825 34.3593  16
  -3   2   6 429.067 33.5533  10
   2  -2  -6 106.551 8.04658   9
  -2   2   6 115.466 9.71102  10
   1  -2  -6 1272.55 159.744  13
  -1   2   6 1310.98 160.456  13
  -1   2   6 1172.19 179.012   1
  -1   2   6 1173.03 104.459  10
   0  -2  -6 201.792 25.9661  13
   0  -2  -6 186.490 14.2368  17
   0   2   6 202.344 26.5864  13
   0   2   6 199.464 29.2324   1
  -1  -2  -6 163.242 12.0733  17
  -1  -2  -6 177.384 22.0131  13
   1   2   6 158.244 22.4991  13
  -2  -2  -6 880.797 132.422   2
  -2  -2  -6 1255.44 141.188  13
   2   2   6 1124.97 141.644  13
  -3  -2  -6 166.548 21.6166   6
  -3  -2  -6 171.330 13.0026  11
  -3  -2  -6 167.176 21.3077  13
   3   2   6 159.951 12.3283  15
   3   2   6 112.673 21.4559  13
   3   2   6 172.519 16.4166   4
   3   2   6 166.616 14.1050   8
  -4  -2  -6 99.7338 14.0769   6
  -4  -2  -6 99.7941 8.40488  11
   4   2   6 96.0317 8.07115  15
   4   2   6 115.662 9.44162  16
   4   2   6 98.9429 9.21327   8
   4   2   6 100.971 10.7553   4
  -5  -2  -6 511.170 69.5867   6
  -5  -2  -6 534.962 42.1072  11
   5   2   6 608.467 45.4508  16
   5   2   6 511.335 39.6157  15
   5   2   6 498.572 44.7472   8
   5   2   6 535.981 52.5305   4
   5   2   6 460.992 43.9532   5
  -6  -2  -6 3.01936 0.71784  11
   6   2   6 1.23087 1.12341   4
  -7  -2  -6 11.0722 1.34577  11
   7   2   6 12.5261 1.90854   4
   6  -3  -6 131.056 11.9944  16
   6  -3  -6 131.181 11.5964  12
   6  -3  -6 130.216 9.80405   7
   5  -3  -6 9.60168 2.21918  16
   5  -3  -6 9.27328 1.60099   7
   5  -3  -6 10.4023 1.92636  12
   4  -3  -6 43.8024 4.77991  12
   4  -3  -6 44.9774 5.10430  16
   4  -3  -6 48.2660 3.97098   9
   4  -3  -6 57.2997 6.00814   4
   4  -3  -6 48.8328 4.09404   7
   3  -3  -6 186.629 13.7150   7
   3  -3  -6 189.622 16.4860  16
   3  -3  -6 173.902 15.9865  12
   3  -3  -6 179.417 19.1092   4
   3  -3  -6 180.574 13.1063   9
  -3   3   6 194.819 15.9098  10
   2  -3  -6 1043.63 77.5634   9
   2  -3  -6 1092.76 81.3245   7
  -2   3   6 1246.45 95.7017  10
   1  -3  -6 14.3936 2.25748  13
  -1   3   6 14.8523 3.17306  13
  -1   3   6 12.2188 2.76814   1
  -1   3   6 13.2261 1.52901  10
   0  -3  -6 777.219 91.3541  13
   0   3   6 689.257 91.9226  13
   0   3   6 641.556 102.366   1
  -1  -3  -6 642.980 78.0292  13
  -1  -3  -6 591.320 42.4959  17
   1   3   6 553.330 87.5173   1
   1   3   6 610.793 78.6268  13
  -2  -3  -6 141.548 17.2802  13
   2   3   6 116.566 17.7273  13
  -3  -3  -6 382.955 29.2271  11
  -3  -3  -6 379.273 47.5628  13
  -3  -3  -6 377.938 48.3732   6
   3   3   6 393.513 36.5388   4
   3   3   6 371.798 31.2801   8
   3   3   6 271.659 47.7399  13
  -4  -3  -6 759.240 96.9492   6
  -4  -3  -6 731.915 58.6667  11
   4   3   6 752.879 73.0597   4
   4   3   6 700.522 62.3473   8
   4   3   6 710.299 55.0639  15
  -5  -3  -6 0.72600 1.14837   6
   5   3   6 1.01516 1.03499   4
   5   3   6 1.23030 0.92470  15
   5   3   6 -0.6985 1.78808   5
  -6  -3  -6 285.026 21.7617  11
   6   3   6 296.674 27.2869   4
   6   3   6 222.675 22.9989   5
  -7  -3  -6 188.594 15.3781  11
   7   3   6 190.384 19.2574   4
   6  -4  -6 1.53263 0.71123   7
   6  -4  -6 1.98273 1.05094  16
   6  -4  -6 0.81100 1.17720   4
   6  -4  -6 0.74230 0.93194  12
   5  -4  -6 43.7948 4.26715  16
   5  -4  -6 37.2310 3.33592   7
   5  -4  -6 35.7525 3.99816  12
   5  -4  -6 37.6958 5.02461   4
   4  -4  -6 313.084 21.5011   7
   4  -4  -6 299.458 25.7344  16
   4  -4  -6 245.297 29.8276   4
   4  -4  -6 310.223 25.1599  12
   3  -4  -6 30.3363 2.51267   9
   3  -4  -6 23.5595 3.80031   4
   3  -4  -6 30.8101 2.64543   7
   3  -4  -6 27.3486 3.07902  12
   3  -4  -6 28.3147 3.18305  16
  -3   4   6 28.6115 2.58356  11
   2  -4  -6 1287.29 110.237   8
   2  -4  -6 1286.52 89.4251   9
   2  -4  -6 1301.83 111.686  16
   2  -4  -6 1383.53 93.7930   7
  -2   4   6 1087.14 172.389   6
  -2   4   6 1469.53 110.344  10
  -2   4   6 1287.94 104.221  11
   1  -4  -6 72.0106 9.08090  13
  -1   4   6 62.7324 10.5104   1
  -1   4   6 69.3294 5.99533  10
  -1   4   6 62.6798 9.83154  13
   0  -4  -6 39.5275 5.11958  13
   0   4   6 32.6514 5.92067   1
   0   4   6 33.9410 5.87018  13
  -1  -4  -6 449.688 50.4601  13
   1   4   6 344.881 50.9739  13
   1   4   6 362.768 56.6834   1
  -2  -4  -6 14.9969 2.32830  13
   2   4   6 11.3885 3.33384   1
   2   4   6 11.5482 3.05565  13
  -3  -4  -6 96.1852 12.1538   6
  -3  -4  -6 97.4297 7.23505  11
  -3  -4  -6 90.5467 11.9419  13
   3   4   6 59.7656 12.1483  13
   3   4   6 75.2216 7.25055  14
   3   4   6 97.4857 8.12187   8
   3   4   6 94.1651 9.25358   4
  -4  -4  -6 533.886 43.9492  11
  -4  -4  -6 580.617 72.7344   6
   4   4   6 498.086 46.7984   8
   4   4   6 575.548 54.8104   4
  -5  -4  -6 124.079 10.3528  11
  -5  -4  -6 129.370 17.3337   6
   5   4   6 129.897 13.1308   4
   5   4   6 138.502 11.7237   5
   5   4   6 110.644 11.3554   8
  -6  -4  -6 10.9316 1.33745  11
   6   4   6 11.4955 2.88644   5
   6   4   6 11.1434 1.97471   4
  -7  -4  -6 66.3076 4.89345  11
   7   4   6 46.9830 5.60288   5
   6  -5  -6 122.471 10.0881  16
   6  -5  -6 104.127 9.82693  12
   6  -5  -6 126.800 11.7606   4
  -6   5   6 97.6470 9.18695  11
   5  -5  -6 16.5335 1.71503   7
   5  -5  -6 12.1433 2.65811   4
   5  -5  -6 13.8803 2.11280  16
   5  -5  -6 12.5955 2.06857  12
  -5   5   6 14.9960 1.62457  11
   4  -5  -6 502.812 37.9085   7
   4  -5  -6 519.908 45.2573  16
   4  -5  -6 550.714 52.7012   4
   4  -5  -6 529.012 44.3167  12
  -4   5   6 507.651 42.0434  11
   3  -5  -6 185.833 16.8179  16
   3  -5  -6 195.703 14.1297   7
   3  -5  -6 206.304 19.7639   4
   3  -5  -6 172.207 16.4179  12
  -3   5   6 188.637 15.4818  11
   2  -5  -6 14.1394 1.74546   8
   2  -5  -6 15.5798 1.57182   9
   2  -5  -6 13.4061 2.04355  16
   2  -5  -6 16.3209 1.83751   7
  -2   5   6 12.9375 1.78272  14
  -2   5   6 15.1280 4.03033   6
  -2   5   6 17.9792 1.69182  11
   1  -5  -6 17.7903 1.72029   9
   1  -5  -6 19.5671 2.09902   8
   1  -5  -6 14.7571 2.95015  13
   1  -5  -6 20.0614 1.98480   7
  -1   5   6 22.8463 1.99949  11
  -1   5   6 26.5130 2.25661  14
  -1   5   6 19.1491 4.03827  13
  -1   5   6 18.5317 4.30256   6
   0  -5  -6 1815.40 217.130  13
   0   5   6 1415.02 209.049  13
  -1  -5  -6 572.791 68.6036  13
   1   5   6 478.945 69.2318  13
  -2  -5  -6 224.339 26.5099  13
  -2  -5  -6 232.627 27.0057   6
   2   5   6 190.441 15.2393  14
   2   5   6 152.612 26.9121  13
  -3  -5  -6 740.963 81.8809   6
  -3  -5  -6 667.572 49.4860  11
  -3  -5  -6 649.614 80.3443  13
   3   5   6 602.225 45.6677  14
   3   5   6 419.869 80.4906  13
  -4  -5  -6 18.4848 1.81320  11
  -4  -5  -6 20.0209 3.35916   6
   4   5   6 18.0859 2.67320   5
   4   5   6 18.9136 2.65185   8
   4   5   6 13.4799 2.84634  14
  -5  -5  -6 35.1769 5.08664   6
  -5  -5  -6 32.6479 2.86007  11
   5   5   6 33.0902 3.99321   5
   5   5   6 31.1719 3.78253   4
   5   5   6 25.0643 3.48097   8
  -6  -5  -6 114.353 10.1884  11
   6   5   6 136.383 11.4854   5
  -7  -5  -6 10.6188 1.16338  11
   7   5   6 5.62356 1.78914   5
   5  -6  -6 64.4623 6.43175   4
   5  -6  -6 50.1305 5.29474  12
   5  -6  -6 54.5126 5.41542  16
  -5   6   6 60.0572 4.93053  11
   4  -6  -6 314.610 27.9018   4
   4  -6  -6 266.722 23.8774  16
   4  -6  -6 264.695 20.0168   7
   4  -6  -6 242.006 23.3452  12
  -4   6   6 276.606 22.1707  11
   3  -6  -6 398.285 35.6571   4
   3  -6  -6 371.306 25.7353   7
   3  -6  -6 354.780 30.6025  16
   3  -6  -6 326.425 29.9227  12
  -3   6   6 369.191 28.4574  11
  -3   6   6 286.792 47.4323   6
   2  -6  -6 656.214 45.2452   7
   2  -6  -6 603.547 53.7638  16
   2  -6  -6 659.015 62.4617   4
   2  -6  -6 645.103 53.1117   8
  -2   6   6 516.190 83.3083   6
  -2   6   6 657.786 50.1841  11
   1  -6  -6 65.7228 4.47184   7
   1  -6  -6 52.4488 4.95742   8
   1  -6  -6 54.1831 5.05615  16
  -1   6   6 45.5824 8.49561   6
  -1   6   6 52.4143 4.63158  11
  -1   6   6 38.7729 8.10701  13
  -1   6   6 63.8782 4.66608  14
   0  -6  -6 746.310 59.2205   8
   0  -6  -6 795.130 90.5602  13
   0   6   6 593.225 92.8261   6
   0   6   6 659.493 55.8720  11
   0   6   6 761.516 51.2476  14
   0   6   6 616.104 91.2179  13
  -1  -6  -6 165.006 20.3253  13
  -1  -6  -6 145.395 13.3069   8
  -1  -6  -6 186.439 20.7830   6
   1   6   6 152.442 11.7798  14
   1   6   6 158.848 13.8388   8
   1   6   6 121.088 21.2656   6
   1   6   6 136.446 21.0425  13
  -2  -6  -6 308.666 38.3947  13
  -2  -6  -6 364.730 39.2056   6
   2   6   6 231.502 38.8992  13
   2   6   6 291.432 21.9821  14
   2   6   6 330.677 25.7256   8
   2   6   6 224.573 39.7164   6
  -3  -6  -6 373.339 28.5071  11
  -3  -6  -6 437.735 47.3725   6
  -3  -6  -6 337.366 46.3680  13
   3   6   6 361.152 26.6130  14
   3   6   6 231.335 46.5592  13
   3   6   6 382.273 30.9125   8
  -4  -6  -6 439.147 52.4091   6
  -4  -6  -6 376.508 31.5643  11
   4   6   6 382.604 29.5790  14
   4   6   6 356.950 33.9390   8
   4   6   6 403.956 33.0472   5
  -5  -6  -6 38.6771 3.37914  11
  -5  -6  -6 42.5601 5.99152   6
   5   6   6 29.0829 4.01632   8
   5   6   6 44.5411 4.36751   5
   5   6   6 35.8760 4.31063  14
  -6  -6  -6 128.107 10.6200  11
  -6  -6  -6 122.830 17.6554   6
   6   6   6 139.087 11.6643   5
  -7  -6  -6 91.8712 7.82851  11
   7   6   6 99.5260 8.63959   5
   5  -7  -6 2.61628 0.84276   4
   5  -7  -6 2.88968 0.78601  16
   5  -7  -6 2.63032 0.83905  12
  -5   7   6 3.77380 0.82734  11
   4  -7  -6 165.646 15.7202  12
   4  -7  -6 202.677 18.7585   4
   4  -7  -6 175.501 16.0607  16
  -4   7   6 187.296 14.9578  11
   3  -7  -6 154.391 14.1415   4
   3  -7  -6 123.145 12.0340  16
  -3   7   6 131.262 11.1877  11
  -3   7   6 132.094 19.2841   6
   2  -7  -6 60.5903 6.76816   4
   2  -7  -6 64.7231 5.70377   8
  -2   7   6 54.2734 9.78825   6
  -2   7   6 63.6380 5.33815  11
   1  -7  -6 1003.46 80.7702   8
  -1   7   6 853.126 126.500   6
  -1   7   6 991.338 76.2694  11
   0  -7  -6 599.956 50.6462   8
   0   7   6 655.652 43.9235  14
   0   7   6 525.011 79.5563   6
  -1  -7  -6 50.8847 6.61550   6
  -1  -7  -6 41.6419 4.22245   8
  -1  -7  -6 42.2493 6.43115  13
   1   7   6 47.9066 4.88579   8
   1   7   6 35.7680 7.38684   6
   1   7   6 45.1871 4.08058  14
  -2  -7  -6 160.889 20.2613   6
   2   7   6 145.145 11.5771  14
   2   7   6 137.644 13.5349   8
  -3  -7  -6 870.054 105.515   6
   3   7   6 767.044 68.1743   8
   3   7   6 747.364 58.6340  14
  -4  -7  -6 35.4225 3.42375  11
  -4  -7  -6 45.7441 6.16788   6
   4   7   6 38.9105 4.16453  14
   4   7   6 40.2920 4.17179   5
   4   7   6 35.6634 4.39624   8
  -5  -7  -6 422.404 34.6683  11
  -5  -7  -6 452.232 57.4787   6
   5   7   6 466.843 32.5361  14
   5   7   6 469.807 36.2962   5
   5   7   6 344.132 36.9555   8
  -6  -7  -6 59.1313 8.56114   6
  -6  -7  -6 61.9577 5.08698  11
   6   7   6 58.0555 5.62632  14
   6   7   6 61.3211 5.82309   5
  -7  -7  -6 17.6709 1.68331  11
   7   7   6 18.7424 2.27677   5
   4  -8  -6 15.7332 2.12571   4
  -4   8   6 16.3544 1.67269  11
   3  -8  -6 98.6490 10.7649   4
  -3   8   6 102.375 14.9884   6
  -3   8   6 108.901 8.61864  11
   2  -8  -6 249.447 19.9984   8
   2  -8  -6 227.687 23.4036   4
  -2   8   6 203.891 31.7803   6
  -2   8   6 239.883 18.7832  11
   1  -8  -6 78.4938 6.78814   8
   1  -8  -6 72.3461 7.82905   4
  -1   8   6 67.6087 11.4335   6
   0  -8  -6 2.55137 0.88283   8
   0   8   6 1.44070 2.06191   6
  -1  -8  -6 2347.88 264.856   6
  -1  -8  -6 1842.63 169.827   8
   1   8   6 1948.71 170.331   8
   1   8   6 1757.12 265.433   6
   1   8   6 2121.70 146.517  14
  -2  -8  -6 35.6320 3.95607   8
  -2  -8  -6 42.6005 6.12701   6
   2   8   6 42.8250 3.97050  14
   2   8   6 38.5271 4.67938   8
  -3  -8  -6 377.612 46.3995   6
   3   8   6 329.676 26.0152  14
   3   8   6 330.138 30.2684   8
  -4  -8  -6 50.0818 4.95051  11
  -4  -8  -6 66.4928 8.67109   6
   4   8   6 56.5629 5.98922   8
   4   8   6 63.4227 5.43646  14
  -5  -8  -6 14.7333 3.05426   6
  -5  -8  -6 13.0727 1.47765  11
   5   8   6 18.1738 2.71208  14
   5   8   6 12.1069 2.19748   8
   5   8   6 14.3651 2.20783   5
  -6  -8  -6 0.53363 0.81812   6
  -6  -8  -6 0.80166 0.44335  11
   6   8   6 1.99111 1.43262  14
   6   8   6 0.75782 0.96186   5
   3  -9  -6 39.8188 5.00414   4
  -3   9   6 56.9320 7.60766   6
   2  -9  -6 198.204 16.4168   8
   2  -9  -6 166.579 19.1434   4
  -2   9   6 203.766 26.4053   6
   1  -9  -6 296.938 23.8197   8
   1  -9  -6 252.992 27.7220   4
  -1   9   6 276.288 37.7754   6
   0  -9  -6 101.938 9.26634   8
   0   9   6 103.944 15.2831   6
  -1  -9  -6 1.07005 0.75211   8
  -1  -9  -6 0.86731 1.15955   6
   1   9   6 0.85966 2.05696   6
   1   9   6 0.22534 1.37018   8
   1   9   6 1.59475 1.09519  14
  -2  -9  -6 149.366 14.8851   8
  -2  -9  -6 182.349 23.1597   6
   2   9   6 176.403 13.2363  14
   2   9   6 171.357 15.4685   8
  -3  -9  -6 179.830 24.6801   6
   3   9   6 183.036 16.3892   8
   3   9   6 182.404 14.1098  14
  -4  -9  -6 137.947 18.1303   6
   4   9   6 133.025 10.4923  14
   4   9   6 123.311 11.9372   8
  -5  -9  -6 273.956 35.0722   6
   5   9   6 223.708 22.4825   8
   5   9   6 287.395 19.8515  14
   6   9   6 0.62080 0.94888  14
   2 -10  -6 31.2289 3.21793   8
  -2  10   6 40.6255 6.05017   6
   1 -10  -6 15.6691 1.97647   8
  -1  10   6 19.1430 4.30663   6
   0 -10  -6 278.886 25.2797   8
   0  10   6 309.023 40.0949   6
  -1 -10  -6 387.434 37.0921   8
   1  10   6 457.171 58.4639   6
   1  10   6 456.814 37.5686   8
  -2 -10  -6 61.6822 9.18859   6
  -2 -10  -6 59.3657 5.98925   8
   2  10   6 69.7674 6.60875   8
   2  10   6 68.1992 5.51495  14
  -3 -10  -6 166.079 23.4147   6
   3  10   6 175.609 15.4796   8
   3  10   6 177.176 13.3398  14
  -4 -10  -6 21.5318 3.78765   6
   4  10   6 20.4170 2.76834   8
   4  10   6 26.5193 2.53950   7
   4  10   6 23.0186 2.62121  14
  -5 -10  -6 25.4858 3.98854   6
   5  10   6 25.3817 2.58793  14
   0 -11  -6 24.0518 2.59598   8
   0  11   6 28.5530 4.59524   6
  -1 -11  -6 284.940 26.4755   8
   1  11   6 333.490 26.7946   8
   2  11   6 32.5242 3.62347   8
  -3 -11  -6 0.47968 0.84838   6
   3  11   6 1.04803 1.12238   8
   1   6  -7 44.3231 4.37216  12
   1   6  -7 44.9818 4.15878   8
   3   5  -7 1.49882 1.27722  12
  -3  -5   7 0.43916 1.46383   6
   2   5  -7 243.432 18.7250  12
   2   5  -7 222.118 18.4529   8
  -2  -5   7 174.693 29.0275   6
   1   5  -7 906.892 65.7436  12
   1   5  -7 806.390 66.0526   8
  -1  -5   7 648.299 103.138   6
  -1  -5   7 741.377 58.2994  15
   0   5  -7 23.7608 2.62636   8
   0   5  -7 21.6874 2.09474   9
   0  -5   7 16.1563 4.06697   6
   0  -5   7 24.0278 2.23239  15
  -1   5  -7 464.986 32.9045   9
   1  -5   7 484.475 35.8585  15
  -2   5  -7 158.590 10.6355   9
   2  -5   7 145.061 11.4819  15
   2  -5   7 144.825 13.0780   8
  -5  -4   7 78.1530 6.41389  11
   4   4  -7 54.1898 4.83412   5
   4   4  -7 64.9405 5.64791  12
  -4  -4   7 39.7994 7.88369   6
  -4  -4   7 52.6965 4.39312  11
   3   4  -7 166.656 13.7659  12
  -3  -4   7 141.326 12.2668  11
  -3  -4   7 146.709 21.2824   6
   2   4  -7 28.4555 3.68997  12
   2   4  -7 26.3451 3.01325   8
  -2  -4   7 25.4550 5.52183   6
   1   4  -7 44.6079 4.48895   8
   1   4  -7 48.9597 3.79448   9
  -1  -4   7 35.8701 7.39466   6
   0   4  -7 344.941 28.5517   8
   0   4  -7 362.632 23.2255   9
   0  -4   7 359.791 25.1575  15
   0  -4   7 249.488 44.4973   6
  -1   4  -7 17.1575 2.41280   8
  -1   4  -7 16.5565 1.98974   9
   1  -4   7 15.3514 2.15089  15
   1  -4   7 18.7604 2.54335   8
  -2   4  -7 42.1057 3.56349   9
  -2   4  -7 38.1964 6.39269   6
   2  -4   7 43.0712 4.43611   8
   2  -4   7 48.4820 3.86463  15
  -3   4  -7 174.557 13.4405   9
  -3   4  -7 193.052 25.7175   6
   3  -4   7 192.195 16.6139   8
   3  -4   7 201.694 14.6514  15
   5   3  -7 128.055 9.55589   5
   5   3  -7 110.674 8.30560   7
   5   3  -7 93.5444 9.94228  12
  -5  -3   7 102.642 8.90499  11
   4   3  -7 55.4538 6.28808  12
   4   3  -7 65.5813 5.78518   5
  -4  -3   7 62.4152 5.21269  11
   3   3  -7 4.27782 1.84425  12
   3   3  -7 3.14306 1.31158   5
  -3  -3   7 3.99164 2.68446   6
  -3  -3   7 3.91739 0.94188  11
   2   3  -7 1332.63 115.058  12
   2   3  -7 1363.39 115.764   8
   2   3  -7 1590.81 94.2040   9
  -2  -3   7 1214.84 181.070   6
  -2  -3   7 1314.95 109.213  11
   1   3  -7 7.63523 1.53665   9
   1   3  -7 6.81391 1.59531   8
  -1  -3   7 6.40937 3.04371   6
   0   3  -7 41.3671 3.71303   9
   0   3  -7 46.2101 4.42735   8
   0  -3   7 48.3041 3.82532  15
   0  -3   7 26.8064 7.00633   6
  -1   3  -7 657.198 57.3129   8
  -1   3  -7 705.744 89.1096   6
  -1   3  -7 725.684 46.5648   9
   1  -3   7 666.481 57.5132   8
   1  -3   7 531.937 89.4660   6
   1  -3   7 729.261 50.6886  15
  -2   3  -7 251.870 17.6702   9
  -2   3  -7 243.681 33.6208   6
   2  -3   7 254.303 19.2242  15
   2  -3   7 244.006 21.8900   8
  -3   3  -7 36.3282 3.17193   9
  -3   3  -7 36.0069 5.76628   6
   3  -3   7 31.3555 3.81414   8
   3  -3   7 38.9626 3.50088  15
  -4   3  -7 380.609 52.3671   6
  -4   3  -7 405.896 27.3091   9
   4  -3   7 382.525 33.6148   8
   4  -3   7 401.021 29.7783  15
   6   2  -7 0.14967 0.88468   5
   6   2  -7 -1.4335 1.29514  12
  -6  -2   7 0.87934 0.38844  11
   5   2  -7 6.54312 1.29754   7
   5   2  -7 3.80549 1.33498   5
   5   2  -7 5.11154 1.80877  12
  -5  -2   7 5.59588 1.00034  11
   4   2  -7 1.37180 1.03949   7
   4   2  -7 0.16997 1.41645  12
   4   2  -7 -0.0200 1.22975   5
  -4  -2   7 1.25608 0.59953  11
   3   2  -7 46.8030 5.36420  12
   3   2  -7 53.9060 5.08129   5
   3   2  -7 47.2443 4.48724   9
  -3  -2   7 53.5867 4.47181  11
  -3  -2   7 50.7726 8.64656   6
   2   2  -7 7.62479 1.87407   5
   2   2  -7 2.67464 1.18782   9
   2   2  -7 6.08201 1.35085   8
   2   2  -7 4.97907 1.94839  12
  -2  -2   7 5.57659 1.08385  11
  -2  -2   7 2.86730 2.38220   6
   1   2  -7 309.193 22.8470   9
   1   2  -7 341.832 27.8775   8
  -1  -2   7 331.569 26.0455  11
  -1  -2   7 305.003 44.0253   6
   0   2  -7 135.586 10.0552   9
   0   2  -7 144.032 12.1692   8
   0  -2   7 125.797 19.4420   6
  -1   2  -7 35.2904 3.94298   8
  -1   2  -7 37.8295 5.96972   6
  -1   2  -7 38.1300 3.44351   9
   1  -2   7 39.6660 3.58394  15
   1  -2   7 38.4032 4.18137   8
   1  -2   7 30.8922 6.64237   6
  -2   2  -7 155.126 12.1975   9
  -2   2  -7 175.190 23.1884   6
   2  -2   7 172.962 13.2870  15
   2  -2   7 169.819 15.1853   8
  -3   2  -7 232.632 31.5601   6
  -3   2  -7 225.590 16.5498   9
   3  -2   7 231.645 18.0556  15
   3  -2   7 239.644 20.5539   8
  -4   2  -7 37.9808 6.02749   6
  -4   2  -7 36.9596 3.25921   9
   4  -2   7 37.5702 3.96874   8
   4  -2   7 37.4905 3.62090  15
  -5   2  -7 92.3999 7.27925   9
  -5   2  -7 104.645 13.9320   6
   5  -2   7 105.385 8.00716  15
   6   1  -7 144.847 11.8542   5
   6   1  -7 145.759 10.4051   7
   6   1  -7 137.572 12.3334  12
  -6  -1   7 124.159 11.2180  11
   5   1  -7 65.2886 5.84571   5
   5   1  -7 58.7376 6.14507  12
   5   1  -7 59.9618 5.12524   7
  -5  -1   7 61.4666 5.25058  11
   4   1  -7 -0.2849 0.96595   7
   4   1  -7 3.03575 1.48534   5
   4   1  -7 -0.7221 1.05849   9
   4   1  -7 0.48487 1.33079  12
  -4  -1   7 0.15598 0.51874  11
   3   1  -7 775.813 61.7094   5
   3   1  -7 752.879 62.7951  12
   3   1  -7 651.995 51.3851   9
  -3  -1   7 740.558 98.9316   6
  -3  -1   7 777.445 59.5001  11
   2   1  -7 3.48555 1.42021  12
   2   1  -7 2.33326 0.86025   8
   2   1  -7 3.60812 1.24179   9
   2   1  -7 1.72073 1.31552   5
  -2  -1   7 3.41006 0.76379  11
  -2  -1   7 1.34386 2.11006   6
   1   1  -7 1.89814 0.97100   9
   1   1  -7 3.26041 0.95585   8
   1   1  -7 6.94225 1.75559  12
   1   1  -7 0.52254 1.06808   5
  -1  -1   7 1.98758 2.02312   6
  -1  -1   7 1.51115 0.61392  11
   0   1  -7 403.705 33.7095   8
   0   1  -7 390.721 27.5277   9
   0  -1   7 381.603 53.1030   6
  -1   1  -7 142.015 18.1987   6
  -1   1  -7 128.611 11.7414   8
  -1   1  -7 130.676 9.71976   9
   1  -1   7 111.777 18.7309   6
   1  -1   7 144.225 12.0601   8
  -2   1  -7 20.8423 2.26475   9
  -2   1  -7 20.8108 3.94589   6
   2  -1   7 20.7549 2.38937  15
   2  -1   7 22.6378 2.82443   8
  -3   1  -7 601.181 44.3530   9
  -3   1  -7 658.827 85.1297   6
   3  -1   7 654.892 48.4185  15
   3  -1   7 641.287 54.8655   8
  -4   1  -7 55.7977 4.65429   9
  -4   1  -7 63.1839 8.73032   6
   4  -1   7 55.3524 5.70136   8
   4  -1   7 55.3212 5.07859  15
  -5   1  -7 67.5587 9.49674   6
  -5   1  -7 64.1632 5.01772   9
   5  -1   7 64.4992 5.56546  15
   6   0  -7 1.16558 0.81937   5
   6   0  -7 1.30965 1.18153  12
   6   0  -7 0.41786 0.68387   7
  -6   0   7 0.36282 0.40573  11
   5   0  -7 17.4778 2.35333   5
   5   0  -7 17.3152 2.56434  12
   5   0  -7 16.5677 2.08862   7
  -5   0   7 16.7852 1.82958  11
   4   0  -7 1224.42 88.2225   9
   4   0  -7 1250.89 105.939   5
   4   0  -7 1244.42 107.736  12
   4   0  -7 1311.81 92.3301   7
  -4   0   7 1357.70 102.495  11
   3   0  -7 64.2612 5.19909   7
   3   0  -7 60.7986 6.04751   5
   3   0  -7 60.6321 5.08453   9
   3   0  -7 61.8517 6.08281  12
  -3   0   7 70.8661 5.44698  11
  -3   0   7 58.9631 9.89355   6
   2   0  -7 1247.86 108.109   8
   2   0  -7 1278.18 87.8956   9
   2   0  -7 1223.99 107.300  12
   2   0  -7 1306.59 105.710   5
  -2   0   7 1185.22 108.208  10
  -2   0   7 1285.01 169.297   6
  -2   0   7 1397.04 102.249  11
   1   0  -7 299.989 26.9252   8
   1   0  -7 319.498 22.0883   9
   1   0  -7 330.960 26.5501   5
   1   0  -7 287.627 26.7917  12
  -1   0   7 330.077 25.4048  11
  -1   0   7 307.557 42.6076   6
  -1   0   7 320.872 42.0541  13
   0   0  -7 111.210 8.03470   9
   0   0  -7 107.675 14.6681  13
   0   0  -7 107.278 9.62343   8
   0   0   7 115.848 15.5603  13
   0   0   7 99.1932 15.5341   6
  -1   0  -7 344.854 30.6303   8
  -1   0  -7 382.669 47.6735   6
  -1   0  -7 364.315 24.9882   9
  -1   0  -7 376.216 46.9010  13
   1   0   7 379.596 30.9106   8
   1   0   7 383.562 47.6861  13
   1   0   7 264.749 48.0028   6
  -2   0  -7 1363.08 176.790   6
  -2   0  -7 1269.67 91.9697   9
   2   0   7 1342.39 100.339  15
   2   0   7 1368.87 113.670   8
  -3   0  -7 57.4101 8.37776   6
  -3   0  -7 52.5718 4.52142   9
   3   0   7 58.5089 4.86941  15
   3   0   7 57.4000 5.63664   8
  -4   0  -7 265.316 20.9369   9
  -4   0  -7 295.622 40.1551   6
  -4   0  -7 312.969 24.1488  11
   4   0   7 301.004 25.9869   8
   4   0   7 316.465 22.9570  15
  -5   0  -7 40.7601 6.52586   6
  -5   0  -7 47.5875 3.77220  11
   5   0   7 39.2286 4.23330   8
   5   0   7 42.6055 3.97106  15
  -6   0  -7 71.0396 10.6891   6
  -6   0  -7 86.3961 6.37535  11
   6   0   7 72.9928 6.26017  15
   6  -1  -7 167.605 12.4667   7
   6  -1  -7 167.111 14.6624  12
   5  -1  -7 33.0159 3.46534   5
   5  -1  -7 34.0865 3.13869   7
   5  -1  -7 33.3785 3.76552  12
   4  -1  -7 62.0642 6.18535  12
   4  -1  -7 59.6688 5.92005   5
   4  -1  -7 64.8692 5.25698   7
   4  -1  -7 63.7363 5.13953   9
   4  -1  -7 60.2592 6.57556  16
  -4   1   7 70.1098 5.45391  11
   3  -1  -7 7.70655 2.18677  16
   3  -1  -7 7.78199 1.57570  12
   3  -1  -7 6.67343 1.32046   9
   3  -1  -7 7.27250 1.74170   5
   3  -1  -7 11.9283 1.55620   7
  -3   1   7 7.32575 1.13401  11
   2  -1  -7 575.629 52.2232  12
   2  -1  -7 581.461 52.5197   8
   2  -1  -7 651.455 51.5200   5
   2  -1  -7 616.905 42.8288   9
  -2   1   7 598.452 82.5867   6
  -2   1   7 681.709 49.6800  11
   1  -1  -7 372.976 27.2742   9
   1  -1  -7 356.772 33.4221   8
   1  -1  -7 414.774 32.8904   5
  -1   1   7 402.078 31.5787  11
  -1   1   7 435.800 52.1038  13
  -1   1   7 367.513 52.7143   6
   0  -1  -7 1089.15 128.058  13
   0  -1  -7 938.851 83.6435   8
   0  -1  -7 986.219 67.8932   9
   0   1   7 867.871 130.859   6
   0   1   7 1058.04 128.825  13
   0   1   7 971.485 79.0334  11
  -1  -1  -7 44.1454 4.29018   8
  -1  -1  -7 45.6395 6.53463  13
  -1  -1  -7 50.8660 6.64026   6
  -1  -1  -7 45.2991 3.63370   9
   1   1   7 34.8954 7.14204   6
   1   1   7 48.5992 4.56280   8
   1   1   7 45.4635 7.28227  13
  -2  -1  -7 725.258 52.3271   9
  -2  -1  -7 800.873 100.549   6
  -2  -1  -7 781.406 98.7983  13
   2   1   7 823.471 64.8027   8
   2   1   7 658.751 99.2355  13
  -3  -1  -7 221.640 17.1246   9
  -3  -1  -7 259.875 19.7572  11
  -3  -1  -7 248.121 32.8224   6
   3   1   7 241.852 18.6772  15
   3   1   7 245.819 21.3079   8
  -4  -1  -7 16.1561 3.26056   6
  -4  -1  -7 14.1401 1.73669  11
   4   1   7 16.0082 1.96888  15
   4   1   7 15.9048 2.22825   8
   4   1   7 14.9316 2.35544   4
  -5  -1  -7 92.6880 7.52289  11
  -5  -1  -7 88.6733 12.6641   6
   5   1   7 89.9725 9.51754   4
   5   1   7 95.8595 7.38214  15
   5   1   7 82.4291 8.20252   8
  -6  -1  -7 289.982 21.8495  11
  -6  -1  -7 260.919 36.1528   6
   6   1   7 245.927 27.1668   4
   6   1   7 283.825 20.7056  15
   6  -2  -7 92.3292 6.85951   7
   6  -2  -7 86.2336 8.08286  12
   5  -2  -7 568.225 37.8992   7
   5  -2  -7 425.477 45.2602  16
   5  -2  -7 567.432 44.3170  12
   4  -2  -7 543.697 35.6873   9
   4  -2  -7 528.982 43.5428  12
   4  -2  -7 428.788 44.5844  16
   4  -2  -7 497.191 42.6100   5
   4  -2  -7 527.853 37.2632   7
  -4   2   7 542.189 41.1859  11
   3  -2  -7 402.962 35.5599  12
   3  -2  -7 400.440 34.8948   5
   3  -2  -7 404.518 36.6099  16
   3  -2  -7 435.523 30.5066   7
   3  -2  -7 420.243 29.1653   9
  -3   2   7 441.407 33.6625  11
   2  -2  -7 430.328 33.6454   5
   2  -2  -7 395.828 27.9913   9
   2  -2  -7 369.070 34.1068  12
   2  -2  -7 385.443 34.2615   8
   2  -2  -7 400.367 29.2976   7
  -2   2   7 422.917 34.3498  10
  -2   2   7 387.742 54.1419   6
  -2   2   7 421.372 32.3784  11
   1  -2  -7 257.304 23.0768   8
   1  -2  -7 267.501 18.8617   9
  -1   2   7 281.349 36.1606  13
  -1   2   7 261.841 36.6258   6
  -1   2   7 277.566 21.7770  11
   0  -2  -7 51.6803 4.23606   9
   0  -2  -7 55.4543 5.14346   8
   0  -2  -7 59.4453 7.81445  13
   0   2   7 56.1447 8.62121  13
   0   2   7 57.7540 8.74043   6
  -1  -2  -7 1068.52 130.237   6
  -1  -2  -7 938.017 67.7152   9
  -1  -2  -7 1106.92 127.938  13
  -1  -2  -7 959.230 83.5646   8
   1   2   7 822.761 130.668   6
   1   2   7 1028.47 84.0395   8
   1   2   7 1058.29 72.4304  14
   1   2   7 890.953 128.433  13
  -2  -2  -7 859.745 58.1119   9
  -2  -2  -7 961.502 111.774   6
  -2  -2  -7 941.551 109.812  13
   2   2   7 691.981 110.155  13
   2   2   7 618.990 112.073   6
   2   2   7 986.075 72.0347   8
  -3  -2  -7 63.3706 8.43287   6
  -3  -2  -7 53.4656 8.31193  13
  -3  -2  -7 68.8248 4.96695  11
   3   2   7 60.6016 6.46435   4
   3   2   7 39.8193 8.60248  13
   3   2   7 60.0223 5.63509   8
  -4  -2  -7 176.756 13.7556  11
  -4  -2  -7 166.886 22.8982   6
   4   2   7 165.423 17.3371   4
   4   2   7 166.253 14.9055   8
   4   2   7 165.539 13.0530  15
  -5  -2  -7 157.935 12.2583  11
  -5  -2  -7 145.976 20.4086   6
   5   2   7 152.869 11.7122  15
   5   2   7 141.087 13.2124   8
   5   2   7 151.136 15.4633   4
   5   2   7 146.301 13.2415   5
  -6  -2  -7 11.7852 2.51465   6
  -6  -2  -7 11.1572 1.38490  11
   6   2   7 10.3347 2.00879   4
   6  -3  -7 67.9468 6.59120  16
   6  -3  -7 73.0600 6.36081  12
   6  -3  -7 70.5857 5.35257   7
  -6   3   7 64.7468 5.73068  11
   5  -3  -7 50.8300 4.20397   7
   5  -3  -7 51.7175 5.00082  12
   5  -3  -7 50.3661 5.36380  16
  -5   3   7 49.1153 4.34178  11
   4  -3  -7 5.01417 1.68642  16
   4  -3  -7 4.99045 1.10638   9
   4  -3  -7 4.62431 1.33257  12
   4  -3  -7 8.66580 1.44533   7
   3  -3  -7 48.2905 4.97947  16
   3  -3  -7 49.0715 4.01478   7
   3  -3  -7 43.3027 4.62004  12
   3  -3  -7 47.9746 3.86208   9
  -3   3   7 48.4765 4.10477  11
   2  -3  -7 82.5116 7.04347   8
   2  -3  -7 80.3126 6.19813   7
   2  -3  -7 72.8826 5.88229   9
  -2   3   7 75.3625 11.8322   6
  -2   3   7 83.2812 6.61047  11
   1  -3  -7 539.942 47.4323   8
   1  -3  -7 540.432 38.5481   9
   1  -3  -7 595.456 40.4570   7
  -1   3   7 517.128 74.5763   6
  -1   3   7 571.115 73.4321  13
  -1   3   7 579.586 44.8143  11
   0  -3  -7 1086.47 120.047  13
   0  -3  -7 897.550 63.5910   9
   0  -3  -7 885.932 78.4070   8
   0   3   7 913.272 67.7431  14
   0   3   7 816.294 122.775   6
   0   3   7 942.097 120.776  13
  -1  -3  -7 109.940 12.9148  13
  -1  -3  -7 95.1991 8.45595   8
  -1  -3  -7 105.872 13.1746   6
   1   3   7 95.5390 13.6318  13
   1   3   7 93.8340 7.60437  14
   1   3   7 68.4927 13.5326   6
  -2  -3  -7 371.337 42.9848   6
  -2  -3  -7 362.897 42.2564  13
   2   3   7 261.263 42.6402  13
   2   3   7 309.650 24.1271  14
   2   3   7 385.205 27.9587   8
   2   3   7 237.956 43.2798   6
  -3  -3  -7 514.733 69.4645  13
  -3  -3  -7 616.826 70.7873   6
  -3  -3  -7 622.295 42.7843  11
   3   3   7 570.401 45.6650   8
   3   3   7 334.338 69.6002  13
  -4  -3  -7 27.0062 2.83559  11
  -4  -3  -7 30.3455 4.98271   6
   4   3   7 25.9818 2.87246  15
   4   3   7 52.0910 4.23825   4
   4   3   7 26.6822 3.36317   8
  -5  -3  -7 52.7143 7.66702   6
  -5  -3  -7 53.8615 4.48591  11
   5   3   7 39.0058 5.42093   5
   5   3   7 59.1891 5.95090   4
  -6  -3  -7 81.5777 12.0371   6
  -6  -3  -7 91.2878 7.23827  11
   6   3   7 90.7092 9.22740   4
   6   3   7 83.4996 8.04230   5
  -7  -3  -7 5.51006 0.89821  11
   6  -4  -7 59.7033 4.93604  16
   6  -4  -7 51.5806 4.69851  12
   6  -4  -7 44.5741 3.92126   7
  -6   4   7 46.2432 4.23194  11
   5  -4  -7 132.031 12.0516  16
   5  -4  -7 131.684 9.94474   7
   5  -4  -7 133.188 11.6855  12
  -5   4   7 131.957 10.8635  11
   4  -4  -7 52.2511 4.28208   7
   4  -4  -7 47.5525 4.97208  12
   4  -4  -7 53.6689 5.32586  16
   4  -4  -7 54.2899 6.25433   4
  -4   4   7 48.8079 4.42105  11
   3  -4  -7 98.1089 9.04719  12
   3  -4  -7 102.305 7.77302   7
   3  -4  -7 94.9664 10.9708   4
   3  -4  -7 107.371 9.43926  16
   3  -4  -7 100.946 7.44477   9
   2  -4  -7 315.813 27.7868   8
   2  -4  -7 311.015 22.6774   9
   2  -4  -7 340.437 23.8133   7
   2  -4  -7 331.923 28.4024  16
  -2   4   7 329.739 26.2441  11
  -2   4   7 351.221 27.8580  10
  -2   4   7 291.892 44.0377   6
   1  -4  -7 2.83268 0.85830   7
   1  -4  -7 2.47381 0.71793   8
   1  -4  -7 1.61505 0.59537   9
  -1   4   7 3.01256 2.67437  13
  -1   4   7 4.24414 0.89790  11
  -1   4   7 2.14483 1.96729   6
  -1   4   7 3.80752 1.02035  14
   0  -4  -7 498.862 54.2998  13
   0  -4  -7 379.839 28.7456   9
   0  -4  -7 421.866 35.4716   8
   0   4   7 412.548 55.0555  13
   0   4   7 379.559 55.8987   6
   0   4   7 391.611 33.4458  11
   0   4   7 422.167 30.7939  14
  -1  -4  -7 459.819 40.0460   8
  -1  -4  -7 520.983 61.2750  13
  -1  -4  -7 538.009 62.4097   6
   1   4   7 434.196 61.9274  13
   1   4   7 374.074 62.8545   6
   1   4   7 446.178 34.7172  14
   1   4   7 509.883 40.3899   8
  -2  -4  -7 38.9848 5.14874   6
  -2  -4  -7 35.1938 5.01157  13
   2   4   7 28.4087 5.67156  13
   2   4   7 23.3704 5.63719   6
   2   4   7 34.4986 3.41941  14
   2   4   7 38.9845 3.67344   8
  -3  -4  -7 252.940 17.0452  11
  -3  -4  -7 256.555 28.3946   6
  -3  -4  -7 210.278 27.8159  13
   3   4   7 121.031 27.9126  13
   3   4   7 186.479 16.1544  14
   3   4   7 230.098 18.4983   8
  -4  -4  -7 312.908 25.4126  11
  -4  -4  -7 331.941 42.1937   6
   4   4   7 299.413 27.2483   8
  -5  -4  -7 2.74897 1.41112   6
  -5  -4  -7 2.43427 0.64969  11
   5   4   7 3.41041 1.37227   8
   5   4   7 2.48256 2.02525   5
   5   4   7 3.17127 1.17449   4
  -6  -4  -7 122.677 9.32187  11
  -6  -4  -7 115.905 15.5121   6
   6   4   7 98.8328 10.2959   5
  -7  -4  -7 136.584 11.1124  11
   5  -5  -7 48.1790 4.81998  12
   5  -5  -7 44.6521 4.05294   7
   5  -5  -7 49.4201 5.86316   4
   5  -5  -7 56.7199 5.04330  16
  -5   5   7 54.7060 4.41245  11
   4  -5  -7 129.951 12.2709  16
   4  -5  -7 137.813 10.2620   7
   4  -5  -7 127.851 11.9482  12
   4  -5  -7 142.838 14.4531   4
  -4   5   7 141.078 11.2246  11
   3  -5  -7 110.918 10.3612  16
   3  -5  -7 118.528 8.70321   7
   3  -5  -7 113.810 10.0902  12
   3  -5  -7 120.551 12.2511   4
  -3   5   7 118.227 9.42539  11
  -3   5   7 97.1694 16.3076   6
   2  -5  -7 23.1071 2.12015   9
   2  -5  -7 23.3994 2.46792   8
   2  -5  -7 25.3232 2.83195  16
   2  -5  -7 23.6605 2.39562   7
  -2   5   7 19.3029 5.05705   6
  -2   5   7 25.8182 2.35278  11
  -2   5   7 24.1623 2.50094  14
   1  -5  -7 598.469 41.8179   9
   1  -5  -7 640.463 51.5752   8
   1  -5  -7 709.575 43.9994   7
  -1   5   7 658.806 44.6865  14
  -1   5   7 544.718 81.0340   6
  -1   5   7 616.952 48.6978  11
  -1   5   7 467.447 79.4593  13
   0  -5  -7 62.8333 5.40303   8
   0  -5  -7 63.1960 8.16082  13
   0   5   7 62.1347 5.01280  14
   0   5   7 55.9664 4.97979  11
   0   5   7 54.5626 9.22693   6
   0   5   7 51.7553 8.97977  13
  -1  -5  -7 19.4919 2.10052   8
  -1  -5  -7 20.5242 3.13924  13
  -1  -5  -7 21.4920 3.26226   6
   1   5   7 19.0495 2.20184  14
   1   5   7 13.3701 4.08858   6
   1   5   7 18.9952 2.42449   8
   1   5   7 16.9009 4.07482  13
  -2  -5  -7 974.656 105.585   6
  -2  -5  -7 814.688 67.7388   8
  -2  -5  -7 849.474 103.607  13
   2   5   7 569.496 105.848   6
   2   5   7 819.385 58.6592  14
   2   5   7 891.318 68.0812   8
   2   5   7 652.469 104.103  13
  -3  -5  -7 173.726 21.6629   6
  -3  -5  -7 156.369 12.9407  11
   3   5   7 146.170 12.5146  14
  -4  -5  -7 22.9240 3.84907   6
  -4  -5  -7 21.7598 2.10671  11
   4   5   7 19.0584 3.06458  14
  -5  -5  -7 234.028 29.6872   6
  -5  -5  -7 212.984 17.8175  11
   5   5   7 186.106 19.2333   8
   5   5   7 247.364 19.2133   5
  -6  -5  -7 40.1317 5.97960   6
  -6  -5  -7 40.6714 3.50165  11
   6   5   7 38.8321 4.58461   5
  -7  -5  -7 19.7881 1.60990  11
   7   5   7 10.5392 2.20477   5
   5  -6  -7 13.5563 2.09450   4
   5  -6  -7 12.3538 1.64917  16
   5  -6  -7 10.2205 1.56645  12
  -5   6   7 12.5476 1.40351  11
   4  -6  -7 10.8998 1.74227  12
   4  -6  -7 12.8230 2.33761   4
   4  -6  -7 11.7808 1.86383  16
   4  -6  -7 10.5661 1.55609   7
  -4   6   7 11.8866 1.51189  11
   3  -6  -7 41.0010 4.46528   4
   3  -6  -7 31.5073 3.03202   7
   3  -6  -7 32.5559 3.61438  16
  -3   6   7 27.5927 6.16713   6
  -3   6   7 37.5701 3.23190  11
   2  -6  -7 2.23043 0.97560  16
   2  -6  -7 2.22383 1.00942   7
   2  -6  -7 2.65548 1.22892   4
   2  -6  -7 2.54505 0.79042   8
  -2   6   7 2.37740 2.32856   6
  -2   6   7 2.95268 1.07441  14
  -2   6   7 3.75121 0.77938  11
   1  -6  -7 96.5432 8.70151   8
   1  -6  -7 110.258 7.61003   7
   1  -6  -7 102.805 8.90603  16
  -1   6   7 98.5320 7.80581  14
  -1   6   7 97.0605 8.14774  11
  -1   6   7 79.0759 14.3008   6
   0  -6  -7 316.334 40.1589  13
   0  -6  -7 337.710 26.3527   8
   0   6   7 276.015 41.7107   6
   0   6   7 338.407 22.9998  14
   0   6   7 260.656 40.9864  13
  -1  -6  -7 280.974 36.6281  13
  -1  -6  -7 345.887 37.4292   6
  -1  -6  -7 291.125 24.0160   8
   1   6   7 280.596 20.9745  14
   1   6   7 308.818 24.6335   8
   1   6   7 206.191 37.8515   6
   1   6   7 234.839 37.3911  13
  -2  -6  -7 1167.63 101.957   8
  -2  -6  -7 1456.96 158.972   6
   2   6   7 1176.51 88.0766  14
   2   6   7 828.585 159.220   6
   2   6   7 1375.70 102.599   8
  -3  -6  -7 241.508 30.3581   6
   3   6   7 203.865 17.2453  14
   3   6   7 228.724 20.0510   8
  -4  -6  -7 15.5338 2.98852   6
  -4  -6  -7 12.7887 1.51812  11
   4   6   7 12.8040 2.43875   8
   4   6   7 14.8763 2.72368  14
   4   6   7 14.9815 2.55416   5
  -5  -6  -7 9.84918 2.56507   6
  -5  -6  -7 8.77299 1.20449  11
   5   6   7 8.17323 2.24313  14
   5   6   7 7.02757 1.92831   8
   5   6   7 9.54972 2.25394   5
  -6  -6  -7 147.828 20.7839   6
  -6  -6  -7 146.262 12.4907  11
   6   6   7 168.027 13.5639   5
   4  -7  -7 168.420 17.2949  16
   4  -7  -7 225.746 20.2553   4
  -4   7   7 200.870 16.1508  11
   3  -7  -7 3.16124 1.20875   4
   3  -7  -7 5.24905 1.26116  16
  -3   7   7 1.52306 2.12948   6
  -3   7   7 2.05163 0.73214  11
   2  -7  -7 470.925 44.6919   4
   2  -7  -7 461.932 37.9931   8
   2  -7  -7 428.137 38.4432  16
  -2   7   7 443.110 35.8592  11
  -2   7   7 415.865 59.9999   6
   1  -7  -7 45.7889 4.08078   8
  -1   7   7 40.5251 3.68161  11
  -1   7   7 42.4274 3.82670  14
  -1   7   7 34.5357 7.20984   6
   0  -7  -7 132.105 11.4718   8
   0   7   7 116.555 18.6397   6
   0   7   7 140.363 10.2506  14
  -1  -7  -7 210.756 25.4301   6
  -1  -7  -7 182.810 16.3435   8
   1   7   7 193.000 14.4548  14
   1   7   7 154.143 26.0776   6
   1   7   7 196.372 16.9859   8
  -2  -7  -7 1.74754 1.21462   6
  -2  -7  -7 2.23852 0.89651   8
   2   7   7 1.65709 1.16517  14
   2   7   7 1.65345 1.51810   8
  -3  -7  -7 333.337 43.3027   6
   3   7   7 319.119 28.3661   8
   3   7   7 343.380 27.3361   5
   3   7   7 296.562 24.3545  14
  -4  -7  -7 645.920 80.9340   6
   4   7   7 537.114 52.2348   8
   4   7   7 621.033 45.2752  14
   4   7   7 629.946 50.8460   5
  -5  -7  -7 95.7128 12.5885   6
  -5  -7  -7 85.3812 7.39016  11
   5   7   7 74.0020 8.21285   8
   5   7   7 99.4542 7.86183  14
   5   7   7 95.7802 8.22591   5
  -6  -7  -7 90.1779 7.64577  11
  -6  -7  -7 95.6187 12.8264   6
   6   7   7 94.0228 8.37206   5
   4  -8  -7 56.4713 6.29996   4
  -4   8   7 63.5125 5.04210  11
   3  -8  -7 128.717 14.9453   4
  -3   8   7 161.919 20.6554   6
  -3   8   7 149.347 11.9869  11
   2  -8  -7 4.57067 1.03967   8
   2  -8  -7 0.66309 0.90479   4
  -2   8   7 0.87442 0.56465  11
  -2   8   7 0.65211 2.07402   6
   1  -8  -7 78.8072 6.70970   8
  -1   8   7 65.1463 11.3101   6
   0  -8  -7 1199.29 98.6185   8
   0   8   7 1275.26 85.1883  14
   0   8   7 1007.55 154.351   6
  -1  -8  -7 90.1884 8.50805   8
  -1  -8  -7 104.679 13.2212   6
   1   8   7 99.7614 7.79573  14
   1   8   7 77.9421 13.9203   6
   1   8   7 98.7548 9.21072   8
  -2  -8  -7 875.640 81.4145   8
  -2  -8  -7 988.716 126.852   6
   2   8   7 982.144 81.9823   8
   2   8   7 983.835 70.4562  14
  -3  -8  -7 28.3130 4.64111   6
   3   8   7 29.3919 3.26107  14
   3   8   7 27.4988 3.79806   8
  -4  -8  -7 15.9522 3.11577   6
   4   8   7 13.6266 2.59831   8
   4   8   7 15.7775 2.45349  14
  -5  -8  -7 78.1091 10.7223   6
   5   8   7 66.6270 6.99835   8
   5   8   7 82.7013 6.60546  14
   5   8   7 76.8739 6.90963   5
  -6  -8  -7 77.5405 10.8186   6
   6   8   7 79.0406 7.00182   5
   6   8   7 79.2380 6.57601  14
   3  -9  -7 38.3801 4.74338   4
  -3   9   7 52.5932 7.08981   6
   2  -9  -7 229.729 26.3351   4
   2  -9  -7 268.925 22.4776   8
  -2   9   7 288.518 35.8947   6
   1  -9  -7 36.1812 3.39957   8
   1  -9  -7 31.7540 3.86306   4
  -1   9   7 32.1161 6.23239   6
   0  -9  -7 468.399 38.6168   8
   0   9   7 432.830 60.8156   6
  -1  -9  -7 126.437 11.5732   8
   1   9   7 116.499 18.6801   6
   1   9   7 143.211 10.3672  14
   1   9   7 137.081 12.1893   8
  -2  -9  -7 173.771 17.4866   8
  -2  -9  -7 207.478 27.1944   6
   2   9   7 204.560 18.0634   8
   2   9   7 220.080 15.5227  14
  -3  -9  -7 307.225 40.0180   6
   3   9   7 299.926 22.5140  14
   3   9   7 287.927 26.1547   8
  -4  -9  -7 658.443 87.8167   6
   4   9   7 652.537 48.8391  14
   4   9   7 673.777 56.6529   8
  -5  -9  -7 4.28933 1.76667   6
   5   9   7 2.77245 1.07915  14
   5   9   7 4.50674 1.07551   8
  -2  10   7 13.3162 3.14458   6
   1 -10  -7 293.259 24.6662   8
   1 -10  -7 243.369 28.7899   4
  -1  10   7 328.204 39.1393   6
   0 -10  -7 16.2270 1.84120   8
   0 -10  -7 11.2161 1.83257   4
   0  10   7 18.6869 4.04060   6
  -1 -10  -7 11.7062 1.69647   8
   1  10   7 13.3856 2.46437   8
   1  10   7 12.5344 3.61906   6
  -2 -10  -7 103.953 14.6954   6
  -2 -10  -7 99.0226 9.53655   8
   2  10   7 114.260 8.53798  14
   2  10   7 112.410 10.0286   8
  -3 -10  -7 355.327 51.6135   6
   3  10   7 400.054 28.8835  14
   3  10   7 408.768 33.5742   8
  -4 -10  -7 11.4366 2.41118   6
   4  10   7 13.0211 1.88467  14
   4  10   7 10.5399 1.94451   8
   0 -11  -7 146.006 12.6341   8
   1  11   7 86.2865 8.00723   8
  -2 -11  -7 35.7327 3.86563   8
   2  11   7 46.9669 4.26657   8
   3  11   7 141.365 12.4687   8
   3   4  -8 2.45149 1.15599  12
  -3  -4   8 1.25705 1.55561   6
   2   4  -8 82.8996 6.89429   8
   2   4  -8 83.0080 7.26636  12
  -2  -4   8 64.0418 11.1794   6
   1   4  -8 147.376 12.2152   8
   1   4  -8 149.602 12.3338  12
  -1  -4   8 117.323 19.3143   6
   0   4  -8 6.98775 1.42283   8
   0   4  -8 7.70550 1.25650   9
   0   4  -8 6.55112 1.53210  12
   0  -4   8 6.63039 2.61582   6
  -1   4  -8 260.293 18.0411   9
  -1   4  -8 262.384 22.2412   8
   1  -4   8 256.291 19.5660  15
   1  -4   8 250.046 22.3271   8
  -2   4  -8 144.942 10.4178   9
   2  -4   8 148.259 12.8682   8
   4   3  -8 32.3577 3.56884  12
  -4  -3   8 28.8768 2.62299  11
   3   3  -8 324.507 25.0599  12
  -3  -3   8 265.236 39.1030   6
  -3  -3   8 274.389 23.1726  11
   2   3  -8 196.007 17.4126  12
   2   3  -8 224.818 14.2085   9
   2   3  -8 201.002 17.1591   8
  -2  -3   8 166.970 27.2947   6
   1   3  -8 148.401 12.8085   8
   1   3  -8 158.004 10.6104   9
   1   3  -8 149.285 12.9851  12
  -1  -3   8 120.042 20.3409   6
   0   3  -8 487.881 38.4268   8
   0   3  -8 510.460 31.2815   9
   0  -3   8 341.378 59.9692   6
  -1   3  -8 432.964 28.6154   9
  -1   3  -8 434.367 35.2198   8
   1  -3   8 428.163 31.0899  15
   1  -3   8 428.045 35.3939   8
   1  -3   8 320.202 55.0229   6
  -2   3  -8 356.367 23.9844   9
  -2   3  -8 328.229 29.5003   8
  -2   3  -8 339.697 45.7773   6
   2  -3   8 332.354 29.6301   8
   2  -3   8 355.708 26.0537  15
  -3   3  -8 192.436 14.2601   9
  -3   3  -8 204.246 27.2416   6
   3  -3   8 207.154 17.6333   8
   3  -3   8 205.316 15.4946  15
   5   2  -8 129.014 11.4096  12
  -5  -2   8 125.575 10.3629  11
   4   2  -8 132.481 12.8756  12
   4   2  -8 160.170 12.4180   5
  -4  -2   8 137.527 11.7183  11
   3   2  -8 34.2508 3.10899   9
   3   2  -8 30.8949 3.83705  12
  -3  -2   8 32.7501 2.87276  11
  -3  -2   8 26.1038 5.88889   6
   2   2  -8 77.5198 7.17660  12
   2   2  -8 75.6107 6.69217   8
   2   2  -8 73.1090 5.82715   9
  -2  -2   8 70.1550 6.04414  11
  -2  -2   8 62.8934 11.2894   6
   1   2  -8 167.926 13.8451   8
   1   2  -8 153.680 13.9598  12
   1   2  -8 164.234 11.5239   9
  -1  -2   8 136.665 22.1065   6
   0   2  -8 87.6539 6.31889   9
   0   2  -8 85.3048 7.44879   8
   0  -2   8 62.6430 11.9662   6
  -1   2  -8 337.782 26.9736   8
  -1   2  -8 338.444 22.0148   9
   1  -2   8 226.454 42.0863   6
   1  -2   8 338.627 27.2256   8
  -2   2  -8 97.1143 13.1534   6
  -2   2  -8 90.6766 8.56573   8
  -2   2  -8 94.4653 7.06302   9
   2  -2   8 89.5111 8.74536   8
   2  -2   8 91.6459 7.55064  15
  -3   2  -8 13.6098 1.74070   9
  -3   2  -8 12.4964 2.77175   6
   3  -2   8 12.2945 1.82961  15
   3  -2   8 13.3558 2.10392   8
  -4   2  -8 201.732 14.2413   9
  -4   2  -8 209.506 27.2694   6
   4  -2   8 208.717 15.4996  15
   4  -2   8 188.226 17.4932   8
   5   1  -8 8.12195 1.82130  12
   5   1  -8 8.98392 1.60634   5
   5   1  -8 6.72113 1.33373   7
  -5  -1   8 8.32328 1.11532  11
   4   1  -8 3.21106 1.19760   5
   4   1  -8 2.06672 1.43783  12
  -4  -1   8 0.73044 0.57287  11
   3   1  -8 120.905 10.0923   9
   3   1  -8 132.974 12.2494  12
   3   1  -8 146.977 11.9611   5
  -3  -1   8 135.005 19.5315   6
  -3  -1   8 140.870 11.1981  11
   2   1  -8 446.174 37.0688   8
   2   1  -8 448.288 37.0855  12
   2   1  -8 400.691 30.3782   9
  -2  -1   8 412.373 58.6104   6
  -2  -1   8 455.056 34.9379  11
   1   1  -8 544.861 38.8945   9
   1   1  -8 608.028 47.6905   8
   1   1  -8 575.233 47.4141  12
  -1  -1   8 499.368 74.8865   6
   0   1  -8 554.865 44.4057   8
   0   1  -8 537.818 36.2202   9
   0  -1   8 459.682 69.6746   6
  -1   1  -8 148.560 12.1371   8
  -1   1  -8 134.068 9.97300   9
  -1   1  -8 151.729 18.6491   6
   1  -1   8 87.4281 19.0027   6
   1  -1   8 150.601 12.4276   8
  -2   1  -8 100.108 7.79727   9
  -2   1  -8 100.195 9.45028   8
  -2   1  -8 103.538 14.5384   6
   2  -1   8 109.745 9.73452   8
  -3   1  -8 216.831 29.7216   6
  -3   1  -8 222.044 15.6533   9
   3  -1   8 220.004 16.9529  15
   3  -1   8 217.571 19.3509   8
  -4   1  -8 20.9367 2.05859   9
  -4   1  -8 20.3610 3.60997   6
   4  -1   8 16.9845 2.06139  15
   4  -1   8 18.6738 2.42619   8
  -5   1  -8 123.046 16.7571   6
   5  -1   8 122.974 9.68258  15
   5   0  -8 197.688 13.9597   7
   5   0  -8 187.511 15.9331   5
   5   0  -8 181.373 16.4141  12
  -5   0   8 182.818 15.2461  11
   4   0  -8 6.41814 1.31363   7
   4   0  -8 3.35199 1.24188   5
   4   0  -8 6.50385 1.74308  12
   4   0  -8 3.01632 1.24140   9
  -4   0   8 5.04366 1.09737  11
   3   0  -8 340.854 30.4938  12
   3   0  -8 377.324 30.0211   5
   3   0  -8 357.675 25.1233   9
  -3   0   8 319.940 48.1584   6
  -3   0   8 380.059 28.7747  11
   2   0  -8 75.6844 5.89420   9
   2   0  -8 73.3965 6.70820   8
   2   0  -8 68.4379 6.93327  12
  -2   0   8 74.6460 11.5338   6
  -2   0   8 76.4956 6.29655  11
   1   0  -8 52.8116 4.23593   9
   1   0  -8 51.1989 4.75908   8
   1   0  -8 50.3268 4.90670  12
  -1   0   8 49.5424 4.34863  11
  -1   0   8 43.3858 8.23807   6
   0   0  -8 2.83813 0.97360   8
   0   0  -8 2.94896 1.15303   9
   0   0   8 0.64468 1.82444   6
  -1   0  -8 537.524 64.2747   6
  -1   0  -8 494.826 41.3036   8
  -1   0  -8 485.489 33.6218   9
   1   0   8 363.287 64.6473   6
   1   0   8 526.334 41.6215   8
  -2   0  -8 73.9720 10.5936   6
  -2   0  -8 74.9283 5.76886   9
  -2   0  -8 69.8746 6.87538   8
   2   0   8 75.8648 7.14926   8
  -3   0  -8 158.601 11.9768   9
  -3   0  -8 170.143 22.7538   6
   3   0   8 164.628 14.8547   8
   3   0   8 170.160 12.9638  15
  -4   0  -8 199.930 24.3847   6
  -4   0  -8 162.649 12.6920   9
   4   0   8 181.259 13.8525  15
   4   0   8 167.837 15.7413   8
  -5   0  -8 3.78433 1.49606   6
   5   0   8 4.18117 1.12964  15
   5  -1  -8 152.906 14.0362  12
   5  -1  -8 163.325 11.9757   7
  -5   1   8 162.767 13.0494  11
   4  -1  -8 18.3529 2.19327   7
   4  -1  -8 20.5525 2.53352   5
   4  -1  -8 18.9227 2.60669  12
   4  -1  -8 18.7670 2.28496   9
  -4   1   8 20.5536 2.04779  11
   3  -1  -8 326.030 23.6482   7
   3  -1  -8 328.631 22.7234   9
   3  -1  -8 306.432 27.6015  12
   3  -1  -8 338.068 28.5208  16
   3  -1  -8 327.640 27.1606   5
  -3   1   8 289.662 43.6875   6
  -3   1   8 334.524 26.0525  11
   2  -1  -8 350.248 24.3295   9
   2  -1  -8 342.174 29.6081   8
   2  -1  -8 332.410 29.5507  12
  -2   1   8 338.621 47.0041   6
  -2   1   8 364.811 27.9859  11
   1  -1  -8 495.020 41.9743   8
   1  -1  -8 507.925 34.2566   9
  -1   1   8 455.308 66.0807   6
  -1   1   8 507.011 39.6185  11
   0  -1  -8 286.345 19.4500   9
   0  -1  -8 294.976 23.7948   8
   0   1   8 244.467 37.5776   6
  -1  -1  -8 392.418 47.1738   6
  -1  -1  -8 349.690 30.3139   8
  -1  -1  -8 361.789 24.7057   9
   1   1   8 375.682 30.6276   8
   1   1   8 282.370 47.6179   6
  -2  -1  -8 184.986 13.9482   9
  -2  -1  -8 208.592 26.5980   6
  -2  -1  -8 184.642 17.1140   8
   2   1   8 205.544 17.3854   8
  -3  -1  -8 0.57588 1.24490   6
  -3  -1  -8 2.01191 0.90644   9
   3   1   8 3.11880 1.18403   8
  -4  -1  -8 138.701 19.3659   6
   4   1   8 140.641 11.0437  15
   4   1   8 143.166 12.6692   8
  -5  -1  -8 404.445 51.5213   6
   5   1   8 401.485 29.2889  15
   5   1   8 350.677 33.0538   8
   5  -2  -8 205.549 17.9488  16
   5  -2  -8 188.183 17.3819  12
   5  -2  -8 206.639 14.8857   7
  -5   2   8 202.124 16.3044  11
   4  -2  -8 9.04843 2.35508  16
   4  -2  -8 10.7175 1.91031  12
   4  -2  -8 9.98189 1.64974   7
   4  -2  -8 11.7051 1.65942   9
  -4   2   8 11.9077 1.42971  11
   3  -2  -8 935.390 62.6801   9
   3  -2  -8 872.862 76.4861  12
   3  -2  -8 854.558 78.4106  16
   3  -2  -8 982.909 65.6358   7
  -3   2   8 982.949 72.8121  11
  -3   2   8 810.333 120.700   6
   2  -2  -8 130.393 12.1983  12
   2  -2  -8 145.701 10.1158   9
   2  -2  -8 136.780 12.0860   8
  -2   2   8 143.511 11.4162  11
  -2   2   8 136.499 19.7592   6
   1  -2  -8 0.69489 0.60842   8
   1  -2  -8 1.29425 0.72126   9
  -1   2   8 0.43997 1.82606   6
  -1   2   8 8.34021 1.06134  11
   0  -2  -8 1027.40 80.3026   8
   0  -2  -8 1023.59 65.1694   9
   0   2   8 874.026 125.727   6
   0   2   8 996.952 69.4587  14
   0   2   8 799.466 123.814  13
  -1  -2  -8 314.089 36.5091   6
  -1  -2  -8 266.352 19.0664   9
  -1  -2  -8 274.356 23.4618   8
   1   2   8 258.909 20.5817  14
   1   2   8 305.262 23.8176   8
   1   2   8 211.181 36.9190   6
  -2  -2  -8 330.034 27.2134   8
  -2  -2  -8 372.692 42.3396   6
  -2  -2  -8 309.967 22.0462   9
   2   2   8 197.030 42.6343   6
   2   2   8 367.429 27.5287   8
  -3  -2  -8 164.222 21.9473   6
   3   2   8 157.463 14.3522   8
  -4  -2  -8 153.310 20.9787   6
   4   2   8 150.988 11.9289  15
   4   2   8 155.835 13.7008   8
  -5  -2  -8 7.57873 2.25380   6
   5   2   8 7.43344 1.49799   8
   5   2   8 5.89979 1.60375   5
   5   2   8 5.65950 1.37068  15
  -6  -2  -8 94.8097 13.0359   6
   5  -3  -8 41.3568 3.44114   7
   5  -3  -8 38.9524 3.99118  12
   5  -3  -8 39.8075 4.37719  16
  -5   3   8 40.2828 3.52322  11
   4  -3  -8 348.180 30.7434  16
   4  -3  -8 363.735 25.5767   7
   4  -3  -8 333.925 29.8141  12
   4  -3  -8 350.717 24.4670   9
  -4   3   8 349.009 28.2068  11
   3  -3  -8 125.487 9.66223   7
   3  -3  -8 131.261 9.31026   9
   3  -3  -8 122.034 11.2438  12
   3  -3  -8 136.675 11.8638  16
  -3   3   8 137.770 10.5050  11
  -3   3   8 108.465 18.0905   6
   2  -3  -8 209.901 17.3209  16
   2  -3  -8 190.647 13.6929   9
   2  -3  -8 192.231 14.3272   7
   2  -3  -8 192.654 16.6144   8
  -2   3   8 171.454 26.6879   6
  -2   3   8 196.080 15.6825  11
   1  -3  -8 87.8788 7.57433   8
   1  -3  -8 82.2754 6.27731   9
  -1   3   8 87.3963 7.09539  11
  -1   3   8 79.9075 12.6441   6
   0  -3  -8 19.6379 1.84401   9
   0  -3  -8 21.6107 2.21284   8
   0  -3  -8 20.2086 3.26904  13
   0   3   8 16.1288 4.37541   6
   0   3   8 18.1599 4.26330  13
   0   3   8 20.7250 2.43797  14
  -1  -3  -8 358.396 29.5613   8
  -1  -3  -8 327.781 23.9464   9
  -1  -3  -8 404.929 46.0133   6
   1   3   8 380.412 29.9056   8
   1   3   8 240.173 46.3317   6
   1   3   8 353.086 25.7980  14
  -2  -3  -8 610.668 49.5947   8
  -2  -3  -8 694.485 77.2352   6
   2   3   8 363.357 77.3819   6
   2   3   8 654.371 49.9002   8
  -3  -3  -8 1.26500 1.10973   6
   3   3   8 1.56841 0.89137   8
  -4  -3  -8 1320.50 169.784   6
   4   3   8 1245.38 109.087   8
  -5  -3  -8 60.8519 5.05526  11
  -5  -3  -8 62.5222 8.66722   6
   5   3   8 53.9394 5.96867   5
  -6  -3  -8 1.13677 1.04906   6
  -6  -3  -8 0.96231 0.55956  11
   6   3   8 1.99488 0.97374   5
   5  -4  -8 17.9430 2.43644  16
   5  -4  -8 19.8157 1.87949   7
   5  -4  -8 16.6523 2.11845  12
  -5   4   8 17.2691 1.80158  11
   4  -4  -8 55.3833 5.43144  16
   4  -4  -8 48.7823 5.01737  12
   4  -4  -8 51.5116 4.34236   7
  -4   4   8 52.2684 4.55859  14
  -4   4   8 54.7991 4.56626  11
   3  -4  -8 297.119 20.8537   7
   3  -4  -8 282.037 19.9080   9
   3  -4  -8 315.508 25.0546  16
  -3   4   8 240.413 38.5397   6
  -3   4   8 297.106 22.9692  11
  -3   4   8 266.102 21.2357  14
   2  -4  -8 175.577 14.8955   8
   2  -4  -8 182.268 15.4341  16
   2  -4  -8 181.343 12.8832   7
   2  -4  -8 173.027 12.2650   9
  -2   4   8 174.894 14.0473  11
  -2   4   8 158.114 24.0890   6
  -2   4   8 155.237 13.1219  14
   1  -4  -8 227.819 19.1623   8
   1  -4  -8 214.053 15.6226   9
   1  -4  -8 248.655 16.5004   7
  -1   4   8 193.363 30.5738   6
  -1   4   8 222.632 18.0448  11
  -1   4   8 224.121 16.8357  14
   0  -4  -8 795.320 64.4157   8
   0  -4  -8 731.381 52.2058   9
   0  -4  -8 813.977 98.6051  13
   0   4   8 778.903 55.7367  14
   0   4   8 665.188 101.018   6
  -1  -4  -8 124.659 10.6523   8
  -1  -4  -8 144.026 16.5475   6
   1   4   8 132.055 11.0215   8
   1   4   8 121.194 9.50856  14
   1   4   8 78.8142 16.9441   6
  -2  -4  -8 277.999 30.3005   6
  -2  -4  -8 239.178 19.4904   8
   2   4   8 260.598 19.8384   8
   2   4   8 221.544 17.1883  14
   2   4   8 122.862 30.3843   6
  -3  -4  -8 245.907 31.5612   6
   3   4   8 222.314 20.5156   8
  -4  -4  -8 60.3403 8.23595   6
   4   4   8 50.5291 5.40477   8
  -5  -4  -8 186.564 14.6506  11
  -5  -4  -8 193.952 24.4523   6
   5   4   8 172.337 15.8454   5
   5   4   8 166.363 15.9300   8
  -6  -4  -8 167.495 12.6099  11
  -6  -4  -8 161.298 20.9596   6
   6   4   8 134.931 13.4753   5
   5  -5  -8 175.176 18.4217  12
   5  -5  -8 257.165 19.0582  16
   5  -5  -8 208.102 15.8401   7
  -5   5   8 226.059 17.5533  11
   4  -5  -8 3.03293 1.03578  12
   4  -5  -8 2.88608 1.11108  16
   4  -5  -8 4.71454 1.47538   4
   4  -5  -8 2.65031 0.88669   7
  -4   5   8 4.19530 0.99887  11
   3  -5  -8 39.4570 4.89704   4
   3  -5  -8 41.6607 3.21926   9
   3  -5  -8 36.7321 3.35411   7
   3  -5  -8 38.3177 4.05078  16
  -3   5   8 38.9257 3.46754  11
  -3   5   8 39.7615 3.56852  14
  -3   5   8 29.6286 6.64104   6
   2  -5  -8 455.378 37.4492  16
   2  -5  -8 436.217 29.9354   9
   2  -5  -8 431.146 36.7607   8
   2  -5  -8 428.894 43.4866   4
   2  -5  -8 464.192 31.4432   7
  -2   5   8 360.131 58.0093   6
  -2   5   8 434.945 31.9723  14
  -2   5   8 431.420 34.7361  11
   1  -5  -8 29.2889 2.58481   7
   1  -5  -8 25.2433 2.30160   9
   1  -5  -8 31.6685 2.79898   8
  -1   5   8 27.7471 2.84824  14
  -1   5   8 22.8992 2.50110  11
  -1   5   8 22.0589 5.45449   6
   0  -5  -8 69.0902 5.92914   8
   0   5   8 55.9459 10.0292   6
   0   5   8 66.8898 5.45945  14
  -1  -5  -8 22.1390 2.47452   8
  -1  -5  -8 27.6284 3.91067   6
   1   5   8 19.0040 4.78899   6
   1   5   8 24.1459 2.84658   8
   1   5   8 20.8679 2.61966  14
  -2  -5  -8 676.347 76.8097   6
  -2  -5  -8 596.682 49.3150   8
   2   5   8 398.752 77.0639   6
   2   5   8 566.321 42.8091  14
   2   5   8 649.571 49.6901   8
  -3  -5  -8 95.1785 12.0602   6
   3   5   8 73.8297 7.24328  14
  -4  -5  -8 517.217 68.8348   6
  -5  -5  -8 24.7458 3.93499   6
  -5  -5  -8 20.6219 2.09171  11
   5   5   8 22.7416 3.32849   5
   5   5   8 20.3423 2.77454   8
  -6  -5  -8 46.7274 3.99326  11
  -6  -5  -8 45.5787 6.78967   6
   6   5   8 49.3277 4.83926   5
  -5   6   8 44.3830 3.81520  11
   4  -6  -8 141.641 12.5198  16
   4  -6  -8 138.233 14.5667   4
  -4   6   8 141.770 11.5446  11
   3  -6  -8 49.5736 4.99091  16
   3  -6  -8 48.3343 4.21794   7
   3  -6  -8 59.9403 6.01540   4
  -3   6   8 45.8331 8.29995   6
  -3   6   8 51.1960 4.48229  11
   2  -6  -8 43.8535 5.08102   4
   2  -6  -8 40.8721 4.02992   8
   2  -6  -8 42.7055 4.31036  16
   2  -6  -8 41.0060 3.67319   7
  -2   6   8 36.2055 7.45600   6
  -2   6   8 46.8474 3.92172  14
  -2   6   8 43.7726 3.81801  11
   1  -6  -8 283.382 22.7557   8
   1  -6  -8 275.657 23.1023  16
  -1   6   8 222.543 36.1221   6
  -1   6   8 285.777 19.9199  14
  -1   6   8 250.310 21.3765  11
   0  -6  -8 73.2030 6.36585   8
   0   6   8 60.5186 10.7361   6
   0   6   8 73.3354 5.88934  14
  -1  -6  -8 86.1533 11.0252   6
  -1  -6  -8 78.3584 7.12145   8
   1   6   8 88.6193 7.89081   8
   1   6   8 76.7827 6.54292  14
   1   6   8 60.9655 11.7156   6
  -2  -6  -8 1067.71 89.4890   8
  -2  -6  -8 1294.69 139.505   6
   2   6   8 599.991 139.561   6
   2   6   8 1054.75 77.3719  14
   2   6   8 1249.66 90.1854   8
  -3  -6  -8 14.3983 2.89549   6
   3   6   8 13.7981 2.50678   8
   3   6   8 12.2042 2.47213  14
  -4  -6  -8 168.612 22.1034   6
   4   6   8 147.142 12.8077  14
   4   6   8 175.759 14.2273   5
   4   6   8 156.376 14.6096   8
  -5  -6  -8 167.664 20.7881   6
   5   6   8 133.583 13.4835   8
   5   6   8 155.600 13.3850   5
   6   6   8 143.487 12.5256   5
   4  -7  -8 27.7937 3.05173  16
   4  -7  -8 35.3239 3.69444   4
  -4   7   8 31.0322 2.81030  11
   3  -7  -8 237.615 20.5518  16
   3  -7  -8 251.385 23.9267   4
  -3   7   8 242.876 19.0985  11
  -3   7   8 207.474 32.0817   6
   2  -7  -8 201.189 18.0880  16
   2  -7  -8 217.954 21.0700   4
   2  -7  -8 217.951 17.8126   8
  -2   7   8 201.181 16.7697  11
  -2   7   8 189.946 28.6081   6
   1  -7  -8 3.94871 0.99090   8
   1  -7  -8 1.16103 0.92519  16
  -1   7   8 0.14556 1.01506  14
  -1   7   8 -0.2474 2.11733   6
   0  -7  -8 59.2177 5.32712   8
   0  -7  -8 59.2364 5.47845  16
   0   7   8 57.8164 5.03333  14
   0   7   8 48.7463 9.17686   6
  -1  -7  -8 12.7777 1.73829   8
   1   7   8 12.5478 2.07755  14
   1   7   8 14.2961 2.73531   8
   1   7   8 10.6413 3.95745   6
  -2  -7  -8 96.1623 12.5957   6
  -2  -7  -8 81.7814 8.11094   8
   2   7   8 85.9385 7.42296  14
   2   7   8 96.1025 8.84524   8
  -3  -7  -8 195.739 26.2262   6
   3   7   8 179.513 14.9564  14
   3   7   8 186.903 17.3904   8
   3   7   8 212.410 16.6976   5
  -4  -7  -8 89.0520 12.2185   6
   4   7   8 76.6150 8.21105   8
   4   7   8 90.4224 7.46637  14
   4   7   8 92.0194 7.94425   5
  -5  -7  -8 24.1532 3.70081   6
   5   7   8 17.9007 2.60590   8
   5   7   8 22.8224 2.67310   5
   5   7   8 18.4713 2.84819  14
  -6  -7  -8 0.15833 0.79800   6
   6   7   8 0.18675 0.87215   5
   3  -8  -8 6.55561 1.28494   4
  -3   8   8 6.73959 0.94404  11
  -3   8   8 5.07274 2.18967   6
   2  -8  -8 181.471 14.4038   8
   2  -8  -8 174.244 16.9793   4
  -2   8   8 140.731 23.0904   6
   1  -8  -8 12.4603 1.66001   8
  -1   8   8 9.66253 3.92829   6
   0  -8  -8 47.5274 4.40273   8
   0   8   8 40.5186 7.88949   6
   0   8   8 47.8674 4.23335  14
  -1  -8  -8 198.304 16.9620   8
   1   8   8 163.369 26.9693   6
   1   8   8 208.983 17.6087   8
   1   8   8 208.022 14.9991  14
  -2  -8  -8 276.629 35.6045   6
  -2  -8  -8 248.090 22.9076   8
   2   8   8 266.903 23.4672   8
   2   8   8 269.183 20.1114  14
  -3  -8  -8 52.7784 7.73550   6
   3   8   8 52.0468 4.80177  14
   3   8   8 54.1863 5.66767   8
  -4  -8  -8 94.1967 12.4888   6
   4   8   8 89.0591 7.39711  14
   4   8   8 92.6525 7.97458   5
   4   8   8 80.1617 8.34957   8
  -5  -8  -8 142.090 19.1936   6
   5   8   8 161.185 11.1762  14
   5   8   8 148.199 12.1829   5
   5   8   8 116.080 12.3823   8
   2  -9  -8 28.9914 3.69023   4
  -2   9   8 39.3704 5.92800   6
   1  -9  -8 117.385 12.1248   4
   1  -9  -8 124.453 10.3869   8
  -1   9   8 111.308 16.8451   6
   0  -9  -8 186.263 16.1620   8
   0   9   8 195.729 14.1801  14
   0   9   8 175.280 25.8384   6
  -1  -9  -8 0.32078 0.65156   8
   1   9   8 2.32577 2.01614   6
   1   9   8 0.85251 1.45014   8
   1   9   8 0.92259 1.15131  14
  -2  -9  -8 471.347 68.0749   6
  -2  -9  -8 479.984 43.7854   8
   2   9   8 544.272 44.3075   8
   2   9   8 556.678 38.0486  14
  -3  -9  -8 34.3344 5.52706   6
   3   9   8 40.2943 3.65216  14
   3   9   8 36.6415 4.16296   8
  -4  -9  -8 26.5087 4.38388   6
   4   9   8 30.4139 2.96869  14
   4   9   8 27.2050 3.23228   8
  -5  -9  -8 12.4839 2.38292   6
   1 -10  -8 72.6518 9.25855   4
   1 -10  -8 95.6823 7.99074   8
  -1  10   8 106.646 13.1455   6
   0 -10  -8 7.57516 1.28266   4
   0 -10  -8 10.3818 1.33880   8
   0  10   8 10.4006 3.07433   6
  -1 -10  -8 190.857 17.6214   8
   1  10   8 214.366 15.3977  14
   1  10   8 196.919 27.9133   6
   1  10   8 214.204 18.0423   8
  -2 -10  -8 47.6866 4.89297   8
   2  10   8 55.9136 4.54785  14
   2  10   8 55.2945 5.40666   8
  -3 -10  -8 109.246 17.1953   6
   3  10   8 136.701 9.91106  14
   3  10   8 137.668 11.5204   8
  -4 -10  -8 220.784 29.4598   6
   4  10   8 204.851 19.0381   8
   4  10   8 235.207 16.5377  14
   2   3  -9 258.163 19.5730  12
  -2  -3   9 194.166 30.6836   6
   1   3  -9 282.736 17.1030   9
   1   3  -9 263.092 20.9177   8
   1   3  -9 242.314 20.8480  12
  -1  -3   9 181.376 32.7962   6
   0   3  -9 54.8242 3.89073   9
   0   3  -9 51.3048 4.63556   8
   0  -3   9 39.3386 7.47092   6
  -1   3  -9 42.5119 3.55216   9
  -1   3  -9 46.8686 4.36997   8
   1  -3   9 47.3562 4.49579   8
   3   2  -9 224.970 17.2862  12
  -3  -2   9 169.492 26.9871   6
   2   2  -9 1.60136 0.92528   9
   2   2  -9 0.67645 1.18016  12
   2   2  -9 0.80195 0.68376   8
  -2  -2   9 0.57293 2.00799   6
   1   2  -9 8.08385 1.81199  12
   1   2  -9 6.77927 1.46815   8
   1   2  -9 9.79198 1.63352   9
  -1  -2   9 3.97452 2.46273   6
   0   2  -9 318.343 24.8116   8
   0   2  -9 302.738 20.2317   9
   0  -2   9 236.891 38.9582   6
  -1   2  -9 45.5141 4.40357   8
  -1   2  -9 46.1300 3.68950   9
   1  -2   9 40.3893 4.50998   8
  -2   2  -9 67.2311 5.07391   9
  -2   2  -9 64.7284 6.13661   8
   2  -2   9 65.7398 6.28195   8
  -3   2  -9 436.753 32.3409   9
   3  -2   9 497.863 39.9829   8
   4   1  -9 182.925 16.2385  12
  -4  -1   9 189.237 15.1050  11
   3   1  -9 2.18960 1.31580  12
   3   1  -9 1.11133 1.06745   9
  -3  -1   9 0.89285 1.99725   6
  -3  -1   9 1.83154 0.58474  11
   2   1  -9 119.182 9.19815   9
   2   1  -9 130.605 10.8967   8
   2   1  -9 131.477 11.1600  12
  -2  -1   9 110.989 17.8462   6
   1   1  -9 634.398 43.5927   9
   1   1  -9 624.617 53.1153  12
   1   1  -9 694.549 53.5274   8
  -1  -1   9 551.271 84.0084   6
   0   1  -9 12.8227 1.97860   8
   0   1  -9 10.8529 1.80905   9
   0  -1   9 8.92583 3.80100   6
  -1   1  -9 132.341 10.8740   8
  -1   1  -9 131.389 9.01349   9
   1  -1   9 86.3443 17.0805   6
   1  -1   9 130.769 11.1256   8
  -2   1  -9 312.027 41.5364   6
  -2   1  -9 302.492 26.7744   8
  -2   1  -9 299.263 21.7919   9
   2  -1   9 325.594 27.0194   8
  -3   1  -9 0.53803 1.16682   6
  -3   1  -9 1.89869 0.94308   9
   3  -1   9 0.18342 0.70478   8
  -4   1  -9 207.285 27.2661   6
   4  -1   9 197.355 17.5708   8
   4   0  -9 160.105 12.1552   9
   4   0  -9 177.742 14.8601  12
  -4   0   9 169.465 13.8006  11
   3   0  -9 238.939 16.8312   9
   3   0  -9 248.136 20.4447  12
  -3   0   9 243.713 19.1154  11
  -3   0   9 209.128 32.2724   6
   2   0  -9 9.12882 1.46975   8
   2   0  -9 8.37774 1.84901  12
   2   0  -9 7.20890 1.50426   9
  -2   0   9 9.54628 3.46083   6
  -2   0   9 9.67812 1.33091  11
   1   0  -9 87.0489 6.61448   9
   1   0  -9 89.7333 7.74223   8
  -1   0   9 76.3991 12.9061   6
   0   0  -9 520.453 41.2236   8
   0   0  -9 499.289 33.6210   9
   0   0   9 421.393 64.7933   6
  -1   0  -9 27.0617 2.98259   8
  -1   0  -9 27.0870 2.65326   9
   1   0   9 17.5519 5.30255   6
   1   0   9 30.5129 3.33780   8
  -2   0  -9 346.835 30.5896   8
  -2   0  -9 332.253 24.8656   9
  -2   0  -9 384.873 47.5753   6
   2   0   9 354.694 30.8142   8
  -3   0  -9 65.4512 5.30376   9
  -3   0  -9 72.9401 10.0022   6
   3   0   9 69.1098 6.65447   8
  -4   0  -9 20.9895 3.52813   6
   4   0   9 19.8044 2.41766   8
   5  -1  -9 118.279 11.2502  12
  -5   1   9 136.208 10.4387  11
   4  -1  -9 13.8396 1.99907   9
   4  -1  -9 18.0669 1.97923   7
   4  -1  -9 16.9366 2.28549  12
  -4   1   9 17.3820 1.80907  11
   3  -1  -9 1.47766 1.02799   9
   3  -1  -9 1.20075 1.07264  12
  -3   1   9 0.60650 2.06713   6
  -3   1   9 1.42965 0.66185  11
   2  -1  -9 201.415 21.4659  12
   2  -1  -9 258.875 21.4810   8
   2  -1  -9 267.557 17.7942   9
   2  -1  -9 296.167 22.3069  16
  -2   1   9 242.817 20.2544  11
  -2   1   9 229.807 34.3375   6
   1  -1  -9 5.57196 1.22863   8
   1  -1  -9 2.72889 0.99591   9
  -1   1   9 1.21079 2.15086   6
   0  -1  -9 2.51523 0.96126   8
   0  -1  -9 3.22283 1.00377   9
   0   1   9 1.33166 2.17305   6
  -1  -1  -9 220.904 18.4013   8
  -1  -1  -9 223.668 15.0642   9
   1   1   9 226.561 18.7166   8
   1   1   9 171.155 29.0923   6
  -2  -1  -9 266.900 35.2981   6
  -2  -1  -9 252.679 22.7253   8
  -2  -1  -9 245.095 18.4853   9
   2   1   9 284.209 23.0417   8
  -3  -1  -9 297.996 23.1255   9
  -3  -1  -9 363.430 44.4500   6
   3   1   9 331.581 28.7480   8
  -4  -1  -9 389.708 50.9452   6
   4   1   9 372.747 32.8494   8
  -5  -1  -9 2.35418 1.20563   6
   5  -2  -9 0.63768 0.88055  12
   5  -2  -9 0.33077 0.70926   7
  -5   2   9 0.20768 0.38430  11
   4  -2  -9 178.558 13.0116   7
   4  -2  -9 179.994 15.6857  16
   4  -2  -9 167.481 12.4988   9
   4  -2  -9 166.988 15.1543  12
  -4   2   9 179.032 14.2545  11
   3  -2  -9 111.265 7.89249   9
   3  -2  -9 105.956 9.97824  16
   3  -2  -9 102.191 9.43631  12
  -3   2   9 90.7704 15.2199   6
  -3   2   9 115.983 8.80756  11
   2  -2  -9 3.07779 1.01876   9
   2  -2  -9 2.74119 1.69869  16
   2  -2  -9 2.38103 0.81010   8
  -2   2   9 1.20157 2.22699   6
  -2   2   9 3.84194 0.81489  11
   1  -2  -9 521.598 41.8053   8
   1  -2  -9 502.104 34.0650   9
  -1   2   9 437.727 65.8291   6
  -1   2   9 478.188 39.4142  11
  -1   2   9 505.484 36.3849  14
   0  -2  -9 87.8141 7.29258   8
   0  -2  -9 87.8172 6.07225   9
   0   2   9 82.7038 6.72845  14
   0   2   9 59.1705 11.8930   6
  -1  -2  -9 108.409 7.73632   9
  -1  -2  -9 113.811 9.45211   8
   1   2   9 117.634 9.80418   8
   1   2   9 79.2515 15.1509   6
  -2  -2  -9 2.54912 1.52167   6
  -2  -2  -9 1.75189 0.89471   8
  -2  -2  -9 3.81933 0.93624   9
   2   2   9 4.83101 1.30702   8
  -3  -2  -9 3.54519 1.50704   6
   3   2   9 3.79295 1.24121   8
  -4  -2  -9 18.6495 3.52451   6
   4   2   9 18.6173 2.41085   8
  -5  -2  -9 54.9408 7.94947   6
   5  -3  -9 4.74005 1.04432   7
  -5   3   9 5.45307 0.88686  11
   4  -3  -9 54.5030 4.32155   9
   4  -3  -9 56.6557 4.49991   7
   4  -3  -9 53.4721 5.18197  12
   4  -3  -9 53.4654 5.54357  16
  -4   3   9 56.4808 4.73618  11
  -4   3   9 54.7776 4.76231  14
   3  -3  -9 422.851 34.9590  16
   3  -3  -9 424.363 27.8511   9
   3  -3  -9 412.647 29.0977   7
  -3   3   9 391.663 29.6632  14
  -3   3   9 418.134 32.1780  11
  -3   3   9 320.588 53.5959   6
   2  -3  -9 21.6478 2.24758   8
   2  -3  -9 21.1004 2.10029   9
   2  -3  -9 22.9030 3.07044  16
  -2   3   9 17.9154 2.51533  14
  -2   3   9 20.5661 2.13441  11
  -2   3   9 18.6632 4.90960   6
   1  -3  -9 120.275 8.45688   9
   1  -3  -9 125.144 10.2149   8
  -1   3   9 118.781 9.20210  14
  -1   3   9 114.068 9.55064  11
  -1   3   9 97.0245 16.6256   6
   0  -3  -9 264.946 20.4211   8
   0  -3  -9 246.322 16.6269   9
   0   3   9 181.599 32.2462   6
   0   3   9 248.450 17.9502  14
  -1  -3  -9 206.666 16.7819   8
  -1  -3  -9 190.010 13.6152   9
   1   3   9 194.537 14.8400  14
   1   3   9 214.816 17.1454   8
   1   3   9 154.946 26.5973   6
  -2  -3  -9 72.7118 7.18566   8
  -2  -3  -9 81.9254 11.1531   6
   2   3   9 82.1977 7.50139   8
  -3  -3  -9 913.660 121.288   6
   3   3   9 916.928 78.0824   8
  -4  -3  -9 2.42115 1.46100   6
   4   3   9 3.65696 1.17483   8
  -5  -3  -9 24.0225 4.09791   6
   5   3   9 26.5166 2.96014   5
  -5   4   9 108.355 8.88574  11
   4  -4  -9 75.3116 7.08006  16
   4  -4  -9 73.9310 5.77704   7
  -4   4   9 72.3362 6.00144  14
  -4   4   9 75.3732 6.25111  11
   3  -4  -9 32.3087 3.70268  16
   3  -4  -9 32.1914 2.95341   7
   3  -4  -9 34.4311 2.82361   9
  -3   4   9 32.0948 3.22373  14
  -3   4   9 33.9530 3.00528  11
  -3   4   9 27.5243 5.94213   6
   2  -4  -9 216.729 15.1359   9
   2  -4  -9 236.448 19.0819  16
   2  -4  -9 221.835 18.4445   8
   2  -4  -9 216.257 15.8711   7
  -2   4   9 211.104 16.2531  14
  -2   4   9 212.950 17.4094  11
  -2   4   9 179.894 29.5159   6
   1  -4  -9 233.230 18.9541   8
   1  -4  -9 225.356 15.4809   9
  -1   4   9 233.361 16.7138  14
  -1   4   9 210.161 17.8130  11
  -1   4   9 192.603 30.2810   6
   0  -4  -9 204.793 15.8901   8
   0  -4  -9 186.500 12.9181   9
   0   4   9 141.394 25.2691   6
   0   4   9 194.428 14.0576  14
  -1  -4  -9 564.117 44.0992   8
   1   4   9 590.532 44.4963   8
   1   4   9 553.276 38.3517  14
   1   4   9 355.704 68.9760   6
  -2  -4  -9 360.524 40.1050   6
  -2  -4  -9 310.933 25.7707   8
   2   4   9 305.157 22.6417  14
   2   4   9 334.873 26.1128   8
   2   4   9 181.723 40.2899   6
  -3  -4  -9 134.726 17.9066   6
   3   4   9 125.991 11.7668   8
  -4  -4  -9 181.063 24.5386   6
  -5  -4  -9 148.742 18.6630   6
   5   4   9 132.888 12.0615   5
   5   4   9 128.091 12.1648   8
   4  -5  -9 64.5376 6.22387  16
   4  -5  -9 63.6969 5.13051   7
  -4   5   9 69.1598 5.57373  11
   3  -5  -9 220.997 16.3703   7
   3  -5  -9 242.798 19.6335  16
  -3   5   9 234.473 18.0527  11
  -3   5   9 222.257 16.7324  14
  -3   5   9 187.593 30.3449   6
   2  -5  -9 118.335 11.8702   4
   2  -5  -9 110.078 9.78921   8
   2  -5  -9 122.288 8.57408   7
   2  -5  -9 108.508 8.08093   9
   2  -5  -9 113.400 10.2041  16
  -2   5   9 107.095 9.22606  11
  -2   5   9 111.612 8.82208  14
  -2   5   9 98.8628 16.2188   6
   1  -5  -9 300.303 24.3791   8
   1  -5  -9 304.242 24.8605  16
   1  -5  -9 289.475 19.8270   9
  -1   5   9 262.265 22.9200  11
  -1   5   9 244.998 38.7096   6
  -1   5   9 297.658 21.3319  14
   0  -5  -9 362.868 27.4488   8
   0   5   9 344.367 23.9639  14
   0   5   9 248.458 43.2472   6
  -1  -5  -9 17.6158 1.95538   8
   1   5   9 14.6672 2.34287  14
   1   5   9 10.3912 3.89741   6
  -2  -5  -9 89.0246 7.39576   8
  -2  -5  -9 94.6690 11.3855   6
   2   5   9 81.1338 6.85796  14
   2   5   9 44.4992 11.6945   6
   2   5   9 93.2435 7.74372   8
  -3  -5  -9 51.6235 7.35367   6
   3   5   9 47.2744 4.80923  14
  -4  -5  -9 251.084 33.7292   6
  -5  -5  -9 136.848 17.8141   6
   5   5   9 134.437 11.5937   5
   5   5   9 120.039 11.6066   8
   4  -6  -9 1.92879 0.87348  16
  -4   6   9 1.18778 0.48700  11
   3  -6  -9 91.0709 8.64393   4
   3  -6  -9 83.3086 7.38523  16
  -3   6   9 80.5854 6.69152  11
  -3   6   9 63.7394 11.6270   6
   2  -6  -9 52.8968 5.19155  16
   2  -6  -9 55.7503 4.91456   8
   2  -6  -9 59.0357 6.16485   4
  -2   6   9 50.2176 4.59273  11
  -2   6   9 46.8701 8.71783   6
  -2   6   9 53.9780 4.61835  14
   1  -6  -9 233.708 20.1468  16
   1  -6  -9 252.017 19.8375   8
  -1   6   9 193.902 31.5778   6
  -1   6   9 236.099 17.3835  14
   0  -6  -9 11.4139 1.60180   8
   0   6   9 11.9883 1.98460  14
   0   6   9 8.18552 3.63245   6
  -1  -6  -9 906.717 73.8242   8
   1   6   9 884.573 63.8609  14
   1   6   9 654.730 115.468   6
   1   6   9 1027.05 74.5551   8
  -2  -6  -9 56.7358 5.48792   8
  -2  -6  -9 63.1810 8.47308   6
   2   6   9 52.0789 5.12691  14
   2   6   9 61.7480 6.20585   8
  -3  -6  -9 133.925 18.2396   6
   3   6   9 128.682 10.6742  14
   3   6   9 137.435 12.2992   8
  -4  -6  -9 277.476 38.3251   6
   4   6   9 321.240 24.3471   5
   4   6   9 260.465 24.9244   8
  -5  -6  -9 74.8279 9.92376   6
   5   6   9 79.2579 6.61151   5
   5   6   9 58.1583 6.51530   8
   3  -7  -9 57.9048 5.91811  16
   3  -7  -9 79.4439 7.05795   4
  -3   7   9 58.4943 9.60888   6
  -3   7   9 63.8023 5.42943  11
   2  -7  -9 1.06835 1.04286   4
   2  -7  -9 1.18866 0.59361   8
   2  -7  -9 0.70080 0.84952  16
  -2   7   9 3.25641 1.11265  14
  -2   7   9 0.91725 1.96778   6
   1  -7  -9 221.434 19.9950  16
   1  -7  -9 252.308 19.7723   8
  -1   7   9 252.938 17.3622  14
  -1   7   9 187.204 31.3891   6
   0  -7  -9 140.290 11.1597   8
   0  -7  -9 127.164 11.2406  16
   0   7   9 103.482 17.9817   6
   0   7   9 131.842 9.95494  14
  -1  -7  -9 98.2105 8.33262   8
   1   7   9 98.2012 7.59495  14
   1   7   9 69.9996 13.5048   6
   1   7   9 103.704 9.07589   8
  -2  -7  -9 46.5871 6.72214   6
  -2  -7  -9 44.0809 4.39622   8
   2   7   9 44.3953 4.30060  14
   2   7   9 47.2058 5.12202   8
  -3  -7  -9 260.293 33.6314   6
   3   7   9 269.276 21.2576   5
   3   7   9 237.367 22.0541   8
   3   7   9 233.542 19.0119  14
  -4  -7  -9 29.7778 4.38460   6
   4   7   9 28.5586 3.06609   5
   4   7   9 25.8932 3.03132  14
   4   7   9 22.2067 3.17733   8
  -5  -7  -9 41.6512 5.49011   6
   5   7   9 32.5542 3.61521   5
   5   7   9 34.5506 3.64905   8
   2  -8  -9 303.826 28.0773   4
  -2   8   9 252.533 37.7394   6
   1  -8  -9 8.62225 1.32051   8
   1  -8  -9 10.2344 1.65674   4
  -1   8   9 8.26039 1.72827  14
  -1   8   9 7.50430 2.87321   6
   0  -8  -9 266.397 21.5292   8
   0   8   9 204.788 34.0265   6
   0   8   9 276.462 18.8658  14
  -1  -8  -9 205.722 16.9999   8
   1   8   9 205.069 14.9683  14
   1   8   9 215.594 17.6041   8
   1   8   9 155.579 26.8906   6
  -2  -8  -9 10.1347 1.57344   8
  -2  -8  -9 10.2990 2.30333   6
   2   8   9 9.86862 2.38002   8
   2   8   9 11.1087 2.00975  14
  -3  -8  -9 90.8196 12.3080   6
   3   8   9 85.2032 8.37735   8
   3   8   9 89.5585 7.24031  14
  -4  -8  -9 218.416 30.3274   6
   4   8   9 235.877 19.1045   5
   4   8   9 246.295 17.1866  14
   4   8   9 204.568 19.7134   8
  -5  -8  -9 2.56308 1.05529   6
   2  -9  -9 49.1228 6.45796   4
  -2   9   9 80.1189 9.39676   6
   1  -9  -9 171.533 14.1905   8
   1  -9  -9 158.592 16.6280   4
  -1   9   9 162.459 22.7632   6
   0  -9  -9 0.89414 0.58398   8
   0   9   9 -0.3902 1.62596   6
   0   9   9 -0.0922 0.88034  14
  -1  -9  -9 1.23635 0.73870   8
   1   9   9 1.08263 1.59900   6
   1   9   9 0.87087 1.19932   8
   1   9   9 4.78465 1.19038  14
  -2  -9  -9 203.048 18.7569   8
   2   9   9 222.317 19.2087   8
   2   9   9 226.626 16.4471  14
  -3  -9  -9 -0.3785 0.80098   6
   3   9   9 0.01695 0.83907  14
   3   9   9 0.64219 1.21913   8
  -4  -9  -9 42.8708 5.95280   6
   4   9   9 38.7760 4.05971   8
   0 -10  -9 143.681 11.7615   8
   0  10   9 127.072 18.7188   6
  -1 -10  -9 8.87830 1.20468   8
  -2 -10  -9 13.1572 1.59884   8
   2  10   9 13.4803 2.12179   8
   2  10   9 14.1278 1.75194  14
   3  10   9 32.8970 3.43229   8
   3  10   9 33.1203 3.00414  14
  -1  -2  10 267.607 36.1913   6
   0   2 -10 0.48015 0.63954   8
   2   1 -10 222.649 13.9219   9
  -2  -1  10 168.228 26.7824   6
   1   1 -10 4.43957 1.03197   9
   1   1 -10 2.56568 0.79321   8
  -1  -1  10 2.02486 2.01172   6
   0   1 -10 165.201 10.9341   9
   0   1 -10 169.814 13.3080   8
   0  -1  10 118.253 21.0239   6
  -1   1 -10 237.259 20.7526   8
  -1   1 -10 242.906 16.9091   9
  -2   1 -10 0.82192 0.74377   9
   2  -1  10 1.40407 0.68918   8
   3   0 -10 1.12608 0.79032   9
   3   0 -10 1.93737 0.95489  12
  -3   0  10 1.04261 1.46540   6
  -3   0  10 2.18995 0.85365  14
   2   0 -10 399.662 25.2870   9
   2   0 -10 378.864 30.7327   8
  -2   0  10 355.831 26.7030  14
  -2   0  10 304.933 48.5954   6
   1   0 -10 107.613 8.62137   8
   1   0 -10 101.868 7.24787   9
  -1   0  10 76.7538 14.0038   6
   0   0 -10 48.6381 4.19393   8
   0   0 -10 44.8956 3.62467   9
   0   0  10 30.1542 7.01376   6
  -1   0 -10 689.219 52.1190   8
  -1   0 -10 648.959 42.3183   9
   1   0  10 675.034 52.3640   8
   1   0  10 427.018 81.2805   6
  -2   0 -10 37.4966 3.13304   9
  -2   0 -10 36.3916 3.73058   8
   2   0  10 36.4910 3.89352   8
  -3   0 -10 2.60192 1.12763   6
   3   0  10 4.53971 1.12286   8
   3  -1 -10 168.449 10.5979   9
  -3   1  10 140.009 11.2207  14
  -3   1  10 149.527 11.8943  11
  -3   1  10 124.437 20.2361   6
   2  -1 -10 3.77338 0.84345   8
   2  -1 -10 2.09568 0.93006   9
  -2   1  10 2.79618 1.18029  14
  -2   1  10 2.60367 2.26436   6
   1  -1 -10 135.039 9.41118   9
   1  -1 -10 140.780 11.2698   8
  -1   1  10 107.654 18.2389   6
  -1   1  10 125.028 9.98598  14
   0  -1 -10 228.746 14.5104   9
   0  -1 -10 237.472 17.6652   8
   0   1  10 139.698 27.7667   6
  -1  -1 -10 75.8615 5.52998   9
  -1  -1 -10 79.1141 6.63786   8
   1   1  10 46.7346 10.5924   6
   1   1  10 82.6459 6.98156   8
  -2  -1 -10 54.7144 5.21323   8
  -2  -1 -10 50.9409 4.26125   9
  -2  -1 -10 58.5368 7.98126   6
   2   1  10 53.0663 5.41016   8
  -3  -1 -10 338.804 25.5023   9
  -3  -1 -10 395.847 48.9627   6
   3   1  10 365.141 31.6101   8
  -4  -1 -10 18.0981 3.03758   6
   4   1  10 16.6049 2.11745   8
   4  -2 -10 95.8133 6.37174   9
  -4   2  10 81.7375 7.07848  11
  -4   2  10 79.8055 6.74316  14
   3  -2 -10 47.0643 3.66559   9
   3  -2 -10 51.8622 4.54627  16
  -3   2  10 36.7143 7.10495   6
  -3   2  10 42.1488 4.02774  14
  -3   2  10 43.1507 3.86161  11
   2  -2 -10 36.2964 3.38229   8
   2  -2 -10 38.8449 3.13036   9
   2  -2 -10 39.2809 4.00150  16
  -2   2  10 26.0563 6.26402   6
  -2   2  10 33.4459 3.49065  14
   1  -2 -10 653.001 41.6586   9
   1  -2 -10 673.623 51.1639   8
  -1   2  10 600.655 44.3376  14
  -1   2  10 471.411 80.2345   6
   0  -2 -10 123.324 9.46777   8
   0  -2 -10 112.382 7.80249   9
   0   2  10 113.329 8.49238  14
   0   2  10 70.9523 15.0749   6
  -1  -2 -10 205.333 16.5011   8
  -1  -2 -10 205.200 13.4773   9
   1   2  10 126.909 25.9298   6
   1   2  10 217.757 16.8684   8
  -2  -2 -10 76.6912 6.24967   9
  -2  -2 -10 85.8037 7.70618   8
  -2  -2 -10 88.1794 11.8629   6
   2   2  10 87.6647 7.94990   8
  -3  -2 -10 0.47001 1.10442   6
   3   2  10 0.59616 0.91393   8
  -4  -2 -10 123.864 16.2948   6
   4   2  10 121.016 10.3105   5
   4   2  10 112.380 10.5815   8
  -4   3  10 82.9752 6.91328  11
  -4   3  10 83.8568 6.58284  14
   3  -3 -10 95.2186 6.34796   9
  -3   3  10 83.4385 7.05439  11
  -3   3  10 68.4592 12.2052   6
  -3   3  10 91.4797 6.89978  14
   2  -3 -10 57.1943 5.57712  16
   2  -3 -10 57.8488 4.30980   9
   2  -3 -10 57.7742 4.97771   8
  -2   3  10 51.7388 4.66717  11
  -2   3  10 57.7034 4.83594  14
  -2   3  10 43.0636 8.56206   6
   1  -3 -10 567.628 37.0663   9
   1  -3 -10 573.063 45.5462   8
  -1   3  10 562.234 39.5744  14
  -1   3  10 431.887 71.5609   6
   0  -3 -10 6.30589 1.30934   8
   0  -3 -10 7.23416 1.20841   9
   0   3  10 4.79745 2.63026   6
   0   3  10 4.36964 1.49232  14
  -1  -3 -10 10.9836 1.39075   9
  -1  -3 -10 12.5590 1.59381   8
   1   3  10 10.5663 1.91422   8
   1   3  10 4.63067 2.55207   6
   1   3  10 11.8648 1.99571  14
  -2  -3 -10 16.9139 2.09193   8
  -2  -3 -10 14.8270 3.11009   6
   2   3  10 17.6039 2.37608   8
  -3  -3 -10 461.951 58.6050   6
   3   3  10 417.449 37.8031   8
  -4  -3 -10 4.88176 1.59581   6
   4  -4 -10 2.38562 1.19113  16
  -4   4  10 0.79487 0.46164  11
   3  -4 -10 1.21161 0.78657   7
   3  -4 -10 1.56068 1.16340  16
   3  -4 -10 2.00154 0.68966   9
  -3   4  10 0.75326 0.94011  14
  -3   4  10 1.65796 0.58449  11
  -3   4  10 1.67362 1.79733   6
   2  -4 -10 119.743 10.5707  16
   2  -4 -10 122.343 8.35975   9
   2  -4 -10 121.181 10.0461   8
  -2   4  10 117.183 9.06608  14
  -2   4  10 98.4031 16.4517   6
  -2   4  10 109.442 9.45784  11
   1  -4 -10 4.95006 1.09030   9
   1  -4 -10 11.4850 1.35257   8
  -1   4  10 1.92293 1.20830  14
  -1   4  10 5.58361 2.65513   6
   0  -4 -10 14.6566 1.54504   9
   0  -4 -10 15.2265 1.80380   8
   0   4  10 9.32859 3.88239   6
   0   4  10 13.2988 2.14159  14
  -1  -4 -10 337.337 25.4968   8
   1   4  10 333.347 25.8411   8
   1   4  10 203.213 39.9325   6
   1   4  10 308.188 22.3081  14
  -2  -4 -10 9.50834 2.44907   6
  -2  -4 -10 11.7100 1.64913   8
   2   4  10 12.1782 1.96613   8
  -3  -4 -10 166.596 22.8117   6
   3   4  10 170.589 14.9319   8
  -4  -4 -10 2.30305 1.14600   6
  -5  -4 -10 45.8624 6.63474   6
   3  -5 -10 4.87319 1.29539  16
  -3   5  10 7.60995 1.39148  14
  -3   5  10 4.89854 0.92261  11
  -3   5  10 4.64255 2.06502   6
   2  -5 -10 288.041 19.6330   9
   2  -5 -10 290.108 24.0522   8
   2  -5 -10 303.416 24.6444  16
  -2   5  10 216.076 38.0767   6
  -2   5  10 307.448 21.0982  14
   1  -5 -10 258.397 18.0114   9
   1  -5 -10 284.746 22.1627   8
   1  -5 -10 274.881 22.6300  16
  -1   5  10 207.002 35.1066   6
  -1   5  10 260.335 19.3822  14
   0  -5 -10 43.5701 3.81247   8
   0   5  10 29.5792 6.61809   6
   0   5  10 41.9416 3.76507  14
  -1  -5 -10 46.6418 4.09288   8
   1   5  10 48.0347 4.15150  14
   1   5  10 30.6534 6.90044   6
  -2  -5 -10 293.437 37.9059   6
  -2  -5 -10 285.955 24.4065   8
   2   5  10 269.575 21.3833  14
  -3  -5 -10 26.4090 4.30264   6
  -4  -5 -10 178.183 24.1953   6
   4   5  10 196.382 15.5374   5
   4   5  10 164.173 15.8297   8
  -5  -5 -10 72.5100 9.93557   6
   5   5  10 71.0832 6.56177   5
   3  -6 -10 158.602 12.9701  16
  -3   6  10 134.292 20.1670   6
   2  -6 -10 2.32729 0.96297  16
   2  -6 -10 1.91432 1.05730   4
  -2   6  10 2.47587 1.84378   6
  -2   6  10 2.36351 1.00173  14
   1  -6 -10 55.2661 4.68960   8
   1  -6 -10 50.9155 4.87735  16
  -1   6  10 39.0751 8.03233   6
  -1   6  10 54.2754 4.44894  14
   0  -6 -10 330.025 24.4535   8
   0   6  10 218.776 38.5044   6
   0   6  10 301.626 21.3529  14
  -1  -6 -10 138.678 11.1563   8
   1   6  10 144.410 11.7871   8
   1   6  10 132.044 9.98562  14
   1   6  10 90.4892 17.6708   6
  -2  -6 -10 141.923 19.7036   6
  -2  -6 -10 143.214 12.7484   8
   2   6  10 144.483 11.3969  14
   2   6  10 152.290 13.2909   8
  -3  -6 -10 301.720 42.8741   6
   3   6  10 328.063 24.1685  14
   3   6  10 335.570 28.0164   8
  -4  -6 -10 33.0749 5.11781   6
   4   6  10 28.7803 3.60736   8
   4   6  10 41.0187 3.66595   5
  -5  -6 -10 17.8604 2.95348   6
   5   6  10 15.7580 2.14610   5
   2  -7 -10 12.0836 1.86624   4
   2  -7 -10 12.6393 1.57420  16
  -2   7  10 12.4184 1.70833  14
  -2   7  10 11.9527 3.27991   6
   1  -7 -10 53.2780 5.36584  16
   1  -7 -10 61.4180 5.26608   8
   1  -7 -10 64.3804 6.33472   4
  -1   7  10 59.3455 4.90312  14
  -1   7  10 49.4468 8.94816   6
   0  -7 -10 3.48175 0.88849   8
   0  -7 -10 3.36157 0.98539  16
   0   7  10 1.15287 1.95081   6
   0   7  10 1.60669 1.01204  14
  -1  -7 -10 250.563 19.9285   8
   1   7  10 151.720 31.2388   6
   1   7  10 276.802 20.6403   8
   1   7  10 244.791 17.4665  14
  -2  -7 -10 157.759 14.0611   8
   2   7  10 158.846 12.4462  14
   2   7  10 167.212 14.5661   8
  -3  -7 -10 82.0113 11.7198   6
   3   7  10 84.6567 8.03497   8
   3   7  10 88.6676 7.56705   5
   3   7  10 84.8959 6.94498  14
  -4  -7 -10 114.740 15.2255   6
   4   7  10 121.716 9.72017   5
   4   7  10 98.6866 10.0168   8
  -2   8  10 -0.3349 1.13847   6
   1  -8 -10 181.967 17.7065   4
   1  -8 -10 181.932 15.0418   8
  -1   8  10 146.066 23.9293   6
  -1   8  10 187.539 13.2166  14
   0  -8 -10 122.052 10.3271   8
   0   8  10 103.703 16.6273   6
   0   8  10 127.373 9.20104  14
  -1  -8 -10 7.99396 1.24045   8
   1   8  10 2.37058 1.10650  14
   1   8  10 7.00409 2.67703   6
  -2  -8 -10 161.629 14.5932   8
   2   8  10 170.038 15.0066   8
   2   8  10 172.656 12.8621  14
  -3  -8 -10 88.9264 13.3392   6
   3   8  10 108.178 7.82680  14
   3   8  10 98.4123 9.01927   8
  -4  -8 -10 162.043 22.0633   6
   4   8  10 166.829 14.3813   8
   0  -9 -10 49.2788 5.25350   4
   0  -9 -10 49.6767 4.48871   8
   0   9  10 39.7788 7.34404   6
   0   9  10 59.8536 4.21808  14
  -1  -9 -10 136.143 11.8002   8
   1   9  10 150.443 10.4240  14
   1   9  10 120.767 18.6518   6
  -2  -9 -10 -0.1899 0.49855   8
   2   9  10 0.42969 0.74412  14
   2   9  10 -0.2794 0.98390   8
   3   9  10 114.816 8.71549  14
   3   9  10 110.287 10.0589   8
   0   0 -11 349.983 26.8914   8
   0   0 -11 277.335 21.9377   9
   2  -1 -11 59.9578 4.22534   9
  -2   1  11 47.8255 8.25930   6
   1  -1 -11 41.6637 3.41196   8
   1  -1 -11 37.0053 2.99706   9
  -1   1  11 26.4245 5.85212   6
   0  -1 -11 5.60452 1.18477   9
   0  -1 -11 6.79418 1.26124   8
   0   1  11 3.61270 2.01377   6
  -1  -1 -11 4.42075 0.88778   9
  -1  -1 -11 4.07666 1.09989   8
   1   1  11 2.01238 0.89476   8
   2   1  11 487.627 41.8837   8
   2  -2 -11 10.1998 1.33201   9
  -2   2  11 9.08981 2.83320   6
  -2   2  11 10.8181 1.66257  14
   1  -2 -11 2.26887 0.99206  16
   1  -2 -11 1.14619 0.70769   8
   1  -2 -11 0.26532 0.69392   9
  -1   2  11 0.52944 0.88113  14
  -1   2  11 -0.0907 1.61145   6
   0  -2 -11 305.828 22.1922   8
   0  -2 -11 294.128 18.1090   9
   0   2  11 171.316 34.7534   6
  -1  -2 -11 80.9133 5.56606   9
  -1  -2 -11 89.4642 6.81597   8
   1   2  11 45.7650 10.6673   6
   1   2  11 81.4174 7.04734   8
  -2  -2 -11 193.300 16.6136   8
   2   2  11 189.857 16.7853   8
   3   2  11 101.565 9.17044   8
   2  -3 -11 276.407 17.7635   9
   2  -3 -11 278.342 22.2077  16
  -2   3  11 259.451 18.9659  14
  -2   3  11 198.591 34.2486   6
   1  -3 -11 35.5030 3.61073  16
   1  -3 -11 38.6357 3.27342   8
   1  -3 -11 34.7855 2.79263   9
  -1   3  11 24.8575 5.79740   6
  -1   3  11 31.3843 3.20791  14
   0  -3 -11 32.9574 2.94805   8
   0  -3 -11 32.0027 2.50693   9
   0   3  11 30.4134 2.94204  14
   0   3  11 18.1398 5.13444   6
  -1  -3 -11 424.323 31.6790   8
  -1  -3 -11 385.583 25.6633   9
   1   3  11 240.873 49.4853   6
   1   3  11 427.383 32.1087   8
  -2  -3 -11 87.3651 7.81608   8
   2   3  11 87.0224 8.02589   8
   2  -4 -11 5.16480 1.43279  16
   2  -4 -11 6.90544 0.95178   9
  -2   4  11 6.75782 1.32147  14
  -2   4  11 6.57605 2.57138   6
   1  -4 -11 16.9101 1.80408   8
   1  -4 -11 16.2818 2.21541  16
   1  -4 -11 16.5246 1.58698   9
  -1   4  11 9.99041 3.68714   6
  -1   4  11 17.2529 2.08866  14
   0  -4 -11 187.284 14.4360   8
   0  -4 -11 172.555 11.7258   9
   0   4  11 179.911 12.7616  14
   0   4  11 122.879 22.8684   6
  -1  -4 -11 6.21043 1.15352   8
   1   4  11 3.02607 2.01317   6
   1   4  11 4.18660 1.19147  14
  -2  -4 -11 129.978 11.4016   8
  -3  -4 -11 34.3539 5.08531   6
   2  -5 -11 103.540 6.87894   9
   2  -5 -11 103.457 8.66925  16
  -2   5  11 99.7573 7.47916  14
  -2   5  11 75.3846 13.4771   6
   1  -5 -11 83.2426 6.65213   8
   1  -5 -11 84.2191 6.97129  16
   1  -5 -11 69.5909 5.41509   9
  -1   5  11 80.1647 6.07258  14
  -1   5  11 55.6604 10.8081   6
   0  -5 -11 220.868 16.2084   8
   0   5  11 131.926 25.5282   6
   0   5  11 207.590 14.2702  14
  -1  -5 -11 156.561 11.7021   8
   1   5  11 148.641 10.4098  14
   1   5  11 94.3410 18.3985   6
  -2  -5 -11 12.1664 1.62469   8
   2   5  11 12.7996 2.13441   8
  -3  -5 -11 57.5711 8.40991   6
   3   5  11 64.4489 5.90048   8
   2  -6 -11 8.17145 1.21088  16
  -2   6  11 6.04725 2.26121   6
   1  -6 -11 146.387 11.2650   8
   1  -6 -11 142.524 11.5364  16
  -1   6  11 133.483 9.97102  14
  -1   6  11 95.3524 17.9137   6
   0  -6 -11 8.63982 1.36536  16
   0  -6 -11 8.83514 1.23589   8
   0   6  11 8.91393 1.56054  14
   0   6  11 6.36555 2.45246   6
  -1  -6 -11 64.8370 5.17278   8
   1   6  11 39.1707 8.29683   6
   1   6  11 63.6586 4.85007  14
  -2  -6 -11 29.2788 2.92613   8
   2   6  11 29.6578 2.94661  14
   2   6  11 28.6171 3.40082   8
  -3  -6 -11 69.7144 10.3324   6
   3   6  11 72.1975 7.01292   8
   3   6  11 84.2195 6.74362   5
   1  -7 -11 9.22452 1.11934   8
   1  -7 -11 8.30760 1.21065  16
  -1   7  11 7.46007 2.44817   6
  -1   7  11 9.98137 1.33188  14
   0  -7 -11 77.9887 7.42757  16
   0  -7 -11 93.9930 7.37216   8
   0   7  11 94.3339 6.64327  14
   0   7  11 66.0886 11.8233   6
  -1  -7 -11 20.3306 2.13488  16
  -1  -7 -11 22.8050 2.16907   8
   1   7  11 14.5999 3.71869   6
   1   7  11 23.1889 2.35277  14
  -2  -7 -11 54.6396 5.09075   8
   2   7  11 56.6065 4.70485  14
   2   7  11 57.0650 5.50676   8
   3   7  11 204.084 17.7979   8
   0  -8 -11 5.29499 0.83642   8
   0   8  11 4.99586 1.95358   6
  -1  -8 -11 138.440 12.7785   8
   1   8  11 157.996 11.2581  14
  -1  -4 -12 39.5120 3.73135   8
   0   0   0    0.00    0.00   0
;
_shelx_hkl_checksum              92026
loop_
_space_group_symop_operation_xyz
'x, y, z'
'-x, -y, -z'
loop_
_atom_site_label
_atom_site_type_symbol
_atom_site_fract_x
_atom_site_fract_y
_atom_site_fract_z
_atom_site_U_iso_or_equiv
_atom_site_adp_type
_atom_site_occupancy
_atom_site_site_symmetry_order
_atom_site_calc_flag
_atom_site_refinement_flags_posn
_atom_site_refinement_flags_adp
C1 C 0.6249(4) 0.5459(3) 0.2529(3) 0.0173(6) Uani 1 1 d . .
C2 C 0.6985(4) 0.5084(3) 0.1274(3) 0.0168(6) Uani 1 1 d . .
C3 C 0.6708(4) 0.6233(3) -0.0094(3) 0.0183(6) Uani 1 1 d . .
H3 H 0.6108 0.7226 -0.0200 0.022 Uiso 1 1 calc R U
C4 C 0.7307(4) 0.5921(3) -0.1291(3) 0.0215(6) Uani 1 1 d . .
H4 H 0.7098 0.6694 -0.2224 0.026 Uiso 1 1 calc R U
C5 C 0.8213(4) 0.4483(4) -0.1132(3) 0.0212(6) Uani 1 1 d . .
H5 H 0.8629 0.4288 -0.1965 0.025 Uiso 1 1 calc R U
C6 C 0.8534(4) 0.3306(3) 0.0222(3) 0.0198(6) Uani 1 1 d . .
C7 C 0.7873(4) 0.3635(3) 0.1412(3) 0.0182(6) Uani 1 1 d . .
C8 C 0.9565(5) 0.1765(4) 0.0349(4) 0.0275(7) Uani 1 1 d . .
H8A H 0.8686 0.1049 0.0697 0.041 Uiso 1 1 calc R U
H8B H 1.0640 0.1436 0.1028 0.041 Uiso 1 1 calc R U
H8C H 1.0040 0.1807 -0.0596 0.041 Uiso 1 1 calc R U
C9 C 0.5881(4) 0.7437(3) 0.3398(3) 0.0192(6) Uani 1 1 d . .
H9 H 0.5136 0.6722 0.4115 0.023 Uiso 1 1 calc R U
C10 C 0.7554(5) 0.7605(3) 0.4151(3) 0.0235(6) Uani 1 1 d . .
C11 C 0.4557(5) 0.8915(3) 0.2575(3) 0.0260(7) Uani 1 1 d . .
O1 O 0.5391(3) 0.4745(2) 0.3527(2) 0.0262(5) Uani 1 1 d . .
O2 O 0.6660(3) 0.6835(2) 0.2361(2) 0.0200(4) Uani 1 1 d . .
Br1 Br 0.83144(5) 0.20618(3) 0.32617(3) 0.02963(15) Uani 1 1 d . .
F1 F 0.8517(3) 0.6237(2) 0.4937(2) 0.0358(5) Uani 1 1 d . .
F2 F 0.6957(3) 0.8311(2) 0.50382(19) 0.0335(4) Uani 1 1 d . .
F3 F 0.8770(3) 0.8355(2) 0.3248(2) 0.0319(4) Uani 1 1 d . .
F4 F 0.3204(3) 0.8643(2) 0.1903(2) 0.0410(5) Uani 1 1 d . .
F5 F 0.5454(3) 0.9909(2) 0.1571(2) 0.0371(5) Uani 1 1 d . .
F6 F 0.3702(3) 0.9570(2) 0.3438(2) 0.0400(5) Uani 1 1 d . .
loop_
_atom_site_aniso_label
_atom_site_aniso_U_11
_atom_site_aniso_U_22
_atom_site_aniso_U_33
_atom_site_aniso_U_23
_atom_site_aniso_U_13
_atom_site_aniso_U_12
C1 0.0171(13) 0.0130(13) 0.0204(14) -0.0040(11) -0.0012(11) -0.0042(10)
C2 0.0142(13) 0.0177(14) 0.0197(14) -0.0066(11) 0.0008(10) -0.0072(10)
C3 0.0155(14) 0.0152(14) 0.0230(14) -0.0051(11) 0.0021(10) -0.0054(10)
C4 0.0207(15) 0.0226(15) 0.0187(14) -0.0030(12) 0.0008(11) -0.0090(12)
C5 0.0174(14) 0.0277(16) 0.0212(14) -0.0103(12) 0.0045(11) -0.0099(12)
C6 0.0133(13) 0.0198(15) 0.0301(16) -0.0116(12) 0.0009(11) -0.0074(11)
C7 0.0158(13) 0.0127(13) 0.0247(15) -0.0038(11) -0.0008(10) -0.0059(10)
C8 0.0256(16) 0.0220(16) 0.0376(18) -0.0136(13) 0.0033(13) -0.0067(12)
C9 0.0251(15) 0.0140(14) 0.0173(14) -0.0047(11) 0.0044(11) -0.0051(11)
C10 0.0334(17) 0.0142(14) 0.0209(15) -0.0044(11) 0.0002(12) -0.0045(12)
C11 0.0310(17) 0.0193(16) 0.0250(16) -0.0067(12) -0.0009(12) -0.0018(12)
O1 0.0385(13) 0.0213(11) 0.0223(11) -0.0084(9) 0.0108(9) -0.0165(9)
O2 0.0269(11) 0.0139(10) 0.0201(10) -0.0062(8) 0.0062(8) -0.0083(8)
Br1 0.0434(2) 0.0146(2) 0.0242(2) -0.00086(13) -0.00377(14) -0.00241(14)
F1 0.0374(11) 0.0217(10) 0.0393(11) -0.0036(8) -0.0118(8) 0.0018(8)
F2 0.0480(12) 0.0312(10) 0.0249(9) -0.0145(8) -0.0020(8) -0.0065(9)
F3 0.0356(11) 0.0339(11) 0.0307(10) -0.0120(8) 0.0058(8) -0.0188(8)
F4 0.0367(11) 0.0380(12) 0.0470(12) -0.0162(10) -0.0166(9) 0.0018(9)
F5 0.0492(12) 0.0173(9) 0.0314(10) 0.0037(8) 0.0000(8) -0.0034(8)
F6 0.0477(12) 0.0303(11) 0.0358(11) -0.0153(9) 0.0001(9) 0.0129(9)
loop_
_atom_type_symbol
_atom_type_description
_atom_type_scat_dispersion_real
_atom_type_scat_dispersion_imag
_atom_type_scat_source
C C 0.0181 0.0091 'International Tables Vol C Tables 4.2.6.8 and 6.1.1.4'
H H 0.0000 0.0000 'International Tables Vol C Tables 4.2.6.8 and 6.1.1.4'
O O 0.0492 0.0322 'International Tables Vol C Tables 4.2.6.8 and 6.1.1.4'
Br Br -0.6763 1.2805 'International Tables Vol C Tables 4.2.6.8 and 6.1.1.4'
F F 0.0727 0.0534 'International Tables Vol C Tables 4.2.6.8 and 6.1.1.4'
loop_
_geom_angle_atom_site_label_1
_geom_angle_atom_site_label_2
_geom_angle_atom_site_label_3
_geom_angle
O1 C1 O2 123.0(3)
O1 C1 C2 127.9(3)
O2 C1 C2 109.1(2)
C7 C2 C3 119.4(3)
C7 C2 C1 122.6(2)
C3 C2 C1 117.9(2)
C4 C3 C2 119.8(3)
C4 C3 H3 120.1
C2 C3 H3 120.1
C3 C4 C5 120.0(3)
C3 C4 H4 120.0
C5 C4 H4 120.0
C4 C5 C6 121.9(3)
C4 C5 H5 119.0
C6 C5 H5 119.0
C7 C6 C5 117.2(3)
C7 C6 C8 122.7(3)
C5 C6 C8 120.2(3)
C6 C7 C2 121.7(3)
C6 C7 Br1 118.0(2)
C2 C7 Br1 120.3(2)
C6 C8 H8A 109.5
C6 C8 H8B 109.5
H8A C8 H8B 109.5
C6 C8 H8C 109.5
H8A C8 H8C 109.5
H8B C8 H8C 109.5
O2 C9 C11 106.4(2)
O2 C9 C10 106.9(2)
C11 C9 C10 114.3(2)
O2 C9 H9 109.7
C11 C9 H9 109.7
C10 C9 H9 109.7
F3 C10 F2 107.9(2)
F3 C10 F1 107.5(3)
F2 C10 F1 107.7(2)
F3 C10 C9 113.3(2)
F2 C10 C9 111.1(3)
F1 C10 C9 109.1(2)
F6 C11 F5 107.7(3)
F6 C11 F4 107.8(3)
F5 C11 F4 107.1(3)
F6 C11 C9 112.1(3)
F5 C11 C9 112.8(3)
F4 C11 C9 109.1(3)
C1 O2 C9 116.3(2)
loop_
_geom_bond_atom_site_label_1
_geom_bond_atom_site_label_2
_geom_bond_distance
C1 O1 1.193(3)
C1 O2 1.377(3)
C1 C2 1.488(4)
C2 C7 1.393(4)
C2 C3 1.398(4)
C3 C4 1.380(4)
C3 H3 0.9500
C4 C5 1.381(5)
C4 H4 0.9500
C5 C6 1.401(4)
C5 H5 0.9500
C6 C7 1.392(4)
C6 C8 1.504(4)
C7 Br1 1.899(3)
C8 H8A 0.9800
C8 H8B 0.9800
C8 H8C 0.9800
C9 O2 1.424(3)
C9 C11 1.521(4)
C9 C10 1.521(4)
C9 H9 1.0000
C10 F3 1.325(4)
C10 F2 1.333(4)
C10 F1 1.335(4)
C11 F6 1.326(4)
C11 F5 1.334(4)
C11 F4 1.335(4)
loop_
_geom_torsion_atom_site_label_1
_geom_torsion_atom_site_label_2
_geom_torsion_atom_site_label_3
_geom_torsion_atom_site_label_4
_geom_torsion
O1 C1 C2 C7 -42.4(4)
O2 C1 C2 C7 139.4(3)
O1 C1 C2 C3 135.5(3)
O2 C1 C2 C3 -42.7(3)
C7 C2 C3 C4 0.3(4)
C1 C2 C3 C4 -177.7(2)
C2 C3 C4 C5 -1.3(4)
C3 C4 C5 C6 0.6(4)
C4 C5 C6 C7 1.1(4)
C4 C5 C6 C8 -178.6(3)
C5 C6 C7 C2 -2.1(4)
C8 C6 C7 C2 177.5(3)
C5 C6 C7 Br1 -179.38(19)
C8 C6 C7 Br1 0.3(4)
C3 C2 C7 C6 1.5(4)
C1 C2 C7 C6 179.4(2)
C3 C2 C7 Br1 178.7(2)
C1 C2 C7 Br1 -3.4(4)
O2 C9 C10 F3 51.7(3)
C11 C9 C10 F3 -65.8(3)
O2 C9 C10 F2 173.4(2)
C11 C9 C10 F2 55.9(3)
O2 C9 C10 F1 -68.0(3)
C11 C9 C10 F1 174.6(2)
O2 C9 C11 F6 178.5(2)
C10 C9 C11 F6 -63.7(3)
O2 C9 C11 F5 -59.7(3)
C10 C9 C11 F5 58.0(3)
O2 C9 C11 F4 59.1(3)
C10 C9 C11 F4 176.9(2)
O1 C1 O2 C9 -4.5(4)
C2 C1 O2 C9 173.8(2)
C11 C9 O2 C1 -118.2(3)
C10 C9 O2 C1 119.3(2)
