#------------------------------------------------------------------------------
#$Date: 2015-08-19 17:54:14 +0300 (Wed, 19 Aug 2015) $
#$Revision: 153520 $
#$URL: svn://www.crystallography.net/cod/cif/4/03/13/4031353.cif $
#------------------------------------------------------------------------------
#
# This file is available in the Crystallography Open Database (COD),
# http://www.crystallography.net/
#
# All data on this site have been placed in the public domain by the
# contributors.
#
data_4031353
loop_
_publ_author_name
'A.M. Astakhov'
'A.D. Vasiliev'
'M.S. Molokeev'
'V.A. Revenko'
'R.S. Stepanov'
_publ_section_title
;
 Nitroimines: II. Structure of Nitroamino-1,2,4-triazoles
;
_journal_issue                   6
_journal_name_full               'Russian Journal of Organic Chemistry'
_journal_page_first              910
_journal_page_last               915
_journal_paper_doi               10.1007/s11178-005-0265-0
_journal_volume                  41
_journal_year                    2005
_chemical_formula_sum            'C3 H7 N5 O3'
_chemical_formula_weight         161.14
_space_group_crystal_system      monoclinic
_space_group_IT_number           14
_space_group_name_Hall           '-P 2ybc'
_space_group_name_H-M_alt        'P 1 21/c 1'
_symmetry_space_group_name_Hall  '-P 2ybc'
_symmetry_space_group_name_H-M   'P 1 21/c 1'
_atom_sites_solution_hydrogens   mixed
_audit_creation_method           SHELXL-2014/7
_cell_angle_alpha                90
_cell_angle_beta                 99.428(4)
_cell_angle_gamma                90
_cell_formula_units_Z            4
_cell_length_a                   5.1186(2)
_cell_length_b                   13.5688(9)
_cell_length_c                   10.0630(6)
_cell_measurement_temperature    293(2)
_cell_volume                     689.47(7)
_computing_structure_refinement  'SHELXL-2014/7 (Sheldrick, 2014)'
_diffrn_ambient_temperature      293(2)
_diffrn_measured_fraction_theta_full 0.991
_diffrn_measured_fraction_theta_max 0.994
_diffrn_radiation_wavelength     1.54056
_diffrn_reflns_av_R_equivalents  0.0140
_diffrn_reflns_av_unetI/netI     0.0178
_diffrn_reflns_laue_measured_fraction_full 0.991
_diffrn_reflns_laue_measured_fraction_max 0.994
_diffrn_reflns_limit_h_max       0
_diffrn_reflns_limit_h_min       -6
_diffrn_reflns_limit_k_max       16
_diffrn_reflns_limit_k_min       0
_diffrn_reflns_limit_l_max       12
_diffrn_reflns_limit_l_min       -12
_diffrn_reflns_number            1456
_diffrn_reflns_point_group_measured_fraction_full 0.991
_diffrn_reflns_point_group_measured_fraction_max 0.994
_diffrn_reflns_theta_full        25.000
_diffrn_reflns_theta_max         69.944
_diffrn_reflns_theta_min         5.517
_exptl_absorpt_coefficient_mu    1.190
_exptl_crystal_density_diffrn    1.552
_exptl_crystal_F_000             336
_refine_diff_density_max         0.288
_refine_diff_density_min         -0.169
_refine_diff_density_rms         0.050
_refine_ls_extinction_coef       0.0187(17)
_refine_ls_extinction_expression Fc^*^=kFc[1+0.001xFc^2^\l^3^/sin(2\q)]^-1/4^
_refine_ls_extinction_method     'SHELXL-2014/7 (Sheldrick 2014'
_refine_ls_goodness_of_fit_ref   1.133
_refine_ls_hydrogen_treatment    refU
_refine_ls_matrix_type           full
_refine_ls_number_parameters     118
_refine_ls_number_reflns         1302
_refine_ls_number_restraints     0
_refine_ls_restrained_S_all      1.133
_refine_ls_R_factor_all          0.0455
_refine_ls_R_factor_gt           0.0366
_refine_ls_shift/su_max          0.046
_refine_ls_shift/su_mean         0.008
_refine_ls_structure_factor_coef Fsqd
_refine_ls_weighting_details
'w=1/[\s^2^(Fo^2^)+(0.0521P)^2^+0.2115P] where P=(Fo^2^+2Fc^2^)/3'
_refine_ls_weighting_scheme      calc
_refine_ls_wR_factor_gt          0.1015
_refine_ls_wR_factor_ref         0.1057
_reflns_Friedel_coverage         0.000
_reflns_friedel_fraction_full    .
_reflns_friedel_fraction_max     .
_reflns_number_gt                1112
_reflns_number_total             1302
_reflns_threshold_expression     'I > 2\s(I)'
_cod_data_source_file            C3H7N5O3.cif
_cod_data_source_block           a
_cod_database_code               4031353
_shelx_shelxl_version_number     2014/7
_shelx_space_group_comment
;
The symmetry employed for this shelxl refinement is uniquely defined
by the following loop, which should always be used as a source of
symmetry information in preference to the above space-group names.
They are only intended as comments.
;
_shelx_res_file
;

    5M3NRTZ.res created by SHELXL-2014/7

TITL 5M3NRTZ  P21/c
CELL 1.54056  5.1186  13.5688  10.0630  90      99.428   90
ZERR    4.00  0.0002   0.0009   0.0006   0.0     0.004   0.0
LATT 1
SYMM -X, 0.5+Y, 0.5-Z
SFAC   C  O  N  H
UNIT   12 12 20 28
ACTA 50
omit -3 8 1
omit 3 1 2
omit -2 4 2
L.S. 4
FMAP 2
PLAN 20
BOND $H
WGHT    0.052100    0.211500
EXTI    0.018650
FVAR       0.38795   0.17840
N2    3    0.255906    0.577773    0.462349    11.00000    0.03470    0.03493 =
         0.03348   -0.00203    0.01022   -0.00364
O1    2    0.474884    0.688863    0.590741    11.00000    0.05298    0.04288 =
         0.03969   -0.00784    0.00619   -0.00551
N3    3    0.043324    0.454060    0.325512    11.00000    0.03130    0.03725 =
         0.03310   -0.00213    0.00953   -0.00236
H1    4    0.475121    0.565216    0.212411    11.00000    0.06797
N1    3    0.449184    0.644492    0.481075    11.00000    0.03488    0.03214 =
         0.03624    0.00176    0.00631    0.00112
N4    3    0.343217    0.526221    0.237042    11.00000    0.03533    0.03873 =
         0.03294   -0.00064    0.01123   -0.00194
H2    4   -0.055707    0.436950    0.388226    11.00000    0.05554
O2    2    0.593993    0.660653    0.396623    11.00000    0.04818    0.05294 =
         0.04928   -0.00224    0.02025   -0.01442
C1    1    0.226564    0.526099    0.345486    11.00000    0.02913    0.03271 =
         0.03111    0.00271    0.00725    0.00326
C2    1    0.055896    0.411868    0.204609    11.00000    0.03368    0.04196 =
         0.03573   -0.00444    0.00656    0.00130
N5    3    0.236525    0.454571    0.147126    11.00000    0.03880    0.04751 =
         0.03324   -0.00488    0.01034   -0.00146
C3    1   -0.110300    0.327487    0.148590    11.00000    0.04919    0.05977 =
         0.05587   -0.02122    0.01288   -0.01447
AFIX  33
H3    4   -0.227856    0.309528    0.209752    11.00000   21.00000
H4    4   -0.211969    0.345794    0.063379    11.00000   21.00000
H5    4    0.001244    0.272465    0.136341    11.00000   21.00000
AFIX   0
O     2    0.278329    0.378542    0.877970    11.00000    0.05461    0.04449 =
         0.04008    0.00288    0.01815    0.00284
HO1   4    0.322292    0.314621    0.891250    11.00000    0.05989
HO2   4    0.279216    0.403511    0.954105    11.00000    0.07273
HKLF 4

REM  5M3NRTZ  P21/c
REM R1 =  0.0366 for    1112 Fo > 4sig(Fo)  and  0.0455 for all    1302 data
REM    118 parameters refined using      0 restraints

END

WGHT      0.0628      0.2261

REM Highest difference peak  0.288,  deepest hole -0.169,  1-sigma level  0.050
Q1    1  -0.0821  0.3124  0.0579  11.00000  0.05    0.29
Q2    1  -0.0490  0.2618  0.2161  11.00000  0.05    0.28
Q3    1  -0.3100  0.3422  0.1553  11.00000  0.05    0.24
Q4    1  -0.0346  0.3691  0.1744  11.00000  0.05    0.23
Q5    1   0.2717  0.5486  0.4126  11.00000  0.05    0.20
Q6    1   0.4478  0.7641  0.5771  11.00000  0.05    0.17
Q7    1   0.1412  0.4899  0.3448  11.00000  0.05    0.17
Q8    1   0.3392  0.5348  0.5118  11.00000  0.05    0.13
Q9    1   0.5145  0.7563  0.4038  11.00000  0.05    0.13
Q10   1   0.2704  0.5366  0.2918  11.00000  0.05    0.13
Q11   1   0.5376  0.6198  0.6233  11.00000  0.05    0.13
Q12   1   0.3117  0.6045  0.4649  11.00000  0.05    0.12
Q13   1  -0.0348  0.4110  0.9116  11.00000  0.05    0.10
Q14   1   0.2602  0.4517  0.0896  11.00000  0.05    0.10
Q15   1   0.5592  0.5571  0.5766  11.00000  0.05    0.09
Q16   1   0.2732  0.4964  0.1795  11.00000  0.05    0.09
Q17   1   0.0096  0.4426  0.2588  11.00000  0.05    0.09
Q18   1   0.5125  0.6036  0.3438  11.00000  0.05    0.09
Q19   1   0.1661  0.3264  0.8393  11.00000  0.05    0.09
Q20   1   0.1360  0.4225  0.1839  11.00000  0.05    0.08
;
_shelx_res_checksum              56080
_shelx_hkl_file
;
   0   0 -12    0.34    0.13   1-0.15921-0.14641 0.36229-0.36178-0.93214-0.93214
   0   1 -12    0.00    0.12   1-0.16315-0.14247 0.41370-0.29954-0.91042-0.95390
   0   2 -12    0.09    0.10   1-0.16649-0.13914 0.45445-0.22664-0.89065-0.97370
  -1   1 -11    5.73    0.20   1-0.33113-0.25443 0.50112-0.38699-0.84313-0.91590
   0   1 -11   10.76    0.38   1-0.15553-0.12463 0.57184-0.45772-0.82024-0.88872
   0   2 -11    9.20    0.33   1-0.16123-0.11894 0.61528-0.38751-0.78780-0.92119
  -1   2 -11    0.00    0.14   1-0.33532-0.25024 0.54253-0.31475-0.81491-0.94414
  -1   3 -11    0.23    0.13   1-0.33795-0.24761 0.57458-0.23315-0.79089-0.96819
   0   3 -11    1.29    0.06   1-0.16604-0.11412 0.65008-0.30865-0.75887-0.95015
   0   4 -11    1.90    0.08   1-0.16968-0.11049 0.67626-0.22118-0.73516-0.97390
  -1   4 -11    4.19    0.13   1-0.33865-0.24691 0.59705-0.14196-0.77307-0.98605
  -1   5 -11    4.48    0.14   1-0.33698-0.24858 0.60900-0.04026-0.76373-0.99542
   0   5 -11    5.82    0.19   1-0.17184-0.10833 0.69360-0.12487-0.71846-0.99062
   0   6 -11    1.34    0.05   1-0.17216-0.10801 0.70123-0.01884-0.71089-0.99823
  -2   0 -10   15.82    0.50   1-0.50194-0.36354 0.46844-0.46800-0.79964-0.85406
  -1   0 -10    1.49    0.07   1-0.32576-0.23432 0.57643-0.57600-0.79283-0.81081
   0   0 -10    1.62    0.08   1-0.13847-0.11621 0.62988-0.62945-0.77679-0.77679
   0   1 -10    3.73    0.12   1-0.14687-0.10782 0.68193-0.56786-0.73109-0.82252
  -1   1 -10    0.00    0.18   1-0.33354-0.22654 0.62664-0.51256-0.74965-0.85402
  -2   1 -10    5.66    0.20   1-0.50818-0.35730 0.51609-0.40199-0.76363-0.89011
  -2   2 -10    4.76    0.16   1-0.51236-0.35312 0.55439-0.32665-0.73113-0.92264
  -1   2 -10    1.20    0.07   1-0.33998-0.22011 0.66792-0.44018-0.70900-0.89470
   0   2 -10   21.75    0.69   1-0.15460-0.10009 0.72526-0.49753-0.68736-0.86627
   0   3 -10    1.06    0.07   1-0.16137-0.09333 0.76023-0.41884-0.64745-0.90622
  -1   3 -10    8.81    0.30   1-0.34475-0.21534 0.70078-0.35939-0.67281-0.93092
  -2   3 -10    0.89    0.05   1-0.51410-0.35138 0.58393-0.24253-0.70422-0.94958
  -2   4 -10    1.68    0.06   1-0.51304-0.35245 0.60509-0.15003-0.68486-0.96897
  -1   4 -10    4.99    0.15   1-0.34761-0.21249 0.72579-0.27074-0.64280-0.96097
   0   4 -10   14.61    0.48   1-0.16689-0.08781 0.78736-0.33232-0.61303-0.94067
   0   5 -10    0.00    0.17   1-0.17093-0.08377 0.80718-0.23848-0.58562-0.96811
  -1   5 -10    6.59    0.21   1-0.34834-0.21176 0.74341-0.17471-0.62056-0.98324
  -2   5 -10    1.33    0.05   1-0.50876-0.35674 0.61775-0.04904-0.67509-0.97876
  -1   6 -10   15.27    0.49   1-0.34671-0.21339 0.75380-0.07145-0.60769-0.99613
   0   6 -10    0.13    0.13   1-0.17329-0.08142 0.82005-0.13770-0.56668-0.98708
   0   7 -10    1.75    0.07   1-0.17373-0.08098 0.82597-0.02997-0.55774-0.99605
  -1   7 -10    0.56    0.05   1-0.34243-0.21767 0.75639 0.03961-0.60614-0.99772
  -1   8 -10    2.45    0.08   1-0.33486-0.22524 0.74913 0.16053-0.61893-0.98495
   0   8 -10    0.13    0.04   1-0.17192-0.08279 0.82415 0.08551-0.56077-0.99305
   0   9 -10    1.25    0.05   1-0.16729-0.08743 0.81210 0.21120-0.57911-0.97474
  -3   1  -9   13.80    0.44   1-0.67549-0.46992 0.46734-0.35328-0.67352-0.87492
  -2   1  -9    1.20    0.07   1-0.52299-0.31702 0.62457-0.51052-0.65807-0.84031
  -1   1  -9    1.87    0.08   1-0.33570-0.19892 0.71914-0.60510-0.65540-0.79291
   0   1  -9   18.25    0.58   1-0.13784-0.09138 0.76663-0.65259-0.64144-0.75680
   0   2  -9   30.34    0.84   1-0.14763-0.08160 0.80865-0.58096-0.58618-0.81209
  -1   2  -9    2.50    0.11   1-0.34417-0.19045 0.75845-0.53076-0.60259-0.84575
  -2   2  -9    0.18    0.17   1-0.52951-0.31051 0.66013-0.43243-0.61256-0.88585
  -3   2  -9    1.32    0.06   1-0.67892-0.46650 0.49995-0.27224-0.64187-0.90660
  -3   3  -9    4.49    0.15   1-0.67891-0.46651 0.52439-0.18302-0.61841-0.93009
  -2   3  -9    0.33    0.17   1-0.53331-0.30671 0.68762-0.34626-0.57366-0.92477
  -1   3  -9   17.54    0.60   1-0.35064-0.18399 0.78915-0.44780-0.55517-0.89320
   0   3  -9   29.69    0.82   1-0.15625-0.07298 0.84183-0.50049-0.53549-0.86282
   0   4  -9    3.90    0.13   1-0.16342-0.06581 0.86711-0.41212-0.49121-0.90713
  -1   4  -9   23.64    0.72   1-0.35490-0.17973 0.81234-0.35734-0.51492-0.93349
  -2   4  -9    2.45    0.10   1-0.53417-0.30585 0.70829-0.25328-0.54304-0.95543
  -3   4  -9    0.00    0.12   1-0.67494-0.47048 0.54160-0.08658-0.60516-0.94338
  -3   5  -9    0.13    0.11   1-0.66634-0.47909 0.55165 0.01702-0.60429-0.94427
  -2   5  -9    0.00    0.17   1-0.53195-0.30808 0.72315-0.15449-0.52201-0.97650
  -1   5  -9    1.71    0.08   1-0.35684-0.17779 0.82915-0.26050-0.48323-0.96520
   0   5  -9    4.99    0.15   1-0.16894-0.06029 0.88554-0.31689-0.45484-0.94353
   0   6  -9    0.24    0.06   1-0.17267-0.05657 0.89810-0.21579-0.42757-0.97083
  -1   6  -9    5.75    0.18   1-0.35641-0.17822 0.84050-0.15819-0.46124-0.98723
  -2   6  -9    0.00    0.15   1-0.52651-0.31351 0.73280-0.05048-0.51174-0.98679
  -2   7  -9    1.21    0.06   1-0.51765-0.32238 0.73705 0.05892-0.51370-0.98486
  -1   7  -9    0.89    0.06   1-0.35357-0.18106 0.84692-0.05096-0.44997-0.99853
   0   7  -9    0.92    0.06   1-0.17448-0.05476 0.90550-0.10954-0.41044-0.98799
   0   8  -9    0.51    0.19   1-0.17425-0.05499 0.90809 0.00152-0.40447-0.99399
  -1   8  -9    0.00    0.15   1-0.34819-0.18644 0.84840 0.06122-0.45066-0.99787
  -2   8  -9    0.10    0.11   1-0.50479-0.33525 0.73448 0.17514-0.53040-0.96819
  -1   9  -9    0.00    0.13   1-0.33994-0.19470 0.84395 0.17932-0.46531-0.98325
   0   9  -9    5.58    0.17   1-0.17177-0.05747 0.90555 0.11771-0.41107-0.98742
   0  10  -9    0.43    0.16   1-0.16662-0.06262 0.89644 0.24048-0.43267-0.96586
  -1  10  -9    0.09    0.11   1-0.32797-0.20667 0.83059 0.30634-0.49798-0.95061
   0  11  -9    0.79    0.04   1-0.15785-0.07140 0.87660 0.37398-0.47457-0.92398
  -4   0  -8    0.42    0.04   1-0.80325-0.62208 0.31163-0.31126-0.63253-0.81059
  -3   0  -8    8.94    0.31   1-0.69033-0.42960 0.52879-0.52843-0.60043-0.79263
  -2   0  -8   18.52    0.64   1-0.52636-0.28818 0.66189-0.66154-0.61297-0.73002
  -1   0  -8    1.65    0.08   1-0.32634-0.18280 0.74405-0.74370-0.62883-0.66410
   0   0  -8   19.83    0.64   1-0.11572-0.08803 0.78351-0.78317-0.62143-0.62143
   0   1  -8   26.09    0.74   1-0.12876-0.07499 0.83415-0.72016-0.55038-0.69251
  -1   1  -8    1.35    0.08   1-0.33905-0.17010 0.79072-0.67672-0.55863-0.73433
  -2   1  -8    1.19    0.07   1-0.53796-0.27658 0.70233-0.58833-0.54827-0.79475
  -3   1  -8   15.60    0.49   1-0.69982-0.42012 0.56420-0.45019-0.54707-0.84601
  -3   2  -8    1.43    0.07   1-0.70613-0.41382 0.59033-0.36266-0.50167-0.89144
  -2   2  -8    2.74    0.10   1-0.54661-0.26793 0.73264-0.50498-0.48987-0.85318
  -1   2  -8    0.62    0.06   1-0.34955-0.15960 0.82651-0.59886-0.49281-0.80017
   0   2  -8    0.32    0.17   1-0.14077-0.06299 0.87381-0.64617-0.48246-0.76045
   0   3  -8    6.39    0.22   1-0.15129-0.05247 0.90360-0.56230-0.42040-0.82255
  -1   3  -8    1.22    0.08   1-0.35748-0.15168 0.85297-0.51166-0.43404-0.85898
  -2   3  -8   33.46    0.89   1-0.55193-0.26262 0.75490-0.41359-0.44017-0.90291
  -3   3  -8   11.38    0.39   1-0.70877-0.41118 0.60969-0.26837-0.46645-0.92670
  -3   4  -8    1.08    0.06   1-0.70742-0.41253 0.62451-0.16953-0.44268-0.95050
  -2   4  -8    0.05    0.17   1-0.55377-0.26079 0.77124-0.31627-0.40067-0.94244
  -1   4  -8    0.26    0.15   1-0.36267-0.14649 0.87192-0.41696-0.38424-0.90881
   0   4  -8    5.84    0.20   1-0.16003-0.04373 0.92505-0.47009-0.36633-0.87665
   0   5  -8    3.10    0.11   1-0.16681-0.03696 0.93981-0.37120-0.32179-0.92122
  -1   5  -8    6.63    0.22   1-0.36515-0.14401 0.88514-0.31653-0.34465-0.94843
  -2   5  -8   22.13    0.69   1-0.55215-0.26241 0.78343-0.21480-0.37217-0.97098
  -3   5  -8    0.12    0.12   1-0.70187-0.41808 0.63631-0.06768-0.43106-0.96215
  -3   6  -8    3.35    0.11   1-0.69193-0.42803 0.64569 0.03659-0.43225-0.96099
  -2   6  -8    0.46    0.06   1-0.54722-0.26734 0.79267-0.11039-0.35507-0.98810
  -1   6  -8    1.41    0.08   1-0.36503-0.14413 0.89413-0.21186-0.31600-0.97711
   0   6  -8   18.96    0.62   1-0.17155-0.03222 0.94944-0.26718-0.28776-0.95529
   0   7  -8   20.08    0.66   1-0.17424-0.02953 0.95520-0.15929-0.26484-0.97824
  -1   7  -8    5.00    0.17   1-0.36246-0.14670 0.89995-0.10402-0.29873-0.99441
  -2   7  -8    0.00    0.17   1-0.53913-0.27543 0.79955-0.00362-0.34975-0.99346
  -3   7  -8    1.59    0.06   1-0.67716-0.44280 0.65205 0.14388-0.44761-0.94566
  -2   8  -8    0.11    0.16   1-0.52791-0.28666 0.80395 0.10563-0.35690-0.98633
  -1   8  -8    0.05    0.17   1-0.35756-0.15161 0.90316 0.00641-0.29327-0.99990
   0   8  -8   10.49    0.35   1-0.17488-0.02889 0.95792-0.04835-0.25348-0.98963
   0   9  -8    0.53    0.19   1-0.17340-0.03037 0.95795 0.06527-0.25423-0.98891
  -1   9  -8    0.24    0.15   1-0.35030-0.15887 0.90377 0.11946-0.30034-0.99286
  -2   9  -8    0.00    0.13   1-0.51330-0.30127 0.80488 0.21835-0.37817-0.96509
  -2  10  -8    0.80    0.05   1-0.49436-0.32021 0.79971 0.33718-0.41738-0.92592
  -1  10  -8    2.53    0.07   1-0.34046-0.16871 0.90096 0.23592-0.32144-0.97179
   0  10  -8    3.02    0.11   1-0.16967-0.03410 0.95500 0.18188-0.26809-0.97507
   0  11  -8    2.70    0.08   1-0.16333-0.04045 0.94782 0.30271-0.29715-0.94605
  -1  11  -8    0.38    0.14   1-0.32736-0.18181 0.89254 0.35799-0.35990-0.93336
   0  12  -8    1.03    0.05   1-0.15351-0.05028 0.93314 0.43105-0.34613-0.89710
  -4   1  -7    0.25    0.17   1-0.83835-0.56152 0.44526-0.33128-0.44784-0.83996
  -3   1  -7    0.83    0.07   1-0.72098-0.37349 0.62525-0.51128-0.41310-0.82463
  -2   1  -7   10.69    0.35   1-0.55487-0.23420 0.75747-0.64350-0.43057-0.75709
  -1   1  -7   41.04    0.89   1-0.34488-0.13881 0.84626-0.73230-0.45738-0.68022
   0   1  -7    1.32    0.06   1-0.11990-0.05839 0.88849-0.77454-0.45686-0.63067
   0   2  -7    8.09    0.27   1-0.13441-0.04387 0.92443-0.69682-0.37435-0.71322
  -1   2  -7   33.82    0.82   1-0.35748-0.12621 0.87650-0.64889-0.37692-0.76070
  -2   2  -7   12.51    0.42   1-0.56569-0.22339 0.77942-0.55180-0.35860-0.82910
  -3   2  -7    0.45    0.20   1-0.73006-0.36442 0.64058-0.41295-0.35476-0.88300
  -4   2  -7    9.84    0.29   1-0.84399-0.55589 0.46061-0.23298-0.40962-0.87821
  -4   3  -7    0.78    0.05   1-0.84525-0.55463 0.47179-0.13050-0.38629-0.90157
  -3   3  -7    3.71    0.13   1-0.73480-0.35968 0.65044-0.30916-0.31045-0.92734
  -2   3  -7   28.12    0.80   1-0.57218-0.21691 0.79343-0.45215-0.29883-0.88889
  -1   3  -7    9.57    0.33   1-0.36659-0.11709 0.89637-0.55511-0.30626-0.83140
   0   3  -7   28.32    0.73   1-0.14696-0.03133 0.94892-0.60766-0.29978-0.78781
   0   4  -7    5.61    0.22   1-0.15721-0.02109 0.96442-0.50951-0.23574-0.85189
  -1   4  -7   15.65    0.50   1-0.37218-0.11151 0.90878-0.45386-0.24743-0.89026
  -2   4  -7   21.38    0.71   1-0.57429-0.21479 0.80284-0.34791-0.25239-0.93536
  -3   4  -7    2.14    0.09   1-0.73493-0.35955 0.65849-0.20356-0.28060-0.95722
  -4   4  -7    0.39    0.16   1-0.84146-0.55842 0.48227-0.02733-0.37846-0.90943
  -4   5  -7    2.04    0.06   1-0.83197-0.56791 0.49374 0.07486-0.38620-0.90171
  -3   5  -7    4.36    0.15   1-0.73046-0.36402 0.66705-0.09846-0.26456-0.97329
  -2   5  -7   15.46    0.50   1-0.57230-0.21678 0.81017-0.24159-0.21926-0.96853
  -1   5  -7   14.71    0.50   1-0.37446-0.10923 0.91637-0.34780-0.20132-0.93640
   0   5  -7    2.46    0.10   1-0.16504-0.01325 0.97347-0.40490-0.18370-0.90396
   0   6  -7    0.40    0.20   1-0.17050-0.00780 0.97831-0.29609-0.14428-0.94340
  -1   6  -7   15.27    0.48   1-0.37382-0.10988 0.92120-0.23898-0.16807-0.96968
  -2   6  -7   11.95    0.44   1-0.56665-0.22244 0.81697-0.13474-0.19886-0.98896
  -3   6  -7    1.00    0.07   1-0.72156-0.37293 0.67703 0.00521-0.26145-0.97643
  -3   7  -7    0.31    0.14   1-0.70838-0.38611 0.68825 0.10764-0.27083-0.96708
  -2   7  -7    2.67    0.09   1-0.55780-0.23129 0.82391-0.02802-0.19062-0.99723
  -1   7  -7   11.20    0.39   1-0.37063-0.11306 0.92465-0.12877-0.14740-0.99038
   0   7  -7    1.23    0.07   1-0.17369-0.00461 0.98068-0.18481-0.11754-0.97017
   0   8  -7   10.72    0.34   1-0.17473-0.00358 0.98173-0.07220-0.10329-0.98446
  -1   8  -7   10.36    0.33   1-0.36522-0.11848 0.92749-0.01795-0.13903-0.99878
  -2   8  -7    2.23    0.09   1-0.54612-0.24297 0.83099 0.07855-0.19426-0.99362
  -3   8  -7    2.44    0.08   1-0.69088-0.40361 0.69964 0.20991-0.29324-0.94470
  -3   9  -7    4.59    0.14   1-0.66846-0.42604 0.70912 0.31408-0.33109-0.90689
  -2   9  -7    0.00    0.15   1-0.53179-0.25731 0.83770 0.18549-0.21015-0.97776
  -1   9  -7    0.00    0.18   1-0.35776-0.12594 0.92993 0.09325-0.14289-0.99495
   0   9  -7    2.67    0.10   1-0.17368-0.00463 0.98205 0.04113-0.10138-0.98639
   0  10  -7    5.67    0.19   1-0.17055-0.00776 0.98169 0.15515-0.11200-0.97581
  -1  10  -7    7.72    0.24   1-0.34827-0.13544 0.93168 0.20516-0.15942-0.97846
  -2  10  -7    1.14    0.06   1-0.51462-0.27448 0.84289 0.29396-0.23969-0.94825
  -2  11  -7    4.03    0.15   1-0.49382-0.29529 0.84433 0.40617-0.28638-0.90159
  -1  11  -7    1.88    0.07   1-0.33648-0.14723 0.93176 0.31873-0.19001-0.94790
   0  11  -7    0.09    0.14   1-0.16519-0.01312 0.98010 0.27039-0.13598-0.95186
   0  12  -7    0.16    0.16   1-0.15721-0.02110 0.97588 0.38826-0.17546-0.91241
  -1  12  -7    0.00    0.13   1-0.32168-0.16203 0.92809 0.43605-0.23802-0.89992
   0  13  -7    2.67    0.08   1-0.14567-0.03264 0.96582 0.51197-0.23564-0.85226
  -3   0  -6    1.69    0.08   1-0.72286-0.34614 0.64776-0.64749-0.35603-0.72631
  -2   0  -6   24.75    0.70   1-0.55627-0.20734 0.76913-0.76887-0.40182-0.63046
  -1   0  -6  119.98    1.35   1-0.33551-0.12270 0.84982-0.84956-0.45624-0.52597
   0   0  -6    9.52    0.32   1-0.09204-0.06077 0.88473-0.88448-0.46607-0.46607
   0   1  -6   20.44    0.54   1-0.11154-0.04128 0.93174-0.81784-0.35943-0.57275
  -1   1  -6    6.76    0.23   1-0.35479-0.10342 0.88744-0.77352-0.34868-0.63356
  -2   1  -6    0.12    0.17   1-0.57472-0.18889 0.79133-0.67741-0.30020-0.73210
  -3   1  -6    0.95    0.08   1-0.73966-0.32934 0.65675-0.54282-0.26641-0.81597
  -3   2  -6   16.93    0.56   1-0.75193-0.31708 0.65520-0.42762-0.19547-0.88693
  -2   2  -6    8.38    0.29   1-0.58790-0.17571 0.80019-0.57261-0.21374-0.81859
  -1   2  -6    2.39    0.08   1-0.36955-0.08866 0.90896-0.68139-0.25122-0.73105
   0   2  -6   63.20    0.93   1-0.12902-0.02380 0.96188-0.73432-0.25929-0.67291
   0   3  -6   29.97    0.66   1-0.14374-0.00908 0.97836-0.63715-0.17066-0.76158
  -1   3  -6    5.61    0.19   1-0.37936-0.07886 0.91903-0.57781-0.16817-0.81414
  -2   3  -6    0.62    0.07   1-0.59523-0.16839 0.80213-0.46089-0.14534-0.88702
  -3   3  -6    2.57    0.10   1-0.75881-0.31020 0.65101-0.30977-0.14504-0.93739
  -4   3  -6   11.20    0.37   1-0.87150-0.50291 0.48577-0.14453-0.20945-0.92304
  -4   4  -6   10.09    0.37   1-0.87113-0.50328 0.48787-0.03297-0.19822-0.93431
  -3   4  -6    1.03    0.08   1-0.76003-0.30899 0.64981-0.19492-0.11358-0.96888
  -2   4  -6    1.09    0.07   1-0.59686-0.16676 0.80235-0.34747-0.09490-0.93750
  -1   4  -6   13.46    0.46   1-0.38446-0.07376 0.92234-0.46747-0.10136-0.88097
   0   4  -6    0.75    0.05   1-0.15540 0.00257 0.98525-0.53038-0.09654-0.83572
   0   5  -6   13.55    0.45   1-0.16401 0.01118 0.98640-0.41788-0.03810-0.89420
  -1   5  -6   48.89    0.96   1-0.38551-0.07272 0.92262-0.35409-0.05078-0.93159
  -2   5  -6    0.21    0.20   1-0.59345-0.17016 0.80402-0.23548-0.06068-0.97175
  -3   5  -6   14.47    0.49   1-0.75582-0.31319 0.65427-0.08572-0.09816-0.98434
  -4   5  -6    0.74    0.06   1-0.86512-0.50929 0.49775 0.07080-0.20297-0.92959
  -4   6  -6    0.06    0.15   1-0.85331-0.52110 0.51483 0.16737-0.22152-0.91108
  -3   6  -6    5.12    0.16   1-0.74671-0.32231 0.66462 0.01758-0.09602-0.98651
  -2   6  -6    6.31    0.21   1-0.58590-0.17772 0.80843-0.12624-0.04061-0.99185
  -1   6  -6    1.10    0.07   1-0.38329-0.07493 0.92237-0.24019-0.01544-0.96695
   0   6  -6    7.66    0.27   1-0.16982 0.01699 0.98491-0.30274 0.00483-0.93716
   0   7  -6   84.65    1.29   1-0.17310 0.02027 0.98292-0.18709 0.03311-0.96547
  -1   7  -6    0.00    0.17   1-0.37853-0.07970 0.92301-0.12718 0.00590-0.98833
  -2   7  -6    1.31    0.08   1-0.57508-0.18854 0.81573-0.01989-0.03301-0.99948
  -3   7  -6    1.13    0.07   1-0.73327-0.33575 0.67979 0.11606-0.10536-0.97720
  -4   7  -6    0.36    0.15   1-0.83531-0.53910 0.53697 0.25889-0.25355-0.87907
  -3   8  -6    0.39    0.17   1-0.71595-0.35308 0.69813 0.21138-0.12557-0.95701
  -2   8  -6    8.69    0.26   1-0.56169-0.20194 0.82545 0.08405-0.03681-0.99571
  -1   8  -6   76.07    1.29   1-0.37175-0.08648 0.92518-0.01569 0.01437-0.99683
   0   8  -6    0.13    0.17   1-0.17412 0.02129 0.98166-0.07218 0.04777-0.98016
   0   9  -6   18.77    0.65   1-0.17308 0.02024 0.98171 0.04143 0.04969-0.98211
  -1   9  -6    3.12    0.11   1-0.36329-0.09494 0.92894 0.09420 0.01071-0.99320
  -2   9  -6    4.18    0.14   1-0.54617-0.21746 0.83680 0.18635-0.05170-0.98085
  -3   9  -6    1.40    0.07   1-0.69489-0.37414 0.71779 0.30537-0.15739-0.92523
  -3  10  -6    0.00    0.14   1-0.66964-0.39939 0.73664 0.40018-0.20339-0.87926
  -2  10  -6    1.37    0.07   1-0.52864-0.23499 0.84881 0.28799-0.07819-0.95440
  -1  10  -6    1.46    0.08   1-0.35326-0.10498 0.93397 0.20282-0.00485-0.97767
   0  10  -6   18.70    0.61   1-0.17006 0.01722 0.98306 0.15373 0.03936-0.97181
   0  11  -6    0.14    0.20   1-0.16504 0.01220 0.98528 0.26516 0.01667-0.94915
  -1  11  -6    0.19    0.17   1-0.34155-0.11669 0.93957 0.31088-0.03284-0.94971
  -2  11  -6    2.93    0.10   1-0.50883-0.25481 0.86018 0.39028-0.11797-0.91464
  -2  12  -6    5.38    0.19   1-0.48578-0.27786 0.86875 0.49536-0.17504-0.85760
  -1  12  -6    0.87    0.06   1-0.32777-0.13048 0.94453 0.41958-0.07494-0.90764
   0  12  -6    2.35    0.08   1-0.15782 0.00497 0.98745 0.37665-0.01942-0.91310
   0  13  -6    1.45    0.06   1-0.14788-0.00497 0.98786 0.48990-0.07163-0.86092
  -1  13  -6    0.10    0.13   1-0.31100-0.14725 0.94660 0.53116-0.13524-0.84737
   0  14  -6    0.04    0.12   1-0.13400-0.01885 0.98292 0.60849-0.14672-0.78586
  -3   1  -5    2.81    0.10   1-0.75414-0.28939 0.65635-0.54246-0.10173-0.82528
  -2   1  -5   76.15    1.12   1-0.59760-0.14054 0.80008-0.68620-0.15005-0.72690
  -1   1  -5   20.62    0.51   1-0.37113-0.06162 0.91317-0.79930-0.22732-0.59956
   0   1  -5    0.83    0.05   1-0.10415-0.02320 0.96480-0.85093-0.25558-0.52124
   0   2  -5   73.08    0.88   1-0.12525-0.00210 0.98555-0.75803-0.13332-0.64353
  -1   2  -5    1.72    0.06   1-0.38795-0.04480 0.92051-0.69298-0.10993-0.71698
  -2   2  -5    1.59    0.07   1-0.61362-0.12452 0.78786-0.56033-0.04894-0.82804
  -3   2  -5   16.60    0.58   1-0.77066-0.27288 0.62796-0.40042-0.01950-0.90755
  -3   3  -5    0.00    0.20   1-0.78018-0.26336 0.60427-0.26307 0.03160-0.95868
  -2   3  -5    0.00    0.17   1-0.62145-0.11669 0.77292-0.43173 0.02433-0.90134
  -1   3  -5   68.20    0.95   1-0.39739-0.03536 0.91624-0.57506-0.01501-0.81193
   0   3  -5   28.75    0.58   1-0.14226 0.01491 0.98982-0.64865-0.02885-0.74803
   0   4  -5   75.42    0.96   1-0.15504 0.02769 0.98455-0.52972 0.05466-0.83157
  -1   4  -5    0.22    0.14   1-0.40043-0.03232 0.90782-0.45298 0.05708-0.88405
  -2   4  -5   21.45    0.64   1-0.62164-0.11650 0.76283-0.30799 0.07343-0.95047
  -3   4  -5   15.41    0.52   1-0.78250-0.26105 0.59327-0.13843 0.05807-0.98518
  -4   5  -5    0.09    0.20   1-0.88808-0.46086 0.44568 0.12283-0.03458-0.94263
  -3   5  -5   24.36    0.77   1-0.77818-0.26536 0.59620-0.02770 0.06707-0.99421
  -2   5  -5    0.23    0.19   1-0.61558-0.12257 0.76029-0.19180 0.10355-0.98062
  -1   5  -5   17.20    0.52   1-0.39861-0.03415 0.89998-0.33149 0.10859-0.93559
   0   5  -5   43.89    0.78   1-0.16397 0.03661 0.97555-0.40707 0.11726-0.89421
   0   6  -5   47.37    0.86   1-0.16961 0.04225 0.96674-0.28461 0.16078-0.93775
  -1   6  -5   12.01    0.43   1-0.39340-0.03936 0.89507-0.21293 0.14242-0.96946
  -2   6  -5   12.07    0.41   1-0.60486-0.13330 0.76497-0.08283 0.11897-0.99608
  -3   6  -5   61.53    1.18   1-0.76821-0.27534 0.61062 0.07154 0.06370-0.99087
  -4   6  -5    0.12    0.18   1-0.87852-0.47042 0.46915 0.21301-0.05529-0.92194
  -4   7  -5    0.99    0.06   1-0.86313-0.48582 0.50179 0.29403-0.08555-0.89171
  -3   7  -5    0.34    0.20   1-0.75361-0.28995 0.63311 0.16270 0.05073-0.97793
  -2   7  -5    0.93    0.07   1-0.59091-0.14725 0.77543 0.02037 0.12252-0.99966
  -1   7  -5    0.00    0.17   1-0.38594-0.04682 0.89397-0.09817 0.16120-0.98827
   0   7  -5   11.91    0.39   1-0.17251 0.04515 0.96034-0.16456 0.18755-0.96456
   0   8  -5   19.02    0.62   1-0.17311 0.04575 0.95731-0.04787 0.19976-0.97679
  -1   8  -5    0.46    0.16   1-0.37697-0.05579 0.89669 0.01276 0.16690-0.99400
  -2   8  -5   32.10    0.86   1-0.57479-0.16337 0.79009 0.11936 0.11572-0.99288
  -3   8  -5    0.15    0.19   1-0.73525-0.30831 0.66058 0.24888 0.02911-0.95634
  -4   8  -5    2.19    0.07   1-0.84186-0.50710 0.53959 0.36988-0.12611-0.85119
  -4   9  -5    0.41    0.15   1-0.81387-0.53509 0.57912 0.44400-0.18049-0.79683
  -3   9  -5    2.43    0.09   1-0.71371-0.32984 0.69057 0.33254-0.00152-0.92574
  -2   9  -5    1.40    0.08   1-0.55716-0.18100 0.80760 0.21550 0.09913-0.97633
  -1   9  -5    5.15    0.16   1-0.36687-0.06590 0.90284 0.12026 0.16086-0.98799
   0   9  -5    3.45    0.11   1-0.17170 0.04433 0.95778 0.06531 0.19908-0.97614
   0  10  -5    6.46    0.21   1-0.16844 0.04107 0.96145 0.17530 0.18657-0.96366
  -1  10  -5    0.94    0.07   1-0.35575-0.07701 0.91182 0.22494 0.14371-0.97087
  -2  10  -5    8.99    0.30   1-0.53829-0.19988 0.82682 0.30995 0.07256-0.94978
  -3  10  -5    1.02    0.06   1-0.68912-0.35444 0.72114 0.41563-0.04277-0.88452
  -3  11  -5    0.04    0.13   1-0.66089-0.38267 0.75042 0.50000-0.09807-0.82926
  -2  11  -5    1.57    0.07   1-0.51806-0.22011 0.84665 0.40376 0.03491-0.91217
  -1  11  -5    7.15    0.24   1-0.34353-0.08924 0.92283 0.32758 0.11540-0.94259
   0  11  -5   33.11    0.86   1-0.16337 0.03600 0.96766 0.28274 0.16260-0.93973
   0  12  -5    6.61    0.23   1-0.15637 0.02899 0.97551 0.38854 0.12671-0.90387
  -1  12  -5    3.63    0.14   1-0.32990-0.10288 0.93488 0.42918 0.07496-0.90218
  -2  12  -5    3.11    0.11   1-0.49594-0.24223 0.86584 0.49823-0.01618-0.86111
  -3  12  -5    4.77    0.15   1-0.62685-0.41672 0.77570 0.58838-0.17532-0.75204
  -2  13  -5    1.76    0.06   1-0.47058-0.26759 0.88232 0.59540-0.08598-0.79134
  -1  13  -5    0.26    0.15   1-0.31422-0.11856 0.94657 0.53114 0.01992-0.84718
   0  13  -5    0.24    0.17   1-0.14710 0.01972 0.98375 0.49396 0.07721-0.85440
   0  14  -5    0.39    0.14   1-0.13484 0.00745 0.99032 0.60104 0.01009-0.78731
  -1  14  -5   11.91    0.39   1-0.29521-0.13757 0.95542 0.63595-0.05547-0.77182
   0  15  -5    0.98    0.05   1-0.11771-0.00967 0.99083 0.71419-0.08505-0.69220
  -4   0  -4    1.46    0.09   1-0.83415-0.48931 0.54761-0.54741-0.07191-0.74979
  -3   0  -4    3.10    0.10   1-0.73009-0.28797 0.68065-0.68046-0.05989-0.71173
  -2   0  -4    5.13    0.15   1-0.59077-0.12189 0.80615-0.80596-0.13035-0.59121
  -1   0  -4    3.21    0.10   1-0.36720-0.04007 0.90892-0.90874-0.25537-0.41613
   0   0  -4  289.95    1.44   1-0.06774-0.03414 0.95044-0.95027-0.31071-0.31071
   0   1  -4    7.34    0.24   1-0.09854-0.00334 0.98714-0.87332-0.14060-0.48086
  -1   1  -4   93.16    0.93   1-0.39741-0.00986 0.91747-0.80364-0.08314-0.58838
  -2   1  -4   26.38    0.60   1-0.62149-0.09118 0.77181-0.65797 0.03057-0.75216
  -3   1  -4    8.89    0.32   1-0.76027-0.25779 0.61335-0.49950 0.08635-0.85800
  -4   1  -4    0.34    0.24   1-0.86171-0.46175 0.46584-0.35198 0.05705-0.87877
  -4   2  -4    9.52    0.34   1-0.88330-0.44017 0.38224-0.15473 0.12288-0.94463
  -3   2  -4    4.32    0.15   1-0.78312-0.23495 0.54076-0.31326 0.17444-0.94613
  -2   2  -4    1.17    0.06   1-0.64156-0.07112 0.72461-0.49711 0.14297-0.86459
  -1   2  -4    5.39    0.17   1-0.41565 0.00837 0.90071-0.67323 0.05627-0.72783
   0   2  -4   31.77    0.51   1-0.12413 0.02225 0.99177-0.76429 0.01042-0.63191
   0   3  -4   32.90    0.54   1-0.14328 0.04150 0.97705-0.63597 0.13182-0.75325
  -1   3  -4  203.21    1.46   1-0.42300 0.01583 0.87597-0.53490 0.15919-0.83064
  -2   3  -4   37.58    0.75   1-0.65046-0.06210 0.68739-0.34631 0.21203-0.93351
  -3   3  -4    6.68    0.22   1-0.79699-0.22096 0.49181-0.15074 0.21520-0.98671
  -3   4  -4   16.04    0.53   1-0.80123-0.21672 0.47562-0.02091 0.22679-0.99832
  -2   4  -4   30.31    0.71   1-0.64849-0.06407 0.66990-0.21518 0.25025-0.97175
  -1   4  -4   29.90    0.60   1-0.42142 0.01425 0.85456-0.39984 0.23019-0.90167
   0   4  -4   12.83    0.37   1-0.15680 0.05502 0.95519-0.50046 0.22175-0.84321
   0   5  -4    0.29    0.14   1-0.16546 0.06368 0.93440-0.36603 0.28388-0.90537
  -1   5  -4    8.45    0.29   1-0.41440 0.00723 0.84039-0.27202 0.27651-0.94802
  -2   5  -4    4.11    0.13   1-0.63862-0.07394 0.66963-0.10126 0.26926-0.99080
  -3   5  -4   15.24    0.48   1-0.79714-0.22081 0.48558 0.08278 0.22330-0.99486
  -4   6  -4    0.57    0.07   1-0.89561-0.42773 0.37607 0.30594 0.08759-0.90920
  -3   6  -4    2.85    0.11   1-0.78629-0.23166 0.51258 0.16943 0.21139-0.98297
  -2   6  -4    1.73    0.08   1-0.62359-0.08897 0.68146 0.00056 0.27559-0.99715
  -1   6  -4   45.31    0.82   1-0.40448-0.00269 0.83393-0.15191 0.30391-0.97544
   0   6  -4   54.77    0.84   1-0.17040 0.06862 0.91874-0.23672 0.32326-0.94476
   0   7  -4    0.44    0.05   1-0.17249 0.07071 0.90959-0.11392 0.34444-0.96597
  -1   7  -4   12.07    0.41   1-0.39321-0.01396 0.83441-0.03874 0.31637-0.98793
  -2   7  -4   41.44    0.92   1-0.60557-0.10698 0.70094 0.09472 0.27233-0.99392
  -3   7  -4    4.51    0.14   1-0.77026-0.24769 0.54928 0.24638 0.19335-0.96496
  -4   7  -4    3.56    0.12   1-0.88195-0.44139 0.42483 0.37082 0.05682-0.87846
  -4   8  -4    0.28    0.19   1-0.86254-0.46080 0.47894 0.43037 0.01961-0.84127
  -3   8  -4    2.39    0.10   1-0.75038-0.26756 0.59081 0.31850 0.16936-0.94100
  -2   8  -4   25.89    0.76   1-0.58602-0.12654 0.72507 0.18424 0.26069-0.98230
  -1   8  -4   10.88    0.36   1-0.38135-0.02581 0.84074 0.06857 0.31650-0.98808
   0   8  -4    9.31    0.33   1-0.17233 0.07055 0.90688 0.00244 0.35091-0.97247
   0   9  -4   15.51    0.52   1-0.17028 0.06851 0.90990 0.11306 0.34505-0.96664
  -1   9  -4   15.18    0.53   1-0.36919-0.03798 0.85185 0.17111 0.30587-0.97748
  -2   9  -4   93.22    1.44   1-0.56572-0.14684 0.75198 0.27098 0.24095-0.96258
  -3   9  -4    7.31    0.23   1-0.72763-0.29031 0.63418 0.38877 0.13857-0.91023
  -4   9  -4    2.53    0.09   1-0.83748-0.48585 0.53484 0.48811-0.02674-0.79495
  -4  10  -4    2.62    0.09   1-0.80596-0.51737 0.59020 0.54640-0.08712-0.73459
  -3  10  -4    5.52    0.17   1-0.70248-0.31546 0.67762 0.45898 0.09942-0.87111
  -2  10  -4    0.55    0.20   1-0.54497-0.16758 0.78048 0.35612 0.21274-0.93440
  -1  10  -4   12.57    0.43   1-0.35669-0.05047 0.86674 0.26987 0.28528-0.95691
   0  10  -4    1.64    0.08   1-0.16653 0.06476 0.91772 0.21889 0.32828-0.94989
   0  11  -4   14.30    0.46   1-0.16114 0.05937 0.92931 0.32094 0.30118-0.92282
  -1  11  -4    2.75    0.10   1-0.34366-0.06350 0.88448 0.36577 0.25482-0.92648
  -2  11  -4    0.00    0.20   1-0.52370-0.18886 0.80973 0.44051 0.17515-0.89684
  -3  11  -4    1.72    0.07   1-0.67482-0.34312 0.71991 0.53034 0.04939-0.82110
  -3  12  -4    0.62    0.05   1-0.64367-0.37427 0.75991 0.60399-0.01615-0.75559
  -2  12  -4    1.95    0.08   1-0.50143-0.21112 0.83893 0.52497 0.12637-0.84808
  -1  12  -4    5.04    0.18   1-0.32975-0.07742 0.90413 0.45977 0.21380-0.88549
   0  12  -4    5.12    0.17   1-0.15402 0.05225 0.94364 0.42026 0.26354-0.88520
   0  13  -4    6.02    0.21   1-0.14491 0.04314 0.95956 0.51799 0.21412-0.83581
  -1  13  -4    0.13    0.16   1-0.31439-0.09277 0.92461 0.55294 0.16046-0.83218
  -2  13  -4    0.39    0.13   1-0.47725-0.23530 0.86701 0.61054 0.06295-0.78469
  -2  14  -4    0.50    0.04   1-0.44912-0.26343 0.89198 0.69921-0.02283-0.69894
  -1  14  -4    0.45    0.15   1-0.29664-0.11051 0.94442 0.64677 0.09095-0.76269
   0  14  -4   13.95    0.48   1-0.13329 0.03152 0.97560 0.61560 0.15006-0.77177
   0  15  -4    1.01    0.05   1-0.11794 0.01618 0.98934 0.71551 0.06476-0.68650
  -1  15  -4    3.99    0.14   1-0.27449-0.13267 0.96068 0.74416-0.00401-0.66775
  -4   1  -3    3.78    0.13   1-0.84463-0.45327 0.35881-0.24507 0.25350-0.91964
  -3   1  -3   39.76    0.83   1-0.75130-0.24121 0.50023-0.38649 0.30148-0.91760
  -2   1  -3    2.04    0.07   1-0.63912-0.04799 0.67681-0.56306 0.25552-0.82161
  -1   1  -3  141.29    0.99   1-0.43817 0.05644 0.88081-0.76706 0.10496-0.62103
   0   1  -3  169.62    0.93   1-0.09572 0.01938 0.99534-0.88158-0.00416-0.46188
   0   2  -3  143.48    0.90   1-0.12729 0.05095 0.96973-0.74233 0.18449-0.65055
  -1   2  -3    0.32    0.13   1-0.45655 0.07482 0.82175-0.59436 0.26141-0.77750
  -2   2  -3    6.50    0.21   1-0.66715-0.01996 0.57004-0.34265 0.36364-0.92976
  -3   2  -3    4.57    0.16   1-0.78451-0.20800 0.35216-0.12477 0.37493-0.99108
  -4   2  -3    5.35    0.19   1-0.87502-0.42287 0.18900 0.03839 0.29625-0.96243
  -4   3  -3   11.13    0.33   1-0.89395-0.40394 0.12721 0.21382 0.27745-0.94365
  -3   3  -3    2.56    0.09   1-0.80376-0.18874 0.28754 0.05349 0.38208-0.99825
  -2   3  -3   13.42    0.42   1-0.67690-0.01022 0.51615-0.17511 0.40669-0.97283
  -1   3  -3    1.78    0.06   1-0.45610 0.07437 0.77445-0.43341 0.35759-0.87371
   0   3  -3  174.75    1.06   1-0.14804 0.07170 0.92554-0.58450 0.31933-0.78542
   0   4  -3   15.53    0.36   1-0.16053 0.08419 0.88371-0.42902 0.40721-0.87333
  -1   4  -3   75.28    0.84   1-0.44473 0.06301 0.74670-0.29201 0.41491-0.93106
  -2   4  -3   20.87    0.54   1-0.67190-0.01521 0.50824-0.05356 0.42127-0.98744
  -3   4  -3    5.43    0.17   1-0.81097-0.18153 0.28780 0.16688 0.36961-0.98580
  -4   4  -3    1.45    0.10   1-0.90479-0.39311 0.13710 0.31758 0.24950-0.91572
  -3   5  -3    6.20    0.20   1-0.80788-0.18463 0.32407 0.24426 0.35319-0.96941
  -2   5  -3   45.32    0.82   1-0.65709-0.03002 0.52700 0.04133 0.42393-0.99013
  -1   5  -3    1.63    0.06   1-0.42894 0.04722 0.73499-0.16665 0.44764-0.96381
   0   5  -3  106.94    0.98   1-0.16745 0.09112 0.85282-0.28449 0.46032-0.92646
   0   6  -3  202.51    1.47   1-0.17066 0.09433 0.83439-0.15240 0.48886-0.95503
  -1   6  -3   73.93    0.96   1-0.41230 0.03058 0.73493-0.05294 0.46343-0.97962
  -2   6  -3    1.79    0.08   1-0.63684-0.05027 0.55863 0.12335 0.41974-0.98596
  -3   6  -3   10.09    0.33   1-0.79656-0.19594 0.37730 0.30468 0.33541-0.95166
  -4   6  -3   25.93    0.78   1-0.90296-0.39493 0.24874 0.43324 0.19772-0.86399
  -4   7  -3    2.35    0.10   1-0.89112-0.40677 0.32092 0.47470 0.17041-0.83670
  -3   7  -3    4.27    0.13   1-0.77928-0.21322 0.43706 0.35856 0.31529-0.93156
  -2   7  -3   48.76    0.95   1-0.61423-0.07288 0.59583 0.19980 0.40966-0.97591
  -1   7  -3   66.39    0.98   1-0.39629 0.01457 0.74339 0.05224 0.46644-0.98267
   0   7  -3    0.34    0.12   1-0.17129 0.09496 0.82714-0.03150 0.49979-0.96598
   0   8  -3    9.97    0.34   1-0.16995 0.09362 0.82909 0.08019 0.49743-0.96365
  -1   8  -3    2.55    0.08   1-0.38124-0.00048 0.75829 0.15099 0.45905-0.97529
  -2   8  -3   17.24    0.55   1-0.59103-0.09608 0.63521 0.27406 0.39350-0.95977
  -3   8  -3   85.11    1.38   1-0.75795-0.23455 0.49812 0.41115 0.29119-0.90749
  -4   8  -3    3.53    0.10   1-0.87313-0.42476 0.39517 0.51410 0.13847-0.80480
  -4   9  -3    0.81    0.07   1-0.84967-0.44821 0.46867 0.55424 0.09909-0.76544
  -3   9  -3   31.83    0.85   1-0.73396-0.25854 0.55808 0.46483 0.26150-0.87783
  -2   9  -3    5.44    0.18   1-0.56808-0.11903 0.67532 0.34760 0.37077-0.93707
  -1   9  -3    0.00    0.17   1-0.36701-0.01471 0.77811 0.24481 0.44256-0.95883
   0   9  -3    0.23    0.15   1-0.16699 0.09067 0.83836 0.18457 0.48435-0.95060
   0  10  -3    1.24    0.07   1-0.16257 0.08625 0.85330 0.28328 0.46191-0.92819
  -1  10  -3   27.81    0.79   1-0.35325-0.02846 0.80173 0.33484 0.41756-0.93386
  -2  10  -3    3.93    0.11   1-0.54558-0.14153 0.71557 0.42100 0.34080-0.90713
  -3  10  -3   33.85    0.85   1-0.70806-0.28444 0.61596 0.52061 0.22451-0.84086
  -4  10  -3    0.21    0.16   1-0.82085-0.47704 0.54008 0.59648 0.04866-0.71504
  -4  11  -3    0.18    0.13   1-0.78543-0.51246 0.60886 0.64135-0.01901-0.64739
  -3  11  -3    0.00    0.18   1-0.68042-0.31208 0.67141 0.57881 0.17808-0.79446
  -2  11  -3    1.15    0.08   1-0.52333-0.16377 0.75564 0.49457 0.30263-0.86898
  -1  11  -3   31.84    0.85   1-0.33955-0.04217 0.82819 0.42203 0.38405-0.90037
   0  11  -3    0.03    0.22   1-0.15671 0.08039 0.87254 0.37768 0.43060-0.89690
   0  12  -3   14.15    0.42   1-0.14932 0.07300 0.89493 0.46894 0.39014-0.85647
  -1  12  -3   34.03    0.88   1-0.32542-0.05630 0.85667 0.50719 0.34136-0.85771
  -2  12  -3    4.69    0.16   1-0.50085-0.18626 0.79529 0.56857 0.25471-0.82109
  -3  12  -3    0.04    0.16   1-0.65049-0.34201 0.72426 0.63960 0.11890-0.73530
  -3  13  -3    1.25    0.05   1-0.61654-0.37596 0.77413 0.70338 0.04042-0.65685
  -2  13  -3    0.14    0.17   1-0.47729-0.20981 0.83411 0.64340 0.19438-0.76078
  -1  13  -3    4.92    0.16   1-0.31029-0.07142 0.88635 0.59116 0.28799-0.80436
   0  13  -3    5.78    0.19   1-0.14018 0.06386 0.91937 0.55814 0.33943-0.80578
   0  14  -3    2.49    0.09   1-0.12883 0.05251 0.94474 0.64642 0.27606-0.74243
  -1  14  -3    3.99    0.13   1-0.29335-0.08836 0.91624 0.67492 0.22091-0.73731
  -2  14  -3    9.95    0.31   1-0.45121-0.23590 0.87128 0.71987 0.11635-0.68277
  -1  15  -3    0.07    0.13   1-0.27314-0.10857 0.94478 0.76002 0.13364-0.65006
   0  15  -3    2.56    0.07   1-0.11437 0.03805 0.96947 0.73534 0.19502-0.66142
   0  16  -3    0.24    0.04   1-0.09453 0.01821 0.99042 0.82804 0.08359-0.55001
  -5   0  -2    0.21    0.24   1-0.78990-0.78794 0.59508-0.59503-0.27559-0.28522
  -4   0  -2   46.36    1.01   1-0.72392-0.54853 0.65682-0.65676 0.08942-0.60020
  -3   0  -2  182.05    1.65   1-0.64381-0.32326 0.67908-0.67902 0.24227-0.70302
  -2   0  -2  100.03    0.95   1-0.56373-0.09794 0.74826-0.74819 0.25249-0.66322
  -1   0  -2   76.79    0.63   1-0.43523 0.07895 0.88842-0.88836 0.07236-0.43307
   0   0  -2    9.73    0.21   1-0.04159-0.00930 0.98776-0.98769-0.15534-0.15534
   0   1  -2   30.52    0.34   1-0.10157 0.05068 0.97454-0.86082 0.18034-0.49104
  -1   1  -2   12.19    0.28   1-0.49467 0.13838 0.73368-0.61997 0.37836-0.73909
  -2   1  -2    0.63    0.05   1-0.63606-0.02561 0.42668-0.31297 0.52996-0.94072
  -3   1  -2    5.15    0.18   1-0.72391-0.24315 0.20283-0.08912 0.53187-0.99265
  -4   1  -2    5.79    0.18   1-0.81732-0.45513-0.00364 0.11735 0.43451-0.94532
  -5   1  -2    1.82    0.10   1-0.90752-0.67033-0.23200 0.34570 0.19680-0.75764
  -5   2  -2    2.03    0.10   1-0.92563-0.65221-0.26696 0.49431 0.11302-0.67388
  -4   2  -2    2.02    0.11   1-0.84715-0.42530-0.19281 0.42016 0.34971-0.86055
  -3   2  -2    0.93    0.08   1-0.76638-0.20068-0.01723 0.24459 0.50794-0.96875
  -2   2  -2   65.80    0.80   1-0.67757 0.01590 0.24563-0.01827 0.57281-0.98359
  -1   2  -2   27.18    0.41   1-0.50887 0.15259 0.61455-0.38719 0.51116-0.87192
   0   2  -2  303.15    3.17   1-0.13806 0.08717 0.88754-0.66018 0.41080-0.72153
   0   3  -2   26.70    0.38   1-0.15651 0.10562 0.80411-0.46310 0.53994-0.85070
  -1   3  -2  120.86    0.89   1-0.49233 0.13605 0.57066-0.22965 0.56758-0.92836
  -2   3  -2   61.41    0.80   1-0.69180 0.03013 0.22460 0.11640 0.56362-0.97443
  -3   3  -2   21.16    0.62   1-0.79412-0.17294-0.02687 0.36788 0.46889-0.92972
  -4   3  -2    0.00    0.30   1-0.87386-0.39859-0.16872 0.50971 0.30669-0.81755
  -4   4  -2    2.46    0.11   1-0.89304-0.37941-0.09109 0.54573 0.28844-0.79932
  -3   4  -2   13.13    0.45   1-0.80789-0.15917 0.03718 0.41747 0.44787-0.90873
  -2   4  -2    6.42    0.22   1-0.68550 0.02383 0.27021 0.18445 0.55459-0.96542
  -1   4  -2    4.12    0.14   1-0.46510 0.10882 0.56510-0.11044 0.59590-0.95671
   0   4  -2  248.08    1.23   1-0.16531 0.11442 0.74815-0.29349 0.60668-0.91746
   0   5  -2    0.97    0.05   1-0.16905 0.11816 0.71804-0.14973 0.63818-0.94899
  -1   5  -2    6.43    0.22   1-0.43784 0.08156 0.57617-0.00787 0.60898-0.96981
  -2   5  -2  311.50    1.99   1-0.66651 0.00484 0.33510 0.23320 0.54768-0.95854
  -3   5  -2    0.53    0.23   1-0.80811-0.15894 0.12489 0.44341 0.43545-0.89634
  -4   6  -2    1.90    0.10   1-0.90119-0.37126 0.10449 0.57745 0.26732-0.77825
  -3   6  -2    5.94    0.21   1-0.79768-0.16938 0.21720 0.46474 0.42430-0.88521
  -2   6  -2  277.62    1.99   1-0.64159-0.02007 0.40193 0.28002 0.53929-0.95017
  -1   6  -2    4.14    0.14   1-0.41390 0.05763 0.59593 0.08601 0.61091-0.97177
   0   6  -2    2.03    0.07   1-0.16985 0.11897 0.70741-0.02546 0.64884-0.95967
   0   7  -2   43.72    0.71   1-0.16870 0.11782 0.71074 0.08486 0.64590-0.95676
  -1   7  -2   14.73    0.45   1-0.39351 0.03723 0.62138 0.17422 0.60377-0.96465
  -2   7  -2  148.16    1.55   1-0.61502-0.04664 0.46561 0.32998 0.52691-0.93781
  -3   7  -2    0.55    0.24   1-0.77997-0.18709 0.30665 0.48894 0.41033-0.87127
  -4   7  -2    1.01    0.09   1-0.89169-0.38075 0.20391 0.59168 0.25254-0.76350
  -5   8  -2    2.42    0.08   1-0.93964-0.63820 0.30011 0.60912 0.00813-0.56914
  -4   8  -2    6.52    0.22   1-0.87519-0.39725 0.29981 0.60942 0.23110-0.74209
  -3   8  -2    4.67    0.16   1-0.75778-0.20928 0.39073 0.51851 0.39131-0.85227
  -2   8  -2    0.37    0.19   1-0.58891-0.07275 0.52545 0.38379 0.50918-0.92012
  -1   8  -2   48.70    0.86   1-0.37593 0.01965 0.65104 0.25820 0.58878-0.94968
   0   8  -2    0.00    0.12   1-0.16606 0.11518 0.72406 0.18519 0.63304-0.94392
   0   9  -2    5.36    0.19   1-0.16214 0.11126 0.74458 0.27831 0.61207-0.92298
  -1   9  -2    0.54    0.21   1-0.36028 0.00401 0.68397 0.33892 0.56659-0.92752
  -2   9  -2    0.25    0.20   1-0.56403-0.09763 0.58202 0.44087 0.48533-0.89629
  -3   9  -2   29.35    0.83   1-0.73299-0.23406 0.46910 0.55378 0.36577-0.82676
  -4   9  -2    8.80    0.29   1-0.85301-0.41944 0.39119 0.63169 0.20098-0.71199
  -4  10  -2    0.00    0.16   1-0.82583-0.44661 0.47799 0.65854 0.15978-0.67082
  -3  10  -2    3.69    0.13   1-0.70665-0.26040 0.54229 0.59424 0.33247-0.79348
  -2  10  -2   13.27    0.42   1-0.54039-0.12127 0.63611 0.50043 0.45466-0.86564
  -1  10  -2   16.53    0.54   1-0.34581-0.01047 0.71945 0.41708 0.53738-0.89834
   0  10  -2    0.10    0.15   1-0.15700 0.10612 0.77035 0.36619 0.58375-0.89468
   0  11  -2   30.49    0.81   1-0.15063 0.09975 0.79996 0.45023 0.54814-0.85910
  -1  11  -2   44.59    0.99   1-0.33182-0.02445 0.75689 0.49329 0.50091-0.86189
  -2  11  -2    3.57    0.12   1-0.51764-0.14402 0.68835 0.56183 0.41633-0.82734
  -3  11  -2    3.02    0.10   1-0.67908-0.28797 0.61109 0.63908 0.28984-0.75087
  -4  11  -2    1.64    0.06   1-0.79335-0.47909 0.56079 0.68939 0.10357-0.61463
  -3  12  -2    0.57    0.06   1-0.64995-0.31710 0.67626 0.68756 0.23544-0.69650
  -2  12  -2    0.59    0.07   1-0.49519-0.16646 0.73919 0.62464 0.36903-0.78007
  -1  12  -2    1.32    0.08   1-0.31772-0.03855 0.79575 0.56808 0.45640-0.81741
   0  12  -2    6.10    0.20   1-0.14290 0.09203 0.83232 0.53151 0.50472-0.81571
   0  13  -2   10.23    0.35   1-0.13359 0.08271 0.86655 0.61093 0.45230-0.76331
  -1  13  -2   15.55    0.54   1-0.30290-0.05337 0.83553 0.64195 0.40241-0.76344
  -2  13  -2    2.62    0.09   1-0.47222-0.18944 0.78881 0.68866 0.31057-0.72163
  -3  13  -2    0.05    0.15   1-0.61806-0.34898 0.73841 0.73906 0.16465-0.62574
  -2  14  -2    2.18    0.07   1-0.44747-0.21418 0.83715 0.75397 0.23679-0.64788
  -1  14  -2    1.29    0.07   1-0.28658-0.06968 0.87566 0.71546 0.33629-0.69736
   0  14  -2   16.05    0.51   1-0.12228 0.07141 0.90181 0.68931 0.38862-0.69966
   0  15  -2   16.32    0.51   1-0.10820 0.05733 0.93712 0.76766 0.30939-0.62045
  -1  15  -2    0.78    0.05   1-0.26757-0.08869 0.91534 0.78943 0.25282-0.61390
  -2  15  -2    0.13    0.04   1-0.41849-0.24316 0.88364 0.82113 0.13828-0.54939
  -1  16  -2    0.54    0.04   1-0.24314-0.11312 0.95287 0.86554 0.13891-0.50002
   0  16  -2    1.88    0.07   1-0.08960 0.03872 0.97077 0.84765 0.20476-0.51584
  -5   1  -1   16.42    0.54   1-0.79504-0.75736-0.51942 0.63309-0.43913 0.03364
  -4   1  -1   26.53    0.76   1-0.68940-0.55761-0.71547 0.82914-0.22455-0.13092
  -3   1  -1   10.94    0.35   1-0.63089-0.31073-0.69152 0.80519 0.24390-0.54934
  -2   1  -1  103.97    0.90   1-0.58426-0.05196-0.32989 0.44356 0.63584-0.89126
  -1   1  -1   37.21    0.40   1-0.53369 0.20285 0.19699-0.08331 0.72384-0.92923
   0   1  -1  148.68    1.54   1-0.12695 0.10150 0.84179-0.72811 0.49659-0.65196
   0   2  -1    9.60    0.19   1-0.15682 0.13138 0.65026-0.42294 0.70747-0.86286
  -1   2  -1  713.40    5.14   1-0.54902 0.21818 0.16004 0.06728 0.71929-0.92471
  -2   2  -1   53.58    0.67   1-0.65219 0.01596-0.30053 0.52786 0.57978-0.83522
  -3   2  -1   91.00    1.13   1-0.71320-0.22842-0.52756 0.75488 0.33862-0.64409
  -4   2  -1    0.00    0.28   1-0.78527-0.46173-0.58462 0.81194 0.07265-0.42814
  -5   2  -1   11.08    0.34   1-0.87164-0.68075-0.49013 0.71744-0.14804-0.25748
  -5   3  -1    0.53    0.25   1-0.91698-0.63541-0.37551 0.71647-0.01723-0.38831
  -4   3  -1    0.72    0.09   1-0.83894-0.40806-0.43751 0.77848 0.18198-0.53750
  -3   3  -1   34.08    0.73   1-0.76491-0.17670-0.37042 0.71139 0.39464-0.70014
  -2   3  -1  231.99    1.44   1-0.68302 0.04679-0.15519 0.49616 0.59224-0.84770
  -1   3  -1 1364.94    7.77   1-0.51271 0.18188 0.23861 0.10237 0.72956-0.93500
   0   3  -1   67.26    0.52   1-0.16572 0.14028 0.55872-0.21774 0.77438-0.92980
   0   4  -1    0.07    0.12   1-0.16836 0.14292 0.52553-0.07090 0.79499-0.95043
  -1   4  -1  460.89    4.98   1-0.46922 0.13839 0.31069 0.14393 0.73852-0.94399
  -2   4  -1   42.34    0.66   1-0.68088 0.04466-0.00770 0.46231 0.61093-0.86642
  -3   4  -1    3.92    0.12   1-0.79092-0.15069-0.21704 0.67165 0.43490-0.74042
  -4   4  -1    3.33    0.12   1-0.87168-0.37533-0.29592 0.75053 0.24267-0.59821
  -4   5  -1    2.31    0.11   1-0.88811-0.35889-0.15965 0.72791 0.27974-0.63531
  -3   5  -1   49.33    0.93   1-0.79661-0.14500-0.07326 0.64152 0.46145-0.76700
  -2   5  -1    0.35    0.15   1-0.66068 0.02446 0.12103 0.44723 0.62258-0.87810
  -1   5  -1    5.49    0.19   1-0.43283 0.10200 0.37070 0.19757 0.73964-0.94514
   0   5  -1   45.96    0.56   1-0.16831 0.14287 0.52312 0.04515 0.79649-0.95196
   0   6  -1   99.50    0.91   1-0.16669 0.14125 0.53810 0.14381 0.78764-0.94314
  -1   6  -1   18.05    0.43   1-0.40447 0.07365 0.42426 0.25765 0.73289-0.93841
  -2   6  -1   10.17    0.34   1-0.63345-0.00277 0.22999 0.45192 0.62502-0.88056
  -3   6  -1    9.33    0.32   1-0.78819-0.15342 0.05760 0.62430 0.47532-0.78089
  -4   6  -1    1.10    0.09   1-0.89133-0.35567-0.02995 0.71186 0.30025-0.65585
  -5   7  -1    0.27    0.17   1-0.95728-0.59511 0.11063 0.68491 0.10671-0.51236
  -4   7  -1   12.12    0.39   1-0.88419-0.36281 0.09212 0.70343 0.30690-0.66253
  -3   7  -1    3.38    0.12   1-0.77099-0.17062 0.17517 0.62038 0.47767-0.78326
  -2   7  -1   12.12    0.41   1-0.60501-0.03121 0.32326 0.47230 0.61864-0.87421
  -1   7  -1   70.15    0.90   1-0.38217 0.05134 0.47507 0.32049 0.71920-0.92475
   0   7  -1    0.24    0.13   1-0.16390 0.13846 0.56365 0.23192 0.77168-0.92720
   0   8  -1   21.89    0.53   1-0.16010 0.13466 0.59601 0.31320 0.74986-0.90541
  -1   8  -1    3.64    0.12   1-0.36392 0.03309 0.52496 0.38424 0.69927-0.90484
  -2   8  -1    0.17    0.18   1-0.57778-0.05844 0.40522 0.50398 0.60419-0.85978
  -3   8  -1   12.93    0.42   1-0.74883-0.19278 0.28076 0.62844 0.46951-0.77513
  -4   8  -1    0.65    0.26   1-0.86919-0.37781 0.20629 0.70291 0.30090-0.65654
  -5   8  -1    0.00    0.17   1-0.94162-0.61077 0.22698 0.68221 0.09101-0.49669
  -5   9  -1    2.35    0.08   1-0.91622-0.63617 0.34172 0.68112 0.05621-0.46191
  -4   9  -1    5.84    0.20   1-0.84821-0.39879 0.31296 0.70988 0.28252-0.63819
  -3   9  -1    3.52    0.12   1-0.72407-0.21754 0.37634 0.64650 0.45149-0.75714
  -2   9  -1    7.55    0.24   1-0.55242-0.08380 0.47933 0.54352 0.58215-0.83777
  -1   9  -1    3.27    0.11   1-0.34821 0.01738 0.57473 0.44812 0.67339-0.87898
   0   9  -1   43.09    0.82   1-0.15533 0.12990 0.63298 0.38987 0.72259-0.87816
   0  10  -1   55.24    1.00   1-0.14957 0.12414 0.67317 0.46334 0.68977-0.84536
  -1  10  -1    3.64    0.13   1-0.33395 0.00312 0.62470 0.51181 0.64148-0.84710
  -2  10  -1    2.27    0.09   1-0.52878-0.10743 0.54803 0.58847 0.55261-0.80826
  -3  10  -1    0.00    0.18   1-0.69796-0.24364 0.46393 0.67257 0.42373-0.72940
  -4  10  -1    0.90    0.07   1-0.82238-0.42461 0.41310 0.72339 0.25109-0.60679
  -4  11  -1    5.28    0.19   1-0.79190-0.45510 0.50802 0.74212 0.20442-0.56014
  -3  11  -1    1.93    0.08   1-0.67093-0.27067 0.54531 0.70483 0.38565-0.69135
  -2  11  -1   10.94    0.37   1-0.50637-0.12984 0.61299 0.63715 0.51520-0.77087
  -1  11  -1   14.56    0.54   1-0.32032-0.01051 0.67495 0.57520 0.60310-0.80875
   0  11  -1    1.06    0.07   1-0.14273 0.11730 0.71563 0.53452 0.65096-0.80658
   0  12  -1    2.13    0.08   1-0.13466 0.10923 0.75971 0.60408 0.60534-0.76098
  -1  12  -1    0.44    0.18   1-0.30666-0.02416 0.72547 0.63832 0.55743-0.76310
  -2  12  -1   11.09    0.37   1-0.48452-0.15169 0.67535 0.68844 0.46897-0.72467
  -3  12  -1    3.31    0.12   1-0.64276-0.29884 0.62202 0.74177 0.33568-0.64140
  -4  12  -1    0.04    0.14   1-0.75537-0.49162 0.59962 0.76417 0.13687-0.49262
  -3  13  -1    0.68    0.06   1-0.61249-0.32911 0.69535 0.78208 0.27037-0.57612
  -2  13  -1    6.12    0.21   1-0.46240-0.17382 0.73584 0.74160 0.41210-0.66782
  -1  13  -1    6.98    0.24   1-0.29236-0.03846 0.77618 0.70126 0.50301-0.70871
   0  13  -1    8.42    0.29   1-0.12512 0.09969 0.80490 0.67255 0.55156-0.70723
   0  14  -1    7.10    0.25   1-0.11371 0.08828 0.85073 0.74036 0.48740-0.64309
  -1  14  -1    0.30    0.18   1-0.27668-0.05414 0.82693 0.76416 0.43739-0.64312
  -2  14  -1    2.72    0.10   1-0.43886-0.19735 0.79497 0.79611 0.34109-0.59684
  -3  14  -1    0.36    0.13   1-0.57775-0.36385 0.76661 0.82447 0.18158-0.48736
  -2  15  -1    0.34    0.04   1-0.41190-0.22431 0.85305 0.85169 0.24838-0.50416
  -1  15  -1    4.18    0.13   1-0.25855-0.07227 0.87749 0.82725 0.35592-0.56167
   0  15  -1    0.83    0.06   1-0.09972 0.07429 0.89672 0.80802 0.40885-0.56457
   0  16  -1    4.74    0.17   1-0.08159 0.05617 0.94210 0.87629 0.30729-0.46304
  -1  16  -1    0.18    0.12   1-0.23576-0.09506 0.92734 0.89104 0.24786-0.45363
  -5   0   0    0.11    0.24   1-0.76348-0.76348-0.34644 0.34643-0.66268 0.41255
  -4   0   0   60.22    1.10   1-0.61078-0.61078-0.42474 0.42472-0.75917 0.55907
  -3   0   0    6.65    0.21   1-0.45809-0.45809-0.47683 0.47682-0.81500 0.66492
  -2   0   0    3.18    0.11   1-0.30539-0.30539-0.51079 0.51078-0.84269 0.74264
  -1   0   0  120.65    0.62   1-0.15270-0.15270-0.53012 0.53012-0.84769 0.79766
  -1   1   0    2.79    0.08   1-0.46479 0.15940-0.78184 0.89548 0.33401-0.38406
  -2   1   0   16.70    0.37   1-0.47901-0.13177-0.87629 0.98993-0.12927 0.02919
  -3   1   0    5.09    0.18   1-0.56177-0.35440-0.77904 0.89268-0.36651 0.21640
  -4   1   0   11.53    0.40   1-0.67575-0.54581-0.64148 0.75511-0.46880 0.26867
  -5   1   0    0.23    0.22   1-0.80341-0.72354-0.47978 0.59341-0.47936 0.22921
  -5   2   0    3.00    0.11   1-0.85512-0.67183-0.50203 0.72931-0.26760 0.01742
  -4   2   0   20.52    0.68   1-0.75391-0.46765-0.65560 0.88288-0.16539-0.03476
  -3   2   0   69.11    0.96   1-0.66803-0.24814-0.73261 0.95989 0.01947-0.16960
  -2   2   0  288.40    1.47   1-0.60445-0.00633-0.68998 0.91727 0.29399-0.39409
  -1   2   0  221.97    0.94   1-0.52355 0.21816-0.38464 0.61193 0.66429-0.71436
   0   2   0  298.18    2.37   1-0.16912 0.16912 0.11365 0.11365 0.93807-0.93812
  -1   3   0   13.81    0.29   1-0.48602 0.18064-0.12810 0.46904 0.77324-0.82334
  -2   3   0   40.35    0.59   1-0.65224 0.04146-0.45090 0.79183 0.49436-0.59449
  -3   3   0   18.89    0.54   1-0.73405-0.18212-0.57110 0.91203 0.24239-0.39255
  -4   3   0   15.81    0.53   1-0.81306-0.40850-0.55429 0.89522 0.04259-0.24277
  -4   4   0    0.00    0.25   1-0.85070-0.37086-0.41743 0.87200 0.17591-0.37611
  -3   4   0    1.28    0.07   1-0.76655-0.14962-0.39439 0.84897 0.37449-0.52468
  -2   4   0    8.09    0.27   1-0.65471 0.04393-0.24205 0.69663 0.59922-0.69937
  -1   4   0   59.34    0.61   1-0.44173 0.13634 0.03312 0.42147 0.81206-0.86219
   0   4   0  158.39    0.88   1-0.16576 0.16577 0.22729 0.22729 0.91945-0.91955
  -1   5   0   43.04    0.57   1-0.40705 0.10167 0.14741 0.42082 0.82254-0.87269
  -2   5   0  128.36    1.18   1-0.63598 0.02520-0.07123 0.63946 0.65387-0.75405
  -3   5   0   36.79    0.79   1-0.77515-0.14101-0.22710 0.79532 0.45466-0.60487
  -4   5   0    0.00    0.25   1-0.87022-0.35133-0.27363 0.84185 0.26167-0.46190
  -4   6   0   12.91    0.43   1-0.87536-0.34620-0.13305 0.81492 0.31517-0.51543
  -3   6   0   17.77    0.59   1-0.76820-0.14797-0.07573 0.75761 0.50131-0.65154
  -2   6   0   38.40    0.70   1-0.60983-0.00094 0.06824 0.61364 0.67901-0.77922
  -1   6   0  208.22    1.38   1-0.38114 0.07576 0.23863 0.44325 0.81864-0.86882
   0   6   0  117.07    0.97   1-0.16002 0.16003 0.34094 0.34094 0.88756-0.88771
  -1   7   0   42.61    0.70   1-0.36115 0.05577 0.31774 0.47779 0.80563-0.85583
  -2   7   0    0.57    0.05   1-0.58265-0.02812 0.18489 0.61064 0.68524-0.78547
  -3   7   0    0.07    0.23   1-0.75201-0.16416 0.05926 0.73626 0.52442-0.67467
  -4   7   0    3.02    0.11   1-0.86956-0.35199 0.00039 0.79513 0.34472-0.54500
  -5   7   0    1.09    0.07   1-0.94875-0.57819 0.04212 0.75339 0.15354-0.40385
  -5   8   0    0.24    0.18   1-0.93527-0.59167 0.16604 0.74312 0.15509-0.40542
  -4   8   0    3.56    0.11   1-0.85568-0.36587 0.12553 0.78364 0.35506-0.55537
  -3   8   0    4.97    0.17   1-0.73079-0.18537 0.17978 0.72939 0.52986-0.68014
  -2   8   0   25.52    0.66   1-0.55684-0.05393 0.28566 0.62351 0.67814-0.77839
  -1   8   0    5.64    0.19   1-0.34486 0.03948 0.39004 0.51914 0.78567-0.83590
   0   8   0   76.39    0.97   1-0.15161 0.15162 0.45459 0.45459 0.84091-0.84111
  -1   9   0    2.29    0.08   1-0.33075 0.02537 0.45825 0.56457 0.75957-0.80982
  -2   9   0    1.11    0.07   1-0.53293-0.07784 0.37553 0.64729 0.66063-0.76091
  -3   9   0    6.89    0.21   1-0.70704-0.20912 0.28841 0.73441 0.52108-0.67139
  -4   9   0    0.00    0.18   1-0.83585-0.38570 0.24260 0.78021 0.34881-0.54915
  -5   9   0    0.88    0.06   1-0.91275-0.61419 0.28854 0.73426 0.13569-0.38605
  -4  10   0    0.00    0.18   1-0.81135-0.41020 0.35263 0.78382 0.32693-0.52729
  -3  10   0    0.61    0.21   1-0.68205-0.23411 0.38768 0.74878 0.49990-0.65023
  -2  10   0    0.00    0.19   1-0.51072-0.10005 0.45788 0.67858 0.63408-0.73439
  -1  10   0    0.22    0.15   1-0.31778 0.01240 0.52387 0.61259 0.72745-0.77773
   0  10   0   30.34    0.75   1-0.14006 0.14008 0.56823 0.56823 0.77683-0.77709
  -1  11   0    0.03    0.17   1-0.30520-0.00018 0.58780 0.66231 0.68898-0.73928
  -2  11   0    5.56    0.18   1-0.48965-0.12112 0.53503 0.71508 0.59883-0.69917
  -3  11   0    5.55    0.19   1-0.65625-0.25991 0.47982 0.77028 0.46685-0.61721
  -4  11   0    0.49    0.06   1-0.78257-0.43898 0.45718 0.79292 0.28856-0.48895
  -4  12   0    3.57    0.14   1-0.74859-0.47296 0.55843 0.80532 0.22985-0.43027
  -3  12   0    1.60    0.08   1-0.62946-0.28670 0.56675 0.79701 0.42116-0.57154
  -2  12   0    5.06    0.18   1-0.46908-0.14169 0.60857 0.75519 0.55438-0.65474
  -1  12   0    0.33    0.17   1-0.29243-0.01295 0.65059 0.71317 0.64335-0.69368
   0  12   0    1.48    0.08   1-0.12450 0.12452 0.68188 0.68188 0.69050-0.69081
  -1  13   0   12.37    0.42   1-0.27888-0.02649 0.71262 0.76479 0.58920-0.63955
  -2  13   0    1.10    0.07   1-0.44820-0.16256 0.67966 0.79774 0.49925-0.59963
  -3  13   0    5.61    0.21   1-0.60084-0.31532 0.65017 0.82723 0.36019-0.51060
  -3  14   0    0.17    0.12   1-0.56839-0.34776 0.73200 0.85905 0.27728-0.42771
  -2  14   0    0.24    0.16   1-0.42597-0.18479 0.74923 0.84182 0.43034-0.53075
  -1  14   0    1.62    0.08   1-0.26391-0.04146 0.77418 0.81687 0.52414-0.57453
   0  14   0    6.87    0.21   1-0.10313 0.10315 0.79553 0.79553 0.57193-0.57229
  -1  15   0   13.99    0.44   1-0.24651-0.05886 0.83554 0.86916 0.44381-0.49422
  -2  15   0    0.73    0.05   1-0.40059-0.21017 0.81824 0.88646 0.34095-0.44138
  -1  16   0    0.33    0.13   1-0.22468-0.08069 0.89708 0.92126 0.33832-0.38876
   0  16   0    2.82    0.08   1-0.07087 0.07089 0.90918 0.90918 0.39298-0.39339
  -5   1   1    2.12    0.10   1-0.82778-0.67373-0.49055 0.60415-0.40412 0.30930
  -4   1   1    1.58    0.09   1-0.71155-0.48457-0.63820 0.75180-0.40641 0.36162
  -3   1   1    1.38    0.06   1-0.60453-0.28620-0.75820 0.87180-0.33986 0.34510
  -2   1   1   20.85    0.40   1-0.51329-0.07205-0.85335 0.96696-0.17395 0.22921
  -1   1   1  563.70    4.03   1-0.40668 0.12674-0.87058 0.98419 0.20679-0.10150
   0   1   1  150.83    1.57   1-0.13966 0.16511-0.72107 0.83468 0.64676-0.49144
   0   2   1    9.46    0.19   1-0.15481 0.18026-0.41918 0.64644 0.85726-0.70197
  -1   2   1   11.50    0.25   1-0.42649 0.14655-0.62714 0.85440 0.57324-0.46798
  -2   2   1  253.53    1.38   1-0.57937-0.00596-0.76423 0.99148 0.18480-0.12957
  -3   2   1   32.34    0.66   1-0.66730-0.22342-0.74265 0.96990-0.05347 0.05868
  -4   2   1    3.38    0.13   1-0.76058-0.43554-0.64594 0.87319-0.18904 0.14422
  -4   3   1    0.99    0.09   1-0.80389-0.39222-0.57883 0.91972 0.00342-0.04826
  -3   3   1   14.92    0.48   1-0.71434-0.17638-0.63251 0.97340 0.17852-0.17334
  -2   3   1   75.05    0.80   1-0.60914 0.02381-0.58110 0.92200 0.43276-0.37755
  -1   3   1    8.43    0.24   1-0.40825 0.12831-0.38705 0.72795 0.74880-0.64356
   0   3   1   66.58    0.52   1-0.15654 0.18199-0.21572 0.55663 0.92521-0.76995
   0   4   1    0.23    0.13   1-0.15518 0.18063-0.06970 0.52426 0.94671-0.79147
  -1   4   1   24.97    0.41   1-0.38398 0.10404-0.20099 0.65554 0.82618-0.72097
  -2   4   1    7.27    0.25   1-0.60911 0.02378-0.38764 0.84219 0.58286-0.52768
  -3   4   1   90.62    1.16   1-0.73929-0.15143-0.48155 0.93610 0.34336-0.33820
  -4   4   1    0.30    0.26   1-0.83422-0.36189-0.46714 0.92168 0.15253-0.19740
  -4   5   1    1.04    0.09   1-0.85048-0.34563-0.33581 0.90400 0.26017-0.30507
  -3   5   1   29.18    0.70   1-0.74545-0.14527-0.32293 0.89112 0.45321-0.44807
  -2   5   1   81.54    0.94   1-0.59340 0.00807-0.21429 0.78248 0.66823-0.61307
  -1   5   1  129.06    0.99   1-0.36307 0.08313-0.05599 0.62419 0.85805-0.75287
   0   5   1   45.31    0.56   1-0.15260 0.17805 0.04592 0.52228 0.94888-0.79367
   0   6   1   99.57    0.91   1-0.14923 0.17468 0.14434 0.53751 0.94052-0.78533
  -1   6   1    6.53    0.22   1-0.34618 0.06625 0.06311 0.61874 0.86667-0.76152
  -2   6   1    4.42    0.15   1-0.57174-0.01359-0.06524 0.74708 0.71315-0.65801
  -3   6   1    6.35    0.22   1-0.73855-0.15217-0.17141 0.85325 0.52229-0.51719
  -4   6   1   25.37    0.77   1-0.85440-0.34171-0.19940 0.88123 0.33344-0.37836
  -5   6   1    0.13    0.20   1-0.93911-0.56238-0.12830 0.81014 0.16064-0.25559
  -5   7   1   10.52    0.35   1-0.93495-0.56654-0.00353 0.79901 0.19681-0.29178
  -4   7   1    0.26    0.25   1-0.84855-0.34756-0.06529 0.86078 0.37900-0.42394
  -3   7   1    0.24    0.21   1-0.72364-0.16708-0.03190 0.82739 0.56159-0.55651
  -2   7   1   51.91    0.86   1-0.54900-0.03633 0.06334 0.73215 0.73221-0.67711
  -1   7   1    0.12    0.12   1-0.33220 0.05227 0.16600 0.62949 0.86149-0.75635
   0   7   1    0.88    0.05   1-0.14515 0.17060 0.23229 0.56321 0.92493-0.76977
   0   8   1   21.11    0.53   1-0.14035 0.16581 0.31347 0.59567 0.90342-0.74829
  -1   8   1   54.12    0.86   1-0.32003 0.04010 0.25840 0.65074 0.84669-0.74158
  -2   8   1    0.83    0.06   1-0.52708-0.05824 0.17644 0.73270 0.73369-0.67860
  -3   8   1    1.14    0.08   1-0.70424-0.18647 0.09525 0.81388 0.57865-0.57360
  -4   8   1   14.70    0.50   1-0.83532-0.36079 0.06327 0.84586 0.40188-0.44685
  -5   8   1    1.62    0.07   1-0.92226-0.57924 0.12241 0.78671 0.21062-0.30562
  -5   9   1    2.33    0.07   1-0.90125-0.60024 0.24876 0.77401 0.20228-0.29730
  -4   9   1    0.28    0.21   1-0.81658-0.37952 0.18540 0.83737 0.40545-0.45045
  -3   9   1   24.21    0.74   1-0.68250-0.20822 0.21153 0.81125 0.57831-0.57328
  -2   9   1    1.93    0.08   1-0.50646-0.07887 0.27824 0.74454 0.72209-0.66703
  -1   9   1   34.27    0.75   1-0.30883 0.02890 0.34379 0.67900 0.82416-0.71908
   0   9   1   43.51    0.82   1-0.13478 0.16023 0.39007 0.63272 0.87640-0.72129
   0  10   1   55.61    1.00   1-0.12834 0.15380 0.46348 0.67295 0.84379-0.68871
  -1  10   1    3.56    0.12   1-0.29798 0.01804 0.42432 0.71211 0.79462-0.68956
  -2  10   1    6.72    0.21   1-0.48695-0.09837 0.37191 0.76452 0.69976-0.64473
  -3  10   1    2.84    0.10   1-0.65951-0.23121 0.31891 0.81752 0.56339-0.55839
  -4  10   1    1.28    0.08   1-0.79349-0.40261 0.30156 0.83486 0.39142-0.43644
  -4  11   1    1.27    0.07   1-0.76639-0.42971 0.41305 0.83702 0.35968-0.40473
  -3  11   1    0.03    0.20   1-0.63564-0.25508 0.41940 0.83067 0.53515-0.53017
  -2  11   1    9.34    0.33   1-0.46813-0.11719 0.45976 0.79031 0.66765-0.61264
  -1  11   1    0.17    0.18   1-0.28698 0.00705 0.50146 0.74862 0.75805-0.65302
   0  11   1    1.16    0.07   1-0.12093 0.14639 0.53462 0.71546 0.80516-0.65011
   0  12   1    1.98    0.08   1-0.11234 0.13780 0.60416 0.75957 0.75971-0.60467
  -1  12   1    0.59    0.24   1-0.27541-0.00452 0.57620 0.78752 0.71387-0.60886
  -2  12   1    9.77    0.32   1-0.44944-0.13588 0.54352 0.82021 0.62561-0.57063
  -3  12   1    1.20    0.07   1-0.61069-0.28002 0.51487 0.84884 0.49334-0.48839
  -4  12   1    0.45    0.15   1-0.73449-0.46161 0.52208 0.84163 0.30724-0.35231
  -3  13   1    0.49    0.16   1-0.58389-0.30682 0.60721 0.87015 0.43578-0.43085
  -2  13   1   10.04    0.32   1-0.43017-0.15515 0.62454 0.85283 0.57243-0.51748
  -1  13   1    0.11    0.19   1-0.26280-0.01713 0.64933 0.82804 0.66082-0.55584
   0  13   1    8.84    0.29   1-0.10234 0.12780 0.67260 0.80478 0.70608-0.55107
   0  14   1    7.05    0.21   1-0.09049 0.11595 0.74039 0.85063 0.64207-0.48709
  -1  14   1    5.40    0.17   1-0.24856-0.03137 0.72154 0.86948 0.59661-0.49165
  -2  14   1    1.60    0.07   1-0.40934-0.17597 0.70407 0.88695 0.50522-0.45029
  -3  14   1    0.16    0.15   1-0.55339-0.33732 0.69874 0.89227 0.35641-0.35150
  -2  15   1    0.08    0.12   1-0.38528-0.20004 0.78360 0.92106 0.41748-0.36258
  -1  15   1    1.45    0.06   1-0.23175-0.04818 0.79357 0.91109 0.51687-0.41194
   0  15   1    0.84    0.06   1-0.07606 0.10152 0.80803 0.89664 0.56368-0.40872
   0  16   1    4.87    0.16   1-0.05748 0.08294 0.87628 0.94203 0.46228-0.30735
  -1  16   1    4.30    0.14   1-0.21036-0.06956 0.86665 0.95166 0.41163-0.30673
  -4   0   2    6.60    0.22   1-0.70724-0.46343-0.63414 0.63405-0.42404 0.53461
  -3   0   2    0.52    0.05   1-0.58942-0.27586-0.75416 0.75408-0.38203 0.54263
  -2   0   2  117.43    0.93   1-0.45822-0.10167-0.87192 0.87184-0.24517 0.45580
  -1   0   2  851.01    5.38   1-0.23911-0.01539-0.96913 0.96906 0.02037 0.24028
   0   0   2    9.84    0.21   1-0.04990 0.10079-0.98494 0.98487 0.15534 0.15534
   0   1   2   28.78    0.33   1-0.09984 0.15074-0.85353 0.96710 0.48832-0.17767
  -1   1   2   99.47    0.66   1-0.28738 0.03289-0.88394 0.99751 0.31702-0.05640
  -2   1   2    0.25    0.12   1-0.50201-0.05788-0.86043 0.97400 0.00425 0.20635
  -3   1   2    3.11    0.11   1-0.62655-0.23873-0.77462 0.88819-0.18741 0.34798
  -4   1   2   32.51    0.82   1-0.73625-0.43442-0.65794 0.77150-0.27666 0.38721
  -4   2   2    4.55    0.13   1-0.76806-0.40261-0.64023 0.86744-0.11170 0.22222
  -3   2   2   23.96    0.58   1-0.66310-0.20218-0.73664 0.96385 0.02270 0.13785
  -2   2   2    2.28    0.07   1-0.53456-0.02533-0.77174 0.99896 0.25245-0.04187
  -1   2   2   12.49    0.27   1-0.31248 0.05798-0.72115 0.94837 0.55894-0.29834
   0   2   2  298.23    3.14   1-0.12479 0.17568-0.65328 0.88051 0.71638-0.40575
   0   3   2   27.70    0.38   1-0.13446 0.18535-0.45799 0.79886 0.84494-0.53434
  -1   3   2    2.44    0.08   1-0.31966 0.06517-0.53722 0.87809 0.71773-0.45716
  -2   3   2    6.94    0.23   1-0.54939-0.01049-0.62895 0.96982 0.45280-0.24225
  -3   3   2   18.74    0.53   1-0.69058-0.17469-0.64347 0.98434 0.21278-0.05226
  -4   3   2   13.08    0.44   1-0.79633-0.37434-0.57767 0.91853 0.04660 0.06390
  -5   4   2    0.13    0.24   1-0.90900-0.56705-0.36290 0.81740 0.05342 0.00702
  -4   4   2    0.67    0.08   1-0.81651-0.35416-0.48058 0.93509 0.18198-0.07151
  -3   4   2   47.06    0.85   1-0.70508-0.16019-0.51604 0.97055 0.36443-0.20393
  -2   4   2    1.49    0.06   1-0.54877-0.01112-0.46776 0.92227 0.59372-0.38319
  -1   4   2  242.15    1.28   1-0.31796 0.06347-0.36596 0.82048 0.81081-0.55026
   0   4   2  242.17    1.21   1-0.13717 0.18806-0.28989 0.74440 0.91198-0.60141
   0   5   2    1.04    0.05   1-0.13663 0.18753-0.14717 0.71534 0.94405-0.63350
  -1   5   2    0.00    0.12   1-0.31275 0.05826-0.21537 0.78353 0.86142-0.60089
  -2   5   2   64.00    0.85   1-0.53861-0.02127-0.31064 0.87880 0.68446-0.47397
  -3   5   2   19.63    0.59   1-0.70739-0.15788-0.37492 0.94307 0.47531-0.31484
  -4   5   2   93.42    1.43   1-0.82695-0.34371-0.36282 0.93097 0.28837-0.17792
  -5   5   2    0.75    0.08   1-0.91919-0.55686-0.26235 0.83050 0.13921-0.07879
  -5   6   2    0.35    0.23   1-0.92156-0.55449-0.14876 0.83055 0.20283-0.14244
  -4   6   2    3.67    0.11   1-0.82815-0.34252-0.23572 0.91752 0.36606-0.25565
  -3   6   2    1.78    0.08   1-0.70048-0.16479-0.23331 0.91512 0.55065-0.39021
  -2   6   2    4.90    0.14   1-0.52392-0.03596-0.16609 0.84790 0.73835-0.52787
  -1   6   2    0.71    0.05   1-0.30628 0.05179-0.08331 0.76511 0.88533-0.62483
   0   6   2    2.02    0.07   1-0.13431 0.18521-0.02360 0.70541 0.95528-0.64476
   0   7   2   44.02    0.71   1-0.13078 0.18168 0.08623 0.70922 0.95287-0.64237
  -1   7   2   25.46    0.56   1-0.29927 0.04478 0.03434 0.76111 0.89164-0.63117
  -2   7   2   89.05    1.15   1-0.50764-0.05224-0.03518 0.83063 0.76607-0.55562
  -3   7   2    0.71    0.24   1-0.68746-0.17781-0.09769 0.89314 0.59731-0.43689
  -4   7   2    1.23    0.09   1-0.82155-0.34911-0.10667 0.90211 0.41795-0.30756
  -5   7   2    3.65    0.12   1-0.91617-0.55988-0.02785 0.82330 0.24434-0.18397
  -5   8   2    1.78    0.07   1-0.90333-0.57272 0.09695 0.81214 0.26421-0.20387
  -4   8   2    2.38    0.10   1-0.80880-0.36186 0.02031 0.88879 0.44730-0.33694
  -3   8   2    6.00    0.19   1-0.67072-0.19455 0.02976 0.87934 0.62123-0.46083
  -2   8   2   44.67    0.88   1-0.49116-0.06872 0.08383 0.82527 0.77484-0.56442
  -1   8   2    6.14    0.21   1-0.29187 0.03739 0.14121 0.76789 0.88535-0.62490
   0   8   2    0.05    0.12   1-0.12625 0.17715 0.18623 0.72288 0.94048-0.63000
   0   9   2    6.21    0.20   1-0.12078 0.17169 0.27910 0.74365 0.91992-0.60947
  -1   9   2  122.21    1.43   1-0.28404 0.02955 0.24011 0.78264 0.86914-0.60872
  -2   9   2    1.86    0.08   1-0.47492-0.08495 0.19328 0.82947 0.76910-0.55870
  -3   9   2    3.43    0.12   1-0.65180-0.21347 0.14904 0.87370 0.62675-0.46638
  -4   9   2    2.63    0.09   1-0.79123-0.37943 0.14348 0.87926 0.45677-0.34643
  -5   9   2    2.87    0.08   1-0.88296-0.59308 0.22458 0.79816 0.26197-0.20166
  -4  10   2    3.79    0.13   1-0.76968-0.40098 0.26268 0.87371 0.44788-0.33756
  -3  10   2   11.75    0.41   1-0.63151-0.23376 0.26121 0.87518 0.61668-0.45633
  -2  10   2    0.74    0.07   1-0.45893-0.10095 0.29535 0.84104 0.75138-0.54101
  -1  10   2    0.44    0.06   1-0.27561 0.02112 0.33311 0.80328 0.84430-0.58391
   0  10   2    0.01    0.14   1-0.11435 0.16525 0.36679 0.76961 0.89196-0.58154
   0  11   2   32.13    0.83   1-0.10685 0.15775 0.45069 0.79936 0.85669-0.54629
  -1  11   2    0.61    0.06   1-0.26639 0.01190 0.42177 0.82827 0.81124-0.55087
  -2  11   2    0.51    0.22   1-0.44291-0.11697 0.39189 0.85815 0.72285-0.51250
  -3  11   2    0.00    0.18   1-0.61010-0.25517 0.36767 0.88236 0.59235-0.43203
  -4  11   2    0.18    0.17   1-0.74431-0.42635 0.37886 0.87117 0.42052-0.31023
  -4  12   2    4.53    0.15   1-0.71422-0.45643 0.49425 0.86943 0.37177-0.26151
  -3  12   2    6.17    0.21   1-0.58734-0.27792 0.47004 0.89364 0.55363-0.39334
  -2  12   2   12.06    0.40   1-0.42644-0.13343 0.48447 0.87922 0.68354-0.47323
  -1  12   2    0.16    0.18   1-0.25613 0.00164 0.50731 0.85638 0.76964-0.50929
   0  12   2    5.81    0.20   1-0.09811 0.14902 0.53186 0.83183 0.81357-0.50320
   0  13   2    9.96    0.34   1-0.08788 0.13879 0.61118 0.86616 0.76144-0.45109
  -1  13   2    0.15    0.17   1-0.24448-0.01001 0.59075 0.88659 0.71836-0.45804
  -2  13   2    2.63    0.09   1-0.40895-0.15092 0.57447 0.90287 0.63234-0.42205
  -3  13   2    0.00    0.17   1-0.56246-0.30280 0.57020 0.90713 0.49840-0.33813
  -3  14   2    0.68    0.05   1-0.53359-0.33167 0.67090 0.92007 0.42042-0.26018
  -2  14   2    0.19    0.16   1-0.38953-0.17034 0.66336 0.92762 0.56632-0.35605
  -1  14   2    0.15    0.16   1-0.23090-0.02358 0.67308 0.91790 0.65513-0.39483
   0  14   2   16.52    0.52   1-0.07569 0.12660 0.68949 0.90150 0.69805-0.38773
   0  15   2   14.86    0.49   1-0.06075 0.11166 0.76776 0.93687 0.61911-0.30881
  -1  15   2    0.00    0.14   1-0.21446-0.04002 0.75556 0.94907 0.57532-0.31505
  -2  15   2    1.05    0.05   1-0.36648-0.19339 0.75324 0.95139 0.47860-0.26836
  -1  16   2    0.07    0.12   1-0.19295-0.06153 0.84041 0.97787 0.46780-0.20756
   0  16   2    2.02    0.07   1-0.04121 0.09212 0.84769 0.97059 0.51480-0.20453
  -5   1   3   18.07    0.60   1-0.85134-0.59928-0.52406 0.63759-0.16338 0.37924
  -4   1   3   30.32    0.80   1-0.73925-0.40597-0.67342 0.78695-0.12580 0.39169
  -3   1   3   47.67    0.81   1-0.61251-0.22732-0.78576 0.89930-0.01521 0.33112
  -2   1   3  261.61    1.49   1-0.44554-0.08891-0.85995 0.97349 0.17282 0.19312
  -1   1   3    3.54    0.13   1-0.20684-0.02221-0.88528 0.99882 0.37723 0.03874
   0   1   3  167.70    0.93   1-0.07159 0.14793-0.87528 0.98883 0.46029 0.00570
   0   2   3  146.26    0.91   1-0.09522 0.17156-0.73498 0.96217 0.64687-0.18090
  -1   2   3    0.00    0.11   1-0.23432 0.00527-0.76247 0.98965 0.55675-0.14081
  -2   2   3   61.51    0.75   1-0.46815-0.06629-0.77026 0.99744 0.35070 0.01521
  -3   2   3  178.99    1.58   1-0.63618-0.20365-0.72944 0.95662 0.14394 0.17194
  -4   2   3    1.63    0.09   1-0.76104-0.38418-0.63543 0.86260 0.00433 0.26153
  -5   2   3    2.86    0.10   1-0.86823-0.58238-0.49013 0.71730-0.06592 0.28176
  -6   2   3   12.59    0.41   1-0.96038-0.79563-0.26019 0.48736-0.05868 0.22449
  -6   3   3    1.57    0.07   1-0.96697-0.78902-0.19666 0.53747 0.00159 0.16419
  -5   3   3    3.48    0.11   1-0.88323-0.56738-0.43337 0.77419 0.03217 0.18364
  -4   3   3    1.97    0.09   1-0.77931-0.36591-0.56879 0.90962 0.13191 0.13392
  -3   3   3    0.37    0.17   1-0.65299-0.18684-0.64003 0.98086 0.29264 0.02322
  -2   3   3    2.15    0.08   1-0.48041-0.05403-0.64922 0.99004 0.50317-0.13728
  -1   3   3  216.14    1.23   1-0.25211 0.02306-0.61725 0.95808 0.69406-0.27814
   0   3   3  171.83    1.05   1-0.10841 0.18475-0.57781 0.91865 0.78038-0.31444
   0   4   3   15.45    0.36   1-0.11463 0.19097-0.42354 0.87802 0.86778-0.40186
  -1   4   3    4.86    0.16   1-0.26212 0.03308-0.46821 0.92269 0.78961-0.37372
  -2   4   3    2.07    0.06   1-0.48358-0.05085-0.51246 0.96694 0.62091-0.25505
  -3   4   3   23.21    0.62   1-0.66147-0.17835-0.52669 0.98116 0.41846-0.10262
  -4   4   3   58.02    1.12   1-0.79175-0.35347-0.47764 0.93211 0.24605 0.01976
  -5   4   3    9.54    0.32   1-0.89425-0.55636-0.35509 0.80956 0.12238 0.09340
  -6   4   3    0.01    0.15   1-0.96938-0.78662-0.11357 0.56803 0.05603 0.10973
  -5   5   3    1.18    0.08   1-0.89982-0.55079-0.25939 0.82750 0.19871 0.01705
  -4   5   3   41.58    0.97   1-0.79735-0.34787-0.36926 0.93737 0.34040-0.07462
  -3   5   3    5.63    0.19   1-0.66207-0.17775-0.40049 0.96862 0.51654-0.20073
  -2   5   3    8.66    0.30   1-0.48027-0.05417-0.37281 0.94093 0.70464-0.33880
  -1   5   3    7.87    0.26   1-0.26673 0.03769-0.32538 0.89351 0.85131-0.43545
   0   5   3  104.39    0.97   1-0.11659 0.19293-0.28017 0.84830 0.92094-0.45505
   0   6   3  201.57    1.45   1-0.11588 0.19223-0.14904 0.83082 0.94980-0.48394
  -1   6   3   42.68    0.69   1-0.26772 0.03867-0.19221 0.87399 0.88757-0.47173
  -2   6   3    3.87    0.12   1-0.47293-0.06150-0.23751 0.91928 0.75960-0.39379
  -3   6   3    1.78    0.08   1-0.65632-0.18351-0.27031 0.95208 0.58744-0.27165
  -4   6   3   27.66    0.80   1-0.79621-0.34901-0.25094 0.93271 0.41272-0.14696
  -5   6   3    0.01    0.20   1-0.89922-0.55138-0.15104 0.83280 0.25778-0.04205
  -5   7   3    3.09    0.09   1-0.89226-0.55834-0.03414 0.82955 0.29799-0.08229
  -4   7   3    0.32    0.23   1-0.78912-0.35609-0.12834 0.92375 0.46333-0.19760
  -3   7   3   11.51    0.38   1-0.64596-0.19387-0.14165 0.93706 0.63420-0.31844
  -2   7   3    3.03    0.11   1-0.46333-0.07111-0.10946 0.90488 0.79165-0.42586
  -1   7   3   13.91    0.45   1-0.26621 0.03716-0.06880 0.86422 0.90488-0.48907
   0   7   3    0.18    0.13   1-0.11337 0.18972-0.02888 0.82431 0.96115-0.49532
   0   8   3    9.37    0.31   1-0.10946 0.18581 0.08223 0.82684 0.95925-0.49344
  -1   8   3   28.17    0.66   1-0.26285 0.03381 0.04604 0.86303 0.90765-0.49187
  -2   8   3   10.97    0.38   1-0.45244-0.08199 0.01093 0.89814 0.80556-0.43980
  -3   8   3   45.63    0.99   1-0.63246-0.20736-0.01721 0.92627 0.66034-0.34460
  -4   8   3    1.53    0.08   1-0.77706-0.36815-0.00509 0.91415 0.49362-0.22791
  -5   8   3    2.95    0.09   1-0.87887-0.57174 0.08867 0.82038 0.31843-0.10275
  -5   9   3    0.86    0.05   1-0.85861-0.59199 0.21677 0.80593 0.31755-0.10190
  -4   9   3    3.00    0.10   1-0.76085-0.38436 0.11696 0.90574 0.50501-0.23933
  -3   9   3    0.48    0.24   1-0.61683-0.22300 0.10216 0.92055 0.66883-0.35313
  -2   9   3   14.16    0.48   1-0.44076-0.09368 0.12439 0.89832 0.80473-0.43899
  -1   9   3    5.82    0.19   1-0.25799 0.02895 0.15380 0.86892 0.89865-0.48289
   0   9   3    0.22    0.15   1-0.10436 0.18071 0.18617 0.83655 0.94663-0.48084
   0  10   3    1.27    0.07   1-0.09809 0.17444 0.28453 0.85183 0.92462-0.45886
  -1  10   3   32.20    0.81   1-0.25176 0.02272 0.25592 0.88044 0.87943-0.46370
  -2  10   3    0.27    0.20   1-0.42839-0.10604 0.23208 0.90428 0.79126-0.42555
  -3  10   3    2.91    0.10   1-0.59958-0.24024 0.21671 0.91965 0.66174-0.34605
  -4  10   3    4.93    0.17   1-0.74097-0.40424 0.23735 0.89900 0.49827-0.23262
  -4  11   3    2.93    0.10   1-0.71730-0.42791 0.35689 0.89311 0.47275-0.20712
  -3  11   3   20.07    0.65   1-0.58087-0.25895 0.32730 0.92271 0.64000-0.32434
  -2  11   3    5.07    0.15   1-0.41524-0.11919 0.33523 0.91478 0.76617-0.40049
  -1  11   3   30.78    0.83   1-0.24418 0.01514 0.35371 0.89630 0.85064-0.43494
   0  11   3    0.18    0.18   1-0.09061 0.16696 0.37865 0.87136 0.89372-0.42799
   0  12   3   13.97    0.47   1-0.08176 0.15811 0.46969 0.89397 0.85366-0.38795
  -1  12   3    2.77    0.10   1-0.23511 0.00607 0.44833 0.91532 0.81213-0.39645
  -2  12   3    0.58    0.20   1-0.40103-0.13339 0.43510 0.92855 0.72945-0.36380
  -3  12   3    0.00    0.17   1-0.56040-0.27942 0.43524 0.92841 0.60322-0.28759
  -4  12   3    2.60    0.08   1-0.68869-0.45652 0.47805 0.88560 0.42485-0.15925
  -3  13   3    0.42    0.18   1-0.53734-0.30247 0.54247 0.93483 0.54887-0.23327
  -2  13   3    9.79    0.34   1-0.38526-0.14916 0.53306 0.94423 0.67986-0.31423
  -1  13   3    0.34    0.20   1-0.22428-0.00476 0.54090 0.93640 0.76282-0.34716
   0  13   3    6.04    0.20   1-0.07126 0.14761 0.55870 0.91860 0.80334-0.33766
   0  14   3    2.56    0.09   1-0.05861 0.13496 0.64682 0.94413 0.74037-0.27471
  -1  14   3    0.21    0.17   1-0.21117-0.01786 0.63269 0.95826 0.70026-0.28462
  -2  14   3    0.13    0.15   1-0.36704-0.16738 0.63082 0.96013 0.61412-0.24852
  -3  14   3    6.40    0.22   1-0.50962-0.33020 0.65247 0.93847 0.46966-0.15408
  -2  15   3    0.06    0.04   1-0.34448-0.18994 0.73130 0.97329 0.52411-0.15853
  -1  15   3    3.22    0.10   1-0.19473-0.03431 0.72548 0.97911 0.61914-0.20353
   0  15   3    2.63    0.08   1-0.04284 0.11919 0.73559 0.96901 0.65976-0.19413
   0  16   3    0.15    0.04   1-0.02154 0.09790 0.82813 0.99012 0.54885-0.08324
  -6   0   4    9.89    0.34   1-0.93528-0.79528-0.33679 0.33663-0.04583 0.36703
  -5   0   4    1.65    0.09   1-0.82999-0.59518-0.55679 0.55663-0.10290 0.47413
  -4   0   4   23.10    0.71   1-0.70470-0.41508-0.70828 0.70813-0.07407 0.49532
  -3   0   4   99.44    1.21   1-0.55393-0.26045-0.82509 0.82494 0.01927 0.45200
  -2   0   4   44.56    0.67   1-0.35920-0.14980-0.90713 0.90698 0.15773 0.36357
  -1   0   4   28.92    0.48   1-0.13534-0.06827-0.94583 0.94568 0.26918 0.30215
   0   0   4  282.50    1.41   1-0.02160 0.12339-0.94774 0.94760 0.31068 0.31068
   0   1   4    6.73    0.23   1-0.04866 0.15044-0.86796 0.98147 0.47980 0.14153
  -1   1   4   57.43    0.67   1-0.16350-0.04010-0.87364 0.98715 0.42550 0.14580
  -2   1   4  149.96    1.23   1-0.38410-0.12490-0.84752 0.96102 0.29864 0.22264
  -3   1   4    1.35    0.07   1-0.57561-0.23878-0.78230 0.89580 0.14077 0.33048
  -4   1   4    6.14    0.22   1-0.72268-0.39710-0.67587 0.78936 0.02457 0.39665
  -5   1   4   13.10    0.45   1-0.84344-0.58173-0.52583 0.63932-0.02941 0.40061
  -6   1   4    0.59    0.05   1-0.94258-0.78798-0.29655 0.41004-0.00275 0.32392
  -6   2   4    6.95    0.21   1-0.94840-0.78215-0.24284 0.46998 0.04582 0.27533
  -5   2   4    2.99    0.11   1-0.85585-0.56932-0.47977 0.70691 0.05056 0.32061
  -4   2   4   13.46    0.44   1-0.73861-0.38116-0.62464 0.85178 0.12927 0.29193
  -3   2   4    9.46    0.33   1-0.59325-0.22113-0.71655 0.94369 0.26494 0.20629
  -2   2   4   75.62    0.90   1-0.40348-0.10552-0.76162 0.98877 0.43433 0.08692
  -1   2   4  178.51    1.20   1-0.18767-0.01594-0.77270 0.99985 0.56764 0.00364
   0   2   4   31.42    0.51   1-0.06900 0.17078-0.75749 0.98464 0.62929-0.00799
   0   3   4   31.34    0.53   1-0.08251 0.18430-0.62894 0.96975 0.74924-0.12797
  -1   3   4   76.12    0.82   1-0.20647 0.00287-0.65242 0.99322 0.68567-0.11442
  -2   3   4   11.41    0.38   1-0.41652-0.09247-0.65476 0.99556 0.55412-0.03289
  -3   3   4   10.15    0.33   1-0.60557-0.20881-0.62907 0.96986 0.38176 0.08944
  -4   3   4    2.25    0.10   1-0.75107-0.36871-0.55361 0.89439 0.23200 0.18917
  -5   3   4    1.63    0.09   1-0.86594-0.55922-0.41684 0.75762 0.13091 0.24023
  -6   3   4    0.52    0.05   1-0.95150-0.77905-0.17335 0.51413 0.09491 0.22621
  -5   4   4    2.60    0.10   1-0.87249-0.55267-0.33750 0.79193 0.20574 0.16538
  -4   4   4   10.52    0.37   1-0.75893-0.36085-0.46488 0.91932 0.32561 0.09554
  -3   4   4   30.11    0.73   1-0.61209-0.20230-0.52465 0.97909 0.48355-0.01238
  -2   4   4    1.53    0.06   1-0.42360-0.08539-0.53488 0.98932 0.65193-0.13073
  -1   4   4    0.22    0.13   1-0.21986 0.01626-0.52301 0.97745 0.77646-0.20524
   0   4   4   12.80    0.37   1-0.09041 0.19220-0.49407 0.94852 0.83833-0.21708
   0   5   4    0.13    0.14   1-0.09415 0.19594-0.36055 0.92864 0.90010-0.27887
  -1   5   4   31.97    0.61   1-0.22854 0.02494-0.39213 0.96023 0.84168-0.27048
  -2   5   4   55.37    0.88   1-0.42579-0.08320-0.40939 0.97748 0.72636-0.20518
  -3   5   4    0.07    0.18   1-0.61310-0.20128-0.40944 0.97753 0.56616-0.09501
  -4   5   4   16.03    0.55   1-0.76168-0.35809-0.36251 0.93059 0.40512 0.01600
  -5   5   4   11.89    0.40   1-0.87457-0.55059-0.24387 0.81195 0.27025 0.10085
  -5   6   4    4.29    0.15   1-0.87161-0.55355-0.13875 0.82048 0.32105 0.05002
  -4   6   4    0.52    0.21   1-0.75938-0.36039-0.25098 0.93271 0.46785-0.04675
  -3   6   4    4.46    0.14   1-0.60946-0.20492-0.28899 0.97072 0.62853-0.15741
  -2   6   4    0.29    0.16   1-0.42428-0.08471-0.28356 0.96530 0.77893-0.25778
  -1   6   4   47.13    0.79   1-0.23338 0.02978-0.26425 0.94599 0.88498-0.31380
   0   6   4   55.63    0.84   1-0.09492 0.19671-0.23217 0.91391 0.93946-0.31826
   0   7   4    0.42    0.15   1-0.09348 0.19527-0.11020 0.90559 0.96085-0.33967
  -1   7   4   15.19    0.47   1-0.23518 0.03159-0.14133 0.93672 0.91014-0.33899
  -2   7   4    1.36    0.07   1-0.42008-0.08891-0.16042 0.95580 0.81235-0.29123
  -3   7   4   66.25    1.18   1-0.60213-0.21224-0.16734 0.96272 0.67152-0.20042
  -4   7   4    2.48    0.10   1-0.75245-0.36732-0.13417 0.92954 0.51291-0.09183
  -5   7   4    0.16    0.16   1-0.86330-0.56186-0.02466 0.82003 0.35587 0.01517
  -5   8   4    0.26    0.15   1-0.84928-0.57588 0.09691 0.81211 0.37282-0.00180
  -4   8   4    0.68    0.07   1-0.74142-0.37835-0.01482 0.92384 0.54037-0.11932
  -3   8   4   47.78    1.04   1-0.59198-0.22239-0.04691 0.95594 0.69675-0.22568
  -2   8   4   45.85    0.94   1-0.41388-0.09510-0.04128 0.95031 0.82932-0.30822
  -1   8   4    1.53    0.07   1-0.23453 0.03093-0.02385 0.93288 0.92028-0.34915
   0   8   4   10.37    0.32   1-0.09031 0.19210 0.00545 0.90358 0.96765-0.34650
   0   9   4   15.71    0.54   1-0.08567 0.18746 0.11549 0.90719 0.96218-0.34106
  -1   9   4    6.65    0.23   1-0.23181 0.02822 0.08853 0.93415 0.91764-0.34655
  -2   9   4   15.66    0.52   1-0.40610-0.10288 0.07364 0.94904 0.83201-0.31094
  -3   9   4   22.25    0.72   1-0.57962-0.23476 0.07117 0.95150 0.70584-0.23480
  -4   9   4    0.61    0.07   1-0.72672-0.39305 0.10551 0.91716 0.55055-0.12952
  -5   9   4    0.35    0.05   1-0.82869-0.59647 0.22643 0.79624 0.36915 0.00185
  -4  10   4    9.24    0.30   1-0.70849-0.41128 0.22650 0.90982 0.54325-0.12226
  -3  10   4    0.11    0.19   1-0.56536-0.24901 0.18674 0.94958 0.69992-0.22890
  -2  10   4   13.27    0.47   1-0.39692-0.11207 0.18471 0.95162 0.82187-0.30082
  -1  10   4    9.38    0.33   1-0.22725 0.02366 0.19650 0.93982 0.90365-0.33258
   0  10   4    1.54    0.08   1-0.07964 0.18144 0.22083 0.91550 0.94583-0.32473
   0  11   4   13.20    0.45   1-0.07221 0.17401 0.32248 0.92750 0.91917-0.29809
  -1  11   4    6.24    0.21   1-0.22092 0.01733 0.30095 0.94902 0.87891-0.30786
  -2  11   4    1.54    0.08   1-0.38630-0.12268 0.29266 0.95731 0.79955-0.27852
  -3  11   4    0.04    0.17   1-0.54922-0.26515 0.30032 0.94965 0.67928-0.20828
  -4  11   4    1.89    0.07   1-0.68630-0.43346 0.34915 0.90082 0.51691-0.09594
  -4  12   4    2.71    0.09   1-0.65849-0.46127 0.47689 0.88672 0.46636-0.04542
  -3  12   4    0.23    0.15   1-0.53083-0.28354 0.41310 0.95051 0.64293-0.17196
  -2  12   4   23.88    0.70   1-0.37405-0.13493 0.39852 0.96510 0.76474-0.24374
  -1  12   4    0.53    0.20   1-0.21274 0.00915 0.40286 0.96076 0.84323-0.27221
   0  12   4    5.49    0.16   1-0.06322 0.16502 0.42145 0.94217 0.88197-0.26093
   0  13   4    5.88    0.19   1-0.05235 0.15415 0.51888 0.95839 0.83302-0.21200
  -1  13   4   10.89    0.35   1-0.20244-0.00115 0.50338 0.97388 0.79539-0.22439
  -2  13   4   10.72    0.35   1-0.35968-0.14930 0.50364 0.97362 0.71583-0.19486
  -3  13   4    0.51    0.05   1-0.50920-0.30517 0.52734 0.94992 0.58744-0.11650
  -2  14   4    0.01    0.15   1-0.34220-0.16678 0.61017 0.98074 0.64871-0.12776
  -1  14   4    5.10    0.16   1-0.18944-0.01415 0.60408 0.98683 0.73245-0.16148
   0  14   4   13.22    0.46   1-0.03899 0.14080 0.61622 0.97469 0.76945-0.14845
   0  15   4    0.99    0.05   1-0.02186 0.12366 0.71588 0.98869 0.68471-0.06374
  -1  15   4    9.25    0.30   1-0.17238-0.03121 0.70766 0.99690 0.64754-0.07660
  -6   1   5    3.90    0.13   1-0.92459-0.78052-0.26790 0.38135 0.11581 0.36070
  -5   1   5    4.79    0.15   1-0.82428-0.57544-0.51274 0.62620 0.10199 0.42455
  -4   1   5    1.34    0.08   1-0.69333-0.40100-0.66358 0.77704 0.16380 0.41276
  -3   1   5    4.79    0.16   1-0.53111-0.25783-0.76508 0.87855 0.27237 0.35422
  -2   1   5    4.82    0.15   1-0.33382-0.14973-0.82521 0.93868 0.39497 0.28165
  -1   1   5    0.15    0.13   1-0.13742-0.04074-0.85132 0.96479 0.47718 0.24946
   0   1   5    0.85    0.05   1-0.02806 0.15529-0.84625 0.95972 0.52046 0.25621
   0   2   5   70.73    0.85   1-0.04522 0.17246-0.75191 0.97903 0.64159 0.13505
  -1   2   5    5.00    0.17   1-0.15753-0.02063-0.76293 0.99005 0.59289 0.13372
  -2   2   5    3.40    0.10   1-0.35094-0.13260-0.74412 0.97124 0.50344 0.17315
  -3   2   5   37.37    0.81   1-0.54561-0.24333-0.69564 0.92275 0.37180 0.25476
  -4   2   5    7.69    0.27   1-0.70574-0.38859-0.60451 0.83162 0.24900 0.32753
  -5   2   5    0.94    0.07   1-0.83361-0.56611-0.45833 0.68543 0.16766 0.35885
  -5   3   5   34.76    0.83   1-0.84045-0.55927-0.39050 0.73125 0.23305 0.29344
  -4   3   5    2.28    0.09   1-0.71499-0.37934-0.53066 0.87142 0.33204 0.24447
  -3   3   5    7.50    0.28   1-0.55614-0.23279-0.61050 0.95125 0.46534 0.16120
  -2   3   5  145.66    1.40   1-0.36413-0.11942-0.64737 0.98813 0.60103 0.07554
  -1   3   5   34.09    0.62   1-0.17439-0.00376-0.65864 0.99941 0.69366 0.03293
   0   3   5   25.43    0.54   1-0.05775 0.18498-0.64198 0.98274 0.74491 0.03171
   0   4   5   73.40    0.94   1-0.06597 0.19321-0.52319 0.97760 0.82749-0.05090
  -1   4   5    7.17    0.25   1-0.18757 0.00942-0.54422 0.99863 0.77606-0.04949
  -2   4   5    0.03    0.15   1-0.37326-0.11029-0.53943 0.99383 0.68357-0.00703
  -3   4   5    0.19    0.16   1-0.56244-0.22649-0.51251 0.96691 0.54806 0.07846
  -4   4   5   18.07    0.59   1-0.72049-0.37384-0.44336 0.89776 0.40811 0.16838
  -5   4   5    0.87    0.07   1-0.84404-0.55568-0.30947 0.76386 0.29388 0.23258
  -5   5   5   20.72    0.61   1-0.84376-0.55596-0.21635 0.78439 0.34639 0.18005
  -4   5   5    7.36    0.24   1-0.72198-0.37234-0.34500 0.91305 0.47348 0.10298
  -3   5   5    9.34    0.30   1-0.56467-0.22427-0.40533 0.97338 0.61681 0.00967
  -2   5   5    2.89    0.09   1-0.37865-0.10490-0.42485 0.99290 0.74924-0.07272
  -1   5   5  190.96    1.61   1-0.19712 0.01897-0.42485 0.99291 0.83941-0.11287
   0   5   5   43.49    0.77   1-0.07060 0.19783-0.40107 0.96913 0.88951-0.11294
   0   6   5   46.46    0.84   1-0.07231 0.19955-0.27933 0.96104 0.93275-0.15621
  -1   6   5    6.97    0.24   1-0.20336 0.02521-0.30437 0.98607 0.88478-0.15826
  -2   6   5    7.24    0.22   1-0.38079-0.10275-0.30735 0.98905 0.79800-0.12151
  -3   6   5    1.29    0.08   1-0.56324-0.22569-0.29248 0.97417 0.67017-0.04370
  -4   6   5    1.76    0.09   1-0.71948-0.37484-0.23837 0.92006 0.52571 0.05073
  -5   6   5    3.74    0.11   1-0.83915-0.56057-0.11264 0.79433 0.38749 0.13891
  -5   7   5    1.12    0.06   1-0.82977-0.56994 0.00045 0.79489 0.41464 0.11175
  -4   7   5    3.16    0.11   1-0.71320-0.38113-0.12599 0.92134 0.56343 0.01298
  -3   7   5   27.12    0.77   1-0.55868-0.23026-0.17678 0.97213 0.70790-0.08147
  -2   7   5   18.37    0.60   1-0.38020-0.10334-0.18953 0.98487 0.83081-0.15435
  -1   7   5    3.49    0.12   1-0.20669 0.02854-0.18513 0.98048 0.91394-0.18745
   0   7   5   11.37    0.40   1-0.07170 0.19894-0.16004 0.95539 0.95950-0.18298
   0   8   5   19.83    0.63   1-0.06916 0.19640-0.04406 0.95306 0.97185-0.19536
  -1   8   5    0.01    0.15   1-0.20749 0.02934-0.06834 0.97734 0.92869-0.20223
  -2   8   5    0.69    0.07   1-0.37731-0.10623-0.07287 0.98187 0.84895-0.17252
  -3   8   5    9.21    0.30   1-0.55146-0.23747-0.06017 0.96916 0.73047-0.10406
  -4   8   5   33.83    0.82   1-0.70336-0.39096-0.00974 0.91873 0.58595-0.00956
  -5   8   5    1.67    0.07   1-0.81499-0.58472 0.12277 0.78622 0.42513 0.10122
  -4   9   5    2.33    0.08   1-0.69011-0.40421 0.10939 0.91325 0.59266-0.01630
  -3   9   5    1.68    0.08   1-0.54192-0.24701 0.05633 0.96631 0.73843-0.11204
  -4   0   6   89.27    1.38   1-0.08552-0.98337-0.17088 0.17066 0.95434-0.22242
  -4   1   6    5.73    0.21   1-0.08820-0.98068-0.06747 0.18090 0.96596-0.23406
  -4   2   6   20.37    0.68   1-0.08981-0.97907 0.03822 0.18885 0.96706-0.23519
  -5   1  -5    2.66    0.07   1-0.69891-0.95527 0.36721-0.25340-0.72002-0.30683
  -4   1  -5   12.98    0.43   1-0.42563-0.92316 0.49808-0.38427-0.81511-0.16171
  -4   2  -5    2.35    0.09   1-0.43352-0.91527 0.61555-0.38809-0.72041-0.25644
  -5   2  -5    1.25    0.06   1-0.70850-0.94568 0.45796-0.23051-0.64584-0.38104
  -5   3  -5    3.40    0.10   1-0.71564-0.93853 0.51726-0.17616-0.58035-0.44655
  -4   3  -5    2.23    0.08   1-0.43588-0.91290 0.69801-0.35691-0.63202-0.34485
  -4   4  -5    3.06    0.11   1-0.43367-0.91512 0.75300-0.29825-0.55941-0.41749
  -5   4  -5    0.34    0.12   1-0.72137-0.93280 0.55140-0.09665-0.53165-0.49527
  -5   0  -4    0.16    0.14   1-0.67825-0.95048 0.30598-0.30585-0.77024-0.10124
  -5   1  -4    0.05    0.16   1-0.69704-0.93170 0.46993-0.35616-0.64855-0.22297
  -5   2  -4    2.58    0.08   1-0.71091-0.91782 0.56987-0.34245-0.52313-0.34840
  -4   3  -4    0.33    0.18   1-0.45976-0.86358 0.79555-0.45449-0.46476-0.35678
  -5   3  -4    2.23    0.07   1-0.71550-0.91323 0.62207-0.28101-0.43097-0.44060
  -5   4  -4    9.22    0.33   1-0.71305-0.91568 0.65036-0.19565-0.37531-0.49628
  -4   4  -4    8.36    0.28   1-0.44874-0.87461 0.83659-0.38188-0.38368-0.43788
  -4   5  -4    5.10    0.16   1-0.43309-0.89025 0.86167-0.29331-0.33205-0.48953
  -5   5  -4    0.00    0.13   1-0.70838-0.92035 0.66583-0.09748-0.34723-0.52438
  -5   6  -4    2.69    0.10   1-0.70663-0.92210 0.67045 0.01155-0.33904-0.53260
  -5   1  -3    0.29    0.19   1-0.71911-0.88418 0.57556-0.46182-0.50204-0.21413
  -5   2  -3    0.43    0.17   1-0.74181-0.86148 0.64751-0.42012-0.29380-0.42239
  -5   3  -3    5.63    0.18   1-0.73927-0.86402 0.66891-0.32788-0.19787-0.51836
  -5   4  -3    0.80    0.06   1-0.72474-0.87854 0.68769-0.23301-0.16104-0.55521
  -5   5  -3    0.00    0.15   1-0.70718-0.89610 0.70601-0.13769-0.15326-0.56301
  -4   5  -3    2.38    0.09   1-0.44830-0.84959 0.89280-0.32447-0.11694-0.54931
  -5   6  -3    1.84    0.06   1-0.69221-0.91107 0.72001-0.03804-0.16212-0.55418
  -5   7  -3    0.03    0.13   1-0.68440-0.91889 0.72559 0.07002-0.18277-0.53355
  -5   3  -2    7.04    0.24   1-0.77312-0.80472 0.59016-0.24916 0.10244-0.66332
  -5   4  -2    0.15    0.18   1-0.74092-0.83692 0.63819-0.18355 0.08481-0.64572
  -4   5  -2    9.39    0.32   1-0.46344-0.80901 0.86273-0.29444 0.12342-0.63433
  -5   5  -2    2.63    0.08   1-0.70993-0.86790 0.68161-0.11333 0.05831-0.61925
  -5   6  -2    0.01    0.16   1-0.68362-0.89422 0.71631-0.03438 0.02580-0.58676
  -2   9   5    0.86    0.07   1-0.37240-0.11114 0.04195 0.98069 0.85359-0.17717
  -1   9   5   31.31    0.82   1-0.20603 0.02788 0.04562 0.97703 0.93052-0.20408
   0   9   5    3.58    0.11   1-0.06493 0.19217 0.06846 0.95419 0.97144-0.19498
   0  10   5    5.98    0.23   1-0.05910 0.18634 0.17786 0.95843 0.95929-0.18285
  -1  10   5   30.82    0.83   1-0.20250 0.02435 0.15689 0.97941 0.92037-0.19396
  -2  10   5   21.38    0.69   1-0.36561-0.11793 0.15491 0.98138 0.84546-0.16908
  -3  10   5    2.84    0.09   1-0.53021-0.25872 0.17245 0.96383 0.73204-0.10568
  -4  10   5   16.39    0.50   1-0.67325-0.42107 0.23152 0.90477 0.58241-0.00607
  -4  11   5    6.88    0.22   1-0.65196-0.44236 0.35847 0.89146 0.55226 0.02405
  -3  11   5    2.61    0.09   1-0.51619-0.27274 0.28868 0.96125 0.71084-0.08450
  -2  11   5   44.55    0.97   1-0.35691-0.12663 0.26643 0.98351 0.82472-0.14836
  -1  11   5    3.27    0.11   1-0.19693 0.01878 0.26599 0.98395 0.89858-0.17219
   0  11   5   32.83    0.85   1-0.05165 0.17889 0.28479 0.96515 0.93574-0.15933
   0  12   5    6.78    0.23   1-0.04239 0.16963 0.39012 0.97347 0.90033-0.12394
  -1  12   5    2.47    0.09   1-0.18921 0.01106 0.37375 0.98983 0.86468-0.13832
  -2  12   5    8.72    0.30   1-0.34607-0.13747 0.37743 0.98615 0.79056-0.11423
  -3  12   5    0.34    0.17   1-0.49935-0.28957 0.40643 0.95715 0.67293-0.04662
  -3  13   5    1.73    0.06   1-0.47831-0.31061 0.52893 0.94830 0.61309 0.01319
  -2  13   5    0.00    0.14   1-0.33253-0.15100 0.48950 0.98773 0.74063-0.06432
  -1  13   5   19.10    0.59   1-0.17901 0.00086 0.48145 0.99578 0.81697-0.09064
   0  13   5    0.10    0.05   1-0.03092 0.15817 0.49511 0.98212 0.85137-0.07501
   0  14   5    0.00    0.13   1-0.01640 0.14365 0.60178 0.98910 0.78489-0.00855
  -1  14   5    0.35    0.16   1-0.16552-0.01262 0.59123 0.99965 0.75143-0.02512
  -2  14   5    0.34    0.13   1-0.31497-0.16856 0.60583 0.98505 0.66899 0.00730
  -1  15   5    2.95    0.10   1-0.14669-0.03145 0.70786 0.99667 0.65743 0.06885
   0  15   5    1.00    0.05   1 0.00323 0.12401 0.71448 0.99005 0.69056 0.08575
  -5   0   6    2.23    0.08   1-0.78825-0.58602-0.53246 0.53224 0.17529 0.50661
  -4   0   6   96.31    1.44   1-0.64573-0.42315-0.68849 0.68827 0.22010 0.51182
  -3   0   6    7.28    0.25   1-0.47327-0.29022-0.79304 0.79283 0.30101 0.48095
  -2   0   6    0.34    0.05   1-0.27868-0.17942-0.85633 0.85611 0.38347 0.44851
  -1   0   6  170.00    1.46   1-0.10053-0.05218-0.88454 0.88433 0.43308 0.44892
   0   0   6   10.46    0.33   1 0.00886 0.14382-0.88224 0.88203 0.46602 0.46602
   0   1   6   20.00    0.52   1-0.00846 0.16113-0.81372 0.92716 0.57214 0.35987
  -1   1   6    2.33    0.07   1-0.11854-0.03417-0.81942 0.93285 0.53400 0.34798
  -2   1   6    9.14    0.30   1-0.29552-0.16258-0.79381 0.90724 0.47612 0.35583
  -3   1   6    7.02    0.25   1-0.48808-0.27541-0.73595 0.84938 0.38309 0.39883
  -4   1   6    6.51    0.22   1-0.65800-0.41088-0.63696 0.75038 0.28859 0.44331
  -5   1   6    3.42    0.11   1-0.79722-0.57705-0.48327 0.59669 0.22643 0.45545
  -5   2   6    0.80    0.07   1-0.80429-0.56998-0.42319 0.65026 0.27988 0.40197
  -4   2   6   21.91    0.70   1-0.66809-0.40080-0.57354 0.80061 0.35833 0.37354
  -3   2   6    0.23    0.17   1-0.50048-0.26301-0.66565 0.89272 0.46425 0.31765
  -2   2   6    2.78    0.11   1-0.31042-0.14768-0.71688 0.94396 0.56515 0.26678
  -1   2   6    0.21    0.11   1-0.13512-0.01759-0.73863 0.96571 0.62954 0.25241
   0   2   6   62.40    0.91   1-0.02286 0.17554-0.72888 0.95597 0.67143 0.26055
   0   3   6   27.45    0.63   1-0.03396 0.18664-0.63103 0.97176 0.75913 0.17283
  -1   3   6    0.07    0.13   1-0.14952-0.00319-0.64474 0.98547 0.71516 0.16677
  -2   3   6   14.50    0.48   1-0.32279-0.13531-0.62739 0.96812 0.64635 0.18556
  -3   3   6    0.87    0.07   1-0.51000-0.25350-0.58305 0.92377 0.54047 0.24141
  -4   3   6    0.46    0.07   1-0.67547-0.39341-0.49829 0.83901 0.42568 0.30617
  -5   3   6    3.32    0.10   1-0.80889-0.56538-0.35168 0.69239 0.33240 0.34942
  -5   4   6    0.84    0.06   1-0.81048-0.56379-0.26879 0.72315 0.38072 0.30108
  -4   4   6    2.46    0.09   1-0.67977-0.38911-0.41211 0.86647 0.48724 0.24458
  -3   4   6    4.13    0.13   1-0.51637-0.24712-0.48998 0.94435 0.60838 0.17347
  -2   4   6   39.03    0.82   1-0.33232-0.12578-0.52805 0.98242 0.71662 0.11526
  -1   4   6    3.89    0.13   1-0.16131 0.00860-0.54115 0.99552 0.78786 0.09404
   0   4   6    0.79    0.05   1-0.04176 0.19444-0.52412 0.97850 0.83241 0.09952
   0   5   6   12.90    0.43   1-0.04653 0.19921-0.41189 0.97991 0.89022 0.04168
  -1   5   6   12.15    0.41   1-0.17032 0.01761-0.43126 0.99929 0.84623 0.03564
  -2   5   6   18.63    0.59   1-0.33899-0.11910-0.42175 0.98977 0.77416 0.05769
  -3   5   6   24.85    0.74   1-0.51960-0.24388-0.38873 0.95675 0.66555 0.11628
  -4   5   6   17.42    0.58   1-0.68081-0.38807-0.31651 0.88452 0.54017 0.19163
  -5   5   6    1.00    0.06   1-0.80858-0.56569-0.17499 0.74300 0.42176 0.26001
  -5   6   6    1.57    0.06   1-0.80270-0.57156-0.07080 0.75246 0.45269 0.22906
  -4   6   6    1.86    0.09   1-0.67854-0.39033-0.21319 0.89485 0.58234 0.14943
  -3   6   6   50.93    1.04   1-0.51986-0.24363-0.28161 0.96327 0.71051 0.07129
  -2   6   6    0.40    0.16   1-0.34293-0.11517-0.31113 0.99279 0.81826 0.01356
  -1   6   6   33.13    0.78   1-0.17660 0.02389-0.31797 0.99964 0.89007-0.00821
   0   6   6    7.96    0.24   1-0.04866 0.20135-0.29726 0.97893 0.93277-0.00089
   0   7   6   82.01    1.26   1-0.04850 0.20119-0.18223 0.97755 0.96089-0.02904
  -1   7   6    7.31    0.24   1-0.18031 0.02760-0.20338 0.99870 0.91986-0.03804
  -2   7   6   21.86    0.68   1-0.34433-0.11376-0.19819 0.99351 0.84893-0.01713
  -3   7   6    4.79    0.17   1-0.51736-0.24612-0.17055 0.96586 0.74256 0.03921
  -4   7   6   12.45    0.44   1-0.67301-0.39587-0.10373 0.89904 0.61221 0.11954
  -5   7   6    0.00    0.14   1-0.79224-0.58203 0.04388 0.75142 0.47062 0.21110
  -4   8   6    2.02    0.08   1-0.66421-0.40466 0.01081 0.89815 0.62856 0.10316
  -3   8   6   46.47    1.00   1-0.51233-0.25115-0.05697 0.96592 0.76141 0.02034
  -2   8   6    2.19    0.09   1-0.34340-0.11469-0.08431 0.99327 0.86653-0.03475
  -1   8   6    0.26    0.19   1-0.18161 0.02891-0.08882 0.99779 0.93639-0.05459
   0   8   6    0.11    0.16   1-0.04633 0.19902-0.06799 0.97696 0.97557-0.04375
   0   9   6   17.83    0.61   1-0.04232 0.19500 0.04497 0.97765 0.97767-0.04586
  -1   9   6    4.17    0.14   1-0.18067 0.02797 0.02504 0.99757 0.94034-0.05857
  -2   9   6    0.91    0.07   1-0.34027-0.11782 0.02978 0.99282 0.87141-0.03966
  -3   9   6    0.58    0.22   1-0.50490-0.25859 0.05838 0.96423 0.76685 0.01487
  -4   9   6   18.87    0.53   1-0.65202-0.41685 0.13015 0.89245 0.63002 0.10168
  -4  10   6    5.88    0.19   1-0.63588-0.43299 0.25535 0.88090 0.61426 0.11741
  -3  10   6    6.05    0.20   1-0.49502-0.26847 0.17540 0.96085 0.75837 0.02333
  -2  10   6    6.23    0.20   1-0.33499-0.12310 0.14393 0.99232 0.86368-0.03195
  -1  10   6    4.71    0.17   1-0.17755 0.02485 0.13808 0.99818 0.93210-0.05035
   0  10   6   18.18    0.62   1-0.03652 0.18921 0.15665 0.97961 0.96763-0.03585
   0  11   6    0.00    0.18   1-0.02885 0.18154 0.26749 0.98241 0.94533-0.01358
  -1  11   6    1.03    0.07   1-0.17221 0.01951 0.25064 0.99926 0.91150-0.02978
  -2  11   6   11.32    0.40   1-0.32744-0.13065 0.25853 0.99137 0.84284-0.01114
  -3  11   6    6.75    0.22   1-0.48239-0.28109 0.29489 0.95500 0.73459 0.04708
  -3  12   6    4.07    0.12   1-0.46618-0.29730 0.41913 0.94441 0.69212 0.08953
  -2  12   6    4.62    0.14   1-0.31729-0.14080 0.37469 0.98886 0.80734 0.02433
  -1  12   6    5.54    0.18   1-0.16444 0.01174 0.36362 0.99993 0.87751 0.00419
   0  12   6    2.19    0.08   1-0.01904 0.17173 0.37843 0.98513 0.90973 0.02200
   0  13   6    1.35    0.06   1-0.00650 0.15919 0.49114 0.98606 0.85812 0.07358
  -1  13   6    5.90    0.21   1-0.15370 0.00101 0.47871 0.99848 0.82745 0.05423
  -2  13   6    7.00    0.22   1-0.30370-0.15439 0.49481 0.98239 0.75335 0.07830
  -1  14   6   16.49    0.43   1-0.13870-0.01399 0.59959 0.99125 0.75469 0.12696
   0  14   6    0.15    0.11   1 0.01018 0.14251 0.60917 0.98168 0.78380 0.14788
  -5   1   7   26.05    0.64   1-0.76542-0.58341-0.43536 0.54874 0.34224 0.49497
  -4   1   7    0.59    0.23   1-0.62146-0.42198-0.59615 0.70954 0.39980 0.48744
  -3   1   7    3.25    0.11   1-0.44996-0.28808-0.69552 0.80891 0.47906 0.45821
  -2   1   7    6.19    0.20   1-0.26603-0.16663-0.75297 0.86636 0.55035 0.43694
  -1   1   7   38.58    0.79   1-0.10252-0.02474-0.77791 0.89131 0.59497 0.44235
   0   1   7    1.28    0.06   1 0.01088 0.16725-0.77094 0.88434 0.63017 0.45717
   0   2   7    8.00    0.26   1-0.00116 0.17929-0.69206 0.91911 0.71205 0.37527
  -1   2   7    0.35    0.05   1-0.11619-0.01108-0.70193 0.92898 0.67434 0.36295
  -2   2   7   15.26    0.49   1-0.27876-0.15389-0.67921 0.90625 0.62427 0.36300
  -3   2   7   82.39    1.31   1-0.46062-0.27743-0.62551 0.85255 0.54593 0.39131
  -4   2   7    0.46    0.19   1-0.62978-0.41366-0.53039 0.75742 0.45681 0.43040
  -5   2   7    0.09    0.15   1-0.77064-0.57819-0.37127 0.59831 0.38481 0.45238
  -5   3   7    2.56    0.08   1-0.77349-0.57534-0.29668 0.63736 0.42589 0.41127
  -4   3   7    7.86    0.26   1-0.63585-0.40759-0.45453 0.79521 0.51131 0.37588
  -3   3   7   12.52    0.42   1-0.46916-0.26889-0.54522 0.88591 0.60860 0.32861
  -2   3   7   87.05    1.28   1-0.28977-0.14289-0.59489 0.93558 0.69230 0.29494
  -1   3   7   11.63    0.40   1-0.12825 0.00099-0.61493 0.95562 0.74670 0.29056
   0   3   7   27.33    0.70   1-0.01072 0.18885-0.60219 0.94289 0.78587 0.30142
   0   4   7    5.08    0.18   1-0.01769 0.19581-0.50376 0.95811 0.84921 0.23806
  -1   4   7   13.02    0.44   1-0.13835 0.01108-0.51898 0.97332 0.80958 0.22767
  -2   4   7   30.35    0.78   1-0.29872-0.13393-0.50170 0.95604 0.75204 0.23518
  -3   4   7   11.44    0.39   1-0.47533-0.26272-0.45586 0.91020 0.66458 0.27261
  -4   4   7    3.76    0.13   1-0.63937-0.40406-0.36917 0.82350 0.56071 0.32645
  -5   4   7    0.87    0.06   1-0.77349-0.57533-0.21140 0.66573 0.46278 0.37436
  -5   5   7    0.61    0.05   1-0.77016-0.57867-0.11527 0.68324 0.49275 0.34436
  -4   5   7   11.73    0.39   1-0.64016-0.40328-0.27525 0.84322 0.60276 0.28438
  -3   5   7    0.51    0.20   1-0.47901-0.25903-0.35891 0.92689 0.71188 0.22529
  -2   5   7   36.22    0.87   1-0.30545-0.12720-0.40156 0.96954 0.80179 0.18540
  -1   5   7   11.86    0.40   1-0.14625 0.01899-0.41634 0.98433 0.86138 0.17583
   0   5   7    2.33    0.08   1-0.02212 0.20025-0.39924 0.96723 0.90066 0.18658
   0   6   7    0.50    0.06   1-0.02420 0.20233-0.29077 0.97240 0.93967 0.14755
  -1   6   7    0.22    0.15   1-0.15190 0.02464-0.30906 0.99070 0.90134 0.13585
  -2   6   7    4.37    0.14   1-0.30989-0.12276-0.29627 0.97790 0.84054 0.14663
  -3   6   7   18.86    0.63   1-0.48020-0.25784-0.25587 0.93750 0.74907 0.18807
  -4   6   7    1.81    0.08   1-0.63807-0.40536-0.17373 0.85535 0.63551 0.25161
  -5   6   7    0.31    0.15   1-0.76282-0.58600-0.00760 0.68922 0.51287 0.32422
  -4   7   7   11.65    0.38   1-0.63301-0.41042-0.06540 0.86067 0.65728 0.22981
  -3   7   7   11.83    0.37   1-0.47893-0.25911-0.14804 0.94331 0.77517 0.16194
  -2   7   7    3.79    0.13   1-0.31206-0.12059-0.18732 0.98260 0.86776 0.11938
  -1   7   7    8.17    0.26   1-0.15529 0.02803-0.19879 0.99408 0.92920 0.10797
   0   7   7    1.11    0.07   1-0.02409 0.20222-0.17998 0.97526 0.96619 0.12101
   0   8   7   10.31    0.33   1-0.02196 0.20009-0.06796 0.97689 0.98039 0.10678
  -1   8   7   19.47    0.64   1-0.15646 0.02920-0.08669 0.99562 0.94497 0.09217
  -2   8   7    0.58    0.20   1-0.31199-0.12066-0.07579 0.98471 0.88318 0.10394
  -3   8   7   13.27    0.44   1-0.47522-0.26282-0.03631 0.94523 0.78940 0.14768
  -4   8   7    0.05    0.16   1-0.62475-0.41868 0.04950 0.85942 0.66638 0.22068
  -4   9   7    0.97    0.05   1-0.61282-0.43061 0.17183 0.85073 0.66047 0.22657
  -3   9   7    2.94    0.10   1-0.46901-0.26903 0.07898 0.94359 0.79092 0.14614
  -2   9   7    1.52    0.08   1-0.30967-0.12297 0.03776 0.98481 0.88652 0.10057
  -1   9   7    3.24    0.12   1-0.15543 0.02817 0.02661 0.99597 0.94868 0.08843
   0   9   7    2.53    0.09   1-0.01787 0.19600 0.04476 0.97782 0.98241 0.10473
   0  10   7    5.73    0.17   1-0.01179 0.18992 0.15814 0.97809 0.97204 0.11507
  -1  10   7   26.56    0.73   1-0.15216 0.02490 0.14100 0.99522 0.94007 0.09702
  -2  10   7    6.97    0.24   1-0.30503-0.12762 0.15332 0.98290 0.87722 0.10984
  -3  10   7    6.30    0.21   1-0.46007-0.27797 0.19824 0.93797 0.77837 0.15867
  -4  10   7    0.62    0.04   1-0.59599-0.44744 0.30495 0.83126 0.63510 0.25192
  -3  11   7    4.40    0.15   1-0.44776-0.29027 0.32325 0.92661 0.74899 0.18802
  -2  11   7    1.80    0.07   1-0.29779-0.13485 0.27160 0.97827 0.85397 0.13306
  -1  11   7    3.96    0.13   1-0.14648 0.01922 0.25697 0.99290 0.91830 0.11877
   0  11   7    0.28    0.14   1-0.00353 0.18167 0.27275 0.97712 0.94844 0.13865
   0  12   7    0.34    0.05   1 0.00738 0.17076 0.38998 0.97354 0.90948 0.17759
  -1  12   7    0.83    0.06   1-0.13797 0.01072 0.37587 0.98765 0.88128 0.15576
  -2  12   7    0.38    0.15   1-0.28735-0.14529 0.39453 0.96899 0.81385 0.17317
  -2  13   7    2.93    0.08   1-0.27216-0.16049 0.52710 0.95006 0.74947 0.23752
  -1  13   7    2.85    0.10   1-0.12566-0.00159 0.50084 0.97632 0.82410 0.21291
   0  13   7    2.49    0.09   1 0.02204 0.15610 0.51301 0.96415 0.85000 0.23704
  -5   0   8   12.41    0.41   1-0.72568-0.59770-0.42153 0.42124 0.41767 0.57491
  -4   0   8    0.54    0.06   1-0.57798-0.44001-0.59776 0.59747 0.45349 0.58911
  -3   0   8   29.82    0.81   1-0.40690-0.30570-0.70292 0.70263 0.50901 0.58362
  -2   0   8    7.95    0.26   1-0.23065-0.17656-0.76304 0.76275 0.55803 0.58462
  -1   0   8  175.72    1.83   1-0.07536-0.02647-0.78823 0.78795 0.59033 0.60235
   0   0   8   19.70    0.63   1 0.04202 0.16154-0.78133 0.78105 0.62135 0.62135
   0   1   8   23.92    0.69   1 0.03041 0.17316-0.71705 0.83041 0.69210 0.55058
  -1   1   8   23.39    0.69   1-0.08742-0.01440-0.72584 0.83920 0.65892 0.53374
  -2   1   8    2.35    0.08   1-0.24221-0.16500-0.70150 0.81486 0.62168 0.52095
  -3   1   8    0.32    0.17   1-0.41715-0.29545-0.64300 0.75636 0.56543 0.52718
  -4   1   8    6.95    0.23   1-0.58626-0.43173-0.53993 0.65328 0.49990 0.54268
  -5   1   8    3.95    0.15   1-0.73100-0.59238-0.36420 0.47755 0.44961 0.54295
  -5   2   8    0.00    0.14   1-0.73445-0.58893-0.29670 0.52370 0.48189 0.51064
  -4   2   8   10.54    0.35   1-0.59303-0.42496-0.47280 0.69981 0.54591 0.49664
  -3   2   8    3.90    0.13   1-0.42617-0.28643-0.57357 0.80057 0.62045 0.47213
  -2   2   8   16.54    0.53   1-0.25291-0.15430-0.63000 0.85701 0.68306 0.45955
  -1   2   8   18.62    0.61   1-0.09864-0.00318-0.65297 0.87998 0.72478 0.46785
   0   2   8    0.03    0.18   1 0.02045 0.18313-0.64206 0.86907 0.75952 0.48313
   0   3   8    6.71    0.22   1 0.01243 0.19114-0.55754 0.89820 0.82101 0.42162
  -1   3   8   14.25    0.48   1-0.10860 0.00678-0.57056 0.91121 0.78539 0.40722
  -2   3   8   29.62    0.80   1-0.26235-0.14486-0.54926 0.88991 0.73984 0.40274
  -3   3   8   15.64    0.51   1-0.43360-0.27900-0.49507 0.83572 0.67184 0.42071
  -4   3   8   10.91    0.38   1-0.59792-0.42007-0.39649 0.73714 0.58936 0.45317
  -5   3   8    0.28    0.14   1-0.73556-0.58782-0.21849 0.55914 0.51215 0.48035
  -5   4   8    3.60    0.12   1-0.73379-0.58959-0.12884 0.58313 0.53786 0.45461
  -4   4   8    5.25    0.19   1-0.60066-0.41733-0.31134 0.76563 0.62813 0.41438
  -3   4   8    8.06    0.25   1-0.43918-0.27342-0.40829 0.86259 0.71761 0.37492
  -2   4   8    1.23    0.08   1-0.27021-0.13700-0.46035 0.91466 0.79003 0.35252
  -1   4   8    2.64    0.09   1-0.11698 0.01516-0.47989 0.93420 0.83869 0.35389
   0   4   8    5.23    0.18   1 0.00652 0.19705-0.46501 0.91931 0.87450 0.36811
   0   5   8    3.01    0.10   1 0.00277 0.20081-0.36609 0.93405 0.91854 0.32404
  -1   5   8    0.00    0.17   1-0.12357 0.02175-0.38245 0.95041 0.88315 0.30941
  -2   5   8   61.41    1.15   1-0.27628-0.13092-0.36453 0.93248 0.83208 0.31045
  -3   5   8    4.34    0.15   1-0.44273-0.26986-0.31415 0.88210 0.75602 0.33648
  -4   5   8   12.50    0.43   1-0.60100-0.41699-0.21777 0.78571 0.66022 0.38226
  -4   6   8    5.15    0.16   1-0.59871-0.41927-0.11613 0.79772 0.68375 0.35870
  -3   6   8    4.59    0.15   1-0.44413-0.26847-0.21358 0.89517 0.78568 0.30680
  -2   6   8   10.79    0.37   1-0.28041-0.12680-0.26299 0.94459 0.86481 0.27770
  -1   6   8    4.44    0.16   1-0.12822 0.02641-0.27965 0.96125 0.91771 0.27482
   0   6   8   17.58    0.60   1 0.00114 0.20244-0.26229 0.94389 0.95220 0.29036
   0   7   8   20.10    0.67   1 0.00158 0.20200-0.15479 0.95004 0.97490 0.26764
  -1   7   8    2.85    0.11   1-0.13086 0.02905-0.17265 0.96790 0.94167 0.25084
  -2   7   8    3.77    0.14   1-0.28249-0.12471-0.15675 0.95200 0.88735 0.25513
  -3   7   8    5.38    0.16   1-0.44326-0.26934-0.10730 0.90254 0.80534 0.28711
  -4   7   8   11.17    0.37   1-0.59349-0.42450-0.00630 0.80154 0.69673 0.34570
  -4   8   8    4.76    0.15   1-0.58480-0.43319 0.11281 0.79607 0.69662 0.34578
  -3   8   8    6.59    0.23   1-0.43998-0.27262 0.00438 0.90451 0.81379 0.27863
  -2   8   8    0.00    0.16   1-0.28243-0.12477-0.04648 0.95537 0.89896 0.24349
  -1   8   8    0.40    0.06   1-0.13141 0.02960-0.06227 0.97117 0.95449 0.23799
   0   8   8   10.31    0.34   1 0.00407 0.19951-0.04437 0.95326 0.98619 0.25632
   0   9   8    0.62    0.06   1 0.00865 0.19493 0.06867 0.95387 0.98553 0.25695
  -1   9   8    0.61    0.21   1-0.12978 0.02797 0.05112 0.97142 0.95558 0.23688
  -2   9   8    5.61    0.19   1-0.28009-0.12712 0.06764 0.95490 0.89876 0.24367
  -3   9   8    1.53    0.07   1-0.43402-0.27857 0.12181 0.90073 0.80945 0.28295
  -3  10   8    9.09    0.30   1-0.42481-0.28778 0.24667 0.88951 0.78962 0.30276
  -2  10   8    1.79    0.07   1-0.27519-0.13200 0.18611 0.95007 0.88534 0.25706
  -1  10   8    0.94    0.06   1-0.12578 0.02397 0.16776 0.96842 0.94392 0.24851
   0  10   8    2.95    0.11   1 0.01550 0.18808 0.18463 0.95156 0.97191 0.27055
   0  11   8    2.47    0.08   1 0.02505 0.17853 0.30477 0.94507 0.94327 0.29916
  -1  11   8    1.86    0.07   1-0.11902 0.01721 0.28882 0.96101 0.91756 0.27484
  -2  11   8    1.58    0.06   1-0.26721-0.13999 0.31070 0.93913 0.85601 0.28637
  -2  12   8    4.85    0.17   1-0.25481-0.15239 0.44625 0.91723 0.80444 0.33791
  -1  12   8    2.38    0.07   1-0.10862 0.00682 0.41734 0.94614 0.87216 0.32022
   0  12   8    0.96    0.05   1 0.03833 0.16526 0.43233 0.93116 0.89491 0.34749
  -4   1   9    0.86    0.06   1-0.55330-0.43924-0.46461 0.57793 0.59150 0.60642
  -3   1   9    0.00    0.18   1-0.38879-0.29836-0.57604 0.68936 0.64577 0.60217
  -2   1   9   30.43    0.82   1-0.22179-0.15997-0.63726 0.75058 0.69189 0.60608
  -1   1   9   46.45    1.00   1-0.07225-0.00413-0.66124 0.77457 0.72492 0.62308
   0   1   9   16.87    0.58   1 0.05055 0.17847-0.64998 0.76331 0.75645 0.64157
   0   2   9   29.02    0.80   1 0.04247 0.18655-0.57752 0.80450 0.81134 0.58665
  -1   2   9    3.32    0.10   1-0.08134 0.00497-0.59036 0.81734 0.77899 0.56898
  -2   2   9    7.88    0.26   1-0.23058-0.15118-0.56723 0.79420 0.74230 0.55565
  -3   2   9    2.78    0.09   1-0.39620-0.29095-0.50702 0.73399 0.69036 0.55756
  -4   2   9   26.70    0.65   1-0.55852-0.43402-0.39633 0.62330 0.62744 0.57046
  -4   3   9    0.42    0.19   1-0.56213-0.43041-0.31903 0.65965 0.66072 0.53715
  -3   3   9   16.92    0.55   1-0.40236-0.28479-0.42956 0.77018 0.73172 0.51618
  -2   3   9   21.55    0.70   1-0.23838-0.14338-0.48877 0.82939 0.78894 0.50898
  -1   3   9    2.60    0.09   1-0.08938 0.01301-0.51089 0.85151 0.82891 0.51903
   0   3   9   28.51    0.80   1 0.03599 0.19303-0.49648 0.83710 0.86160 0.53638
   0   4   9    3.61    0.12   1 0.03130 0.19772-0.40780 0.86207 0.90543 0.49252
  -1   4   9    1.25    0.07   1-0.09609 0.01972-0.42363 0.87790 0.87291 0.47501
  -2   4   9    1.05    0.07   1-0.24490-0.13687-0.40255 0.85681 0.83009 0.46780
  -3   4   9   38.15    0.86   1-0.40700-0.28015-0.34410 0.79837 0.76811 0.47976
  -4   4   9    0.00    0.15   1-0.56381-0.42873-0.23272 0.68698 0.68943 0.50841
  -4   5   9    0.18    0.14   1-0.56323-0.42931-0.13722 0.70513 0.71159 0.48623
  -3   5   9    0.67    0.07   1-0.40990-0.27725-0.25114 0.81905 0.79795 0.44990
  -2   5   9    1.97    0.08   1-0.24989-0.13187-0.30931 0.87722 0.86428 0.43358
  -1   5   9    3.21    0.12   1-0.10125 0.02488-0.32951 0.89743 0.90952 0.43838
   0   5   9    4.53    0.17   1 0.02851 0.20051-0.31252 0.88044 0.94140 0.45652
   0   6   9    0.23    0.15   1 0.02769 0.20134-0.21158 0.89314 0.96836 0.42954
  -1   6   9   12.21    0.40   1-0.10467 0.02830-0.22942 0.91098 0.93752 0.41035
  -2   6   9   10.47    0.34   1-0.25316-0.12860-0.20976 0.89132 0.89023 0.40761
  -3   6   9   15.79    0.50   1-0.41083-0.27632-0.15103 0.83259 0.81971 0.42811
  -4   6   9    0.22    0.12   1-0.55997-0.43257-0.03188 0.71343 0.72500 0.47279
  -4   7   9    0.19    0.11   1-0.55334-0.43920 0.08531 0.70990 0.72672 0.47104
  -3   7   9    9.06    0.30   1-0.40955-0.27760-0.04383 0.83903 0.83185 0.41594
  -2   7   9    9.33    0.33   1-0.25452-0.12724-0.10440 0.89961 0.90676 0.39106
  -1   7   9    0.54    0.06   1-0.10621 0.02984-0.12402 0.91923 0.95588 0.39196
   0   7   9    0.89    0.06   1 0.02890 0.20013-0.10567 0.90088 0.98531 0.41256
   0   8   9    0.49    0.18   1 0.03225 0.19678 0.00492 0.90394 0.99125 0.40660
  -1   8   9   12.94    0.44   1-0.10569 0.02933-0.01365 0.92251 0.96356 0.38426
  -2   8   9    4.30    0.14   1-0.25374-0.12802 0.00667 0.90218 0.91262 0.38517
  -3   8   9    0.32    0.14   1-0.40571-0.28144 0.07110 0.83775 0.83245 0.41532
  -3   9   9    0.74    0.04   1-0.39865-0.28849 0.19591 0.82659 0.81848 0.42926
  -2   9   9    0.00    0.15   1-0.25050-0.13125 0.12407 0.89843 0.90610 0.39167
  -1   9   9   11.24    0.39   1-0.10288 0.02651 0.10195 0.92056 0.95922 0.38858
   0   9   9    5.57    0.18   1 0.03797 0.19106 0.12051 0.90199 0.98478 0.41304
   0  10   9    0.88    0.05   1 0.04654 0.18248 0.24258 0.89358 0.96349 0.43430
  -1  10   9    0.38    0.14   1-0.09732 0.02095 0.22406 0.91209 0.94061 0.40715
  -2  10   9    1.65    0.06   1-0.24421-0.13754 0.24983 0.88632 0.88427 0.41347
  -1  11   9    1.29    0.05   1-0.08807 0.01171 0.35632 0.89347 0.90313 0.44461
   0  11   9    0.75    0.04   1 0.05914 0.16989 0.37520 0.87460 0.92216 0.47561
  -4   0  10    0.00    0.13   1-0.51758-0.44952-0.42148 0.42112 0.64988 0.70340
  -3   0  10    5.83    0.21   1-0.35714-0.30457-0.55031 0.54995 0.68615 0.71716
  -2   0  10   73.12    1.20   1-0.19564-0.16068-0.61732 0.61697 0.71979 0.73354
  -1   0  10   13.60    0.44   1-0.04858-0.00235-0.64185 0.64150 0.74714 0.75623
   0   0  10    1.50    0.07   1 0.07919 0.17527-0.62817 0.62782 0.77669 0.77669
   0   1  10    3.61    0.13   1 0.07176 0.18270-0.56577 0.67907 0.82222 0.73114
  -1   1  10    9.09    0.31   1-0.05640 0.00547-0.58053 0.69383 0.79220 0.71113
  -2   1  10    6.43    0.21   1-0.20316-0.15316-0.55638 0.66967 0.76167 0.69164
  -3   1  10    6.33    0.22   1-0.36366-0.29805-0.48971 0.60299 0.72227 0.68102
  -4   1  10    0.27    0.14   1-0.52224-0.44486-0.36093 0.47422 0.67675 0.67651
  -4   2  10    1.18    0.05   1-0.52573-0.44137-0.29071 0.51764 0.70258 0.65065
  -3   2  10    4.52    0.14   1-0.36941-0.29229-0.42058 0.64752 0.75703 0.64623
  -2   2  10    5.62    0.20   1-0.21013-0.14619-0.48708 0.71401 0.80194 0.65134
  -1   2  10   18.40    0.58   1-0.06356 0.01263-0.51075 0.73769 0.83550 0.66781
   0   2  10   20.91    0.67   1 0.06548 0.18899-0.49480 0.72174 0.86567 0.68767
   0   3  10    0.63    0.23   1 0.06059 0.19387-0.41566 0.75625 0.90526 0.64805
  -1   3  10    0.00    0.18   1-0.06978 0.01885-0.43282 0.77341 0.87530 0.62798
  -2   3  10    3.35    0.12   1-0.21624-0.14007-0.40965 0.75024 0.83894 0.61432
  -3   3  10    0.17    0.15   1-0.37411-0.28759-0.34303 0.68361 0.78877 0.61447
  -4   3  10    0.00    0.14   1-0.52768-0.43942-0.21043 0.55101 0.72546 0.62774
  -4   4  10    0.00    0.12   1-0.52764-0.43946-0.11928 0.57350 0.74329 0.60989
  -3   4  10    2.63    0.09   1-0.37746-0.28425-0.25712 0.71135 0.81582 0.58738
  -2   4  10    0.70    0.06   1-0.22123-0.13509-0.32443 0.77866 0.87109 0.58215
  -1   4  10   20.31    0.64   1-0.07479 0.02387-0.34720 0.80144 0.91000 0.59326
   0   4  10   14.26    0.46   1 0.05731 0.19716-0.32889 0.78313 0.93936 0.61393
   0   5  10    0.00    0.16   1 0.05581 0.19866-0.23503 0.80291 0.96647 0.58679
  -1   5  10   10.22    0.32   1-0.07837 0.02745-0.25436 0.82224 0.93813 0.56511
  -2   5  10    0.93    0.06   1-0.22483-0.13149-0.23172 0.79960 0.89688 0.55632
  -3   5  10    4.91    0.16   1-0.37916-0.28254-0.16280 0.73068 0.83652 0.56666
  -3   6  10    7.01    0.23   1-0.37888-0.28282-0.05961 0.74113 0.84900 0.55416
  -2   6  10    0.00    0.13   1-0.22677-0.12954-0.13166 0.81319 0.91485 0.53833
  -1   6  10    3.44    0.11   1-0.08029 0.02937-0.15463 0.83616 0.95828 0.54492
   0   6  10    0.00    0.15   1 0.05624 0.19822-0.13442 0.81595 0.98521 0.56803
   0   7  10    1.71    0.06   1 0.05884 0.19563-0.02704 0.82222 0.99407 0.55914
  -1   7  10    0.00    0.16   1-0.08030 0.02938-0.04803 0.84320 0.96902 0.53416
  -2   7  10    2.82    0.09   1-0.22676-0.12955-0.02398 0.81915 0.92336 0.52979
  -3   7  10    0.96    0.05   1-0.37612-0.28558 0.05389 0.74128 0.85088 0.55225
  -2   8  10    3.92    0.14   1-0.22437-0.13194 0.09248 0.81634 0.92023 0.53290
  -1   8  10    0.28    0.14   1-0.07806 0.02714 0.06609 0.84273 0.96852 0.53464
   0   8  10    0.19    0.13   1 0.06394 0.19053 0.08791 0.82092 0.99110 0.56208
   0   9  10    1.10    0.05   1 0.07225 0.18222 0.21289 0.80959 0.97303 0.58013
  -1   9  10    0.26    0.11   1-0.07299 0.02207 0.18978 0.83269 0.95389 0.54925
  -2   9  10   13.41    0.36   1-0.21881-0.13750 0.22098 0.80149 0.90169 0.55142
  -3   1  11    0.83    0.05   1-0.34034-0.29592-0.37270 0.48596 0.79596 0.76267
  -2   1  11    0.00    0.13   1-0.18509-0.14578-0.45109 0.56434 0.83107 0.77758
  -1   1  11    5.26    0.16   1-0.03928 0.01380-0.47659 0.58985 0.86006 0.79862
   0   1  11   11.37    0.34   1 0.09483 0.18508-0.45626 0.56953 0.88846 0.82024
   0   2  11    9.36    0.31   1 0.09040 0.18950-0.38560 0.61251 0.92072 0.78795
  -1   2  11   17.35    0.54   1-0.04454 0.01906-0.40690 0.63381 0.89286 0.76579
  -2   2  11    0.57    0.05   1-0.19021-0.14066-0.38150 0.60841 0.86129 0.74733
  -3   2  11    2.69    0.10   1-0.34427-0.29199-0.30220 0.52910 0.82057 0.73802
  -3   3  11    4.92    0.18   1-0.34716-0.28910-0.22208 0.56263 0.84201 0.71656
  -2   3  11    0.00    0.13   1-0.19451-0.13636-0.30338 0.64393 0.88841 0.72019
  -1   3  11   11.37    0.41   1-0.04889 0.02341-0.32885 0.66941 0.92244 0.73618
   0   3  11    1.20    0.06   1 0.08731 0.19260-0.30644 0.64700 0.94944 0.75921
   0   4  11    1.91    0.07   1 0.08582 0.19410-0.21885 0.67306 0.97295 0.73567
  -1   4  11    1.84    0.07   1-0.05204 0.02656-0.24248 0.69669 0.94720 0.71139
  -2   4  11    9.38    0.31   1-0.19770-0.13317-0.21658 0.67078 0.91079 0.69778
  -3   4  11    1.37    0.05   1-0.34863-0.28763-0.13164 0.58583 0.85835 0.70019
  -2   5  11    0.21    0.13   1-0.19944-0.13142-0.12069 0.68853 0.92667 0.68188
  -1   5  11    0.06    0.13   1-0.05371 0.02823-0.14763 0.71548 0.96548 0.69310
   0   5  11    5.18    0.19   1 0.08619 0.19372-0.12262 0.69047 0.98949 0.71910
   0   6  11    1.28    0.05   1 0.08882 0.19110-0.01689 0.69839 0.99700 0.71157
  -1   6  11    3.97    0.13   1-0.05355 0.02807-0.04364 0.72514 0.97537 0.68317
  -2   6  11    0.47    0.04   1-0.19932-0.13154-0.01458 0.69607 0.93394 0.67458
  -1   7  11    0.90    0.05   1-0.05104 0.02557 0.07130 0.72384 0.97431 0.68421
  -2   0  12   11.41    0.34   1-0.16261-0.14281-0.36243 0.36201 0.87876 0.88525
  -1   0  12    3.64    0.13   1-0.01595 0.01592-0.39311 0.39269 0.90441 0.90963
   0   0  12    0.23    0.11   1 0.12504 0.18032-0.36150 0.36108 0.93203 0.93203
   0   1  12    0.14    0.11   1 0.12173 0.18362-0.29895 0.41217 0.95370 0.91034
  -1   1  12    0.45    0.04   1-0.01980 0.01976-0.33128 0.44450 0.92741 0.88660
  -2   1  12    0.27    0.12   1-0.16619-0.13924-0.30050 0.41372 0.89935 0.86464
  -2   2  12    0.18    0.11   1-0.16915-0.13627-0.22805 0.45492 0.91823 0.84573
  -1   2  12    0.61    0.04   1-0.02292 0.02288-0.25955 0.48642 0.94872 0.86527
   0   2  12    0.03    0.11   1 0.11963 0.18573-0.22585 0.45272 0.97338 0.89064
  -1   3  12    0.98    0.05   1-0.02496 0.02493-0.17741 0.51792 0.96648 0.84748
  -5   7  -2    0.02    0.14   1-0.66519-0.91265 0.74015 0.05544-0.01198-0.54901
  -5   4  -1    7.15    0.26   1-0.74172-0.81067 0.51549-0.06088 0.30167-0.70724
  -5   5  -1    2.25    0.09   1-0.70294-0.84945 0.60553-0.03727 0.25278-0.65838
  -5   6  -1    0.74    0.06   1-0.66984-0.88255 0.67148 0.01042 0.20271-0.60833
  -6   0   0   10.58    0.36   1-0.91617-0.91617-0.33826 0.33824 0.06208-0.36224
  -6   1   0    5.03    0.16   1-0.93104-0.90130-0.18299 0.29662 0.15897-0.45916
  -6   2   0    0.62    0.05   1-0.93102-0.90132-0.00607 0.23335 0.20748-0.50769
  -5   3   0    5.33    0.16   1-0.75348-0.77347 0.21522 0.12571 0.48938-0.73958
  -6   3   0    1.87    0.06   1-0.91978-0.91256 0.15107 0.18986 0.20660-0.50683
  -5   4   0    2.29    0.10   1-0.71611-0.81083 0.38637 0.06821 0.45604-0.70628
  -5   5   0    7.32    0.26   1-0.67827-0.84868 0.51307 0.05515 0.40770-0.65796
  -5   6   0    0.22    0.18   1-0.64467-0.88227 0.60697 0.07490 0.35272-0.60300
  -6   1   1   17.56    0.48   1-0.89018-0.91671-0.18843 0.30202 0.26343-0.40827
  -5   2   1   29.79    0.82   1-0.71752-0.78398-0.08160 0.30884 0.56488-0.65972
  -6   2   1    2.37    0.09   1-0.89089-0.91600-0.03999 0.26723 0.30041-0.44528
  -6   3   1    0.88    0.06   1-0.88377-0.92312 0.10412 0.23677 0.30523-0.45013
  -5   3   1    7.61    0.26   1-0.69753-0.80397 0.12188 0.21901 0.58228-0.67715
  -5   4   1    1.54    0.08   1-0.66843-0.83308 0.29484 0.15970 0.56406-0.65895
  -6   4   1    3.43    0.12   1-0.87263-0.93426 0.23042 0.22411 0.28179-0.42671
  -5   5   1    2.33    0.09   1-0.63676-0.86474 0.43413 0.13405 0.52422-0.61914
  -6   0   2    0.46    0.06   1-0.83772-0.94373-0.29233 0.29225 0.31788-0.30736
  -5   0   2    1.80    0.09   1-0.63667-0.83939-0.42822 0.42813 0.52846-0.46791
  -5   1   2   29.25    0.82   1-0.64631-0.82975-0.26682 0.38038 0.59944-0.53892
  -6   1   2    5.21    0.17   1-0.84468-0.93677-0.17373 0.28729 0.36113-0.35063
  -6   2   2    2.52    0.08   1-0.84573-0.93571-0.04424 0.27144 0.38606-0.37559
  -5   2   2    7.02    0.22   1-0.64336-0.83270-0.09012 0.31733 0.64461-0.58411
  -5   3   2   30.48    0.82   1-0.62936-0.84669 0.08415 0.25670 0.65899-0.59852
  -6   3   2    0.43    0.05   1-0.84169-0.93976 0.08503 0.25582 0.38812-0.37768
  -6   4   2    5.49    0.18   1-0.83504-0.94641 0.20439 0.25011 0.36708-0.35666
  -6   1   3    0.42    0.05   1-0.79850-0.95750-0.14684 0.26036 0.44516-0.27932
   0   0   0    0.00    0.00   0 0.00000 0.00000 0.00000 0.00000 0.00000 0.00000
;
_shelx_hkl_checksum              96233
loop_
_space_group_symop_operation_xyz
'x, y, z'
'-x, y+1/2, -z+1/2'
'-x, -y, -z'
'x, -y-1/2, z-1/2'
loop_
_atom_site_label
_atom_site_type_symbol
_atom_site_fract_x
_atom_site_fract_y
_atom_site_fract_z
_atom_site_U_iso_or_equiv
_atom_site_adp_type
_atom_site_occupancy
_atom_site_site_symmetry_order
_atom_site_calc_flag
_atom_site_refinement_flags_posn
_atom_site_refinement_flags_adp
_atom_site_refinement_flags_occupancy
_atom_site_disorder_assembly
_atom_site_disorder_group
N2 N 0.2559(3) 0.57777(10) 0.46235(13) 0.0339(3) Uani 1 1 d . . . . .
O1 O 0.4749(3) 0.68886(9) 0.59074(12) 0.0453(4) Uani 1 1 d . . . . .
N3 N 0.0433(3) 0.45406(10) 0.32551(14) 0.0334(3) Uani 1 1 d . . . . .
H1 H 0.475(5) 0.5652(19) 0.212(2) 0.068(7) Uiso 1 1 d . . . . .
N1 N 0.4492(3) 0.64449(10) 0.48107(13) 0.0344(4) Uani 1 1 d . . . . .
N4 N 0.3432(3) 0.52622(10) 0.23704(13) 0.0350(4) Uani 1 1 d . . . . .
H2 H -0.056(5) 0.4370(18) 0.388(2) 0.056(6) Uiso 1 1 d . . . . .
O2 O 0.5940(3) 0.66065(10) 0.39662(13) 0.0488(4) Uani 1 1 d . . . . .
C1 C 0.2266(3) 0.52610(11) 0.34549(15) 0.0307(4) Uani 1 1 d . . . . .
C2 C 0.0559(3) 0.41187(13) 0.20461(17) 0.0370(4) Uani 1 1 d . . . . .
N5 N 0.2365(3) 0.45457(11) 0.14713(14) 0.0394(4) Uani 1 1 d . . . . .
C3 C -0.1103(4) 0.32749(17) 0.1486(2) 0.0545(6) Uani 1 1 d . . . . .
H3 H -0.2279 0.3095 0.2098 0.178(11) Uiso 1 1 calc R U . . .
H4 H -0.2120 0.3458 0.0634 0.178(11) Uiso 1 1 calc R U . . .
H5 H 0.0012 0.2725 0.1363 0.178(11) Uiso 1 1 calc R U . . .
O O 0.2783(3) 0.37854(11) 0.87797(14) 0.0452(4) Uani 1 1 d . . . . .
HO1 H 0.322(5) 0.315(2) 0.891(2) 0.060(7) Uiso 1 1 d . . . . .
HO2 H 0.279(5) 0.404(2) 0.954(3) 0.073(8) Uiso 1 1 d . . . . .
loop_
_atom_site_aniso_label
_atom_site_aniso_U_11
_atom_site_aniso_U_22
_atom_site_aniso_U_33
_atom_site_aniso_U_23
_atom_site_aniso_U_13
_atom_site_aniso_U_12
N2 0.0347(7) 0.0349(7) 0.0335(7) -0.0020(5) 0.0102(5) -0.0036(6)
O1 0.0530(8) 0.0429(7) 0.0397(7) -0.0078(5) 0.0062(6) -0.0055(6)
N3 0.0313(7) 0.0373(7) 0.0331(7) -0.0021(6) 0.0095(6) -0.0024(6)
N1 0.0349(7) 0.0321(7) 0.0362(7) 0.0018(5) 0.0063(6) 0.0011(5)
N4 0.0353(7) 0.0387(7) 0.0329(7) -0.0006(5) 0.0112(6) -0.0019(6)
O2 0.0482(7) 0.0529(8) 0.0493(7) -0.0022(6) 0.0202(6) -0.0144(6)
C1 0.0291(7) 0.0327(8) 0.0311(8) 0.0027(6) 0.0073(6) 0.0033(6)
C2 0.0337(8) 0.0420(9) 0.0357(8) -0.0044(7) 0.0066(6) 0.0013(7)
N5 0.0388(7) 0.0475(8) 0.0332(7) -0.0049(6) 0.0103(6) -0.0015(6)
C3 0.0492(11) 0.0598(12) 0.0559(12) -0.0212(10) 0.0129(9) -0.0145(10)
O 0.0546(8) 0.0445(8) 0.0401(7) 0.0029(6) 0.0181(6) 0.0028(6)
loop_
_atom_type_symbol
_atom_type_description
_atom_type_scat_dispersion_real
_atom_type_scat_dispersion_imag
_atom_type_scat_source
C C 0.0181 0.0091 'International Tables Vol C Tables 4.2.6.8 and 6.1.1.4'
O O 0.0492 0.0322 'International Tables Vol C Tables 4.2.6.8 and 6.1.1.4'
N N 0.0311 0.0180 'International Tables Vol C Tables 4.2.6.8 and 6.1.1.4'
H H 0.0000 0.0000 'International Tables Vol C Tables 4.2.6.8 and 6.1.1.4'
loop_
_geom_angle_atom_site_label_1
_geom_angle_atom_site_label_2
_geom_angle_atom_site_label_3
_geom_angle
_geom_angle_site_symmetry_1
_geom_angle_site_symmetry_3
N1 N2 C1 116.64(13) . .
C1 N3 C2 107.83(13) . .
C1 N3 H2 122.7(15) . .
C2 N3 H2 129.3(15) . .
O2 N1 O1 122.40(14) . .
O2 N1 N2 122.61(13) . .
O1 N1 N2 114.99(13) . .
C1 N4 N5 110.83(13) . .
C1 N4 H1 132.0(15) . .
N5 N4 H1 117.2(15) . .
N4 C1 N3 105.92(14) . .
N4 C1 N2 135.37(15) . .
N3 C1 N2 118.69(13) . .
N5 C2 N3 110.60(15) . .
N5 C2 C3 125.40(16) . .
N3 C2 C3 123.99(16) . .
C2 N5 N4 104.81(13) . .
C2 C3 H3 109.5 . .
C2 C3 H4 109.5 . .
H3 C3 H4 109.5 . .
C2 C3 H5 109.5 . .
H3 C3 H5 109.5 . .
H4 C3 H5 109.5 . .
HO1 O HO2 107(2) . .
loop_
_geom_bond_atom_site_label_1
_geom_bond_atom_site_label_2
_geom_bond_distance
_geom_bond_site_symmetry_2
N2 N1 1.3314(19) .
N2 C1 1.356(2) .
O1 N1 1.2450(18) .
N3 C1 1.347(2) .
N3 C2 1.356(2) .
N3 H2 0.90(2) .
N1 O2 1.2353(18) .
N4 C1 1.327(2) .
N4 N5 1.378(2) .
N4 H1 0.92(3) .
C2 N5 1.304(2) .
C2 C3 1.482(3) .
C3 H3 0.9600 .
C3 H4 0.9600 .
C3 H5 0.9600 .
O HO1 0.90(3) .
O HO2 0.84(3) .

_cod_database_fobs_code 4031353
