#------------------------------------------------------------------------------
#$Date: 2015-07-05 12:19:19 +0300 (Sun, 05 Jul 2015) $
#$Revision: 140156 $
#$URL: svn://www.crystallography.net/cod/cif/4/03/10/4031036.cif $
#------------------------------------------------------------------------------
#
# This file is available in the Crystallography Open Database (COD),
# http://www.crystallography.net/
#
# All data on this site have been placed in the public domain by the
# contributors.
#
data_4031036
loop_
_publ_author_name
'Mal, Kanchan'
'Kaur, Amanpreet'
'Haque, Fazle'
'Das, Indrajit'
_publ_section_title
;
 PPh3&#x00B7;HBr-DMSO: A Reagent System for Diverse Chemoselective
 Transformations.
;
_journal_issue                   12
_journal_name_full               'The Journal of organic chemistry'
_journal_page_first              6400
_journal_page_last               6410
_journal_paper_doi               10.1021/acs.joc.5b00846
_journal_volume                  80
_journal_year                    2015
_chemical_formula_moiety         'C10 H7 Br O S'
_chemical_formula_sum            'C10 H7 Br O S'
_chemical_formula_weight         255.13
_space_group_crystal_system      monoclinic
_space_group_IT_number           14
_space_group_name_Hall           '-P 2yn'
_space_group_name_H-M_alt        'P 1 21/n 1'
_symmetry_space_group_name_Hall  '-P 2yn'
_symmetry_space_group_name_H-M   'P 1 21/n 1'
_atom_sites_solution_hydrogens   geom
_atom_sites_solution_primary     direct
_audit_creation_date             2014-09-01
_audit_creation_method
;
Olex2 1.2
(compiled 2014.03.20 svn.r2914 for OlexSys, GUI svn.r4816)
;
_cell_angle_alpha                90
_cell_angle_beta                 91.009(5)
_cell_angle_gamma                90
_cell_formula_units_Z            4
_cell_length_a                   4.0495(13)
_cell_length_b                   5.6747(18)
_cell_length_c                   41.897(13)
_cell_measurement_reflns_used    2282
_cell_measurement_temperature    296(2)
_cell_measurement_theta_max      24.71
_cell_measurement_theta_min      2.92
_cell_volume                     962.6(5)
_computing_data_reduction        'SAINT v8.34A (Bruker, 2013)'
_computing_molecular_graphics    'Olex2 (Dolomanov et al., 2009)'
_computing_publication_material  'Olex2 (Dolomanov et al., 2009)'
_computing_structure_refinement  'ShelXL (Sheldrick, 2008)'
_computing_structure_solution    'ShelXT (Sheldrick, 2008)'
_diffrn_ambient_temperature      296.15
_diffrn_measured_fraction_theta_full 0.889
_diffrn_measured_fraction_theta_max 0.880
_diffrn_measurement_device_type  'Bruker APEX-II CCD'
_diffrn_measurement_method       '\f and \w scans'
_diffrn_radiation_type           MoK\a
_diffrn_radiation_wavelength     0.71073
_diffrn_reflns_av_R_equivalents  0.0422
_diffrn_reflns_av_unetI/netI     0.0462
_diffrn_reflns_laue_measured_fraction_full 0.889
_diffrn_reflns_laue_measured_fraction_max 0.880
_diffrn_reflns_limit_h_max       4
_diffrn_reflns_limit_h_min       -1
_diffrn_reflns_limit_k_max       6
_diffrn_reflns_limit_k_min       -6
_diffrn_reflns_limit_l_max       49
_diffrn_reflns_limit_l_min       -47
_diffrn_reflns_number            4628
_diffrn_reflns_point_group_measured_fraction_full 0.889
_diffrn_reflns_point_group_measured_fraction_max 0.880
_diffrn_reflns_theta_full        25.242
_diffrn_reflns_theta_max         25.362
_diffrn_reflns_theta_min         1.945
_diffrn_standards_number         0
_exptl_absorpt_coefficient_mu    4.439
_exptl_absorpt_correction_T_max  0.7452
_exptl_absorpt_correction_T_min  0.4940
_exptl_absorpt_correction_type   multi-scan
_exptl_absorpt_process_details
;
? was used for absorption correction.
wR2(int) was 0.1121 before and 0.0571 after correction.
The Ratio of minimum to maximum transmission is 0.6629.
The \l/2 correction factor is 0.00150.
;
_exptl_crystal_colour            red
_exptl_crystal_colour_primary    red
_exptl_crystal_density_diffrn    1.760
_exptl_crystal_description       plate
_exptl_crystal_F_000             504
_exptl_crystal_size_max          0.34
_exptl_crystal_size_mid          0.28
_exptl_crystal_size_min          0.12
_refine_diff_density_max         0.579
_refine_diff_density_min         -0.581
_refine_diff_density_rms         0.127
_refine_ls_extinction_method     none
_refine_ls_goodness_of_fit_ref   1.064
_refine_ls_hydrogen_treatment    constr
_refine_ls_matrix_type           full
_refine_ls_number_parameters     119
_refine_ls_number_reflns         1547
_refine_ls_number_restraints     0
_refine_ls_restrained_S_all      1.064
_refine_ls_R_factor_all          0.0495
_refine_ls_R_factor_gt           0.0423
_refine_ls_shift/su_max          0.001
_refine_ls_shift/su_mean         0.000
_refine_ls_structure_factor_coef Fsqd
_refine_ls_weighting_details
'w=1/[\s^2^(Fo^2^)+(0.0562P)^2^+0.8482P] where P=(Fo^2^+2Fc^2^)/3'
_refine_ls_weighting_scheme      calc
_refine_ls_wR_factor_gt          0.1059
_refine_ls_wR_factor_ref         0.1100
_reflns_Friedel_coverage         0.000
_reflns_number_gt                1334
_reflns_number_total             1547
_reflns_threshold_expression     'I > 2\s(I)'
_cod_data_source_file            jo5b00846_si_002.cif
_cod_data_source_block           id-1145br_a
_cod_depositor_comments          'Adding full bibliography for 4031036.cif.'
_cod_database_code               4031036
_shelxl_version_number           2014/6
_shelx_space_group_comment
;
The symmetry employed for this shelxl refinement is uniquely defined
by the following loop, which should always be used as a source of
symmetry information in preference to the above space-group names.
They are only intended as comments.
;
_olex2_refinement_description
;
1. Fixed Uiso
 At 1.2 times of:
  All C(H) groups
 At 1.5 times of:
  All C(H,H,H) groups
2.a Aromatic/amide H refined with riding coordinates:
 C2(H2), C3(H3), C5(H5), C7(H7)
2.b Idealised Me refined as rotating group:
 C10(H10A,H10B,H10C)
;
_shelx_res_file
;
TITL ID-1145Br in P2(1)/n
CELL 0.71073 4.0495 5.6747 41.8969 90 91.009 90
ZERR 4 0.0013 0.0018 0.01297 0 0.0048 0
LATT 1
SYMM 0.5-X,0.5+Y,0.5-Z

SFAC C H O S Br
UNIT 40 28 4 4 4

L.S. 20
PLAN  5
TEMP 23
BOND
fmap 2
acta
MORE -1
CONF
OMIT 0 0 2
REM <HKL>E:/Unsorted/X-ray/Das/ID_1145Br_MD_2013/work/ID-1145Br_a.hkl</HKL>

WGHT    0.056200    0.848200
FVAR       0.34163
BR1   5    0.348647    0.059203    0.721765    11.00000    0.05760    0.05811 =
         0.03932    0.00498    0.00758    0.00249
C1    1    0.754012    0.508098    0.639016    11.00000    0.03302    0.02861 =
         0.04765   -0.00026   -0.00031    0.00225
C2    1    0.791107    0.589616    0.669538    11.00000    0.04394    0.03418 =
         0.05678   -0.00596   -0.01163   -0.00250
AFIX  43
H2    2    0.896880    0.732260    0.673587    11.00000   -1.20000
AFIX   0
C3    1    0.668592    0.456329    0.694362    11.00000    0.04998    0.04140 =
         0.05007   -0.00922   -0.00182    0.00420
AFIX  43
H3    2    0.691977    0.507649    0.715361    11.00000   -1.20000
AFIX   0
C4    1    0.511551    0.246566    0.687478    11.00000    0.03491    0.04136 =
         0.03802    0.00534   -0.00104    0.00532
C5    1    0.463916    0.161416    0.656371    11.00000    0.04107    0.03162 =
         0.04312   -0.00197   -0.00220   -0.00179
AFIX  43
H5    2    0.352846    0.020915    0.652261    11.00000   -1.20000
AFIX   0
C6    1    0.590104    0.296581    0.632206    11.00000    0.03171    0.03073 =
         0.04002   -0.00216   -0.00144   -0.00006
C7    1    0.587948    0.255571    0.597614    11.00000    0.04255    0.03208 =
         0.04550   -0.00400   -0.00076   -0.00551
AFIX  43
H7    2    0.491133    0.126790    0.587402    11.00000   -1.20000
AFIX   0
C8    1    0.747892    0.433109    0.582759    11.00000    0.03825    0.04022 =
         0.04354    0.00807    0.00223    0.00292
C9    1    0.867726    0.606264    0.608059    11.00000    0.03690    0.02837 =
         0.05660    0.00546   -0.00259    0.00331
C10   1    0.679523    0.217091    0.525326    11.00000    0.07427    0.06905 =
         0.05165   -0.00350    0.00933   -0.00449
AFIX 137
H10A  2    0.803794    0.084930    0.533307    11.00000   -1.50000
H10B  2    0.699430    0.225729    0.502557    11.00000   -1.50000
H10C  2    0.451351    0.198265    0.530621    11.00000   -1.50000
AFIX   0
O1    3    1.024951    0.783634    0.603305    11.00000    0.06675    0.03833 =
         0.07509    0.00440    0.00769   -0.01608
S1    4    0.836901    0.483810    0.543111    11.00000    0.06173    0.05628 =
         0.04640    0.01016    0.01059   -0.00655
HKLF 4

REM  ID-1145Br in P2(1)/n
REM R1 =  0.0423 for    1334 Fo > 4sig(Fo)  and  0.0495 for all    1547 data
REM    119 parameters refined using      0 restraints

END

WGHT      0.0544      0.9025

REM Highest difference peak  0.579,  deepest hole -0.581,  1-sigma level  0.127
Q1    1   0.3386  0.2905  0.7225  11.00000  0.05    0.58
Q2    1   0.3393  0.6333  0.7238  11.00000  0.05    0.51
Q3    1   0.3668  0.5156  0.7250  11.00000  0.05    0.45
Q4    1   0.0520  0.1568  0.7246  11.00000  0.05    0.37
Q5    1   0.3298  0.0739  0.7010  11.00000  0.05    0.37
;
_shelx_res_checksum              72960
_shelx_hkl_file
;
   1   0  -1    8.10    0.60
   2   0  -2   69.79    3.90
   2   0  -2   63.09    4.00
   0   1   0   -1.10    0.10
   0   1   0   -0.80    0.30
   0  -1   0   -0.90    0.20
   0  -1   0   -0.90    0.20
   1   1  -1  534.65   31.20
   1  -1  -1  522.85   31.10
   1  -1  -1  561.14   31.10
   2   1  -2   47.70    3.00
   2   1  -2   47.20    3.10
   2  -1  -2   47.30    3.00
   2  -1  -2   50.59    3.00
   3   1  -3   40.50    2.80
   4   1  -4   -1.00    0.90
   0   2   0  746.53   43.20
   0   2   0  778.12   43.40
   0  -2   0  703.33   43.10
   0  -2   0  766.72   43.30
   1   2  -1  249.18   14.70
   1   2  -1  240.68   15.00
   1   2  -1  268.27   14.80
  -1   2   1  250.57   15.00
  -1   2   1  258.47   14.70
  -1  -2   1  249.08   14.80
  -1  -2   1  276.47   15.00
   1  -2  -1  243.68   14.90
   2   2  -2   92.19    5.60
   2  -2  -2   82.69    5.40
   3   2  -3  101.49    6.50
   3  -2  -3  103.39    6.30
   4   2  -4   29.10    2.80
   0   3   0    0.00    0.50
   0   3   0    0.70    0.90
   0  -3   0   -0.30    0.50
   0  -3   0   -0.50    0.80
   1   3  -1  125.69    8.40
   1   3  -1  135.09    8.00
   1  -3  -1  136.19    8.30
  -1  -3   1  137.09    8.30
  -1  -3   1  135.69    8.10
   2   3  -2  153.08    9.40
   2  -3  -2  147.19    9.20
   3   3  -3   36.90    3.40
   3  -3  -3   31.10    2.80
   4   3  -4    1.40    1.60
   4  -3  -4    0.90    1.10
   0   4   0  207.08   12.80
   0   4   0  214.08   13.20
   0  -4   0  210.48   12.70
   0  -4   0  226.78   13.10
   1   4  -1    1.80    1.30
   1   4  -1    1.70    0.80
   1  -4  -1    1.50    0.50
   1  -4  -1    2.40    1.20
  -1  -4   1    1.30    0.90
   2   4  -2    2.10    1.50
   2  -4  -2    1.50    1.30
   3   4  -3    6.00    2.10
   3  -4  -3    5.50    1.60
   0   5   0    0.40    1.10
   0  -5   0    0.10    0.90
   0  -5   0    1.30    1.60
   1   5  -1   27.00    2.50
   1   5  -1   23.00    2.90
  -1  -5   1   24.10    2.30
   1  -5  -1   21.00    1.70
   1  -5  -1   18.60    2.60
   2   5  -2   42.50    4.50
   2  -5  -2   42.70    3.90
   0   6   0   25.60    2.90
   0  -6   0   18.30    2.10
  -1  -6   1    2.80    1.50
   1  -6  -1    5.00    2.10
   2   6  -2    2.50    2.70
   1   0  -2    0.00    0.20
   1   0  -2    0.20    0.20
   2   0  -3    0.40    0.30
   2   0  -3    0.00    0.40
   3   0  -4    0.60    0.50
   4   1  -3    4.20    1.10
   3   1  -2   49.90    3.30
   2   1  -1   94.79    5.80
   2   1  -1  103.39    5.90
   2  -1  -1   93.49    5.80
   2  -1  -1  100.29    5.80
   1   1   0  910.71   52.09
   1  -1   0  934.61   51.99
   1  -1   0  861.51   51.99
   0   1   1  680.43   36.70
   0   1  -1  678.43   36.60
   0   1  -1  596.64   36.70
   0   1   1  626.04   36.60
   0  -1   1  646.64   36.70
   0  -1  -1  630.04   36.60
   0  -1  -1  591.04   36.70
   1   1  -2 2517.65  140.39
   1  -1  -2 2495.95  140.39
   1  -1  -2 2314.47  140.39
   2   1  -3  680.33   39.30
   2   1  -3  700.73   39.30
   2  -1  -3  643.44   39.20
   2  -1  -3  697.93   39.20
   3   1  -4   79.29    5.10
   3  -1  -4   81.49    4.80
   4   1  -5    3.60    1.20
   4   2  -3   13.90    1.90
   3   2  -2    7.80    1.40
   3  -2  -2    9.00    1.10
   2   2  -1    3.40    0.90
   2  -2  -1    2.10    0.70
   1   2   0  290.47   16.60
  -1   2   0  273.77   16.50
   1   2   0  291.47   16.50
  -1   2   0  283.07   16.80
   1   2   0  267.67   16.80
   1  -2   0  275.77   16.70
  -1  -2   0  314.67   16.80
  -1  -2   0  287.87   16.60
   0   2  -1  722.03   38.60
   0   2   1  703.03   38.80
   0   2  -1  686.93   38.80
   0   2   1  599.24   38.60
   0  -2   1  664.43   38.70
   0  -2  -1  659.03   38.70
   0  -2   1  626.94   38.60
   0  -2  -1  690.83   38.60
  -1   2   2   85.29    5.00
   1   2  -2   84.49    4.90
   1   2  -2   84.69    5.30
  -1   2   2   73.79    5.20
   1   2  -2   89.99    5.10
   1  -2  -2   78.89    5.20
  -1  -2   2   90.89    5.30
  -1  -2   2   82.99    5.00
   2   2  -3   99.29    6.40
   2  -2  -3  105.29    6.30
   3   2  -4   25.50    2.40
   3  -2  -4   28.10    2.10
   4   2  -5   34.10    3.10
   4   3  -3    1.00    1.60
   4  -3  -3    1.00    1.10
   3   3  -2   28.20    2.90
   3  -3  -2   29.80    2.60
   2   3  -1    8.20    1.50
   2  -3  -1    5.50    1.10
   1   3   0   66.79    5.00
   1   3   0   73.99    4.60
  -1  -3   0   78.99    4.70
   1  -3   0   79.99    5.00
  -1  -3   0   77.19    5.00
   0   3  -1  186.58   11.00
   0   3  -1  164.68   10.70
   0   3   1  165.48   10.70
   0   3   1  210.48   11.10
   0  -3   1  173.78   10.90
   0  -3   1  190.38   10.70
   0  -3  -1  181.68   10.70
   0  -3  -1  176.78   10.90
   1   3  -2   76.79    4.40
   1   3  -2   65.99    4.80
  -1  -3   2   69.29    4.80
  -1  -3   2   71.19    4.50
   1  -3  -2   71.99    4.70
   2   3  -3  191.98   12.00
   2  -3  -3  200.68   11.80
   3   3  -4   24.80    2.80
   3  -3  -4   25.00    2.30
   4   3  -5    0.60    1.60
   4  -3  -5    0.30    1.10
   3   4  -2   28.20    3.40
   3  -4  -2   30.70    3.00
   2   4  -1    7.40    1.90
   2  -4  -1    6.90    1.60
   1   4   0  213.58   12.80
   1   4   0  225.78   13.40
   1  -4   0  203.18   13.10
   1  -4   0  218.88   12.60
   0   4  -1  292.67   17.60
   0   4  -1  283.17   17.20
   0   4   1  287.97   17.20
   0   4   1  301.67   17.60
   0  -4  -1  330.17   17.50
   0  -4   1  271.67   17.40
   0  -4  -1  286.47   17.10
   0  -4   1  277.67   17.10
   1   4  -2   67.19    4.40
   1   4  -2   60.89    4.90
   1  -4  -2   64.69    4.00
  -1  -4   2   67.79    4.40
   1  -4  -2   71.39    4.80
   2   4  -3    0.00    1.40
   2  -4  -3   -0.20    1.20
   3   4  -4   42.90    4.30
   3  -4  -4   43.60    3.70
   2   5  -1    6.80    2.30
   2  -5  -1    4.00    1.80
   1   5   0   16.00    1.70
   1   5   0   13.80    2.40
   1  -5   0   11.10    1.20
   1  -5   0   12.60    2.10
  -1  -5   0    9.30    1.60
   0   5   1    2.90    1.30
   0   5  -1    1.10    1.10
   0  -5   1    3.10    1.00
   0  -5  -1    3.40    1.80
   0  -5  -1    0.90    1.00
   0  -5   1    3.20    1.50
   1   5  -2    5.70    1.20
   1   5  -2    3.90    1.80
   1  -5  -2    5.00    1.80
  -1  -5   2    4.80    1.30
   1  -5  -2    4.70    0.90
   2   5  -3    1.40    1.90
   2  -5  -3    2.50    1.80
   2   6  -1    4.70    2.80
  -1  -6   0   47.00    4.00
   1  -6   0   48.70    4.70
   0   6   1    6.00    1.80
   0   6  -1    7.60    1.80
   0  -6   1    2.90    1.30
   0  -6  -1    2.30    1.20
   1  -6  -2    3.00    2.10
  -1  -6   2    3.30    1.50
   2   6  -3    7.80    3.00
   0   0   2    0.00    0.10
   0   0  -2    0.10    0.10
   0   0  -2    0.10    0.10
   0   0  -2   -0.10    0.10
   0   0   2    0.00    0.10
   0   0   2    0.00    0.10
   1   0  -3  669.73   42.30
   1   0  -3  797.72   42.30
   2   0  -4   12.00    0.90
   2   0  -4   11.00    1.10
   3   0  -5  167.18    9.90
   3   1  -1   25.00    1.90
   2   1   0    1.50    0.50
   2   1   0    1.90    0.60
   2  -1   0    0.10    0.40
   2  -1   0   -0.90    0.40
   1   1   1 1570.24   89.39
   1  -1   1 1558.74   89.29
   1  -1   1 1529.75   89.29
   0   1   2  368.46   21.10
   0   1   2  335.37   21.00
   0   1  -2  368.46   21.00
   0   1  -2  356.76   21.10
   0  -1  -2  398.26   21.00
   0  -1   2  344.47   21.00
   0  -1   2  360.76   21.10
   0  -1  -2  369.46   21.10
   1   1  -3    9.30    0.90
   1  -1  -3    7.40    0.80
   1  -1  -3    8.70    0.80
   2   1  -4   11.30    1.10
   2   1  -4   12.90    1.20
   2  -1  -4   13.10    1.10
   3   1  -5    0.30    0.80
   3  -1  -5    1.00    0.50
   4   1  -6    0.50    1.10
   4   2  -2   16.20    2.00
   3   2  -1    1.40    1.00
   3  -2  -1    2.40    0.80
   2   2   0  625.64   34.50
   2  -2   0  559.44   34.30
  -1   2  -1    3.60    0.80
   1   2   1    4.20    0.80
   1   2   1    5.50    0.60
  -1   2  -1    4.40    0.50
   1   2   1    4.80    0.50
  -1  -2  -1    4.40    0.60
  -1  -2  -1    4.40    0.80
   1  -2   1    3.10    0.70
   0   2  -2  358.56   20.50
   0   2   2  320.67   20.60
   0   2  -2  325.57   20.60
   0   2   2  362.16   20.50
   0  -2   2  346.57   20.60
   0  -2   2  356.36   20.50
   0  -2  -2  400.76   20.60
   1   2  -3  258.37   15.20
  -1   2   3  263.77   15.10
   1   2  -3  257.07   15.00
   1   2  -3  271.87   15.40
  -1   2   3  241.98   15.30
  -1  -2   3  277.97   15.30
   1  -2  -3  262.47   15.30
  -1  -2   3  249.18   15.10
   2   2  -4   12.10    1.40
   2  -2  -4   11.80    1.30
   3   2  -5   85.29    5.50
   3  -2  -5   81.29    5.20
   4   2  -6   55.59    4.20
   4  -2  -6   54.99    3.60
   4   3  -2    1.80    1.50
   4  -3  -2   -0.20    1.00
   3   3  -1   81.19    5.80
   3  -3  -1   85.79    5.50
   2   3   0  229.48   14.00
   2  -3   0  229.68   13.70
   1   3   1    3.20    0.60
   1   3   1    3.00    1.10
  -1  -3  -1    2.70    1.00
  -1  -3  -1    1.50    0.70
   1  -3   1    2.40    0.90
   0   3  -2   15.30    1.40
   0   3   2   17.90    1.80
   0   3   2   15.50    1.40
   0   3  -2   17.90    1.80
   0  -3  -2   14.30    1.30
   0  -3   2   15.90    1.30
   0  -3  -2   15.90    1.70
   0  -3   2   14.70    1.60
   1   3  -3  766.02   45.10
   1   3  -3  771.02   44.70
  -1  -3   3  755.22   45.00
  -1  -3   3  790.32   44.80
   1  -3  -3  787.32   45.00
   2   3  -4  230.28   13.90
   2  -3  -4  226.88   13.70
   3   3  -5   26.40    2.80
   3  -3  -5   23.80    2.40
   4   3  -6   15.60    2.60
   4  -3  -6   17.50    2.00
   3   4  -1    1.90    1.80
   3  -4  -1   -0.10    1.30
   2   4   0    2.30    1.70
   2  -4   0    2.20    1.30
   1   4   1    6.90    1.10
   1   4   1    6.40    1.60
   1  -4   1    6.30    0.70
  -1  -4  -1    6.30    1.10
   1  -4   1    4.90    1.40
   0   4   2   17.00    1.80
   0   4  -2   17.70    1.70
   0   4  -2   23.10    2.40
   0   4   2   19.40    2.30
   0  -4  -2   16.80    1.70
   0  -4  -2   13.40    1.90
   0  -4   2   16.60    1.60
   0  -4   2   19.40    2.10
   1   4  -3    2.00    0.80
   1   4  -3    2.40    1.40
   1  -4  -3    1.00    1.20
   1  -4  -3    2.30    0.60
  -1  -4   3    1.90    0.90
   2   4  -4   18.50    2.50
   2  -4  -4   13.30    2.00
   3   4  -5    3.50    1.90
   3  -4  -5    1.50    1.40
   2   5   0   37.20    4.30
   2  -5   0   40.90    3.80
   1   5   1   82.89    6.10
   1   5   1   98.79    6.80
  -1  -5  -1   87.99    6.00
   1  -5   1   97.29    5.60
   1  -5   1   89.09    6.40
   0   5  -2   40.90    3.20
   0   5   2   36.90    3.30
   0  -5  -2   30.40    4.60
   0  -5  -2   38.50    3.00
   0  -5   2   41.00    3.70
   0  -5   2   40.50    3.00
   1   5  -3   88.19    6.60
   1   5  -3   86.99    5.90
  -1  -5   3   86.39    5.80
   1  -5  -3   86.39    6.30
   1  -5  -3   91.19    5.40
   2   5  -4   51.29    4.60
   2  -5  -4   44.00    4.30
   2   6   0   -0.80    2.40
  -1  -6  -1    8.80    1.80
   1  -6   1   10.50    2.30
   0   6  -2   30.10    2.80
   0   6   2   23.30    2.80
   0  -6  -2   23.40    2.40
   0  -6   2   22.20    2.40
  -1  -6   3    5.90    1.60
   1  -6  -3    6.50    2.30
   2   6  -4    7.60    3.10
   0   0   3    0.00    0.10
   0   0   3   -0.10    0.10
   0   0  -3   -0.20    0.10
   0   0  -3   -0.10    0.10
   0   0   3   -0.10    0.10
   0   0  -3    0.00    0.10
   1   0  -4    0.20    0.30
   1   0  -4    0.00    0.30
   2   0  -5    0.60    0.50
   2   0  -5    0.60    0.40
   3   0  -6    1.50    0.80
   3   1   0  356.46   20.70
   2   1   1  908.01   53.99
   2   1   1  986.90   53.99
   2  -1   1  869.31   53.89
   2  -1   1  984.20   53.89
   1   1   2  772.92   43.00
   1  -1   2  711.83   42.90
   1  -1   2  750.02   42.90
   0   1  -3  198.28   11.60
   0   1   3  194.28   11.70
   0   1  -3  232.48   11.70
   0   1   3  199.58   11.60
   0  -1  -3  187.98   11.60
   0  -1   3  193.78   11.60
   0  -1   3  192.98   11.60
   0  -1  -3  198.78   11.60
   1   1  -4  770.92   43.30
  -1  -1   4  773.82   43.40
   1  -1  -4  814.82   43.30
   1  -1  -4  642.54   43.20
   2   1  -5  142.99    8.40
   2   1  -5  141.49    8.50
   2  -1  -5  140.89    8.30
   2  -1  -5  140.59    8.40
   3   1  -6   19.10    1.80
   3  -1  -6   17.70    1.40
   4   1  -7    0.40    1.10
   4   2  -1   11.70    1.70
   3   2   0   20.40    2.00
   3  -2   0   18.30    1.60
   2   2   1   97.59    6.10
   2  -2   1   94.69    5.90
  -1   2  -2  355.06   22.10
   1   2   2  412.26   22.10
   1   2   2  404.86   22.10
   1   2   2  402.86   22.40
  -1   2  -2  351.56   22.30
   1  -2   2  374.56   22.30
  -1  -2  -2  362.06   22.10
  -1  -2  -2  395.66   22.30
   0   2  -3  506.35   27.70
   0   2  -3  452.75   27.80
   0   2   3  457.45   27.70
   0   2   3  553.64   27.90
   0  -2   3  480.95   27.70
   0  -2  -3  460.45   27.80
   0  -2  -3  457.15   27.70
   0  -2   3  462.35   27.80
   1   2  -4   64.49    4.00
  -1   2   4   62.39    3.70
  -1   2   4   56.99    3.90
   1   2  -4   67.29    3.90
   1   2  -4   60.69    3.70
   1  -2  -4   56.79    3.90
  -1  -2   4   61.89    3.80
  -1  -2   4   62.69    4.00
   2   2  -5   48.90    3.50
   2  -2  -5   50.79    3.30
   3   2  -6   59.29    4.20
   3  -2  -6   59.29    3.90
   4   2  -7   60.89    4.40
   4  -2  -7   57.09    3.80
   4   3  -1    3.90    1.50
   4  -3  -1    1.30    1.00
   3   3   0   56.09    4.40
   3  -3   0   56.09    3.90
   2   3   1   66.19    4.50
   2  -3   1   58.79    4.20
   1   3   2   80.09    5.30
   1   3   2   84.39    4.90
   1  -3   2   78.79    5.20
  -1  -3  -2   75.39    5.20
  -1  -3  -2   77.99    5.00
   0   3  -3   56.39    3.90
   0   3  -3   58.99    3.60
   0   3   3   56.49    3.60
   0   3   3   56.69    3.90
   0  -3  -3   53.29    3.50
   0  -3   3   60.79    3.80
   0  -3  -3   52.59    3.80
   0  -3   3   51.39    3.50
   1   3  -4   17.90    1.40
   1   3  -4   17.50    2.00
   1  -3  -4   16.30    1.70
  -1  -3   4   15.60    1.70
   2   3  -5    5.30    1.40
   2  -3  -5    6.50    1.20
   3   3  -6    6.70    1.70
   3  -3  -6    7.70    1.40
   4   3  -7    1.00    1.70
   4  -3  -7    3.70    1.30
   3   4   0   -2.60    1.50
   3  -4   0    0.20    1.30
   2   4   1   15.80    2.40
   2  -4   1   12.30    1.90
   1   4   2   84.29    5.40
   1   4   2   78.59    6.00
   1  -4   2   86.49    5.80
   1  -4   2   91.59    5.10
  -1  -4  -2   81.99    5.50
   0   4   3  170.88   10.30
   0   4  -3  162.68   10.70
   0   4   3  174.78   10.70
   0   4  -3  165.18   10.20
   0  -4   3  169.28   10.20
   0  -4  -3  177.08   10.60
   0  -4  -3  172.68   10.20
   0  -4   3  166.78   10.50
   1   4  -4   80.99    6.20
   1   4  -4   94.29    5.70
   1  -4  -4   90.89    6.10
   1  -4  -4   89.99    5.50
  -1  -4   4   96.09    5.80
   2   4  -5  105.09    7.20
   2  -4  -5  103.89    6.90
   3   4  -6   41.60    4.20
   3  -4  -6   38.40    3.60
   2   5   1   -0.90    1.90
   2  -5   1    2.60    1.70
   1   5   2   14.20    1.70
   1   5   2   16.10    2.50
  -1  -5  -2   14.80    1.90
   1  -5   2   14.20    2.30
   1  -5   2   12.50    1.30
   0   5   3    1.30    1.10
   0   5  -3    2.50    1.20
   0  -5   3    2.50    1.50
   0  -5   3    0.70    0.90
   0  -5  -3    0.50    0.90
   1   5  -4    0.70    1.00
   1   5  -4    1.20    1.60
   1  -5  -4    1.80    1.70
  -1  -5   4    0.90    1.10
   1  -5  -4    0.40    0.70
   2   5  -5   36.30    3.80
   2  -5  -5   31.80    3.50
   2   6   1   -0.50    2.40
  -1  -6  -2   20.50    2.50
   1  -6   2   28.30    3.30
   0   6  -3   63.79    5.00
   0   6   3   66.89    5.00
   0  -6   3   62.59    4.50
   0  -6  -3   61.59    4.60
   1  -6  -4    7.00    2.40
  -1  -6   4    6.20    1.60
   2   6  -5   11.10    3.10
   1   0   3 9999.00  574.14
   1   0   3 9992.00  574.14
   0   0   4   16.10    1.00
   0   0  -4   17.10    1.10
   1   0  -5  320.57   20.50
   1   0  -5  386.56   20.50
   2   0  -6  581.14   33.70
   3   0  -7  184.88   11.00
   3   1   1    4.40    0.80
   2   1   2  113.69    6.50
   2   1   2  103.79    6.40
   2  -1   2   99.09    6.30
   2  -1   2  113.99    6.30
   1   1   3  482.75   26.60
   1  -1   3  460.65   26.50
   1  -1   3  433.26   26.50
   0   1   4  142.69    8.50
   0   1  -4  142.79    8.30
   0   1   4  150.68    8.30
   0   1  -4  139.09    8.40
   0  -1  -4  140.69    8.40
   0  -1  -4  141.39    8.30
   0  -1   4  148.19    8.40
   0  -1   4  141.09    8.30
   1   1  -5   10.90    1.10
   1  -1  -5   13.10    1.00
  -1  -1   5   10.70    1.00
   2   1  -6   49.30    3.10
   2   1  -6   44.60    3.00
   2  -1  -6   47.70    3.00
   2  -1  -6   45.80    3.00
   3   1  -7    0.40    0.80
   3  -1  -7    0.40    0.60
   4   1  -8    2.60    1.30
   4   2   0   22.00    2.20
   3   2   1  103.59    6.60
   3  -2   1  102.79    6.20
   2   2   2  370.36   21.60
   2  -2   2  363.46   21.40
  -1   2  -3  904.01   50.79
   1   2   3  959.00   50.89
  -1   2  -3  846.42   50.49
   1   2   3  897.41   50.59
   1   2   3  869.41   50.49
  -1  -2  -3  824.52   50.59
  -1  -2  -3  905.71   50.79
   1  -2   3  825.02   50.69
   0   2   4  740.03   44.70
   0   2   4  810.92   44.90
   0   2  -4  779.12   44.90
   0   2  -4  804.42   44.70
   0  -2   4  740.13   44.80
   0  -2  -4  753.52   44.80
   0  -2  -4  797.62   44.70
   0  -2   4  777.02   44.70
  -1   2   5    0.40    0.40
   1   2  -5    0.80    0.30
   1   2  -5    0.60    0.60
  -1   2   5    0.10    0.60
   1   2  -5    1.10    0.40
  -1  -2   5    0.30    0.40
   1  -2  -5   -0.30    0.60
  -1  -2   5    0.80    0.60
   2   2  -6  140.79    9.00
   2  -2  -6  154.88    8.90
   3   2  -7  116.49    7.60
   3  -2  -7  123.29    7.40
   4   2  -8    9.80    1.80
   4  -2  -8    8.40    1.20
   4   3   0    0.80    1.50
   4  -3   0    2.60    1.00
   3   3   1  227.38   14.50
   3  -3   1  242.48   14.10
   2   3   2   46.70    3.80
   2  -3   2   53.89    3.60
   1   3   3    8.50    1.40
   1   3   3   10.00    1.00
  -1  -3  -3    9.30    1.30
   1  -3   3    9.20    1.30
  -1  -3  -3    7.30    1.10
   0   3  -4   52.29    3.40
   0   3  -4   46.80    3.70
   0   3   4   56.79    3.80
   0   3   4   55.29    3.40
   0  -3  -4   53.29    3.40
   0  -3   4   51.19    3.30
   0  -3  -4   48.20    3.60
   0  -3   4   56.89    3.70
   1   3  -5  246.88   16.50
   1   3  -5  277.97   16.20
  -1  -3   5  301.67   16.60
  -1  -3   5  277.67   16.30
   1  -3  -5  288.07   16.00
   1  -3  -5  270.07   16.50
   2   3  -6  169.28   10.60
   2  -3  -6  174.08   10.50
   3   3  -7   -0.20    1.30
   3  -3  -7   -1.70    1.00
   4   3  -8    0.40    1.60
   4  -3  -8    3.10    1.40
   3   4   1   -0.80    1.70
   3  -4   1   -1.90    1.20
   2   4   2   18.30    2.50
   2  -4   2   16.50    2.10
   1   4   3   70.99    4.80
   1   4   3   79.29    5.40
   1  -4   3   71.79    5.10
  -1  -4  -3   74.49    4.90
   0   4  -4    3.60    1.40
   0   4   4    4.20    1.40
   0   4  -4    4.70    1.00
   0   4   4    3.60    0.90
   0  -4  -4    1.30    1.20
   0  -4   4    2.30    1.10
   0  -4   4    2.80    0.80
   0  -4  -4    2.50    0.80
   1   4  -5   22.50    2.40
   1   4  -5   21.30    1.80
  -1  -4   5   19.80    1.90
   1  -4  -5   21.00    2.40
   1  -4  -5   17.10    1.50
   2   4  -6   57.19    4.60
   2  -4  -6   56.19    4.30
   3   4  -7    0.60    1.80
   3  -4  -7    0.50    1.40
   2   5   2    8.80    2.50
   2  -5   2    5.70    1.80
   1   5   3    1.60    1.10
   1   5   3    1.30    1.70
   1  -5   3    1.20    1.40
  -1  -5  -3    0.40    1.10
   1  -5   3   -0.10    0.60
   0   5   4   20.80    2.20
   0   5  -4   24.70    2.40
   0  -5  -4   22.90    2.20
   0  -5   4   18.10    2.50
   0  -5   4   19.90    2.10
   1   5  -5   80.19    6.40
   1   5  -5   84.79    5.80
   1  -5  -5   92.89    5.30
  -1  -5   5   86.19    5.80
   1  -5  -5   83.39    6.20
   2   5  -6   48.40    4.50
   2  -5  -6   40.70    4.20
   2   6   2    3.20    2.80
  -1  -6  -3    5.10    1.60
   1  -6   3    6.00    2.10
   0   6   4    5.90    1.80
   0   6  -4    4.10    1.70
   0  -6  -4    3.10    1.30
   0  -6   4    2.50    1.20
   1  -6  -5   -1.80    2.00
  -1  -6   5    1.20    1.40
   2   6  -6    3.50    2.70
   1   0   4    0.40    0.30
   1   0   4    0.00    0.30
   0   0   5   -0.10    0.10
   0   0   5   -0.10    0.20
   0   0  -5    0.30    0.20
   0   0  -5   -0.20    0.20
   1   0  -6   -1.40    0.30
   1   0  -6   -1.30    0.40
   2   0  -7    1.30    0.60
   3   0  -8    3.80    1.10
   4   0  -9    1.00    0.70
   3   1   2   33.60    2.30
   2   1   3  859.91   48.30
   2   1   3  800.02   48.20
   2  -1   3  811.32   48.10
   2  -1   3  875.11   48.20
   1   1   4    0.70    0.40
   1  -1   4    1.80    0.40
   1  -1   4    2.50    0.40
   0   1   5  854.31   47.80
   0   1  -5  830.02   48.00
   0   1   5  837.82   48.00
   0   1  -5  835.32   47.80
   0  -1   5  839.12   47.80
   0  -1   5  841.22   47.90
   0  -1  -5  825.32   47.90
   0  -1  -5  787.32   47.80
   1   1  -6 1607.74   90.19
   1  -1  -6 1563.04   90.19
  -1  -1   6 1523.15   90.19
  -1  -1   6 1573.74   90.09
   2   1  -7  306.87   18.30
   2   1  -7  313.97   18.30
   2  -1  -7  307.27   18.20
   2  -1  -7  325.67   18.30
   3   1  -8    9.60    1.30
   3  -1  -8    9.30    1.00
   4   1  -9   60.49    4.40
   4   2   1   14.10    1.80
   3   2   2   25.60    2.40
   3  -2   2   25.10    1.90
   2   2   3  326.07   18.90
   2  -2   3  316.87   18.80
  -1   2  -4  393.26   22.50
   1   2   4  385.96   22.20
  -1   2  -4  354.06   22.20
   1   2   4  393.36   22.60
   1   2   4  401.76   22.30
  -1  -2  -4  384.86   22.30
  -1  -2  -4  403.06   22.50
   1  -2   4  369.66   22.40
   0   2  -5   32.60    2.10
   0   2   5   29.80    2.10
   0   2   5   34.90    2.40
   0   2  -5   28.00    2.30
   0  -2   5   29.80    2.00
   0  -2   5   32.10    2.30
   0  -2  -5   36.20    2.30
   0  -2  -5   33.10    2.10
  -1   2   6    0.40    0.40
   1   2  -6    0.20    0.60
   1   2  -6    0.30    0.30
  -1   2   6   -0.20    0.60
   1   2  -6    1.00    0.50
   1  -2  -6    0.80    0.60
  -1  -2   6    1.20    0.60
   2   2  -7   69.59    4.60
   2  -2  -7   71.39    4.50
   3   2  -8   56.99    4.10
   3  -2  -8   58.09    3.90
   4   2  -9    1.40    1.30
   4  -2  -9    2.00    0.90
   4   3   1   14.50    2.50
   4  -3   1   17.70    1.70
   3   3   2    9.50    1.90
   3  -3   2   10.20    1.40
   2   3   3   42.90    3.40
   2  -3   3   40.90    3.10
   1   3   4    7.30    1.40
   1   3   4    9.50    1.00
  -1  -3  -4   12.30    1.50
   1  -3   4    8.80    1.20
  -1  -3  -4    8.00    1.10
   0   3   5   22.00    1.60
   0   3  -5   23.30    2.20
   0   3  -5   18.00    1.60
   0   3   5   21.20    2.10
   0  -3   5   18.70    1.90
   0  -3  -5   19.50    1.90
   0  -3   5   18.90    1.50
   1   3  -6  515.35   29.90
   1   3  -6  467.45   30.10
  -1  -3   6  521.85   30.10
  -1  -3   6  515.65   29.90
   1  -3  -6  563.24   29.70
   1  -3  -6  496.35   30.10
   2   3  -7   68.59    4.70
   2  -3  -7   63.69    4.50
   3   3  -8   15.10    2.10
   3  -3  -8   16.10    1.90
   4   3  -9   11.00    2.50
   4  -3  -9   14.30    1.90
   3   4   2   -2.00    1.60
   3  -4   2    1.80    1.30
   2   4   3  152.48   10.00
   2  -4   3  153.18    9.60
   1   4   4  299.57   17.20
   1   4   4  270.57   17.50
  -1  -4  -4  300.67   17.20
   1  -4   4  286.07   17.40
   0   4  -5   23.00    3.20
   0   4   5   26.50    2.70
   0   4  -5   21.80    1.90
   0   4   5   21.20    1.90
   0  -4  -5   18.80    1.80
   0  -4   5   17.30    2.10
   0  -4   5   16.20    1.70
   0  -4  -5   18.70    2.20
   1   4  -6    0.30    1.20
   1   4  -6    1.00    0.70
  -1  -4   6    1.80    0.90
   1  -4  -6   -0.10    0.50
   1  -4  -6    1.10    1.20
   2   4  -7  163.78   10.60
   2  -4  -7  167.08   10.40
   3   4  -8   31.70    3.70
   3  -4  -8   35.50    3.40
   2   5   3    3.60    2.10
   2  -5   3    1.20    1.60
   1   5   4   34.20    2.80
   1   5   4   28.80    3.40
   1  -5   4   34.90    3.40
  -1  -5  -4   30.00    2.80
   0   5  -5   18.10    2.10
   0   5   5   16.50    2.10
   0  -5  -5   14.10    1.80
   0  -5   5   17.60    1.80
   0  -5   5   14.30    2.10
   1   5  -6   19.70    2.80
   1   5  -6   14.50    1.70
   1  -5  -6   13.90    2.40
  -1  -5   6   12.70    1.80
   1  -5  -6   13.50    1.40
   2   5  -7    4.70    2.20
   2  -5  -7    4.30    1.90
   2   6   3   16.50    3.30
   1  -6   4    6.30    2.10
  -1  -6  -4    7.60    1.70
   0   6   5   11.10    2.20
   0   6  -5   13.90    2.20
   0  -6  -5   10.10    1.70
   0  -6   5    9.60    1.60
   1  -6  -6   -0.60    2.10
  -1  -6   6    1.20    1.40
   2   6  -7    3.70    2.70
   1   0   5 1957.80  107.69
   1   0   5 1787.62  107.69
   0   0   6  144.89    8.00
   0   0  -6  126.29    8.00
   0   0   6  130.09    7.90
   1   0  -7  134.89    8.10
   2   0  -8  258.07   14.50
   2   0  -8  236.98   14.70
   3   0  -9  570.34   33.30
   4   0 -10   29.50    2.30
   3   1   3   13.50    1.30
   2   1   4  324.97   18.30
   2   1   4  310.27   18.20
   2  -1   4  327.57   18.10
   2  -1   4  292.67   18.10
   1   1   5  254.97   14.00
   1  -1   5  225.78   13.90
   1  -1   5  234.28   13.90
   0   1  -6  752.72   38.10
   0   1   6  670.93   38.10
   0   1  -6  617.94   37.90
   0   1   6  620.24   37.90
   0  -1  -6  698.83   38.00
   0  -1   6  623.24   37.90
   0  -1  -6  613.84   37.90
   0  -1   6  669.93   38.00
   1   1  -7  233.48   14.50
  -1  -1   7  245.08   14.50
   1  -1  -7  255.47   14.50
  -1  -1   7  257.07   14.40
   2   1  -8   39.20    2.60
   2   1  -8   34.50    2.50
   2  -1  -8   36.60    2.50
   2  -1  -8   37.50    2.50
   3   1  -9    5.30    1.10
   3  -1  -9    5.20    0.90
   4   1 -10   22.00    2.50
   4  -1 -10   25.50    1.90
   4   2   2    9.60    1.60
   3   2   3  120.39    7.40
   3  -2   3  113.19    7.00
   2   2   4   26.40    2.20
   2  -2   4   27.50    2.00
   1   2   5  103.99    6.90
  -1   2  -5  110.69    6.50
   1   2   5  114.19    6.50
  -1   2  -5  113.19    6.80
   1   2   5  112.89    6.60
  -1  -2  -5  118.69    6.80
   1  -2   5  106.49    6.80
  -1  -2  -5  112.09    6.60
   0   2  -6  107.49    6.30
   0   2   6  115.49    6.40
   0   2  -6  117.19    6.60
   0   2   6   98.49    6.50
   0  -2   6  102.19    6.30
   0  -2   6  109.19    6.50
   0  -2  -6  100.49    6.30
   0  -2  -6  101.39    6.50
   1   2  -7    1.80    0.60
   1   2  -7    1.30    0.30
   1   2  -7    0.50    0.70
  -1   2   7    0.70    0.60
  -1   2   7    1.30    0.50
   1  -2  -7    1.80    0.70
  -1  -2   7    1.60    0.60
  -1  -2   7    1.60    0.50
   2   2  -8  128.19    8.20
   2  -2  -8  138.59    8.10
   3   2  -9  113.49    7.20
   3  -2  -9  110.79    6.90
   4   2 -10    7.30    1.70
   4  -2 -10   10.10    1.30
   4   3   2    4.50    1.90
   4  -3   2    2.50    1.10
   3   3   3  122.09    7.90
   3  -3   3  114.59    7.30
   2   3   4   84.89    5.80
   2  -3   4   88.79    5.60
   1   3   5   14.40    1.20
   1   3   5   16.90    1.90
   1  -3   5   17.30    1.70
  -1  -3  -5   13.50    1.40
  -1  -3  -5   11.70    1.80
   0   3  -6  496.85   30.70
   0   3  -6  543.55   31.00
   0   3   6  508.25   30.90
   0   3   6  537.75   30.70
   0  -3  -6  544.75   30.90
   0  -3   6  507.45   30.60
   0  -3  -6  547.25   30.70
   0  -3   6  545.45   30.90
   1   3  -7  146.99    8.90
   1   3  -7  138.99    9.20
  -1  -3   7  147.39    8.90
   1  -3  -7  154.38    8.70
   1  -3  -7  158.58    9.20
  -1  -3   7  143.09    9.10
   2   3  -8   90.29    6.10
   2  -3  -8   88.69    5.90
   3   3  -9  106.59    7.30
   3  -3  -9  110.39    7.00
   4  -3 -10    9.90    1.70
   3   4   3   10.20    2.40
   3  -4   3    9.70    1.80
   2   4   4    2.20    1.60
   2  -4   4    2.20    1.20
   1   4   5    7.00    1.60
   1   4   5    7.10    1.20
   1  -4   5    7.10    1.40
  -1  -4  -5    6.60    1.20
   0   4   6   -0.40    1.10
   0   4  -6    1.50    0.90
   0   4   6    0.30    0.80
   0  -4  -6    1.10    1.30
   0  -4   6    1.60    0.70
   0  -4   6    1.30    1.10
   0  -4  -6    2.00    0.80
   1   4  -7   31.20    2.90
   1   4  -7   22.50    1.90
   1  -4  -7   21.30    1.60
  -1  -4   7   21.50    2.10
   1  -4  -7   21.90    2.40
   2   4  -8   26.80    2.90
   2  -4  -8   23.30    2.60
   3   4  -9   24.60    3.20
   3  -4  -9   23.80    2.80
   2   5   4   42.60    4.40
   2  -5   4   37.40    3.70
   1   5   5   17.80    2.00
   1   5   5   11.80    2.40
   1  -5   5   15.20    2.30
   0   5  -6  195.98   11.30
   0   5   6  179.58   11.30
   0  -5   6  176.58   11.50
   0  -5   6  181.08   11.00
   0  -5  -6  177.08   11.00
   1   5  -7   64.09    5.50
   1   5  -7   67.29    4.80
  -1  -5   7   65.99    4.80
   1  -5  -7   73.59    4.40
   1  -5  -7   83.39    5.50
   2   5  -8   13.90    2.70
   2  -5  -8   13.80    2.50
   2   6   4   11.60    3.30
  -1  -6  -5   20.20    2.50
   1  -6   5   25.30    3.10
   0   6   6   18.20    2.50
   0   6  -6   20.10    2.70
   0  -6  -6   11.30    1.90
   0  -6   6   14.90    1.90
   1  -6  -7   21.30    3.20
  -1  -6   7   16.00    2.30
   2   6  -8    7.10    2.90
   2   0   5    0.70    0.30
   1   0   6   -0.40    0.30
   1   0   6    0.50    0.40
   0   0  -7    0.00    0.20
   0   0   7    0.20    0.30
   0   0  -7   -0.20    0.30
   0   0   7    0.20    0.20
   1   0  -8    0.60    0.60
   2   0  -9    0.50    0.50
   2   0  -9    0.10    0.70
   3   0 -10    2.50    1.10
   4   0 -11   -0.70    0.90
   3   1   4  154.78    9.20
   2   1   5    1.20    0.50
   2   1   5    3.40    0.70
   2  -1   5    1.30    0.40
   2  -1   5    3.00    0.40
   1   1   6  557.94   31.10
   1  -1   6  525.15   31.10
   1  -1   6  530.85   31.10
   0   1   7  759.72   40.10
   0   1  -7  684.43   40.20
   0   1  -7  703.33   40.10
   0   1   7  675.23   40.20
   0  -1   7  661.83   40.20
   0  -1  -7  694.03   40.20
   0  -1   7  668.43   40.10
   0  -1  -7  713.93   40.10
   1   1  -8  327.77   18.50
  -1  -1   8  297.67   18.40
   1  -1  -8  323.87   18.50
  -1  -1   8  315.77   18.30
   2   1  -9   36.40    2.50
   2  -1  -9   34.80    2.40
   2  -1  -9   33.00    2.50
   3   1 -10   13.80    1.70
   3  -1 -10   14.40    1.40
   4   1 -11   43.40    3.70
   4  -1 -11   41.90    2.90
   4   2   3    2.00    1.20
   3   2   4    4.50    1.20
   3  -2   4    1.70    0.70
   2   2   5   84.09    5.50
   2  -2   5   87.99    5.30
   1   2   6  557.74   32.40
   1   2   6  549.05   32.40
   1   2   6  587.04   32.80
  -1   2  -6  559.54   32.70
  -1   2  -6  544.45   32.40
  -1  -2  -6  556.74   32.50
   1  -2   6  551.04   32.60
  -1  -2  -6  599.64   32.70
   0   2  -7    3.20    0.70
   0   2   7    5.30    0.90
   0   2  -7    3.90    0.60
   0   2   7    3.80    0.60
   0  -2   7    4.50    0.60
   0  -2  -7    3.90    0.80
   0  -2  -7    4.60    0.60
   0  -2   7    4.40    0.80
   1   2  -8   64.29    4.30
  -1   2   8   69.39    4.40
  -1   2   8   70.09    4.20
   1   2  -8   72.69    4.50
  -1  -2   8   67.39    4.20
   1  -2  -8   71.59    4.40
  -1  -2   8   64.59    4.40
   2   2  -9  197.78   11.50
   2  -2  -9  183.98   11.40
   3   2 -10  142.99    9.20
   3  -2 -10  149.29    8.90
   4   2 -11    1.70    1.40
   4  -2 -11    1.10    1.00
   4   3   3   32.00    3.60
   4  -3   3   33.20    2.50
   3   3   4   26.50    2.90
   3  -3   4   26.20    2.30
   2   3   5   -0.10    1.10
   2  -3   5    1.30    0.90
   1   3   6   73.69    4.80
   1   3   6   65.39    4.30
   1  -3   6   71.59    4.60
  -1  -3  -6   71.09    4.40
   0   3   7   63.19    4.00
   0   3  -7   72.39    4.40
   0   3  -7   60.19    4.00
   0   3   7   67.89    4.40
   0  -3   7   57.29    4.20
   0  -3  -7   67.69    4.30
   0  -3   7   61.69    4.00
   0  -3  -7   62.19    4.00
   1   3  -8    9.20    1.40
   1   3  -8    9.80    1.10
  -1  -3   8    9.10    1.10
  -1  -3   8    9.40    1.40
   1  -3  -8    9.80    1.40
   1  -3  -8    9.50    0.80
   2   3  -9    4.90    1.40
   2  -3  -9    3.20    1.20
   3   3 -10   34.80    3.30
   3  -3 -10   32.60    3.00
   4  -3 -11    5.50    1.50
   3   4   4   -2.00    1.60
   3  -4   4   -0.20    1.20
   2   4   5   75.49    5.70
   2  -4   5   79.79    5.40
   1   4   6  284.67   16.20
   1   4   6  264.77   16.60
  -1  -4  -6  283.67   16.20
   1  -4   6  257.87   16.40
   0   4   7  163.18   10.10
   0   4  -7  176.78   10.10
   0   4   7  163.18   10.50
   0  -4   7  162.98   10.30
   0  -4   7  167.78    9.90
   0  -4  -7  164.48   10.00
   0  -4  -7  160.28   10.30
   1   4  -8   57.09    4.90
   1   4  -8   69.99    4.40
  -1  -4   8   71.39    4.60
   1  -4  -8   67.29    4.20
   1  -4  -8   69.49    4.90
   2   4  -9  100.99    7.30
   2  -4  -9  109.39    7.10
   3   4 -10   57.79    5.30
   3  -4 -10   60.69    4.70
   2   5   5   28.00    3.60
   2  -5   5   30.40    3.10
   1   5   6    4.90    2.00
   1   5   6    6.60    1.50
   1  -5   6    6.20    1.80
   0   5   7    4.80    1.30
   0   5  -7    7.70    1.50
   0  -5  -7    6.40    1.30
   0  -5   7    5.30    1.70
   0  -5   7    5.00    1.10
   1   5  -8   78.29    5.20
   1   5  -8   76.49    6.00
  -1  -5   8   77.79    5.30
   1  -5  -8   77.99    6.00
   1  -5  -8   79.99    4.90
   2   5  -9    4.40    2.20
   2  -5  -9    2.00    1.80
   2   6   5    2.10    2.70
  -1  -6  -6   23.60    2.70
   1  -6   6   34.90    3.60
   0   6  -7    0.10    1.60
   0   6   7    1.10    1.50
   0  -6  -7    0.10    1.20
   0  -6   7    0.50    1.10
   1  -6  -8   10.20    1.50
   1  -6  -8    9.20    2.70
  -1  -6   8   16.80    2.20
   2   6  -9   19.10    3.70
   2   0   6  653.73   42.10
   2   0   6  807.02   42.10
   1   0   7 1563.14   84.79
   1   0   7 1384.76   84.79
   0   0   8    1.60    0.50
   0   0  -8    1.50    0.60
   0   0  -8    1.70    0.70
   0   0   8    1.70    0.70
   1   0  -9  610.14   33.10
  -1   0   9  530.95   33.10
   2   0 -10  244.08   13.80
   2   0 -10  221.88   13.90
   3   0 -11  125.89    7.90
   4   0 -12   12.40    1.50
   3   1   5   62.99    4.00
   2   1   6    2.60    0.70
   2   1   6    3.10    0.60
   2  -1   6    3.90    0.60
   2  -1   6    3.70    0.50
   1   1   7    0.90    0.40
   1   1   7    0.10    0.20
   1  -1   7    1.30    0.40
   1  -1   7    0.20    0.30
   0   1  -8    2.00    0.50
   0   1   8    1.50    0.50
   0   1  -8    1.80    0.40
   0   1   8    1.70    0.40
   0  -1  -8    2.30    0.50
   0  -1   8    1.60    0.40
   0  -1  -8    1.40    0.40
   0  -1   8    2.50    0.50
   1   1  -9    0.20    0.50
  -1   1   9    1.10    0.30
  -1   1   9    0.70    0.40
  -1  -1   9    1.40    0.30
   1  -1  -9    1.10    0.50
   2   1 -10   93.49    5.80
   2  -1 -10   93.69    5.80
   3   1 -11   22.60    2.20
   3  -1 -11   19.20    1.80
   4   1 -12   18.60    2.40
   4  -1 -12   19.60    1.90
   4   2   4   21.90    2.30
   3   2   5  122.19    7.50
   3  -2   5  114.19    7.10
   2   2   6  250.47   15.00
   2  -2   6  255.77   14.90
   1   2   7  731.93   43.10
  -1   2  -7  684.23   43.30
   1   2   7  813.32   43.40
   1   2   7  751.22   43.10
  -1   2  -7  707.43   43.10
   1  -2   7  743.53   43.30
  -1  -2  -7  751.92   43.20
  -1  -2  -7  803.82   43.30
   0   2  -8  105.59    6.30
   0   2   8  100.59    6.50
   0   2  -8   98.19    6.50
   0   2   8  109.29    6.30
   0  -2   8  115.39    6.50
   0  -2  -8  111.39    6.50
   0  -2   8   99.59    6.30
   0  -2  -8  106.99    6.30
   1   2  -9  405.36   26.70
  -1   2   9  449.56   26.60
   1   2  -9  504.25   26.90
  -1   2   9  430.86   26.80
  -1  -2   9  484.45   26.80
  -1  -2   9  468.15   26.60
   1  -2  -9  476.65   26.80
   2   2 -10  450.25   26.30
   2  -2 -10  445.46   26.10
   3   2 -11    9.50    1.60
   3  -2 -11    7.40    1.30
   4   2 -12    0.50    1.40
   4  -2 -12    0.70    1.10
   4   3   4   69.29    5.40
   4  -3   4   60.19    4.20
   3   3   5    1.30    1.40
   3  -3   5    1.70    0.90
   2   3   6   -1.90    0.90
   2  -3   6   -0.20    0.80
   1   3   7   26.00    2.40
   1   3   7   24.80    1.90
  -1  -3  -7   24.00    1.90
   1  -3   7   26.10    2.20
   0   3   8  599.24   34.50
   0   3  -8  601.34   34.50
   0   3  -8  675.93   34.80
   0   3   8  574.44   34.80
   0  -3  -8  582.24   34.70
   0  -3   8  582.34   34.40
   0  -3   8  575.64   34.70
   0  -3  -8  573.24   34.50
   1   3  -9  334.57   21.10
   1   3  -9  351.16   20.90
   1  -3  -9  378.16   20.70
  -1  -3   9  347.67   21.30
   1  -3  -9  366.36   21.10
  -1  -3   9  359.46   20.90
   2   3 -10   14.50    2.00
   2  -3 -10   10.50    1.70
   3   3 -11   24.00    2.70
   3  -3 -11   21.80    2.40
   4  -3 -12   31.30    3.00
   3   4   5    0.40    1.80
   3  -4   5    0.70    1.30
   2   4   6   26.90    3.10
   2  -4   6   25.50    2.60
   1   4   7   30.20    2.50
   1   4   7   32.50    3.10
   1  -4   7   33.10    2.90
  -1  -4  -7   36.00    2.60
   0   4   8    8.10    1.20
   0   4   8    8.90    1.60
   0   4  -8    8.20    1.30
   0  -4  -8    5.80    1.10
   0  -4   8    5.80    1.30
   0  -4   8    7.00    1.10
   0  -4  -8   10.50    1.60
   1   4  -9   83.69    5.30
   1   4  -9   79.79    5.90
   1  -4  -9   81.89    5.70
   1  -4  -9   85.19    5.10
  -1  -4   9   82.39    5.30
   2   4 -10   19.00    2.60
   2  -4 -10   18.30    2.40
   3   4 -11   16.80    2.60
   3  -4 -11   10.10    2.00
   2   5   6    3.70    2.10
   2  -5   6    4.70    1.80
   1   5   7    3.00    1.40
   1   5   7    2.30    1.80
   1  -5   7    2.60    1.60
  -1  -5  -7    2.20    1.30
   0   5   8  140.59    8.70
   0   5  -8  147.49    8.80
   0  -5   8  134.29    8.50
   0  -5   8  126.59    9.10
   0  -5  -8  139.19    8.60
   1   5  -9   14.30    1.80
   1   5  -9   14.80    2.70
  -1  -5   9   14.10    1.80
   1  -5  -9   11.70    2.40
   1  -5  -9   13.80    1.40
   2   5 -10   11.60    2.70
   2  -5 -10    8.10    2.20
   2   6   6    4.40    2.60
   1  -6   7   14.80    2.50
  -1  -6  -7    9.00    1.80
   0   6  -8    0.30    1.70
   0   6   8    1.40    1.60
   0  -6  -8   -0.80    1.30
  -1  -6   9    1.40    1.40
   1  -6  -9    0.90    0.90
   1  -6  -9    6.90    2.40
   2   6 -10    4.00    2.90
   2   0   7    0.50    0.40
   2   0   7    0.30    0.40
   1   0   8   -0.10    0.40
   1   0   8    0.10    0.40
   0   0  -9   -0.20    0.30
   0   0  -9   -0.70    0.40
   0   0   9   -0.80    0.30
   0   0   9   -0.60    0.30
  -1   0  10    0.10    0.50
   1   0 -10   -0.40    0.50
  -1   0  10    0.40    0.20
   2   0 -11    2.40    0.90
   2   0 -11    1.00    0.60
   3   0 -12    1.10    1.20
   4   0 -13    0.20    1.00
   3   1   6  122.39    7.40
   2   1   7   25.60    1.80
   2   1   7   25.10    1.70
   2  -1   7   22.50    1.60
   1   1   8  276.77   17.00
  -1  -1  -8  290.27   17.10
   1  -1   8  308.77   17.00
   0   1  -9 2055.39  119.09
   0   1  -9 2172.88  118.99
   0   1   9 2253.77  119.19
   0   1   9 1982.40  119.09
   0  -1  -9 1905.51  119.09
   0  -1   9 1982.10  119.09
   0  -1  -9 2135.89  118.99
   1   1 -10  946.91   57.59
   1   1 -10 1075.89   57.59
   1   1 -10 1023.20   57.89
  -1   1  10 1042.10   57.69
  -1  -1  10  972.20   57.79
   1  -1 -10  966.60   57.79
  -1  -1  10  984.20   57.59
   2   1 -11    2.90    0.90
   2  -1 -11    1.70    0.80
   3   1 -12  165.98   10.40
   3  -1 -12  170.18   10.10
   4   1 -13   99.89    6.90
   4  -1 -13  101.59    6.30
   4   2   5    0.70    1.10
   3   2   6  144.49    8.70
   3  -2   6  134.29    8.30
   2   2   7  156.78    9.50
   2  -2   7  157.88    9.40
   1   2   8   36.60    2.50
   1   2   8   38.20    2.50
  -1   2  -8   42.80    2.80
  -1   2  -8   39.10    2.40
   1   2   8   37.40    2.80
   1  -2   8   41.20    2.70
  -1  -2  -8   43.60    2.80
  -1  -2  -8   43.50    2.60
   0   2   9   29.70    2.30
   0   2  -9   29.60    2.00
   0   2   9   28.50    2.00
   0   2  -9   30.90    2.20
   0  -2   9   26.00    2.10
   0  -2  -9   30.70    2.00
   0  -2   9   30.20    1.90
   0  -2  -9   28.40    2.20
   1   2 -10  130.79    8.30
  -1   2  10  135.39    8.20
  -1   2  10  135.19    8.00
   1   2 -10  128.99    8.20
   1  -2 -10  141.99    8.20
  -1  -2  10  133.99    8.20
  -1  -2  10  136.89    8.00
   2   2 -11  177.08   10.90
   2  -2 -11  181.88   10.80
   3   2 -12   40.30    3.30
   3  -2 -12   39.80    3.00
   4   2 -13   -0.10    1.40
   4  -2 -13    1.00    1.10
   4   3   5    6.20    2.10
   4  -3   5    5.80    1.10
   3   3   6   20.50    2.60
   3  -3   6   20.20    2.00
   2   3   7   12.90    1.80
   2  -3   7   12.90    1.60
   1   3   8    2.60    1.10
   1   3   8    2.30    0.60
   1  -3   8    0.80    0.80
  -1  -3  -8    1.60    0.70
   0   3  -9  305.97   18.50
   0   3   9  314.87   18.80
   0   3  -9  353.46   18.80
   0   3   9  335.37   18.50
   0  -3   9  300.27   18.70
   0  -3   9  297.17   18.40
   0  -3  -9  305.37   18.70
   0  -3  -9  319.77   18.50
   1   3 -10  112.89    7.20
   1   3 -10  120.39    7.60
  -1  -3  10  118.99    7.20
   1  -3 -10  123.79    7.50
   1  -3 -10  117.19    7.00
   2   3 -11   48.90    3.80
   2  -3 -11   48.40    3.70
   3   3 -12   23.40    2.70
   3  -3 -12   23.20    2.40
   4  -3 -13   10.40    1.80
   3   4   6   34.80    3.90
   3  -4   6   32.10    3.10
   2   4   7   98.19    6.70
   2  -4   7   90.89    6.30
   1   4   8   26.90    2.40
   1   4   8   29.20    3.10
  -1  -4  -8   26.10    2.30
   1  -4   8   25.80    2.70
   0   4   9    0.60    0.80
   0   4   9   -0.30    1.20
   0   4  -9    0.90    0.90
   0  -4  -9    0.50    1.20
   0  -4   9   -0.20    0.70
   0  -4   9    0.90    1.00
   1   4 -10  201.78   12.00
   1   4 -10  195.68   11.50
   1  -4 -10  183.88   11.90
  -1  -4  10  185.28   11.50
   2   4 -11   19.80    2.70
   2  -4 -11   21.80    2.60
   3   4 -12   27.20    3.40
   3  -4 -12   24.90    2.90
   2   5   7    7.80    2.40
   2  -5   7    5.50    1.80
   1   5   8    1.20    1.70
   1   5   8    4.10    1.20
   1  -5   8    2.80    1.50
  -1  -5  -8    4.40    1.40
   0   5   9    2.90    1.20
   0   5  -9    2.70    1.30
   0  -5   9    1.20    1.80
   0  -5   9    2.60    1.00
   0  -5  -9    1.20    1.00
   1   5 -10   25.40    2.50
   1   5 -10   29.30    3.50
   1  -5 -10   23.70    3.00
  -1  -5  10   21.80    2.30
   1  -5 -10   22.10    1.80
   2   5 -11    6.00    2.30
   2  -5 -11    5.50    2.00
   2   6   7   22.70    4.00
   1  -6   8    6.40    2.10
  -1  -6  -8    6.90    1.80
   0   6  -9   -0.40    1.60
   0   6   9    0.50    1.60
  -1  -6  10   16.90    2.10
   1  -6 -10   14.60    1.60
   1  -6 -10   14.00    2.90
   2   6 -11   16.10    3.50
   2   0   8  104.19    5.60
   2   0   8   81.39    5.60
   1   0   9  100.59    5.80
   1   0   9   88.89    5.80
   0   0  10  112.29    6.60
   0   0 -10  101.99    6.80
   0   0 -10  110.59    6.70
   0   0  10  123.39    6.80
  -1   0  11  208.78   12.90
  -1   0  11  227.58   12.60
   1   0 -11  211.18   12.90
   2   0 -12 1005.90   58.39
   3   0 -13  131.69    8.40
   4   0 -14    0.60    1.10
   3   1   7   17.60    1.60
   2   1   8   83.39    4.90
   2   1   8   81.09    4.90
   2  -1   8   80.29    4.80
   2  -1   8   74.09    4.80
   1   1   9   83.29    4.90
  -1  -1  -9   76.59    4.80
   1  -1   9   76.59    4.80
   0   1 -10  292.27   16.30
   0   1 -10  292.87   16.50
   0   1  10  265.37   16.50
   0   1  10  293.17   16.30
   0  -1  10  292.67   16.30
   0  -1 -10  283.87   16.30
   0  -1 -10  259.47   16.40
   0  -1  10  264.27   16.40
   1   1 -11    7.00    0.50
   1   1 -11    6.40    0.60
  -1   1  11    7.40    0.90
   1   1 -11    6.60    0.90
  -1   1  11    7.50    0.70
  -1  -1  11    6.40    0.90
  -1  -1  11    7.00    0.70
   1  -1 -11    8.00    1.00
   2   1 -12   17.10    1.70
   2  -1 -12   15.90    1.60
   3   1 -13   52.79    3.70
   3  -1 -13   45.70    3.40
   4   1 -14   12.30    2.10
   4  -1 -14   12.10    1.50
   4   2   6   19.00    2.10
   3   2   7   39.30    3.10
   3  -2   7   35.20    2.50
   2   2   8   48.70    3.40
   2  -2   8   47.30    3.20
   1   2   9  252.07   16.00
   1   2   9  281.27   16.00
   1   2   9  303.37   16.40
  -1   2  -9  263.67   16.00
  -1   2  -9  273.47   16.20
   1  -2   9  286.17   16.20
  -1  -2  -9  275.07   16.10
  -1  -2  -9  278.07   16.30
   0   2  10  230.18   13.00
   0   2  10  228.38   13.20
   0   2 -10  221.08   13.00
   0   2 -10  217.98   13.20
   0  -2 -10  242.88   13.20
   0  -2  10  215.38   13.00
   0  -2 -10  214.48   13.00
   0  -2  10  206.48   13.10
   1   2 -11  158.98    9.10
  -1   2  11  135.99    8.90
   1   2 -11  142.39    9.00
  -1   2  11  153.08    9.10
   1  -2 -11  162.68    8.70
  -1  -2  11  155.78    8.90
   1  -2 -11  155.08    9.10
  -1  -2  11  148.89    9.00
   1  -2 -11  134.49    8.70
   2   2 -12  214.68   12.30
   2  -2 -12  191.48   12.10
   3   2 -13   48.30    4.00
   3  -2 -13   51.99    3.60
   4   2 -14    1.20    1.60
   4  -2 -14    4.70    1.30
   4   3   6   56.09    4.90
   3   3   7   56.09    4.60
   3  -3   7   53.39    3.80
   2   3   8    9.10    1.70
   2  -3   8   15.70    1.70
   1   3   9  296.57   17.90
   1   3   9  302.57   17.50
  -1  -3  -9  295.07   17.50
   1  -3   9  302.47   17.70
   0   3  10  359.66   20.00
   0   3  10  327.87   20.30
   0   3 -10  332.57   19.90
   0   3 -10  329.77   20.20
   0  -3 -10  355.36   19.90
   0  -3  10  327.97   19.90
   0  -3  10  354.66   20.20
   0  -3 -10  338.77   20.20
   1   3 -11  149.19    9.80
   1   3 -11  154.38    9.50
   1  -3 -11  158.88    9.70
  -1  -3  11  164.58    9.40
   1  -3 -11  158.98    9.20
   2   3 -12   26.80    2.70
   2  -3 -12   26.90    2.60
   3   3 -13   36.00    3.50
   3  -3 -13   35.60    3.20
   3   4   7    4.30    2.00
   3  -4   7    4.90    1.50
   2   4   8   12.70    2.20
   2  -4   8   11.20    1.70
   1   4   9    0.50    1.40
   1   4   9    2.90    0.90
  -1  -4  -9    1.90    1.00
   1  -4   9    2.90    1.30
   0   4  10    0.00    0.80
   0   4 -10    1.90    1.00
   0   4  10   -1.50    1.20
   0  -4  10    0.90    0.80
   0  -4  10    1.70    1.10
   0  -4 -10    1.10    1.30
   1   4 -11   23.90    2.80
   1   4 -11   25.40    2.20
   1  -4 -11   24.30    2.60
   1  -4 -11   21.40    1.80
  -1  -4  11   24.50    2.10
   2   4 -12   70.69    5.30
   2  -4 -12   63.59    5.10
   3   4 -13    2.90    2.10
   3  -4 -13    6.10    1.80
   2   5   8    1.40    1.90
   2  -5   8    2.90    1.70
   1   5   9  127.59    7.70
   1   5   9  109.29    8.50
  -1  -5  -9  118.49    7.80
   1  -5   9  123.59    8.10
   0   5  10   97.79    6.80
   0   5 -10  107.99    6.70
   0  -5 -10   99.29    6.50
   0  -5  10   97.29    7.40
   0  -5  10  100.09    6.40
   1   5 -11   12.60    1.80
   1  -5 -11    9.90    1.20
   1  -5 -11    9.60    2.20
  -1  -5  11   13.70    1.80
   2   5 -12    7.00    2.40
   2  -5 -12    8.10    2.30
   2   6   8   12.40    3.40
  -1  -6  -9   15.70    2.30
   1  -6   9   23.30    3.00
   0   6  10   44.90    4.20
   0   6 -10   51.09    4.40
   1  -6 -11    8.50    1.20
   1  -6 -11    9.40    2.70
  -1  -6  11    9.50    2.00
   2   6 -12    0.70    2.60
   2   0   9    1.40    0.50
   2   0   9    0.80    0.50
   1   0  10   -0.60    0.40
   1   0  10   -0.10    0.40
   0   0  11   -1.00    0.30
   0   0 -11    0.10    0.60
   0   0  11   -1.00    0.50
   0   0 -11   -0.50    0.40
  -1   0  12   -0.40    0.60
  -1   0  12    0.30    0.30
   1   0 -12   -0.50    0.60
   2   0 -13    3.40    1.00
   3   0 -14    0.00    1.20
   4   0 -15   -1.50    1.20
   3   1   8   20.80    1.80
   2   1   9  321.37   19.10
   2   1   9  342.27   19.00
   2  -1   9  340.47   19.00
   2  -1   9  302.37   18.90
   1   1  10  319.97   17.90
  -1  -1 -10  310.37   17.80
   1  -1  10  298.47   17.80
  -1  -1 -10  294.97   17.80
   0   1  11  481.55   27.20
   0   1 -11  469.75   27.40
   0   1 -11  477.65   27.20
   0   1  11  439.06   27.40
   0  -1 -11  449.76   27.30
   0  -1 -11  495.95   27.20
   0  -1  11  475.05   27.20
   1   1 -12  113.89    6.40
   1   1 -12  122.99    6.70
  -1   1  12  108.59    6.40
   1   1 -12  105.29    6.30
  -1   1  12  110.19    6.60
   1  -1 -12  102.89    6.60
  -1  -1  12   99.79    6.60
  -1  -1  12  103.59    6.40
   2   1 -13   76.19    4.90
   2  -1 -13   75.29    4.90
   3   1 -14   28.10    2.70
   3  -1 -14   26.50    2.40
   4   1 -15   41.30    3.70
   4  -1 -15   34.50    2.90
   4   2   7    2.50    1.20
   3   2   8   39.50    3.10
   3  -2   8   36.00    2.60
   2   2   9  245.18   15.00
   2  -2   9  257.77   14.80
  -1   2 -10   48.40    3.10
   1   2  10   52.99    3.20
   1   2  10   37.50    2.80
   1   2  10   43.00    2.80
  -1   2 -10   44.00    2.80
   1  -2  10   47.70    3.10
  -1  -2 -10   47.60    2.90
   0   2  11    8.40    0.90
   0   2 -11    8.40    0.90
   0   2 -11    5.40    0.90
   0   2  11    7.80    1.10
   0  -2  11    6.80    1.00
   0  -2  11    7.70    0.80
   0  -2 -11    9.50    0.90
   0  -2 -11    9.10    1.10
  -1   2  12  358.86   22.80
  -1   2  12  392.76   23.00
   1   2 -12  371.66   22.90
   1   2 -12  370.16   23.00
   1  -2 -12  385.06   22.70
  -1  -2  12  413.66   22.80
   1  -2 -12  404.16   23.00
   1  -2 -12  411.46   22.60
  -1  -2  12  423.66   23.00
   2   2 -13  110.89    7.20
   2  -2 -13  114.59    7.00
   3   2 -14    2.30    1.40
   3  -2 -14    3.40    1.10
   4   2 -15    4.50    1.80
   4  -2 -15    6.50    1.40
   4   3   7    1.90    1.80
   3   3   8    1.30    1.40
   3  -3   8   -0.10    0.90
   2   3   9   79.09    5.50
   2  -3   9   81.49    5.20
   1   3  10  105.79    6.80
   1   3  10  103.19    6.40
   1  -3  10  110.29    6.70
  -1  -3 -10  103.69    6.50
   0   3  11    5.80    1.40
   0   3 -11    6.90    0.90
   0   3 -11    7.00    1.40
   0   3  11    6.90    0.90
   0  -3  11    8.00    0.90
   0  -3 -11    7.20    1.30
   0  -3  11    6.70    1.20
   0  -3 -11    6.90    0.90
   1   3 -12    3.50    1.20
   1   3 -12    5.20    0.90
  -1  -3  12    4.60    0.90
   1  -3 -12    3.40    0.60
   1  -3 -12    5.60    1.30
   2   3 -13   22.50    2.50
   2  -3 -13   18.70    2.20
   3   3 -14    9.80    2.10
   3  -3 -14   11.20    1.80
   3   4   8   36.70    4.20
   3  -4   8   41.90    3.50
   2   4   9  157.68   10.20
   2  -4   9  157.38    9.90
   1   4  10   43.70    3.80
   1   4  10   39.20    3.20
   1  -4  10   45.10    3.50
  -1  -4 -10   45.10    3.20
   0   4  11   45.00    4.30
   0   4  11   51.99    3.60
   0   4 -11   54.79    3.60
   0  -4 -11   48.50    4.00
   0  -4  11   52.19    3.40
   0  -4 -11   46.00    3.50
   0  -4  11   53.89    3.90
   1   4 -12  309.97   18.60
   1   4 -12  302.27   18.10
  -1  -4  12  312.97   18.10
   1  -4 -12  294.97   18.50
   1  -4 -12  307.17   17.80
   2   4 -13  127.09    8.50
   2  -4 -13  119.39    8.20
   3   4 -14   17.10    2.90
   3  -4 -14   17.00    2.50
   2   5   9    0.50    2.00
   2  -5   9    0.10    1.40
   1   5  10   11.30    1.70
   1   5  10    9.10    2.30
  -1  -5 -10   10.90    1.80
   1  -5  10    8.30    1.80
   0   5  11  126.89    8.30
   0   5 -11  131.09    8.30
   0  -5 -11  130.19    8.10
   0  -5  11  128.99    8.00
   1   5 -12    3.60    1.30
   1  -5 -12    2.40    0.80
   1  -5 -12    2.60    1.80
  -1  -5  12    2.10    1.20
   2   5 -13    8.80    2.50
   2  -5 -13   11.40    2.40
   2   6   9   20.20    4.20
  -1  -6 -10    3.30    1.60
   1  -6  10   -0.50    1.80
   0   6  11    0.50    1.40
   0   6 -11   -0.70    1.70
   1  -6 -12    9.40    2.70
   1  -6 -12   13.90    1.40
   2   6 -13   20.90    4.00
   2   0  10  669.73   41.20
   2   0  10  755.82   41.20
   1   0  11  121.19    7.40
   0   0 -12  922.01   56.79
   0   0  12 1027.50   56.89
   0   0 -12  975.30   56.69
   0   0  12 1004.30   56.59
   1   0 -13 1907.51  101.39
   1   0 -13 1855.71  100.89
  -1   0  13 1727.33  100.99
  -1   0  13 1534.75  101.29
   2   0 -14  428.46   25.30
   3   0 -15   33.20    3.20
   4   0 -16    1.40    1.30
   3   1   9    1.60    0.70
   2   1  10   13.60    1.30
   2   1  10   15.80    1.50
   2  -1  10   15.30    1.20
   2  -1  10   13.50    1.20
   1   1  11  381.66   20.70
  -1  -1 -11  328.77   20.60
   0   1  12  140.29    8.20
   0   1 -12  142.39    8.20
   0   1  12  137.39    8.40
   0   1 -12  126.99    8.30
   0  -1 -12  138.69    8.20
   0  -1  12  140.39    8.30
   0  -1 -12  137.99    8.40
   0  -1  12  146.39    8.20
   1   1 -13  306.87   17.40
  -1   1  13  303.57   17.60
   1   1 -13  287.87   17.70
   1   1 -13  308.77   17.50
   1  -1 -13  326.27   17.80
  -1  -1  13  276.17   17.70
  -1  -1  13  299.27   17.50
   2   1 -14   22.00    2.00
   2  -1 -14   23.20    2.00
   3   1 -15   51.39    3.80
   3  -1 -15   42.70    3.40
   4   1 -16    4.70    1.90
   4  -1 -16    1.30    1.10
   4   2   8    3.10    1.40
   3   2   9   78.19    5.30
   2   2  10  280.07   16.60
   2  -2  10  278.37   16.40
   1   2  11   12.90    1.00
   1   2  11   14.50    1.50
  -1   2 -11   14.50    1.40
  -1   2 -11   13.10    1.00
   1   2  11   10.10    1.00
   1  -2  11   12.00    1.30
  -1  -2 -11   12.50    1.20
   0   2 -12  541.45   31.30
   0   2 -12  559.54   31.10
   0   2  12  508.35   31.30
   0   2  12  532.25   31.10
   0  -2  12  558.34   31.10
   0  -2  12  538.05   31.30
   0  -2 -12  551.34   31.10
   0  -2 -12  505.15   31.20
   1   2 -13  281.07   16.60
   1   2 -13  292.27   16.50
  -1   2  13  284.17   16.60
  -1   2  13  263.47   16.40
   1   2 -13  243.28   16.20
   1  -2 -13  275.77   16.50
  -1  -2  13  313.57   16.40
  -1  -2  13  284.97   16.50
   1  -2 -13  258.17   16.20
   1  -2 -13  302.57   16.20
   2   2 -14   39.10    3.10
   2  -2 -14   37.30    2.90
   3   2 -15   32.00    2.90
   3  -2 -15   29.00    2.60
   4   2 -16    0.90    1.60
   4  -2 -16    0.10    1.20
   4   3   8    5.90    2.00
   4  -3   8    5.00    1.10
   3   3   9    2.30    1.50
   3  -3   9    2.30    1.00
   2   3  10    3.90    1.30
   2  -3  10    5.50    1.10
   1   3  11  130.09    7.80
   1   3  11  125.59    8.20
   1  -3  11  140.39    8.10
  -1  -3 -11  121.89    7.80
   0   3  12  418.86   24.30
   0   3 -12  423.46   24.50
   0   3  12  443.66   24.60
   0   3 -12  415.16   24.20
   0  -3 -12  377.06   24.40
   0  -3  12  406.76   24.40
   0  -3  12  423.56   24.20
   0  -3 -12  414.26   24.20
   1   3 -13   -0.30    1.00
   1   3 -13    1.30    0.70
  -1  -3  13    0.30    0.70
   1  -3 -13    1.10    0.50
   1  -3 -13    1.00    1.00
   2   3 -14  100.29    6.80
   2  -3 -14  101.69    6.60
   3   3 -15   43.30    4.00
   3  -3 -15   46.20    3.70
   3   4   9    5.10    2.10
   3  -4   9    4.10    1.50
   2   4  10   41.30    3.70
   2  -4  10   39.20    3.30
   1   4  11   13.00    1.50
   1   4  11   10.70    1.90
   1  -4  11    9.90    1.70
  -1  -4 -11    9.80    1.40
   0   4 -12   89.39    5.50
   0   4  12   84.79    5.50
   0  -4 -12   76.39    5.40
   0  -4  12   89.39    5.30
   0  -4  12   75.59    5.70
   0  -4 -12   86.29    5.80
   1   4 -13   16.00    1.90
   1   4 -13   20.60    2.60
   1  -4 -13   16.10    1.50
   1  -4 -13   21.10    2.50
  -1  -4  13   17.30    1.80
   2   4 -14   -0.10    1.50
   2  -4 -14    0.70    1.60
   3   4 -15   -0.60    1.90
   3  -4 -15    0.00    1.70
   2   5  10    2.60    2.10
   2  -5  10    4.40    1.70
   1   5  11  137.39    9.30
   1   5  11  164.78   10.20
  -1  -5 -11  160.18    9.50
   1  -5  11  142.99    9.70
   0   5  12   17.10    2.10
   0   5 -12   23.10    2.40
   0  -5 -12   17.00    2.00
   0  -5  12   19.90    1.90
   1   5 -13   34.30    2.90
   1  -5 -13   32.10    3.50
  -1  -5  13   32.90    2.90
   1  -5 -13   32.40    2.40
   2   5 -14   -0.20    2.00
   2  -5 -14    3.10    2.00
   2   6  10    6.10    2.90
   1  -6  11   -1.60    1.60
  -1  -6 -11    1.90    1.60
   0   6 -12    7.10    1.90
   0   6  12    3.90    1.70
   1  -6 -13   21.00    1.90
   1  -6 -13   13.80    3.00
   2   0  11    1.30    0.50
   2   0  11    1.80    0.60
   1   0  12   -0.10    0.50
   0   0  13    0.40    0.40
   0   0  13    0.00    0.50
   0   0 -13    0.60    0.50
   0   0 -13    0.30    0.60
   1   0 -14   -0.50    0.30
   1   0 -14    0.20    0.80
  -1   0  14   -0.60    0.30
  -1   0  14    0.60    0.70
   1   0 -14   -0.50    0.20
   2   0 -15    3.40    1.20
   3   0 -16    0.20    1.30
   4   0 -17   -0.10    1.40
   3   1  10   49.30    3.40
   3  -1  10   52.79    3.30
   2   1  11  108.19    6.90
   2  -1  11  116.49    6.90
   2  -1  11  116.79    6.80
   1   1  12  948.21   54.89
  -1  -1 -12  947.71   54.79
   1  -1  12  950.50   54.79
   0   1  13 1535.95   93.79
   0   1  13 1671.53   93.59
   0   1 -13 1551.74   93.79
   0   1 -13 1622.34   93.59
   0  -1  13 1700.13   93.59
   0  -1 -13 1620.94   93.59
   0  -1 -13 1519.25   93.79
   0  -1  13 1792.62   93.79
  -1   1  14    1.30    0.50
   1   1 -14    0.10    0.60
  -1   1  14    1.10    0.70
   1   1 -14    0.90    0.50
   1  -1 -14    1.20    0.30
   1  -1 -14    1.40    0.30
  -1  -1  14    1.00    0.40
  -1  -1  14    1.10    0.60
   1  -1 -14    1.40    0.70
   2   1 -15  570.24   32.30
   2  -1 -15  534.05   32.20
   3   1 -16  328.67   20.10
   3  -1 -16  341.47   19.90
   4   1 -17    1.70    1.70
   4  -1 -17    0.70    1.10
   4   2   9   17.70    2.10
   3   2  10   39.40    3.30
   3  -2  10   41.10    2.80
   2   2  11   24.60    2.20
   2  -2  11   24.90    1.90
   1   2  12    2.60    0.80
   1   2  12    3.10    0.50
   1   2  12    2.30    0.50
  -1   2 -12    3.10    0.50
  -1   2 -12    1.90    0.70
   1  -2  12    3.20    0.80
  -1  -2 -12    2.20    0.70
  -1  -2 -12    2.80    0.70
   0   2  13   33.60    2.10
   0   2  13   28.90    2.40
   0   2 -13   30.30    2.40
   0   2 -13   32.10    2.10
   0  -2  13   32.60    2.10
   0  -2 -13   30.30    2.10
   0  -2  13   32.20    2.30
   0  -2 -13   26.20    2.30
  -1   2  14  729.63   41.90
  -1   2  14  613.64   41.70
   1   2 -14  711.33   41.80
   1   2 -14  742.73   42.00
   1  -2 -14  737.83   41.90
  -1  -2  14  758.52   41.90
  -1  -2  14  742.53   41.70
   1  -2 -14  734.83   41.50
   2   2 -15   37.40    3.00
   2  -2 -15   35.60    2.80
   3   2 -16    1.80    1.30
   3  -2 -16    1.10    1.10
   4   2 -17    4.80    1.90
   4  -2 -17    6.30    1.60
   4   3   9    5.20    2.00
   4  -3   9    4.70    1.10
   3   3  10   13.10    2.20
   3  -3  10   17.50    1.80
   2   3  11    3.90    1.30
   2  -3  11    2.90    1.00
   1   3  12  253.87   14.60
   1   3  12  236.18   14.10
  -1  -3 -12  238.48   14.20
   1  -3  12  232.58   14.30
   0   3 -13  140.29    9.10
   0   3  13  152.58    8.90
   0   3  13  137.39    9.20
   0   3 -13  148.29    8.80
   0  -3  13  148.59    9.10
   0  -3 -13  152.28    9.10
   0  -3 -13  152.68    8.90
   0  -3  13  143.09    8.80
   1   3 -14    2.70    0.90
   1   3 -14    1.10    1.00
   1  -3 -14    0.60    0.50
  -1  -3  14    1.30    0.70
   1  -3 -14    1.70    1.10
   2   3 -15   23.40    2.70
   2  -3 -15   27.60    2.60
   3   3 -16   59.29    4.80
   3  -3 -16   56.79    4.40
   3   4  10   52.79    4.80
   3  -4  10   46.90    3.80
   2   4  11   44.60    4.10
   2  -4  11   49.99    3.80
   1   4  12    6.90    1.10
   1   4  12    4.50    1.60
   1  -4  12    6.70    1.50
  -1  -4 -12    6.10    1.20
   0   4  13  102.79    6.40
   0   4 -13   97.49    6.40
   0  -4  13   98.69    6.20
   0  -4 -13   99.49    6.70
   0  -4  13  101.59    6.60
   0  -4 -13   95.69    6.30
   1   4 -14  106.99    6.60
   1   4 -14   93.99    7.00
  -1  -4  14  103.99    6.40
   1  -4 -14  100.79    6.20
   1  -4 -14   99.89    6.90
   2   4 -15   49.99    4.50
   2  -4 -15   55.79    4.50
   3   4 -16    4.40    2.20
   3  -4 -16    3.20    1.90
   2   5  11    6.40    2.30
   2  -5  11    5.10    1.70
   1   5  12    3.50    1.40
   1   5  12    4.00    2.00
  -1  -5 -12    1.20    1.30
   1  -5  12    2.50    1.50
   0   5  13   -0.80    1.10
   0   5 -13    0.30    1.30
   0  -5 -13   -0.40    1.00
   0  -5  13    0.20    0.90
   1   5 -14   26.10    2.70
   1  -5 -14   26.80    2.10
   1  -5 -14   30.10    3.40
  -1  -5  14   25.80    2.70
   2   5 -15   -0.30    1.90
   2  -5 -15    0.90    1.90
  -1  -6 -12    9.30    2.00
   1  -6  12    8.60    2.10
   0   6 -13   17.70    2.80
   1  -6 -14   12.70    1.50
   1  -6 -14   14.60    3.00
   3   0  11   29.60    2.00
   2   0  12  246.78   13.50
   2   0  12  208.68   13.40
   1   0  13   13.10    1.40
   0   0 -14   17.30    1.40
   0   0  14   16.80    1.60
   0   0 -14   17.10    1.70
   0   0  14   18.30    1.30
   1   0 -15  619.74   34.70
   1   0 -15  631.54   34.70
  -1   0  15  578.64   34.80
  -1   0  15  528.25   35.10
   1   0 -15  653.23   35.30
   2   0 -16  812.92   47.40
   3   0 -17   17.40    2.40
   4   0 -18   97.99    6.70
   3   1  11    2.20    0.80
   3  -1  11    1.30    0.70
   2   1  12    5.40    0.90
   2  -1  12    6.50    0.90
  -1   1 -13   10.80    1.20
   1   1  13    9.60    1.20
   1  -1  13    9.80    1.10
  -1  -1 -13   11.70    1.10
   0   1  14   71.59    4.70
   0   1 -14   76.89    4.50
   0   1 -14   74.99    4.60
   0   1  14   69.19    4.40
   0  -1 -14   74.59    4.50
   0  -1  14   78.89    4.50
   0  -1 -14   75.49    4.70
   0  -1  14   61.69    4.60
   1   1 -15    1.30    0.40
  -1   1  15    2.50    0.80
  -1   1  15    2.50    0.60
   1   1 -15    1.50    0.80
   1   1 -15    1.00    0.50
   1  -1 -15    1.70    0.40
  -1  -1  15    1.90    0.80
   1  -1 -15    1.40    0.80
   1  -1 -15    1.80    0.40
   2   1 -16   50.69    3.60
   2  -1 -16   48.50    3.60
   3   1 -17   13.10    2.10
   3  -1 -17   18.70    2.00
   4   1 -18   -0.10    1.70
   4  -1 -18    1.70    1.20
   4   2  10   24.00    2.70
   3   2  11   12.50    1.60
   3  -2  11   10.00    1.20
   2   2  12   21.70    2.10
   2  -2  12   19.80    1.80
   1   2  13   57.79    3.50
  -1   2 -13   61.49    3.60
   1   2  13   62.99    3.90
   1   2  13   51.69    3.50
  -1   2 -13   49.30    4.30
  -1  -2 -13   59.89    3.70
  -1  -2 -13   56.49    3.80
   1  -2  13   57.09    3.80
   0   2 -14  390.86   22.80
   0   2  14  385.96   23.00
   0   2 -14  362.66   23.00
   0   2  14  415.56   22.80
   0  -2 -14  396.46   22.80
   0  -2  14  413.76   22.70
   0  -2 -14  387.16   22.90
   0  -2  14  375.06   22.90
  -1   2  15  497.55   30.20
   1   2 -15  518.75   30.30
   1   2 -15  540.95   30.20
  -1   2  15  460.55   30.00
  -1  -2  15  558.64   30.20
  -1  -2  15  534.35   30.00
   1  -2 -15  510.35   30.20
   2   2 -16  218.18   13.40
   2  -2 -16  225.18   13.40
   3   2 -17    6.80    1.60
   3  -2 -17    5.60    1.40
   4   2 -18   44.00    4.20
   4  -2 -18   46.00    3.70
   4   3  10    6.00    2.50
   4  -3  10    9.30    1.40
   3   3  11   13.90    2.30
   3  -3  11   15.00    1.70
   2   3  12  121.09    8.00
   2  -3  12  127.29    7.80
   1   3  13  378.56   21.30
   1   3  13  342.17   21.70
   1  -3  13  363.16   21.60
  -1  -3 -13  375.56   21.40
   0   3 -14  124.39    7.70
   0   3  14  124.69    7.80
   0   3  14  123.49    7.50
   0   3 -14  114.59    7.40
   0  -3 -14  121.69    7.40
   0  -3  14  125.99    7.70
   0  -3 -14  127.69    7.70
   0  -3  14  114.69    7.30
   1   3 -15   -0.60    1.00
   1   3 -15    0.70    0.80
   1  -3 -15   -0.50    1.00
  -1  -3  15    1.10    0.70
   1  -3 -15    0.20    0.50
   2   3 -16  237.48   14.70
   2  -3 -16  240.88   14.50
   3   3 -17   36.70    3.70
   3  -3 -17   41.30    3.50
   3   4  11    3.80    1.90
   3  -4  11    2.60    1.30
   2   4  12   -0.20    1.40
   2  -4  12    0.00    1.20
   1   4  13    5.00    1.10
   1   4  13    4.90    1.60
  -1  -4 -13    4.00    1.20
   1  -4  13    4.00    1.30
   0   4 -14   12.40    1.60
   0   4  14   12.80    1.50
   0  -4 -14    9.70    1.50
   0  -4  14   11.90    1.30
   0  -4 -14   11.40    1.80
   0  -4  14   10.80    1.80
   1   4 -15    1.80    1.00
   1   4 -15    0.80    1.40
   1  -4 -15    0.30    0.70
  -1  -4  15    1.70    0.90
   1  -4 -15    1.30    1.40
   2   4 -16   10.90    2.20
   2  -4 -16   11.00    2.10
   3   4 -17    0.30    2.10
   3  -4 -17    0.30    1.60
   2   5  12   59.99    5.20
   2  -5  12   62.59    4.90
   1   5  13   79.19    5.40
   1   5  13   82.69    6.40
   1  -5  13   66.19    5.40
  -1  -5 -13   75.39    5.30
   0   5  14   11.20    1.80
   0   5 -14   11.50    2.10
   0  -5 -14   10.50    1.70
   0  -5  14   10.70    1.50
   1   5 -15    2.60    1.50
   1  -5 -15    2.50    1.90
  -1  -5  15    3.70    1.40
   1  -5 -15    3.20    1.00
   2   5 -16   39.00    4.10
   2  -5 -16   37.70    4.10
   1  -6  13   26.90    3.20
   0   6 -14    0.90    1.80
   1  -6 -15    2.10    2.40
   1  -6 -15    1.80    1.00
   3   0  12    1.60    0.60
   2   0  13    0.30    0.50
   2   0  13    0.50    0.60
  -1   0 -14    0.00    0.60
   1   0  14    1.70    0.70
   0   0 -15    2.10    0.60
   0   0 -15   -0.30    0.70
   0   0  15    0.60    0.40
   0   0  15    0.10    0.60
   1   0 -16    0.10    0.30
  -1   0  16    0.90    0.80
   1   0 -16    0.10    0.80
   1   0 -16    0.00    0.30
  -1   0  16    0.00    0.40
   2   0 -17    2.10    1.30
   3   0 -18   -0.60    1.50
   4   0 -19    1.50    1.60
   3   1  12   64.99    4.30
   3  -1  12   65.79    4.20
   2   1  13  301.47   17.70
   2  -1  13  299.87   17.60
  -1   1 -14  196.28   12.20
  -1   1 -14  205.88   11.90
   1   1  14  205.28   12.30
   1  -1  14  220.98   12.20
  -1  -1 -14  200.28   12.20
   0   1  15  156.78   10.40
   0   1 -15  176.88   10.40
   0   1  15  167.28   10.20
   0   1 -15  170.48   10.20
   0  -1 -15  179.88   10.30
   0  -1  15  183.98   10.20
   0  -1 -15  179.38   10.40
   0  -1  15  166.88   10.30
  -1   1  16   86.39    5.90
   1   1 -16  107.29    6.10
  -1   1  16  105.79    6.10
   1   1 -16   84.79    5.80
   1  -1 -16   85.99    5.70
  -1  -1  16   96.99    5.80
   1  -1 -16  100.49    5.70
   1  -1 -16  107.39    6.20
  -1  -1  16  102.59    6.10
   2   1 -17   21.00    2.10
   2  -1 -17   21.40    2.20
   3   1 -18  202.58   12.40
   3  -1 -18  191.48   12.10
   4   1 -19   46.70    4.30
   4  -1 -19   34.60    3.20
   4   2  11   10.60    1.90
   3   2  12   85.39    5.80
   3  -2  12   88.99    5.50
   2   2  13   49.00    3.30
   2  -2  13   41.60    3.10
   1   2  14   19.90    1.40
   1   2  14   20.60    1.90
   1   2  14   19.00    1.40
   1  -2  14   20.50    1.80
  -1  -2 -14   18.70    1.80
   0   2 -15  296.47   18.00
   0   2  15  292.27   18.20
   0   2 -15  298.77   18.20
   0   2  15  320.57   18.00
   0  -2 -15  321.67   18.20
   0  -2  15  294.87   18.10
   0  -2  15  310.07   18.00
   0  -2 -15  324.37   18.00
  -1   2  16  239.88   15.00
   1   2 -16  244.38   15.20
   1   2 -16  262.17   15.10
   1  -2 -16  258.57   14.80
   1  -2 -16  245.68   15.20
  -1  -2  16  260.27   14.90
  -1  -2  16  268.87   15.20
   2   2 -17   71.39    4.90
   2  -2 -17   66.69    4.70
   3   2 -18    6.10    1.60
   3  -2 -18    6.50    1.50
   4   2 -19   17.30    3.30
   4  -2 -19   18.30    2.20
   4  -3  11    0.50    1.00
   3   3  12   22.00    2.80
   3  -3  12   24.10    2.30
   2   3  13   34.00    3.10
   2  -3  13   35.30    2.80
   1   3  14    1.40    1.10
   1   3  14    2.80    0.70
  -1  -3 -14    3.60    0.90
   1  -3  14    2.40    1.00
   0   3 -15    6.20    1.30
   0   3 -15    7.90    1.10
   0   3  15    7.20    1.10
   0   3  15    4.60    1.20
   0  -3  15    7.50    1.40
   0  -3  15    6.60    0.90
   0  -3 -15    6.60    1.00
   0  -3 -15    7.40    1.30
   1   3 -16    0.10    0.80
   1   3 -16    0.70    1.10
   1  -3 -16    1.60    0.60
  -1  -3  16    2.00    0.80
   1  -3 -16    0.80    1.00
   2   3 -17    0.80    1.40
   2  -3 -17    1.80    1.20
   3   3 -18   25.80    3.00
   3  -3 -18   22.10    2.60
   3   4  12   55.19    5.10
   3  -4  12   59.89    4.40
   2   4  13   19.50    2.70
   2  -4  13   20.20    2.30
   1   4  14   39.20    3.10
   1   4  14   42.30    4.00
  -1  -4 -14   39.80    3.30
   1  -4  14   39.80    3.30
   0   4  15  114.29    6.90
   0   4 -15  106.49    6.90
   0  -4 -15  102.09    6.80
   0  -4 -15  105.09    7.20
   0  -4  15  112.59    6.70
   0  -4  15  105.89    7.10
   1   4 -16  171.08   10.80
   1   4 -16  162.08   10.40
  -1  -4  16  178.58   10.40
   1  -4 -16  165.48   10.80
   1  -4 -16  167.88   10.10
   2   4 -17   44.10    4.20
   2  -4 -17   41.30    4.00
   3   4 -18   33.90    4.20
   3  -4 -18   28.90    3.50
   2   5  13    2.70    2.10
   2  -5  13    0.40    1.50
   1   5  14   39.10    3.40
   1   5  14   43.40    4.30
   1  -5  14   37.00    3.70
  -1  -5 -14   40.30    3.60
   0   5  15    8.80    1.90
   0   5 -15    8.80    1.90
   0  -5  15    7.40    1.20
   0  -5 -15    5.70    1.40
   1   5 -16    0.10    1.20
   1  -5 -16   -0.60    1.90
   1  -5 -16    0.90    0.90
  -1  -5  16   -0.50    1.10
   2   5 -17   18.60    3.20
   2  -5 -17   18.10    2.90
   1  -6  14    0.20    1.70
   0   6 -15   34.10    3.50
   1  -6 -16   34.70    2.70
   3   0  13  178.28   10.50
   2   0  14   13.30    1.40
   1   0  15  847.22   50.59
  -1   0 -15  894.91   50.19
   0   0 -16 2473.15  142.59
   0   0  16 2489.85  142.79
   0   0  16 2539.65  142.49
   0   0 -16 2403.36  142.79
   1   0 -17  259.67   14.60
  -1   0  17  252.27   15.10
   1   0 -17  256.07   15.20
   1   0 -17  252.57   14.60
  -1   0  17  240.08   14.70
   2   0 -18   56.59    4.30
   3   0 -19   14.90    2.40
   4   0 -20    8.30    2.10
   3   1  13    0.90    0.80
   3  -1  13   -0.80    0.70
   2   1  14  101.19    6.50
   2  -1  14  107.79    6.50
  -1   1 -15   91.79    5.40
  -1   1 -15   80.39    5.00
   1   1  15   82.79    5.40
   1  -1  15   86.69    5.30
  -1  -1 -15   85.49    5.30
   0   1  16  115.39    7.60
   0   1 -16  126.99    7.40
   0   1  16  118.89    7.30
   0   1 -16  119.59    7.50
   0  -1 -16  124.69    7.40
   0  -1  16  110.19    7.50
   0  -1  16  131.59    7.40
   0  -1 -16  132.79    7.60
   1   1 -17    0.20    0.60
  -1   1  17    3.60    0.90
  -1   1  17    0.50    0.50
   1   1 -17    2.30    0.90
  -1  -1  17    1.70    0.80
   1  -1 -17    2.50    0.50
   1  -1 -17    3.00    0.50
   1  -1 -17    2.90    1.00
  -1  -1  17    2.50    0.60
   2   1 -18  124.89    8.00
   2  -1 -18  127.79    8.00
   3   1 -19   32.50    3.50
   3  -1 -19   38.40    3.20
   4   1 -20    3.60    2.10
   4  -1 -20   -1.20    1.30
   4   2  12   45.60    3.90
   3   2  13  111.19    7.50
   3  -2  13  121.59    7.20
   2   2  14   35.10    2.80
   2  -2  14   34.70    2.60
   1   2  15  223.28   12.90
   1   2  15  216.68   13.20
   1   2  15  219.88   12.80
   1  -2  15  232.68   13.10
  -1  -2 -15  206.68   13.20
   0   2  16  334.27   20.30
   0   2 -16  353.66   20.30
   0   2  16  349.27   20.10
   0   2 -16  328.77   20.10
   0  -2 -16  342.47   20.20
   0  -2 -16  342.47   20.10
   0  -2  16  344.37   20.20
   0  -2  16  353.26   20.00
   1   2 -17  116.09    7.20
  -1   2  17  113.29    7.10
   1   2 -17  106.69    7.30
   1  -2 -17  120.59    6.90
  -1  -2  17  116.99    7.00
   1  -2 -17  118.29    7.30
   2   2 -18   30.70    2.90
   2  -2 -18   26.10    2.60
   3   2 -19    3.00    1.50
   3  -2 -19    2.90    1.30
   4  -2 -20    4.90    1.70
   4  -3  12    0.40    1.00
   3   3  13    2.60    1.50
   3  -3  13    2.60    1.00
   2   3  14   85.69    6.00
   2  -3  14   90.99    5.80
   1   3  15  379.96   23.50
   1   3  15  399.46   23.10
   1  -3  15  397.06   23.30
  -1  -3 -15  404.56   23.20
   0   3 -16   14.90    1.50
   0   3  16   16.60    1.60
   0   3  16   17.60    2.00
   0   3 -16   18.10    2.00
   0  -3  16   15.10    1.90
   0  -3  16   16.80    1.50
   0  -3 -16   15.70    1.80
   0  -3 -16   17.50    1.60
   1   3 -17   12.00    1.80
   1   3 -17   15.80    1.80
   1  -3 -17   14.50    1.90
  -1  -3  17   17.60    1.60
   1  -3 -17   15.00    1.30
   2   3 -18   69.59    5.10
   2  -3 -18   67.59    5.00
   3   3 -19   63.89    5.10
   3  -3 -19   57.89    4.70
   3   4  13   16.30    2.70
   3  -4  13   17.70    2.20
   2   4  14   34.10    3.50
   2  -4  14   31.80    3.00
   1   4  15   20.90    2.60
   1   4  15   23.20    2.10
   1  -4  15   21.60    2.40
  -1  -4 -15   22.50    2.70
   0   4  16    3.30    1.10
   0   4 -16    5.70    1.20
   0  -4 -16    4.50    1.20
   0  -4  16    4.20    1.40
   0  -4 -16    3.70    1.50
   0  -4  16    5.20    1.00
   1   4 -17    2.40    1.30
   1   4 -17    2.50    1.60
  -1  -4  17    1.60    1.00
   1  -4 -17    2.10    0.80
   1  -4 -17    1.00    1.50
   2   4 -18    5.90    2.00
   2  -4 -18    9.50    2.10
   3   4 -19    0.70    2.10
   3  -4 -19    1.00    1.80
   2   5  14   47.60    4.90
   2  -5  14   51.59    4.30
   1   5  15   26.20    2.70
   1   5  15   23.50    3.40
  -1  -5 -15   25.90    2.60
   1  -5  15   19.40    2.60
   0   5 -16    6.80    1.60
   0   5  16    4.50    1.60
   0  -5  16    6.50    1.20
   1   5 -17    0.30    1.30
   1  -5 -17   -0.10    0.80
   1  -5 -17   -0.30    1.80
  -1  -5  17    1.30    1.20
   2   5 -18   89.89    6.90
   2  -5 -18   80.49    6.90
   1  -6  15   -0.40    1.80
   0   6 -16    9.50    2.60
   3   0  14    1.50    0.70
   2   0  15    0.10    0.60
  -1   0 -16    1.00    0.40
  -1   0 -16    0.80    0.70
   1   0  16    2.40    0.80
   1   0 -18    1.10    1.00
  -1   0  18    0.60    0.50
  -1   0  18    0.40    0.80
   1   0 -18    0.70    0.40
   1   0 -18    0.40    0.40
   2   0 -19    0.30    1.30
   3   0 -20    2.10    1.60
   4   0 -21    1.30    1.80
   3   1  14    8.10    1.20
   3  -1  14    8.10    1.20
   2   1  15  479.75   28.40
   2  -1  15  492.55   28.40
  -1   1 -16  912.01   53.49
  -1   1 -16  909.01   53.79
   1   1  16  937.81   53.89
   1  -1  16  931.01   53.79
  -1  -1 -16  958.50   53.79
   0   1 -17   24.70    1.90
   0   1  17   20.60    1.70
   0   1  17   26.00    2.10
   0   1 -17   23.00    2.00
   0  -1 -17   23.70    1.80
   0  -1  17   25.90    2.00
   0  -1  17   24.70    1.80
   0  -1 -17   21.90    2.00
  -1   1  18  715.93   47.40
   1   1 -18  820.52   47.60
  -1  -1  18  852.51   47.30
  -1  -1  18  825.52   47.60
   1  -1 -18  845.42   47.70
   1  -1 -18  858.91   47.20
   2   1 -19  471.25   27.00
   2  -1 -19  444.06   27.00
   3   1 -20   22.80    3.00
   3  -1 -20   28.90    2.80
   4   1 -21    5.90    2.30
   4  -1 -21    4.10    1.60
   4   2  13    8.50    1.90
   3   2  14   29.00    2.70
   3  -2  14   29.10    2.30
   2   2  15   23.40    2.20
   1   2  16   51.89    3.60
   1   2  16   48.70    3.20
   1   2  16   50.89    3.20
  -1  -2 -16   53.89    3.50
   1  -2  16   49.60    3.40
   0   2 -17  644.84   34.80
   0   2 -17  587.14   34.60
   0   2  17  593.04   34.50
   0   2  17  551.14   34.80
   0  -2  17  598.34   34.50
   0  -2  17  618.04   34.70
   0  -2 -17  545.45   34.70
   0  -2 -17  629.34   34.60
   1   2 -18    5.90    1.00
   1   2 -18    5.00    1.20
  -1   2  18    3.30    0.90
  -1  -2  18    2.90    1.00
   1  -2 -18    5.60    1.20
   1  -2 -18    4.00    0.70
  -1  -2  18    4.50    0.80
   2   2 -19    6.10    1.50
   2  -2 -19    6.40    1.50
   3   2 -20    4.90    1.70
   3  -2 -20    9.00    1.70
   4  -3  13    1.60    1.10
   3   3  14    3.80    1.70
   3  -3  14    4.00    1.10
   2   3  15  117.19    7.90
   2  -3  15  122.99    7.60
   1   3  16   36.60    2.50
   1   3  16   32.60    3.00
  -1  -3 -16   30.90    2.90
   1  -3  16   36.80    2.80
   0   3  17   31.50    3.00
   0   3 -17   30.10    2.90
   0   3 -17   34.50    2.60
   0   3  17   37.40    2.70
   0  -3  17   39.30    2.50
   0  -3 -17   38.50    2.70
   0  -3 -17   33.60    2.90
   0  -3  17   34.30    2.90
   1   3 -18  114.99    7.60
   1   3 -18  118.89    7.80
   1  -3 -18  117.39    7.20
   1  -3 -18  120.29    7.80
  -1  -3  18  127.69    7.40
   2   3 -19  190.98   11.50
   2  -3 -19  171.88   11.30
   3   3 -20    3.40    1.90
   3  -3 -20    1.70    1.50
   3   4  14   13.10    2.60
   3  -4  14   20.30    2.30
   2   4  15    0.00    1.50
   2  -4  15    3.40    1.40
   1   4  16   97.69    6.90
   1   4  16   96.69    6.20
   1  -4  16  101.99    6.60
   0   4 -17  216.78   13.00
   0   4  17  248.28   13.10
   0  -4 -17  215.68   13.00
   0  -4  17  218.48   12.90
   0  -4  17  200.78   13.20
   0  -4 -17  189.68   13.40
   1   4 -18   66.49    4.90
   1   4 -18   60.99    4.40
   1  -4 -18   62.89    4.90
  -1  -4  18   60.59    4.20
   1  -4 -18   58.59    3.90
   2   4 -19    9.50    2.30
   2  -4 -19    7.20    2.10
   3   4 -20    9.00    2.60
   3  -4 -20    8.40    2.50
   2   5  15    3.90    2.00
   2  -5  15    2.10    1.50
   1   5  16    4.20    1.50
   1   5  16    2.60    2.00
   1  -5  16    5.20    1.70
  -1  -5 -16    4.30    1.60
   0   5 -17    2.60    1.50
   0   5  17    2.00    1.30
   0  -5  17    0.70    1.00
   1   5 -18    1.10    1.30
  -1  -5  18    1.50    1.20
   1  -5 -18    0.70    0.90
   1  -5 -18    3.00    2.00
   2   5 -19    4.20    2.40
   2  -5 -19    3.00    2.20
   1  -6  16    1.00    1.80
   3   0  15   62.49    4.00
   2   0  16  101.59    6.40
  -1   0 -17  588.04   34.80
  -1   0 -17  622.84   34.50
   1   0  17  576.74   34.80
   0   0  18  692.53   38.10
   0   0 -18  595.84   38.00
   0   0  18  669.53   37.70
   0   0 -18  644.04   37.80
   1   0 -19 1885.61  107.89
  -1   0  19 1943.51  108.39
  -1   0  19 1824.62  107.89
   1   0 -19 1850.21  108.49
   2   0 -20    2.60    1.50
   3   0 -21  205.98   13.10
   4   0 -22   66.79    5.30
   4   1  14    1.00    1.00
   3   1  15   14.80    1.60
   3  -1  15   15.40    1.70
   2   1  16   69.29    4.40
   2  -1  16   65.59    4.50
  -1   1 -17  262.57   15.30
  -1   1 -17  240.68   15.70
   1   1  17  280.67   15.70
   1  -1  17  263.87   15.60
  -1  -1 -17  269.47   15.60
   0   1  18    1.70    0.60
   0   1 -18    3.70    0.90
   0   1  18    3.90    1.00
   0   1 -18    3.70    0.80
   0  -1 -18    2.70    0.90
   0  -1 -18    3.60    0.80
   0  -1  18    1.90    0.80
   0  -1  18    4.30    0.70
  -1   1  19   66.99    4.90
  -1   1  19   86.39    5.30
   1   1 -19   80.89    5.20
   1  -1 -19   82.29    5.40
  -1  -1  19   77.19    4.80
   1  -1 -19   81.79    4.70
  -1  -1  19   78.29    5.20
   2   1 -20   48.50    3.90
   2  -1 -20   54.09    4.00
   3   1 -21    3.90    1.70
   3  -1 -21    3.50    1.50
   4   1 -22    4.20    2.20
   4  -1 -22    3.30    1.60
   4   2  14    3.20    1.50
   3   2  15    2.90    1.20
   3  -2  15    1.70    0.90
   2   2  16   21.80    2.10
   2  -2  16   18.70    1.80
   1   2  17   32.80    2.70
   1   2  17   31.70    2.10
  -1  -2 -17   32.00    2.40
   1  -2  17   33.60    2.50
   0   2 -18  304.47   18.40
   0   2 -18  318.77   18.70
   0   2  18  334.17   18.40
   0   2  18  274.97   18.60
   0  -2  18  312.97   18.40
   0  -2  18  323.27   18.60
   0  -2 -18  314.27   18.60
   0  -2 -18  330.17   18.50
  -1   2  19  276.57   16.00
   1   2 -19  281.27   16.00
   1   2 -19  243.18   16.20
  -1  -2  19  265.57   15.90
   1  -2 -19  281.77   16.20
   1  -2 -19  276.77   15.80
  -1  -2  19  264.47   16.10
   2   2 -20    1.50    1.30
   2  -2 -20    2.50    1.30
   3   2 -21   92.89    6.80
   3  -2 -21  103.99    6.70
   4  -3  14    2.50    1.10
   3   3  15    9.70    1.90
   2   3  16   98.99    6.70
   2  -3  16   99.99    6.40
   1   3  17  147.59   10.20
   1   3  17  172.18    9.80
   1  -3  17  166.58   10.10
   0   3 -18   34.80    2.70
   0   3  18   34.40    3.10
   0   3  18   39.10    2.70
   0  -3 -18   35.10    2.70
   0  -3  18   35.90    2.90
   0  -3 -18   37.40    3.00
   0  -3  18   37.70    2.60
   1   3 -19  308.37   19.00
   1   3 -19  295.17   18.80
  -1  -3  19  327.07   18.60
   1  -3 -19  331.07   19.00
   2   3 -20   68.99    5.20
   2  -3 -20   64.89    5.00
   3   3 -21   22.40    3.00
   3  -3 -21   19.10    2.50
   3   4  15    0.20    1.60
   3  -4  15    1.90    1.30
   2   4  16   -0.50    1.40
   2  -4  16    0.00    1.10
   1   4  17    0.90    0.90
   1   4  17    0.30    1.30
   1  -4  17    0.40    1.20
   0   4  18   16.00    1.80
   0   4 -18   19.20    2.00
   0  -4 -18   18.90    2.00
   0  -4  18   18.10    1.80
   0  -4  18   17.70    2.30
   1   4 -19   97.69    6.70
   1   4 -19  102.79    7.10
   1  -4 -19   92.19    7.00
  -1  -4  19  108.89    6.50
   1  -4 -19  100.99    6.30
   2   4 -20    0.40    1.90
   2  -4 -20   -0.60    1.70
   3   4 -21    2.60    2.50
   2   5  16   34.80    4.30
   2  -5  16   34.10    3.40
   1   5  17   28.40    3.60
   1   5  17   30.90    3.10
  -1  -5 -17   29.70    3.10
   1  -5  17   26.60    3.10
   0   5  18    3.00    1.40
   0   5 -18    2.50    1.50
   0  -5  18    1.40    1.00
   1   5 -19   30.70    3.30
   1  -5 -19   31.50    3.70
  -1  -5  19   31.50    2.90
   1  -5 -19   31.10    2.50
   2   5 -20   38.30    4.30
   2  -5 -20   40.50    4.50
   1  -6  17    5.40    2.10
   3   0  16    1.00    0.70
   2   0  17    1.10    0.70
   1   0  18    1.50    0.80
  -1   0 -18    0.60    0.90
  -1   0 -18    1.30    0.50
   0   0 -19    2.10    0.70
   0   0  19    1.30    0.50
   0   0 -19    2.40    1.10
   0   0  19    1.60    0.90
   1   0 -20    2.80    1.20
  -1   0  20    0.60    0.50
   1   0 -20    0.20    0.20
   1   0 -20    0.60    0.50
   2   0 -21   -0.20    1.40
   3   0 -22   -0.10    1.80
   4   0 -23    1.30    2.00
   4   1  15   16.50    1.80
   3   1  16   72.79    4.60
   3  -1  16   63.09    4.50
   2   1  17  110.79    6.60
   2  -1  17   97.29    6.60
   1   1  18   71.19    5.00
  -1   1 -18   74.89    4.60
  -1   1 -18   76.99    5.40
  -1  -1 -18   81.79    4.90
   1  -1  18   78.59    5.00
   0   1 -19   57.79    4.10
   0   1  19   67.89    4.20
   0   1 -19   60.29    4.00
   0  -1 -19   60.29    3.90
   0  -1  19   57.29    4.10
   0  -1  19   57.69    3.80
   0  -1 -19   60.79    4.10
  -1   1  20   60.49    4.00
  -1   1  20   54.29    3.70
   1   1 -20   50.89    3.70
   1   1 -20   54.89    4.00
  -1  -1  20   55.29    3.60
   1  -1 -20   61.19    3.50
   1  -1 -20   58.19    4.10
  -1  -1  20   54.59    4.00
   2   1 -21  319.47   19.10
   2  -1 -21  314.87   19.10
   3   1 -22  107.99    8.00
   3  -1 -22  118.89    7.70
   4   1 -23    3.40    2.40
   4  -1 -23    2.10    1.70
   4   2  15   14.50    2.20
   3   2  16   11.00    1.70
   3  -2  16   12.00    1.50
   2   2  17    4.30    1.10
   2  -2  17    2.10    0.80
   1   2  18   95.69    5.90
   1   2  18  105.99    6.50
   0   2 -19  580.84   33.10
   0   2  19  597.04   33.20
   0   2 -19  532.75   32.80
   0   2  19  543.55   32.80
   0  -2  19  545.45   32.80
   0  -2 -19  598.24   33.10
   0  -2 -19  567.24   32.90
   1   2 -20   37.60    2.70
   1   2 -20   34.50    3.00
  -1   2  20   37.80    2.70
   1  -2 -20   36.50    2.40
  -1  -2  20   34.30    2.50
   1  -2 -20   35.10    3.00
   2   2 -21   11.10    1.90
   2  -2 -21   15.10    2.00
   3   2 -22   69.09    5.40
   3  -2 -22   73.69    5.20
   4  -3  15    5.70    1.40
   3   3  16    6.20    1.70
   2   3  17   15.00    2.10
   2  -3  17   14.90    1.80
   1   3  18    3.00    0.80
   1   3  18    3.40    1.30
   1  -3  18    2.90    1.10
   0   3  19    2.40    0.80
   0   3  19    3.20    1.20
   0   3 -19    1.40    0.80
   0   3 -19    1.70    1.50
   0  -3 -19    2.10    1.20
   0  -3  19    1.50    1.00
   0  -3 -19    2.00    0.90
   0  -3  19    2.80    0.80
   1   3 -20    5.80    1.60
   1   3 -20    5.10    1.30
   1  -3 -20    5.90    1.50
  -1  -3  20    6.90    1.10
   2   3 -21   30.70    3.20
   2  -3 -21   26.70    2.90
   3   3 -22   25.10    3.10
   3  -3 -22   18.60    2.60
   3   4  16   13.40    2.50
   3  -4  16   14.80    2.10
   2   4  17    5.60    2.00
   2  -4  17    7.90    1.60
   1   4  18   24.70    3.00
   1   4  18   24.90    2.30
   1  -4  18   27.40    2.80
   0   4  19  326.67   18.60
   0   4 -19  300.87   18.60
   0  -4  19  311.37   18.40
   0  -4  19  316.07   18.80
   0  -4 -19  305.27   18.50
   1   4 -20   79.59    5.90
   1   4 -20   75.99    5.60
   1  -4 -20   81.79    5.10
  -1  -4  20   79.89    5.20
   1  -4 -20   76.99    5.90
   2   4 -21   22.60    3.10
   2  -4 -21   19.30    2.90
   2   5  17    3.80    2.20
   2  -5  17    7.20    1.90
   1   5  18   26.90    2.80
   1   5  18   22.10    3.10
   1  -5  18   20.30    2.80
  -1  -5 -18   23.60    3.30
   0   5 -19    5.70    1.70
   0   5  19    6.60    1.70
   0  -5  19    4.80    1.20
   0  -5 -19    6.20    1.70
   1   5 -20   37.60    3.60
   1  -5 -20   38.40    2.90
   1  -5 -20   49.00    4.50
  -1  -5  20   37.10    3.40
   2   5 -21   -0.80    2.30
   2  -5 -21   -0.80    2.30
   1  -6  18   23.20    3.10
   3   0  17    7.10    1.10
   2   0  18   91.79    5.90
   1   0  19  627.94   34.60
  -1   0 -19  538.15   34.50
  -1   0 -19  604.34   34.20
   0   0 -20  249.88   15.00
   0   0  20  251.77   14.50
   0   0 -20  244.08   14.70
   0   0  20  241.78   15.00
   1   0 -21    3.80    0.70
   1   0 -21    5.40    1.40
  -1   0  21    6.30    1.40
  -1   0  21    2.80    0.70
   2   0 -22   78.29    5.80
   3   0 -23   26.80    3.40
   4   0 -24   48.20    4.70
   4   1  16    0.00    1.10
   3   1  17   13.40    1.60
   3  -1  17   11.90    1.60
   2   1  18   42.40    3.10
   2  -1  18   41.70    3.10
   1   1  19   29.80    2.50
   1  -1  19   30.30    2.40
  -1  -1 -19   30.70    2.70
   0   1 -20   75.19    5.30
   0   1 -20   84.69    5.30
   0   1  20   98.89    5.60
   0  -1  20   74.39    5.10
   0  -1 -20   85.89    5.40
   0  -1 -20   83.99    5.20
   0  -1  20   76.49    5.30
   1   1 -21   43.50    3.50
  -1   1  21   49.60    3.50
  -1   1  21   60.49    3.90
   1   1 -21   53.39    3.90
   1  -1 -21   50.79    4.00
  -1  -1  21   54.19    3.40
   1  -1 -21   57.09    3.30
  -1  -1  21   57.19    3.90
   2   1 -22   30.10    3.00
   2  -1 -22   31.90    3.20
   3   1 -23    4.00    1.90
   3  -1 -23    4.10    1.70
   4  -1 -24    7.10    2.40
   4   2  16   23.80    2.80
   3   2  17    1.10    1.10
   3  -2  17   -0.20    0.80
   2   2  18   58.39    4.10
   2  -2  18   55.79    3.90
   1   2  19  618.84   35.80
   1   2  19  641.74   35.30
  -1  -2 -19  523.45   35.70
   1  -2  19  654.33   35.60
   0   2  20  135.19    8.70
   0   2 -20  134.39    8.90
   0   2 -20  146.79    8.70
   0   2  20  152.98    9.10
   0  -2  20  137.49    8.60
   0  -2 -20  150.68    8.70
   0  -2  20  148.29    8.90
   0  -2 -20  149.88    9.00
  -1   2  21   17.20    1.60
   1   2 -21   14.90    1.80
   1   2 -21   14.90    1.90
   1  -2 -21   15.70    2.00
   1  -2 -21   12.20    1.30
  -1  -2  21   13.60    1.40
   2   2 -22    0.60    1.30
   2  -2 -22    1.60    1.40
   3   2 -23   20.10    2.70
   3  -2 -23   22.20    2.60
   4  -3  16    3.10    1.30
   3   3  17   52.09    4.30
   3  -3  17   49.30    3.80
   2   3  18   64.59    4.80
   2  -3  18   68.19    4.60
   1   3  19   42.00    3.40
   1   3  19   39.30    2.80
   1  -3  19   42.20    3.20
   0   3 -20   13.20    1.50
   0   3  20   16.00    1.60
   0   3  20   11.20    1.80
   0  -3 -20   15.70    1.70
   0  -3 -20   15.90    2.00
   0  -3  20   14.00    1.90
   0  -3  20   13.80    1.40
   1   3 -21  175.18   12.60
   1   3 -21  199.38   12.80
   1  -3 -21  231.68   12.80
  -1  -3  21  217.68   12.30
   2   3 -22  171.78   11.40
   2  -3 -22  184.28   11.30
   3   3 -23   20.10    3.00
   3  -3 -23   19.80    2.60
   3   4  17    0.80    1.80
   3  -4  17    1.10    1.30
   2   4  18    0.60    1.60
   2  -4  18    3.10    1.40
   1   4  19   18.40    1.80
   1   4  19   17.00    2.50
   1  -4  19   17.50    2.20
   0   4 -20   20.30    2.10
   0   4  20   19.70    2.10
   0  -4 -20   19.30    2.10
   0  -4  20   20.30    1.90
   0  -4  20   21.10    2.50
   1   4 -21   16.00    2.10
   1   4 -21   14.80    2.40
   1  -4 -21   20.10    2.60
  -1  -4  21   15.40    1.80
   1  -4 -21   12.80    1.50
   2   4 -22    7.20    2.30
   2  -4 -22    6.20    2.00
   2   5  18   14.60    3.10
   2  -5  18   21.30    2.60
   1   5  19    1.80    1.90
   1   5  19    4.30    1.50
  -1  -5 -19    4.70    2.40
   1  -5  19    4.00    1.80
   0   5  20    2.50    1.40
   0   5 -20    4.30    1.60
   0  -5  20    2.20    1.10
   0  -5 -20    2.30    1.50
   1   5 -21   67.59    5.50
  -1  -5  21   80.89    5.30
   1  -5 -21   78.19    6.60
   1  -5 -21   77.69    5.00
   2   5 -22   54.19    5.30
   2  -5 -22   39.70    4.70
   1  -6  19    0.30    1.80
   3   0  18    0.00    0.80
   2   0  19   -0.50    0.70
  -1   0 -20    1.30    0.70
   1   0  20    0.00    0.80
   0   0  21    0.90    0.80
   0   0 -21    1.50    0.70
   0   0 -21    1.60    1.10
   0   0  21    0.90    0.60
   1   0 -22   -0.40    0.60
  -1   0  22   -0.90    0.50
   1   0 -22    0.40    1.20
  -1   0  22    0.00    1.00
   2   0 -23    1.30    1.50
   3   0 -24    4.50    2.10
   4   1  17    0.30    1.00
   3   1  18  180.58   10.60
   3  -1  18  166.18   10.60
   2   1  19  237.28   13.60
   2  -1  19  214.18   13.60
   1   1  20  105.19    6.90
   1  -1  20  110.79    6.90
   0   1  21  620.04   35.10
   0   1 -21  597.34   34.90
   0   1 -21  592.64   35.00
   0  -1 -21  592.54   34.80
   0  -1  21  529.75   34.60
   0  -1  21  658.43   35.00
   1   1 -22  725.33   38.80
   1   1 -22  602.94   38.40
  -1   1  22  679.13   38.50
   1  -1 -22  604.44   38.80
  -1  -1  22  691.03   38.40
   1  -1 -22  701.23   38.30
  -1  -1  22  626.24   38.80
   2   1 -23   86.29    6.30
   2  -1 -23   97.59    6.50
   3   1 -24    2.50    1.90
   3  -1 -24    0.30    1.50
   4   2  17   19.20    2.70
   3   2  18    7.90    1.60
   3  -2  18    8.20    1.40
   2   2  19   71.99    5.10
   2  -2  19   77.79    5.00
   1   2  20  139.89    9.10
   1   2  20  155.88    8.70
   1  -2  20  137.69    8.90
   0   2  21   61.59    3.90
   0   2  21   59.39    4.30
   0   2 -21   58.39    4.00
   0   2 -21   59.99    4.30
   0  -2 -21   62.39    4.00
   0  -2  21   54.49    4.10
   0  -2  21   61.49    3.90
   0  -2 -21   60.29    4.20
   1   2 -22   44.40    3.80
  -1   2  22   50.19    3.50
   1   2 -22   53.09    3.60
  -1  -2  22   48.80    3.40
   1  -2 -22   51.29    3.30
   1  -2 -22   51.39    3.90
   2   2 -23    6.00    1.60
   2  -2 -23    4.70    1.60
   3   2 -24   48.50    4.50
   3  -2 -24   50.79    4.30
   4  -3  17    0.90    1.30
   3   3  18   15.70    2.50
   3  -3  18   19.90    2.10
   2   3  19   17.00    2.30
   2  -3  19   18.70    2.00
   1   3  20   37.20    2.50
   1   3  20   31.60    3.00
   1  -3  20   31.40    2.80
   0   3  21  182.18   10.20
   0   3 -21  149.29    9.60
   0   3  21  161.68    9.60
   0  -3  21  158.18    9.50
   0  -3 -21  163.48    9.60
   0  -3 -21  137.89    9.90
   0  -3  21  155.48    9.80
   1   3 -22  168.38   11.20
   1   3 -22  168.88   11.00
   1  -3 -22  182.48   11.30
  -1  -3  22  179.48   10.70
   1  -3 -22  187.18   10.60
   2   3 -23    3.10    1.70
   2  -3 -23    0.00    1.50
   3   3 -24    7.90    2.30
   3  -3 -24    9.10    2.10
   3   4  18   -1.00    1.70
   3  -4  18    1.10    1.40
   2   4  19   43.60    4.40
   2  -4  19   44.60    3.70
   1   4  20   54.59    3.90
   1   4  20   56.79    4.70
   1  -4  20   48.70    4.10
   0   4  21   90.89    5.90
   0   4 -21   96.29    6.00
   0  -4 -21   91.09    5.90
   0  -4  21   83.19    6.10
   0  -4  21   86.09    5.80
   1   4 -22   -1.30    1.50
   1   4 -22    2.10    1.40
  -1  -4  22    1.30    1.10
   1  -4 -22    0.90    1.70
   1  -4 -22    0.70    0.90
   2   4 -23    9.90    2.40
   2  -4 -23    2.80    1.90
   2   5  19    3.90    2.30
   2  -5  19    3.70    1.70
   1   5  20    8.80    1.80
   1   5  20    3.70    2.30
   1  -5  20    7.70    2.00
   0   5  21   22.00    2.60
   0   5 -21   19.60    2.50
   0  -5 -21   24.00    2.60
   0  -5  21   23.80    2.30
   1   5 -22    6.80    1.90
   1  -5 -22    4.80    1.30
   1  -5 -22    4.40    2.40
  -1  -5  22    6.60    1.50
   2   5 -23    0.50    2.50
   2  -5 -23    3.70    2.50
   1  -6  20    9.50    2.30
   3   0  19   13.00    1.70
   2   0  20  261.17   15.70
   1   0  21  181.18   11.20
   0   0 -22 1216.18   72.69
   0   0  22 1312.57   72.79
   0   0 -22 1210.08   72.39
   0   0  22 1270.17   72.19
   1   0 -23   22.90    2.60
   1   0 -23   14.50    1.40
  -1   0  23   16.00    2.10
  -1   0  23   18.90    1.50
   2   0 -24  466.45   28.00
   3   0 -25  356.36   22.00
   4   1  18   -0.20    1.20
   3   1  19   39.50    3.00
   3  -1  19   36.20    3.10
   2   1  20    7.70    1.30
   2  -1  20    5.10    1.20
   1   1  21   28.40    2.50
   1  -1  21   30.10    2.50
   0   1  22   59.29    4.20
   0   1 -22   69.69    4.30
   0   1 -22   60.29    4.00
   0   1  22   51.59    3.70
   0  -1  22   55.19    3.70
   0  -1  22   55.39    4.00
   0  -1 -22   55.39    3.90
  -1   1  23  173.28   10.30
   1   1 -23  162.98   10.30
   1   1 -23  172.48   10.70
   1  -1 -23  185.68   10.90
   1  -1 -23  176.68   10.10
  -1  -1  23  150.08   10.80
  -1  -1  23  172.08   10.20
   2   1 -24    3.80    1.60
   2  -1 -24    5.80    1.80
   3   1 -25    1.70    1.90
   3  -1 -25    0.50    1.60
   4   2  18   10.30    1.90
   3   2  19    1.50    1.20
   3  -2  19    1.40    1.00
   2   2  20    1.60    1.10
   2  -2  20    2.00    0.90
   1   2  21  203.28   11.80
   1   2  21  196.78   12.40
   1  -2  21  204.48   12.20
   0   2  22  354.96   21.40
   0   2 -22  364.86   21.50
   0   2 -22  354.16   21.70
   0   2  22  342.67   21.70
   0  -2 -22  364.36   21.70
   0  -2 -22  369.86   21.50
   0  -2  22  377.06   21.40
   0  -2  22  396.16   21.70
   1   2 -23   29.10    2.30
   1   2 -23   29.90    2.80
  -1   2  23   26.50    2.10
  -1  -2  23   23.40    2.00
   1  -2 -23   23.10    2.60
   1  -2 -23   22.50    1.90
   2   2 -24  154.88    9.90
   2  -2 -24  154.58   10.00
   3   2 -25   44.50    4.40
   3  -2 -25   50.59    4.20
   3   3  19   46.50    4.20
   3  -3  19   47.20    3.70
   2   3  20  152.28   10.10
   2  -3  20  163.38    9.90
   1   3  21   14.70    1.40
   1   3  21   15.40    2.10
   1  -3  21   15.00    1.90
   0   3  22  141.59    8.80
   0   3 -22  128.69    8.30
   0   3  22  142.19    8.30
   0  -3 -22  124.49    8.60
   0  -3  22  142.59    8.20
   0  -3  22  116.09    8.40
   0  -3 -22  134.99    8.20
   1   3 -23   66.99    4.90
   1   3 -23   63.29    4.70
   1  -3 -23   58.39    4.80
   1  -3 -23   67.09    4.30
  -1  -3  23   66.49    4.40
   2   3 -24   33.60    3.50
   2  -3 -24   33.60    3.40
   3   3 -25    1.60    1.80
   3  -3 -25    0.30    1.70
   3   4  19    1.90    2.00
   3  -4  19    2.90    1.40
   2   4  20    7.70    2.10
   2  -4  20    5.60    1.60
   1   4  21    4.50    1.70
   1   4  21    5.10    1.20
   1  -4  21    3.40    1.40
   0   4  22   86.79    5.80
   0   4 -22   88.09    5.80
   0  -4  22   86.59    5.60
   0  -4 -22   88.79    5.80
   0  -4  22   79.69    6.00
   1   4 -23    0.40    1.40
   1   4 -23    1.30    1.90
  -1  -4  23   -0.70    1.00
   1  -4 -23    1.70    1.70
   1  -4 -23    1.70    1.00
   2   4 -24   15.50    2.80
   2  -4 -24   14.20    2.60
   2   5  20    8.60    2.70
   2  -5  20    9.30    2.00
   1   5  21    3.10    1.50
   1  -5  21    4.90    1.80
   0   5  22   33.90    3.20
   0   5 -22   34.60    3.40
   0  -5  22   33.20    2.80
   0  -5 -22   31.20    3.20
   1   5 -23   87.99    7.00
   1  -5 -23  112.49    7.80
  -1  -5  23  102.89    6.60
   1  -5 -23  100.29    6.40
   2   5 -24    1.60    2.70
   2  -5 -24    1.60    2.40
   1  -6  21    1.70    1.90
   3   0  20   -0.10    0.90
   2   0  21    0.70    0.90
   1   0  22   -0.30    0.80
   1   0 -24   -0.40    0.60
  -1   0  24    0.70    0.60
   1   0 -24    2.50    1.50
   2   0 -25    2.10    1.70
   3   0 -26    7.20    2.40
   4   1  19    5.20    1.40
   3   1  20  105.89    6.60
   3  -1  20   95.89    6.60
   2   1  21   14.60    1.80
   2  -1  21   11.30    1.60
   1   1  22   12.20    0.90
   1   1  22   16.00    1.90
   1   1  22   10.40    0.90
   1  -1  22   14.40    1.70
   0   1  23   29.70    2.30
   0   1  23   39.30    3.00
   0   1 -23   36.50    2.90
   0  -1  23   34.10    2.40
   0  -1  23   34.90    2.80
   0  -1 -23   34.00    2.90
   0  -1 -23   28.40    2.50
  -1   1  24  361.06   21.30
   1   1 -24  348.37   21.30
   1   1 -24  385.46   21.80
   1  -1 -24  360.56   21.10
  -1  -1  24  367.96   21.20
   1  -1 -24  357.06   21.80
   2   1 -25  221.08   13.20
   2  -1 -25  195.78   13.00
   3   1 -26    1.70    1.90
   3  -1 -26    1.50    1.70
   4   2  19    6.30    1.80
   4  -2  19    1.20    1.50
   3   2  20    6.20    1.40
   3  -2  20    5.00    1.40
   2   2  21   58.69    4.40
   2  -2  21   60.49    4.20
   1   2  22  228.48   14.10
   1   2  22  233.58   13.50
   1  -2  22  227.28   13.90
   0   2 -23   43.30    3.20
   0   2  23   39.80    3.10
   0   2 -23   43.90    3.50
   0   2  23   51.09    3.60
   0  -2  23   43.60    3.10
   0  -2  23   44.40    3.40
   0  -2 -23   47.80    3.20
   0  -2 -23   49.80    3.60
  -1   2  24   10.00    1.30
   1   2 -24    9.70    1.80
   1   2 -24   10.90    1.50
   1  -2 -24    8.40    1.10
   1  -2 -24    8.00    1.80
  -1  -2  24    8.70    1.30
   2   2 -25   89.49    6.40
   2  -2 -25   96.69    6.60
   3   2 -26   26.10    3.40
   3  -2 -26   30.90    3.20
   3   3  20   11.60    2.20
   3  -3  20   11.80    1.70
   2   3  21   15.30    2.30
   1   3  22   13.40    1.50
   1   3  22   13.60    2.00
   1  -3  22   11.50    1.80
   0   3  23   19.20    2.40
   0   3 -23   19.10    2.00
   0   3  23   20.90    2.00
   0  -3 -23   20.00    2.00
   0  -3  23   19.50    2.30
   0  -3  23   19.30    1.80
   0  -3 -23   20.50    2.40
   1   3 -24   30.50    3.10
   1   3 -24   29.90    2.80
  -1  -3  24   30.60    2.50
   1  -3 -24   29.90    2.30
   1  -3 -24   26.10    3.00
   2   3 -25   43.10    4.40
   2  -3 -25   48.10    4.20
   3   3 -26    4.50    2.10
   3  -3 -26    3.80    1.90
   2   4  21   41.70    4.20
   2  -4  21   46.30    3.80
   1   4  22  216.88   12.50
   1   4  22  182.48   11.40
   1  -4  22  176.18   11.70
   0   4  23  113.79    7.30
   0   4 -23  111.99    7.40
   0  -4 -23  114.69    7.30
   0  -4  23  108.99    7.10
   0  -4  23  116.09    7.60
   1   4 -24   28.90    3.00
   1  -4 -24   28.80    3.30
   1  -4 -24   31.80    2.50
  -1  -4  24   26.80    2.60
   2   4 -25   67.99    5.70
   2  -4 -25   58.09    5.30
   2   5  21   25.60    3.80
   2  -5  21   26.70    3.10
   1   5  22    1.20    1.40
   1  -5  22    0.10    1.60
   0   5  23   53.99    4.20
   0   5 -23   49.99    4.10
   0  -5 -23   44.30    4.00
   0  -5  23   47.50    3.70
  -1  -5  24    4.30    1.40
   1  -5 -24    3.60    1.20
   1  -5 -24    2.20    2.20
   2   5 -25    2.40    2.80
   4   0  20    8.20    1.30
   3   0  21   25.50    2.50
   2   0  22  367.56   21.90
   1   0  23  352.66   21.10
   0   0  24  116.69    6.90
   0   0 -24  104.09    7.40
   0   0  24  121.99    7.50
   0   0 -24  105.49    7.00
   1   0 -25   23.30    2.00
  -1   0  25   23.70    2.00
   1   0 -25   33.30    3.20
   2   0 -26  137.99    9.30
   3   0 -27   79.19    6.40
   4   1  20    1.40    1.30
   3   1  21   37.10    3.10
   3  -1  21   35.50    3.10
   2   1  22    4.20    1.20
   2  -1  22    3.80    1.10
   1   1  23   15.90    1.20
   1   1  23   21.90    2.20
   1  -1  23   15.20    2.00
   0   1  24   42.10    3.40
   0   1 -24   43.10    3.20
   0   1 -24   48.90    3.50
   0   1  24   41.90    2.90
   0  -1  24   42.50    2.90
   0  -1  24   40.70    3.30
   0  -1 -24   38.30    3.10
   1   1 -25   99.89    6.80
   1   1 -25  103.09    6.40
  -1   1  25   98.49    6.30
   1  -1 -25   95.49    6.90
   1  -1 -25  100.09    6.20
  -1  -1  25  104.89    6.20
   2   1 -26   54.59    4.70
   2  -1 -26   51.59    4.40
   3   1 -27   19.10    3.20
   3  -1 -27   26.40    3.10
   4   2  20    0.20    1.50
   4  -2  20   -0.50    1.10
   3   2  21   -0.10    1.10
   3  -2  21    0.10    1.00
   2   2  22  278.67   16.50
   2  -2  22  265.87   16.30
   1   2  23   56.99    3.80
   1   2  23   66.19    4.50
   1  -2  23   61.99    4.30
   0   2 -24   46.50    3.60
   0   2  24   42.60    3.20
   0   2 -24   47.30    3.40
   0   2  24   43.00    3.60
   0  -2  24   46.50    3.20
   0  -2  24   44.20    3.50
   0  -2 -24   49.30    3.40
   0  -2 -24   51.99    3.80
   1   2 -25   22.90    2.20
  -1   2  25   22.60    2.00
   1   2 -25   22.80    2.50
   1  -2 -25   21.20    1.80
  -1  -2  25   18.80    1.80
   1  -2 -25   18.10    2.50
   2   2 -26   42.40    4.00
   2  -2 -26   44.20    4.00
   3   2 -27   24.40    3.30
   3  -2 -27   24.60    3.10
   3   3  21   11.40    2.20
   3  -3  21   10.50    1.70
   2   3  22   64.59    5.10
   2  -3  22   64.69    4.60
   1   3  23   33.40    3.30
   1   3  23   33.10    2.50
   0   3  24   94.59    6.00
   0   3 -24   86.69    6.00
   0   3  24   80.49    6.30
   0  -3 -24   91.49    6.00
   0  -3  24   96.99    5.90
   0  -3 -24  107.79    6.60
   1   3 -25  346.27   20.00
   1   3 -25  318.97   19.90
   1  -3 -25  329.77   19.40
   1  -3 -25  315.77   19.90
  -1  -3  25  336.57   19.50
   2   3 -26    9.60    2.30
   2  -3 -26    8.90    2.10
   3   3 -27    5.60    2.20
   3  -3 -27    4.80    2.10
   2   4  22   18.20    2.80
   2  -4  22   20.20    2.50
   1   4  23   11.30    2.30
   1   4  23   15.10    1.70
   1  -4  23   18.20    2.30
   0   4 -24    0.40    1.30
   0   4  24    0.70    1.30
   0  -4  24    1.40    1.40
   0  -4 -24   -0.20    1.20
   0  -4  24    0.40    0.90
   1   4 -25    5.60    1.70
   1  -4 -25    6.80    2.10
  -1  -4  25    7.20    1.40
   1  -4 -25    6.10    1.20
   2   4 -26   12.80    2.60
   2  -4 -26   13.60    2.70
   2   5  22    1.60    2.20
   2  -5  22    4.30    2.00
   1   5  23   -0.30    1.30
   1  -5  23    0.50    1.50
   0   5  24   47.90    4.00
   0   5 -24   47.40    4.00
   0  -5 -24   44.30    3.80
   0  -5  24   43.30    3.40
   1  -5 -25   81.89    6.60
  -1  -5  25   76.69    5.30
   1  -5 -25   74.39    5.00
   2   5 -26    4.20    2.80
   4   0  21   -0.60    0.90
   3   0  22   -0.90    1.00
   2   0  23    1.50    1.00
   1   0  24    0.90    1.00
   0   0 -25   -0.20    1.20
   0   0  25    0.80    0.60
   0   0  25    1.80    1.10
   0   0 -25    0.80    0.90
  -1   0  26    0.00    0.70
   1   0 -26    1.00    1.40
   1   0 -26   -0.50    0.70
   2   0 -27    4.70    2.00
   3   0 -28    4.50    2.40
   4   1  21   19.00    2.40
   3   1  22   85.49    5.90
   3  -1  22   88.19    6.00
   2   1  23   66.09    4.70
   2  -1  23   64.89    4.60
   1   1  24  250.57   14.00
   1   1  24  246.18   14.80
   1  -1  24  223.88   14.60
   0   1  25  743.83   42.30
   0   1 -25  700.33   42.00
   0   1 -25  818.12   42.30
   0   1  25  704.93   41.70
   0  -1  25  722.33   41.70
   0  -1 -25  755.82   42.20
   0  -1  25  685.63   42.10
   0  -1 -25  634.04   41.80
   1   1 -26  224.18   14.20
   1   1 -26  247.58   13.80
  -1   1  26  228.38   13.60
  -1  -1  26  227.38   13.60
   1  -1 -26  234.38   13.50
   1  -1 -26  205.88   14.20
   2   1 -27    0.70    1.60
   2  -1 -27   -2.10    1.50
   3   1 -28   67.29    5.40
   3  -1 -28   50.49    4.70
   4  -2  21   -1.70    1.10
   3   2  22   10.60    2.00
   3  -2  22   12.30    1.80
   2   2  23   69.99    4.70
   2  -2  23   57.49    4.40
   1   2  24   38.10    3.40
   1   2  24   44.60    2.80
   1  -2  24   42.50    3.40
   0   2 -25   38.30    3.00
   0   2  25   30.50    2.70
   0   2 -25   43.90    3.50
   0   2  25   40.30    3.30
   0  -2 -25   35.70    3.30
   0  -2 -25   42.60    3.00
   0  -2  25   39.10    3.10
   0  -2  25   38.30    2.80
   1   2 -26    6.90    1.60
   1   2 -26    5.70    1.30
  -1   2  26    6.00    1.20
   1  -2 -26    5.10    1.00
  -1  -2  26    3.80    1.00
   1  -2 -26    4.20    1.60
   2   2 -27  132.49    9.10
   2  -2 -27  146.69    9.30
   3   2 -28   47.50    4.50
   3  -2 -28   39.20    4.10
   3   3  22   29.20    3.30
   3  -3  22   27.50    2.90
   2   3  23   19.70    2.70
   2  -3  23   20.50    2.30
   1   3  24   47.60    4.30
   1   3  24   57.09    3.70
   0   3  25  147.19    8.70
   0   3  25  126.09    8.10
   0   3 -25  126.99    8.20
   0  -3  25  115.19    8.30
   0  -3 -25  136.69    8.10
   0  -3  25  128.59    8.00
   1   3 -26    4.60    1.70
   1   3 -26    4.50    1.50
  -1  -3  26    4.10    1.10
   1  -3 -26    5.30    1.10
   1  -3 -26    4.80    1.70
   2   3 -27    8.60    2.20
   2  -3 -27    7.20    2.10
   3   3 -28    1.20    2.20
   3  -3 -28    6.00    2.20
   2   4  23   19.50    3.10
   2  -4  23   19.90    2.50
   1   4  24   95.99    7.10
   1   4  24   92.99    6.30
   1  -4  24  110.99    6.90
   0   4  25    0.20    1.10
   0   4 -25   -0.60    1.40
   0  -4  25    1.40    1.40
   0  -4 -25    0.10    1.30
   0  -4  25    0.40    1.00
   1   4 -26    0.20    1.40
  -1  -4  26    0.20    1.10
   1  -4 -26    0.00    1.00
   1  -4 -26    1.40    1.80
   2   4 -27   52.19    5.10
   2  -4 -27   51.69    5.00
   2   5  23    2.20    2.20
   1   5  24   10.50    2.10
   1  -5  24   13.40    2.30
   0   5  25   -0.40    1.40
   0   5 -25    1.20    1.70
   0  -5 -25    3.30    1.70
   0  -5  25    1.40    1.20
  -1  -5  26    0.70    1.30
   1  -5 -26    1.00    1.20
   4   0  22    0.50    1.10
   3   0  23   18.20    2.30
   2   0  24   49.10    3.80
   1   0  25  523.15   31.00
   0   0 -26   44.40    3.50
   0   0 -26   49.30    4.10
   0   0  26   54.29    4.00
   0   0  26   48.90    3.30
  -1   0  27  130.29    7.90
   1   0 -27  124.99    7.80
   2   0 -28  744.43   44.20
   3   0 -29   39.40    4.50
   4   1  22   21.20    2.60
   4  -1  22   19.60    2.00
   3   1  23    1.30    1.10
   3  -1  23    2.30    1.20
   2   1  24    0.00    1.10
   2  -1  24    0.00    0.90
   1   1  25    0.50    1.00
   1  -1  25    0.70    0.90
   0   1  26   37.20    3.30
   0   1  26   47.30    2.80
   0   1 -26   39.30    3.40
   0   1 -26   35.30    3.00
   0  -1 -26   36.30    3.30
   0  -1  26   34.80    2.70
   0  -1  26   37.30    3.20
   0  -1 -26   29.50    2.80
   1   1 -27   21.40    1.90
  -1   1  27   19.30    1.80
   1   1 -27   18.00    2.50
  -1  -1  27   16.50    1.70
   1  -1 -27   17.90    1.70
   1  -1 -27   18.60    2.60
   2   1 -28    3.40    1.70
   2  -1 -28    2.10    1.90
   3   1 -29   12.90    2.80
   3  -1 -29    7.00    2.20
   4  -2  22    1.20    1.30
   3   2  23    1.70    1.40
   3  -2  23    4.30    1.30
   2   2  24  181.38   10.80
   2  -2  24  161.18   10.60
   1   2  25  196.18   11.40
   1   2  25  172.28   10.70
   1  -2  25  178.08   11.20
   0   2  26   79.59    5.50
   0   2 -26   76.79    5.20
   0  -2 -26   78.09    5.20
   0  -2  26   83.69    5.40
   0  -2  26   72.09    5.00
   0  -2 -26   79.89    5.60
  -1   2  27  225.98   13.60
   1   2 -27  243.88   13.70
   1   2 -27  228.68   14.00
   1  -2 -27  236.78   14.20
   1  -2 -27  217.98   13.40
  -1  -2  27  212.28   13.50
   2   2 -28  147.29    9.80
   2  -2 -28  145.69    9.80
   3   2 -29   64.89    5.40
   3  -2 -29   55.79    5.10
   3   3  23   37.20    3.70
   3  -3  23   33.10    3.20
   2   3  24   -0.10    1.40
   2  -3  24    1.40    2.00
   1   3  25  148.09    9.70
   1   3  25  143.79    8.80
   1  -3  25  145.69    9.20
   0   3  26   70.39    6.90
   0   3  26   92.69    6.00
   0   3 -26   94.59    6.10
   0  -3 -26   98.99    6.00
   0  -3  26   97.29    6.00
   0  -3  26   89.89    6.30
   1   3 -27   85.09    6.00
   1   3 -27   87.09    6.30
  -1  -3  27   84.09    5.60
   1  -3 -27   83.19    5.50
   1  -3 -27   90.49    6.30
   2   3 -28   19.30    3.00
   2  -3 -28   20.60    2.80
   3   3 -29   15.70    3.00
   2   4  24    2.90    1.80
   2  -4  24    0.50    1.40
   1   4  25   37.60    3.80
   1   4  25   25.40    2.60
   1  -4  25   29.10    3.10
   0   4  26    1.00    1.30
   0   4 -26    3.50    1.50
   0  -4 -26    5.10    1.50
   0  -4  26    1.00    2.00
   0  -4  26    2.80    1.10
   1   4 -27    4.30    1.80
  -1  -4  27    7.60    1.50
   1  -4 -27    5.90    2.10
   2   4 -28   21.00    3.30
   2  -4 -28   17.00    2.90
   2   5  24    2.80    2.30
   1  -5  25   28.40    3.20
   0   5  26   41.40    3.80
   0   5 -26   45.50    3.90
   0  -5 -26   39.60    3.70
   4   0  23    0.90    1.00
   3   0  24    1.80    1.30
   2   0  25   -0.30    1.00
   1   0  26    0.40    1.00
   0   0  27    1.20    0.80
   0   0 -27    2.60    1.60
   0   0 -27    0.90    1.00
   0   0  27    2.10    1.20
  -1   0  28   -0.40    0.70
   1   0 -28   -0.10    1.50
   1   0 -28   -1.00    0.80
   2   0 -29    4.80    2.10
   3   0 -30    2.40    2.40
   4   1  23   33.00    3.10
   4  -1  23   32.30    2.80
   3   1  24    3.00    1.30
   3  -1  24    2.10    1.30
   2   1  25    0.40    1.20
   2  -1  25    2.20    1.10
   1   1  26   27.10    1.80
   1   1  26   27.70    2.80
   1  -1  26   23.30    2.60
   0   1 -27  263.47   16.90
   0   1 -27  298.27   16.80
   0   1  27  292.77   16.40
   0   1  27  255.17   17.00
   0  -1 -27  262.77   16.60
   0  -1  27  280.57   16.90
   0  -1 -27  257.77   16.90
   0  -1  27  297.27   16.40
  -1   1  28  263.67   15.40
   1   1 -28  247.58   16.00
   1   1 -28  272.77   15.50
   1  -1 -28  263.17   16.20
   1  -1 -28  252.67   15.30
  -1  -1  28  256.97   15.40
   2   1 -29   21.80    3.20
   2  -1 -29   24.70    3.20
   3   1 -30   74.39    5.90
   3  -1 -30   59.89    5.40
   4  -2  23    0.00    1.30
   3   2  24   30.80    3.10
   3  -2  24   28.00    2.90
   2   2  25   53.99    4.20
   2  -2  25   53.09    4.00
   1   2  26  127.39    7.90
   1   2  26  111.09    7.10
   1  -2  26  120.59    7.70
   0   2  27    9.60    1.80
   0   2  27    6.30    1.10
   0   2 -27   10.00    1.60
   0  -2  27    6.90    1.20
   0  -2 -27   12.50    2.10
   0  -2  27    9.60    1.70
   0  -2 -27    8.60    1.50
  -1   2  28   80.19    5.10
   1   2 -28   71.39    5.60
   1   2 -28   86.69    5.30
   1  -2 -28   74.19    5.80
   1  -2 -28   77.39    5.00
  -1  -2  28   71.89    5.10
   2   2 -29   50.59    4.70
   2  -2 -29   60.09    5.00
   3   2 -30   19.30    3.20
   3  -2 -30   21.90    3.20
   3   3  24    7.00    2.00
   3  -3  24    5.00    1.60
   2   3  25    4.20    1.70
   2  -3  25    6.20    1.50
   1   3  26   24.10    2.80
   1   3  26   22.80    2.00
   1  -3  26   23.70    2.60
   0   3 -27    9.50    1.70
   0   3  27    8.20    1.40
   0  -3  27    8.40    1.30
   0  -3  27    9.60    1.80
   0  -3 -27   10.60    1.60
   1   3 -28   31.50    3.00
   1   3 -28   30.80    3.40
   1  -3 -28   30.60    2.50
  -1  -3  28   29.80    2.70
   1  -3 -28   26.40    3.30
   2   3 -29   10.00    2.40
   2  -3 -29    7.90    2.30
   2   4  25   51.59    5.20
   1   4  26   66.19    5.60
   1   4  26   66.09    4.60
   1  -4  26   64.19    4.90
   0   4  27   41.40    3.60
   0   4 -27   44.40    3.70
   0  -4 -27   48.30    3.70
   0  -4  27   41.20    3.20
   1   4 -28   40.10    4.20
  -1  -4  28   47.20    3.70
   1  -4 -28   45.80    4.40
   2   4 -29   58.39    5.60
   2  -4 -29   62.39    5.40
   2   5  25    0.50    2.70
   1  -5  26   11.10    2.20
   0   5 -27    6.90    2.00
   4   0  24   23.40    2.60
   3   0  25  118.99    7.90
   2   0  26  106.69    7.20
   1   0  27   26.80    2.90
   0   0  28   75.89    5.50
   0   0  28   75.39    4.80
   0   0 -28   68.99    5.00
   0   0 -28   78.09    5.60
  -1   0  29  310.67   18.00
   1   0 -29  294.17   17.90
   2   0 -30   69.59    5.90
   3   0 -31   59.79    5.70
   4   1  24    9.90    1.80
   4  -1  24   10.30    1.80
   3   1  25    3.10    1.50
   3  -1  25    2.90    1.40
   2   1  26    4.30    1.50
   2  -1  26    6.80    1.50
   1   1  27   79.09    4.60
   1   1  27   77.19    5.50
   1  -1  27   69.69    5.30
   0   1  28   64.49    5.60
   0   1 -28   70.79    5.70
   0   1 -28   85.59    5.50
   0   1  28   85.99    5.10
   0  -1 -28   76.79    5.30
   0  -1 -28   73.79    5.70
   0  -1  28   86.49    5.10
   0  -1  28   83.39    5.60
  -1   1  29   50.49    3.50
   1   1 -29   46.90    4.20
   1   1 -29   53.29    3.60
   1  -1 -29   49.30    4.40
   1  -1 -29   44.60    3.40
  -1  -1  29   48.80    3.50
   2   1 -30   36.80    4.00
   2  -1 -30   33.00    3.80
   3   1 -31    0.80    2.30
   3  -1 -31    4.00    2.10
   3   2  25   62.09    4.90
   3  -2  25   59.09    4.60
   2   2  26   72.99    5.00
   2  -2  26   57.79    4.60
   1   2  27    2.10    1.30
   1   2  27    1.30    0.60
   1  -2  27    2.20    1.10
   0   2  28   20.40    2.10
   0   2 -28   29.50    2.60
   0   2  28   36.50    3.30
   0  -2 -28   27.00    2.50
   0  -2  28   27.00    2.60
   0  -2  28   20.40    2.10
   0  -2 -28   34.80    3.80
   1   2 -29    3.50    1.30
   1   2 -29    5.20    1.70
  -1   2  29    4.40    1.10
   1  -2 -29    3.20    1.10
   1  -2 -29    3.60    1.90
  -1  -2  29    4.90    1.10
   2   2 -30   25.20    3.30
   2  -2 -30   25.90    3.40
   3   2 -31   31.00    4.10
   3  -2 -31   33.40    3.80
   3   3  25   26.00    3.30
   3  -3  25   23.10    2.60
   2   3  26    1.40    1.60
   2  -3  26    4.10    1.40
   1   3  27   24.20    2.20
   1   3  27   32.10    3.30
   1  -3  27   27.10    2.70
   0   3  28  233.78   16.20
   0   3 -28  279.07   16.30
   0  -3  28  260.17   16.50
   0  -3  28  276.77   16.20
   0  -3 -28  300.77   16.30
   1   3 -29    7.00    2.10
   1   3 -29    9.70    1.80
   1  -3 -29    9.00    1.40
   1  -3 -29   11.00    2.30
  -1  -3  29    8.00    1.50
   2   3 -30    1.60    1.90
   2  -3 -30    0.90    1.90
   2   4  26   -0.60    1.70
   2  -4  26    1.10    1.40
   1   4  27    6.50    1.50
   1   4  27    8.90    2.30
   0   4 -28    6.40    1.90
   0   4  28    4.90    1.60
   0  -4  28    4.90    1.30
   0  -4 -28    6.70    1.70
   1   4 -29    1.40    1.60
   1  -4 -29    1.00    2.00
  -1  -4  29    0.50    1.20
   2   4 -30    2.60    2.40
   2  -4 -30    2.00    2.20
   1  -5  27   41.30    4.00
   0   5 -28   64.49    5.30
   4   0  25    1.00    1.20
   3   0  26    0.90    1.30
   2   0  27    2.40    1.20
   1   0  28    1.10    1.10
   0   0  29    0.90    0.80
   0   0 -29   -0.10    1.50
   0   0  29    1.80    1.30
   0   0 -29    0.80    1.10
   1   0 -30    1.10    1.00
   1   0 -30    2.40    1.90
  -1   0  30    1.30    0.90
   2   0 -31   -2.50    2.00
   3   0 -32    3.40    2.50
   4  -1  25   42.40    3.60
   3   1  26   13.80    2.30
   3  -1  26   16.70    2.30
   2   1  27   33.10    3.30
   2  -1  27   29.90    3.00
   1   1  28  381.86   23.70
   1   1  28  400.26   22.90
   1  -1  28  402.56   23.70
   0   1 -29  369.66   20.90
   0   1  29  374.86   20.60
   0   1  29  302.17   21.10
   0  -1 -29  301.27   21.10
   0  -1 -29  357.66   20.80
   0  -1  29  358.86   21.20
   0  -1  29  374.96   20.60
  -1   1  30   18.00    1.80
   1   1 -30   16.10    2.50
   1   1 -30   15.70    1.80
   1  -1 -30   15.00    1.70
  -1  -1  30   14.40    1.60
   1  -1 -30   12.10    2.50
   2   1 -31   68.59    6.10
   2  -1 -31   78.69    6.10
   3   1 -32   29.90    3.90
   3  -1 -32   21.00    3.30
   3   2  26   34.80    3.50
   3  -2  26   31.80    3.30
   2   2  27    9.10    1.90
   2  -2  27    8.30    1.60
   1   2  28   62.89    4.80
   1   2  28   61.19    4.00
   1  -2  28   64.49    4.60
   0   2  29   10.70    1.50
   0   2 -29   11.60    1.80
   0   2  29   17.20    2.40
   0  -2  29   15.50    2.10
   0  -2  29   13.30    1.60
   0  -2 -29   12.90    1.80
   1   2 -30  168.58    9.60
   1   2 -30  140.69    9.90
  -1   2  30  163.78    9.40
   1  -2 -30  151.38    9.20
  -1  -2  30  139.79    9.30
   1  -2 -30  140.69   10.00
   2   2 -31   42.30    4.00
   2  -2 -31   35.10    4.00
   3   2 -32    1.50    2.20
   3  -2 -32    5.10    2.30
   3   3  26    1.60    1.80
   3  -3  26    2.40    1.40
   2   3  27   25.80    3.20
   2  -3  27   30.00    3.00
   1   3  28   97.09    6.90
   1   3  28   91.69    6.00
   1  -3  28   98.79    6.50
   0   3 -29   15.80    2.10
   0   3  29   13.90    1.90
   0  -3  29   15.90    2.10
   0  -3  29   16.70    2.20
   0  -3 -29   14.90    2.00
   1   3 -30    1.10    1.40
   1   3 -30   -0.70    1.80
  -1  -3  30    2.30    1.20
   1  -3 -30    2.70    1.20
   1  -3 -30    0.60    1.80
   2   3 -31   15.00    2.80
   2  -3 -31   13.60    2.70
   2   4  27   34.10    4.20
   2  -4  27   31.20    3.30
   1   4  28   16.30    2.80
   1   4  28   13.20    1.80
   0   4 -29    6.50    1.90
   0   4  29    3.80    1.40
   0  -4  29    6.00    1.30
   0  -4 -29    7.60    1.80
   1   4 -30   63.99    5.50
  -1  -4  30   85.29    5.10
   1  -4 -30   57.79    6.00
   2   4 -31   52.39    5.20
   2  -4 -31   42.50    4.80
   1  -5  28    2.30    1.80
   0   5 -29    6.70    2.30
   4   0  26    4.00    1.50
   3   0  27   21.30    2.60
   2   0  28  318.37   19.40
   1   0  29  188.08   12.00
   0   0  30   91.19    6.30
   0   0 -30   87.09    7.20
   0   0  30   90.09    5.60
   0   0 -30   80.59    5.80
   1   0 -31  761.82   45.30
  -1   0  31  796.22   45.40
   2   0 -32   50.09    4.90
   3   0 -33    3.10    2.60
   4  -1  26   -0.10    1.30
   3   1  27    2.60    1.40
   3  -1  27    2.50    1.40
   2   1  28    3.80    1.60
   2  -1  28    5.80    1.60
   1   1  29    3.90    1.40
   1  -1  29    7.80    1.60
   0   1  30  221.18   12.00
   0   1  30  165.58   12.60
   0   1 -30  203.38   12.50
   0  -1 -30  178.08   13.70
   0  -1  30  208.68   12.00
   0  -1  30  197.48   12.60
   0  -1 -30  211.68   12.30
  -1   1  31    2.10    0.90
   1   1 -31   -1.40    1.50
   1   1 -31    2.80    1.20
   1  -1 -31    2.90    2.00
  -1  -1  31    1.30    0.90
   1  -1 -31    0.60    1.00
   2   1 -32   10.00    2.50
   2  -1 -32   12.50    2.70
   3   1 -33    4.10    2.60
   3  -1 -33   -0.80    2.10
   3   2  27   41.10    3.90
   3  -2  27   41.40    3.80
   2   2  28   33.40    3.30
   2  -2  28   31.10    3.20
   1   2  29   29.20    2.40
   1   2  29   40.60    3.50
   1  -2  29   37.00    3.10
   0   2  30  131.39    8.00
   0   2 -30  111.29    7.50
   0   2  30   97.89    7.00
   0  -2  30  119.29    7.60
   0  -2 -30  117.19    7.30
   0  -2  30  110.49    7.10
   1   2 -31  292.57   18.50
  -1   2  31  304.47   17.90
   1   2 -31  318.47   18.20
   1  -2 -31  283.17   17.80
  -1  -2  31  297.17   18.00
   1  -2 -31  320.57   18.90
   2   2 -32   76.29    6.10
   2  -2 -32   66.99    5.80
   3   2 -33    5.10    2.50
   3  -2 -33    4.60    2.60
   3   3  27    1.80    1.80
   3  -3  27    1.40    1.50
   2   3  28   44.20    4.10
   2  -3  28   43.40    3.70
   1   3  29   71.19    5.10
   1   3  29   48.70    3.80
   1  -3  29   60.49    4.50
   0   3  30   39.30    3.70
   0   3 -30   62.99    4.40
   0  -3  30   59.09    4.30
   0  -3 -30   57.69    4.00
   0  -3  30   47.80    3.70
   1   3 -31   12.60    2.10
   1  -3 -31   11.70    1.70
  -1  -3  31   11.00    1.60
   1  -3 -31   11.00    2.40
   2   3 -32   42.20    4.40
   2  -3 -32   41.40    4.40
   2   4  28   13.00    2.70
   2  -4  28   10.60    2.20
   1   4  29    0.40    1.70
   1   4  29   -1.10    1.00
   1  -4  29    0.00    1.30
   0   4  30   -0.10    1.20
   0   4 -30    1.50    1.70
   0  -4  30    2.20    1.10
   0  -4 -30   -0.40    1.50
   1   4 -31   19.70    2.70
   1  -4 -31    9.80    2.70
  -1  -4  31   21.00    2.30
   2   4 -32    0.70    2.50
   2  -4 -32    0.30    2.30
   1  -5  29   11.30    2.40
   0   5 -30   18.30    3.10
   3   0  28   -1.20    1.20
   2   0  29    0.90    1.20
   1   0  30    0.50    1.20
   0   0  31    1.50    0.80
   0   0  31    1.40    1.40
   0   0 -31    0.90    1.10
   1   0 -32    2.00    1.10
  -1   0  32    1.70    0.90
   2   0 -33    2.70    2.30
   3   0 -34    4.50    2.80
   3   1  28    6.10    1.70
   3  -1  28    5.80    1.70
   2   1  29    9.60    2.10
   2  -1  29   14.10    2.20
   1   1  30   80.29    5.10
   1   1  30   99.39    6.30
   0   1  31  253.27   17.30
   0   1  31  292.37   16.60
   0   1 -31  284.17   17.00
   0  -1 -31  299.07   16.90
   0  -1  31  259.67   17.20
   0  -1  31  285.47   16.60
   1   1 -32   40.10    4.20
  -1   1  32   48.30    3.30
   1   1 -32   58.79    3.70
   1  -1 -32   48.70    4.40
   1  -1 -32   42.10    3.30
  -1  -1  32   39.20    3.40
   2   1 -33  136.59   10.10
   2  -1 -33  159.58   10.20
   3   1 -34   81.79    6.60
   3  -1 -34   59.09    5.90
   3   2  28   20.80    2.70
   3  -2  28   14.40    2.30
   2   2  29   41.60    3.90
   2  -2  29   38.80    4.00
   1   2  30   -1.00    1.30
   1   2  30    0.60    0.70
   1  -2  30   -0.10    1.10
   0   2  31   73.29    4.80
   0   2  31   63.09    5.40
   0   2 -31   68.89    5.20
   0  -2 -31   63.69    4.90
   0  -2  31   70.19    4.70
   0  -2  31   80.79    5.30
  -1   2  32  131.49    7.40
   1   2 -32  128.99    7.70
   1   2 -32   98.69    7.90
  -1  -2  32  111.69    7.40
   1  -2 -32  110.59    7.20
   1  -2 -32  103.89    8.20
   2   2 -33   42.40    4.30
   2  -2 -33   29.40    4.00
   2   3  29    7.40    2.10
   2  -3  29    8.90    1.90
   1   3  30    2.00    1.60
   1   3  30    0.70    0.80
   1  -3  30    2.20    1.30
   0   3 -31   29.00    3.00
   0   3  31   20.60    2.40
   0  -3  31   22.30    2.40
   0  -3 -31   28.20    2.70
   0  -3  31   28.00    3.00
   1   3 -32   16.80    2.30
   1  -3 -32   14.80    1.90
   1  -3 -32   11.10    2.50
  -1  -3  32   14.50    1.90
   2   3 -33    8.40    2.60
   2  -3 -33   10.00    2.70
   2   4  29   23.70    3.60
   2  -4  29   19.00    2.70
   1   4  30    2.30    1.30
   1   4  30    5.50    2.20
   1  -4  30    3.30    1.60
   0   4 -31   17.60    2.70
   0   4  31   11.50    2.00
   0  -4 -31   16.40    2.30
   0  -4  31   15.50    2.00
   1   4 -32   68.59    5.70
   1  -4 -32   77.79    5.20
  -1  -4  32   82.19    5.40
   2   4 -33   20.00    3.50
   2  -4 -33   20.80    3.60
   3   0  29   66.39    5.20
   2   0  30    0.90    1.40
   1   0  31   10.30    1.90
   1   0  31    4.10    0.60
   0   0  32  148.19    9.10
   0   0 -32  152.38    9.50
   0   0  32  147.89    9.80
   1   0 -33   91.29    6.20
  -1   0  33  102.29    6.30
   2   0 -34   51.69    5.50
   3   0 -35    7.40    3.20
   3   1  29   11.50    2.30
   3  -1  29   12.30    2.20
   2   1  30   13.30    2.40
   2  -1  30   20.40    2.60
   1   1  31   10.00    1.00
   1   1  31   14.80    2.20
   1  -1  31   17.80    2.30
   0   1  32   24.90    1.90
   0   1  32   19.70    2.60
   0   1 -32   20.40    2.40
   0  -1  32   15.80    2.40
   0  -1 -32   20.30    2.40
   0  -1  32   19.40    1.90
   1   1 -33   24.20    2.40
   1   1 -33   22.60    3.20
  -1   1  33   22.70    2.10
   1  -1 -33   16.80    2.00
  -1  -1  33   20.70    2.10
   1  -1 -33   22.30    3.10
   2   1 -34    8.00    2.50
   2  -1 -34    5.30    2.40
   3   1 -35   24.30    3.90
   3  -1 -35   22.20    3.50
   3   2  29   39.90    3.90
   3  -2  29   38.60    3.70
   2   2  30    3.80    1.70
   2  -2  30    3.00    1.40
   1   2  31   44.10    3.30
   1   2  31   57.69    4.40
   1  -2  31   64.09    4.40
   0   2  32    2.70    1.00
   0   2  32    0.70    1.40
   0   2 -32    1.30    1.40
   0  -2  32    1.30    1.20
   0  -2  32    1.00    0.90
   0  -2 -32   -0.20    1.30
   1   2 -33   79.49    6.20
   1   2 -33   90.99    5.70
  -1   2  33   90.79    5.50
   1  -2 -33   64.49    6.30
   1  -2 -33   82.49    5.40
  -1  -2  33   73.49    5.40
   2   2 -34   53.19    5.10
   2  -2 -34   45.70    5.00
   2   3  30   53.89    5.20
   2  -3  30   50.69    4.30
   1   3  31  127.39    8.70
   1  -3  31  116.39    8.10
   0   3  32   33.90    3.20
   0   3 -32   43.80    3.80
   0  -3  32   33.50    3.00
   0  -3  32   50.49    3.80
   0  -3 -32   41.50    3.40
   1   3 -33    1.60    1.50
  -1  -3  33    2.30    1.20
   1  -3 -33    3.30    1.30
   1  -3 -33    1.60    2.20
   2   3 -34   60.79    5.50
   2  -3 -34   56.59    5.60
   2   4  30    8.90    2.50
   2  -4  30    8.60    2.00
   1   4  31   -1.60    1.00
   1   4  31    0.20    1.90
   1  -4  31    1.40    1.50
   0   4 -32    1.40    1.80
   0   4  32   -1.40    1.10
   0  -4 -32    0.80    1.60
   0  -4  32    0.70    1.10
   1  -4 -33    8.80    1.60
  -1  -4  33    6.00    1.60
   2   4 -34    0.30    2.40
   2  -4 -34   -1.70    2.80
   3   0  30   -0.50    1.30
   2   0  31    0.40    1.30
   1   0  32    1.80    1.30
   0   0 -33    4.20    1.50
   0   0  33    2.40    0.90
   0   0  33    4.60    1.60
   1   0 -34    2.20    2.00
  -1   0  34   -0.30    0.90
   1   0 -34    1.70    1.10
   2   0 -35    1.50    2.40
   3   0 -36    2.80    2.90
   3   1  30    0.80    1.50
   3  -1  30    2.40    1.50
   2   1  31  197.28   14.30
   2  -1  31  259.97   14.50
   1   1  32  212.78   14.40
   1  -1  32  245.98   14.50
   0   1  33   16.80    2.60
   0   1 -33   22.80    2.70
   0   1  33   21.30    1.90
   0  -1  33   16.30    2.40
   0  -1 -33   21.90    2.40
   0  -1  33   19.90    1.90
  -1   1  34   21.70    2.10
   1   1 -34   22.60    2.30
   1   1 -34   19.20    2.90
  -1  -1  34   19.30    2.10
   1  -1 -34   26.50    3.50
   1  -1 -34   15.50    2.00
   2   1 -35  102.49    7.70
   2  -1 -35   95.29    7.60
   3   1 -36    6.50    3.10
   3  -1 -36    8.70    3.90
   3   2  30    8.40    2.10
   3  -2  30    6.40    1.80
   2   2  31   44.10    4.00
   2  -2  31   36.20    3.90
   1   2  32   19.30    2.60
   1   2  32   10.00    1.20
   1  -2  32   18.90    2.30
   0   2 -33   43.40    3.90
   0   2  33   48.20    3.40
   0  -2  33   46.90    3.40
   0  -2  33   43.70    3.90
   0  -2 -33   43.40    3.70
   1   2 -34   66.49    4.50
  -1   2  34   64.19    4.20
   1   2 -34   52.59    5.00
   1  -2 -34   43.20    5.00
   1  -2 -34   56.99    4.10
  -1  -2  34   54.59    4.10
   2   2 -35   16.60    3.20
   2  -2 -35   11.30    2.90
   2   3  31   43.90    4.60
   2  -3  31   44.60    3.90
   1   3  32   13.20    2.50
   1  -3  32    9.10    2.00
   0   3  33    5.30    1.40
   0   3 -33    4.70    1.90
   0  -3  33    3.80    1.20
   0  -3 -33    3.70    1.60
   1   3 -34   18.50    2.40
   1  -3 -34   14.80    2.90
   1  -3 -34   15.80    2.00
  -1  -3  34   14.20    2.00
   2   3 -35   13.20    3.10
   2  -3 -35   13.90    3.00
   2   4  31    3.50    2.10
   2  -4  31   -2.10    1.70
   1   4  32    2.20    2.10
   1   4  32   -0.80    0.90
   1  -4  32    4.00    1.80
   0   4 -33   46.70    4.20
   0   4  33   30.30    3.30
   0  -4  33   40.00    3.20
  -1  -4  34   47.90    4.00
   1  -5  32   -0.80    1.80
   3   0  31   61.69    5.10
   2   0  32   98.99    7.10
   0   0  34  972.20   53.29
   0   0 -34  888.61   52.69
   0   0  34  859.31   52.29
   1   0 -35   69.79    4.80
   1   0 -35   86.19    6.20
  -1   0  35   62.89    4.70
   2   0 -36   38.90    4.80
   3   1  31    1.90    1.70
   3  -1  31    7.80    2.00
   2   1  32    8.80    2.20
   2  -1  32   13.10    2.20
   1   1  33   85.09    6.10
   1  -1  33   73.49    5.70
   0   1  34    6.30    1.10
   0   1  34    5.50    1.80
   0   1 -34    3.20    1.50
   0  -1  34    5.60    1.10
   0  -1 -34    4.10    1.60
   0  -1  34    2.60    1.50
   1   1 -35   27.60    2.40
   1   1 -35   21.10    3.10
  -1   1  35   21.00    2.10
  -1  -1  35   15.50    2.00
   1  -1 -35   12.00    1.90
   1  -1 -35   19.80    2.90
   2   1 -36    6.50    2.60
   2  -1 -36    6.00    2.50
   3   2  31   24.60    3.30
   3  -2  31   27.30    3.40
   2   2  32   29.90    3.50
   2  -2  32   30.00    3.30
   1   2  33   26.30    3.30
   1  -2  33   27.50    3.10
   0   2 -34  132.99    9.30
   0   2  34  155.78    8.90
   0  -2 -34  136.39    9.10
   0  -2  34  148.49    8.80
   0  -2  34  134.39    9.50
  -1   2  35  105.79    6.70
   1   2 -35  118.39    7.00
   1  -2 -35   94.99    6.60
   1  -2 -35  104.09    7.80
  -1  -2  35   95.19    6.70
   2   2 -36    3.40    2.50
   2  -2 -36    4.00    2.50
   2   3  32   62.09    5.40
   2  -3  32   65.59    5.10
   1   3  33   24.50    3.40
   1  -3  33   24.80    2.90
   0   3 -34    8.50    2.10
   0   3  34    5.90    1.40
   0  -3 -34    7.40    1.70
   0  -3  34    5.20    1.30
  -1   3  35   20.90    2.30
   1   3 -35   26.70    2.80
  -1  -3  35   20.90    2.50
   1  -3 -35   20.10    2.40
   1  -3 -35   20.30    3.40
   2   3 -36   16.30    3.10
   2  -3 -36   20.60    3.40
   2   4  32   -1.90    2.10
   1   4  33   -1.60    1.00
   1   4  33   -0.50    1.90
   1  -4  33    0.20    1.40
   0   4  34   16.70    2.70
   0   4 -34   32.70    3.60
   0  -4 -34   27.80    3.10
   3   0  32    0.20    1.50
   2   0  33    1.40    1.40
   1   0  34    1.60    0.50
   1   0  34    2.60    1.50
   0   0  35   21.00    2.00
   1   0 -36    0.60    1.20
  -1   0  36   -0.10    0.90
   1   0 -36    4.60    2.40
   2   0 -37    1.00    2.60
   3   1  32    1.30    1.60
   3  -1  32    2.00    1.60
   2   1  33   40.60    4.20
   2  -1  33   47.80    4.10
   1   1  34  162.58   12.40
   1  -1  34  231.48   12.80
   0   1  35    7.70    2.00
   0   1 -35   10.20    1.80
   0   1  35    8.10    1.20
   0  -1  35    7.10    2.00
   0  -1  35    7.80    1.30
   0  -1 -35    7.60    1.80
   1   1 -36   69.89    4.40
   1   1 -36   62.29    5.40
  -1   1  36   65.29    4.30
  -1  -1  36   43.00    4.10
   1  -1 -36   62.69    5.40
   2   1 -37  162.08   11.60
   2  -1 -37  158.48   11.20
   3  -2  32   12.20    2.50
   2   2  33   10.90    2.40
   2  -2  33    7.80    1.90
   1   2  34   61.99    5.30
   1  -2  34   61.19    4.90
   0   2 -35   77.49    5.90
   0   2  35   88.69    5.30
   0  -2  35   75.29    5.80
   0  -2 -35   63.59    5.40
   0  -2  35   78.09    5.10
   1   2 -36   32.00    3.00
  -1   2  36   29.10    2.50
   1  -2 -36   27.90    3.70
   1  -2 -36   23.20    2.50
  -1  -2  36   23.00    2.50
   2   2 -37    1.20    2.40
   2  -2 -37    0.20    2.30
   2   3  33   -0.20    1.90
   2  -3  33    1.70    1.40
   1   3  34   40.40    4.30
   1  -3  34   33.60    3.70
   0   3  35    7.00    1.50
   0   3 -35    6.60    2.20
   0  -3 -35    4.60    1.70
   0  -3  35    6.30    1.40
   1   3 -36    7.40    2.00
  -1   3  36    6.10    1.40
  -1  -3  36    5.80    1.50
   1  -3 -36    6.20    1.60
   2   3 -37   29.30    4.30
   2  -3 -37   35.20    4.30
   1   4  34    8.60    1.60
   1  -4  34   23.60    2.80
   0   4 -35   62.29    5.40
   0  -4 -35   63.89    5.40
   3   0  33    0.60    1.60
   2   0  34    2.00    1.60
   1   0  35   38.70    3.80
   0   0 -36  274.67   16.40
   0   0  36  281.17   16.90
   0   0  36  254.37   15.90
  -1   0  37   30.10    2.70
   1   0 -37   33.60    3.00
   1   0 -37   42.90    4.50
   2   0 -38   29.50    4.30
   3   1  33   -0.10    1.70
   3  -1  33    1.30    1.60
   2   1  34   23.10    3.20
   2  -1  34   30.10    3.50
   1   1  35   37.40    3.90
   1  -1  35   45.30    3.90
   0   1 -36    7.50    1.80
   0   1  36    9.40    1.30
   0   1  36    5.80    2.10
   0  -1  36    6.10    1.90
   0  -1  36   10.00    1.40
   0  -1 -36    9.80    1.90
   1   1 -37    2.10    1.40
  -1   1  37    1.40    1.10
   1   1 -37    0.60    1.90
   1  -1 -37   -0.20    1.20
   1  -1 -37    0.90    2.10
  -1  -1  37    0.40    1.00
   2   1 -38   30.90    4.30
   2  -1 -38   24.10    3.80
   2   2  34   38.20    3.90
   2  -2  34   28.90    3.40
   1   2  35   -0.30    0.60
   1   2  35    0.60    1.70
   1  -2  35    0.80    1.40
   0   2  36   92.69    5.70
   0   2 -36   83.89    6.30
   0  -2 -36   68.49    5.80
   0  -2  36   93.59    6.60
   0  -2  36   85.49    5.50
   1   2 -37   17.60    2.30
  -1   2  37   17.40    2.10
  -1  -2  37   15.70    2.10
   1  -2 -37   15.30    3.30
   1  -2 -37   12.20    1.90
   2   2 -38    3.00    2.50
   2  -2 -38    2.30    2.60
   2   3  34   29.30    3.90
   2  -3  34   28.10    3.40
   1   3  35   41.00    4.40
   1  -3  35   35.10    3.60
   0   3 -36   -1.80    1.60
   0   3  36    2.30    1.20
   0  -3 -36   -0.40    1.50
   0  -3  36    2.10    1.20
  -1   3  37   83.09    6.10
   1   3 -37   95.79    6.40
   1  -3 -37   87.79    6.10
  -1  -3  37   96.89    6.40
   2   3 -38   54.79    6.00
   1  -4  35   -0.80    1.50
   0   4 -36    3.70    2.10
  -1   4  37    2.00    1.70
   3   0  34   -0.40    1.60
   2   0  35    2.20    1.60
   1   0  36    2.20    1.60
   0   0  37    4.40    1.70
   0   0 -37    5.90    1.80
   0   0  37    5.30    1.10
   1   0 -38    2.10    2.50
  -1   0  38   -0.20    0.90
   1   0 -38    1.50    1.40
   2   0 -39    4.40    2.80
   3   1  34   58.29    5.20
   3  -1  34   69.19    5.60
   2   1  35   48.40    4.60
   1   1  36    1.80    1.60
   1   1  36    3.40    0.70
   1  -1  36    2.80    1.70
   0   1 -37   29.10    3.10
   0   1  37   31.20    2.60
   0  -1 -37   31.90    3.30
   0  -1  37   29.50    3.50
   0  -1  37   32.20    2.60
  -1   1  38  140.39    8.10
   1   1 -38  138.89    8.10
   1  -1 -38  137.29    9.20
  -1  -1  38   93.29    7.80
   2   1 -39   23.40    3.80
   2  -1 -39   18.70    3.50
   2   2  35   -0.10    1.70
   2  -2  35    1.10    1.40
   1   2  36   23.80    3.10
   1   2  36   15.20    1.50
   1  -2  36   24.30    3.00
   0   2  37   68.19    4.50
   0   2 -37   64.19    5.00
   0  -2 -37   55.19    4.70
   0  -2  37   62.09    4.30
   1   2 -38   37.90    3.40
  -1   2  38   31.80    2.80
   1  -2 -38   25.90    2.80
   1  -2 -38   30.60    5.00
  -1  -2  38   28.80    3.10
   2   2 -39   -2.20    2.20
   2  -2 -39    2.10    2.50
   2   3  35    9.50    2.60
   2  -3  35    7.20    2.10
   1   3  36    1.90    0.80
   1   3  36    2.70    2.10
   1  -3  36    0.20    1.50
   0   3  37   12.10    1.80
   0   3 -37   10.90    2.40
   0  -3 -37    9.20    2.00
   0  -3  37   12.50    1.80
  -1   3  38   15.40    2.00
   1  -3 -38   12.40    2.10
  -1  -3  38   14.40    2.10
   2   3 -39    2.00    2.60
   2  -3 -39    1.30    2.60
   1  -4  36   34.50    3.90
   0   4 -37   38.30    4.40
   3   0  35   29.30    4.00
   2   0  36   56.09    5.00
   1   0  37  204.48   13.20
   0   0 -38  165.88   10.20
   0   0  38  149.09    9.50
  -1   0  39    6.40    1.40
   1   0 -39   10.30    4.10
   1   0 -39    5.30    1.60
   2   0 -40   83.19    7.30
   2   1  36    8.80    2.40
   2  -1  36   12.70    2.40
   1   1  37    2.10    0.60
   1   1  37    1.40    1.60
   1  -1  37   -0.70    1.40
   0   1 -38    3.10    1.80
   0   1  38    4.30    1.10
   0  -1  38    3.60    2.40
   0  -1 -38    6.00    1.90
   0  -1  38    4.20    1.20
   1   1 -39   14.30    2.10
  -1   1  39   18.60    2.10
   1  -1 -39    9.10    1.80
  -1  -1  39   10.30    1.80
   1  -1 -39   15.40    3.10
   2   1 -40    6.70    2.90
   2  -1 -40    7.40    2.80
   2   2  36   26.40    3.50
   2  -2  36   21.10    2.90
   1   2  37   45.80    4.40
   1   2  37   34.50    2.80
   1  -2  37   40.70    4.00
   0   2  38  197.28   11.60
   0   2 -38  172.68   12.10
   0  -2 -38  187.28   11.80
   0  -2  38  192.28   11.50
   1   2 -39    1.10    1.60
  -1   2  39    0.90    1.10
   1  -2 -39   -1.70    1.20
  -1  -2  39   -1.10    1.10
   2   2 -40   37.60    4.60
   2   3  36    4.50    2.30
   2  -3  36    3.40    1.70
   1   3  37   20.00    3.40
   1   3  37   13.50    1.50
   1  -3  37   17.30    2.70
   0   3  38   14.00    2.00
   0   3 -38    9.60    2.40
   0  -3 -38    3.60    1.80
   0  -3  38   11.10    1.60
  -1   3  39   31.50    3.10
  -1  -3  39   33.00    3.50
   1  -4  37   10.80    2.30
   2   0  37    0.60    1.80
   1   0  38    4.60    1.90
   0   0 -39    5.10    1.80
   0   0  39    4.70    1.20
  -1   0  40   -1.20    1.00
   1   0 -40    2.10    1.40
   2   0 -41    3.50    2.90
   2   1  37   60.29    5.70
   2  -1  37   77.19    5.80
   1   1  38    4.00    1.80
   1   1  38    3.60    0.80
   1  -1  38    3.00    2.00
   0   1 -39    6.20    1.90
   0   1  39    8.50    1.30
   0  -1  39   11.40    1.60
   0  -1 -39    8.70    2.00
   1   1 -40  216.68   11.70
  -1   1  40  203.68   11.40
  -1  -1  40  158.98   11.30
   1  -1 -40  163.98   11.30
   2  -1 -41   91.99    7.70
   2   2  37   20.10    3.20
   2  -2  37   21.80    3.00
   1   2  38   24.50    3.40
   1   2  38   26.10    2.10
   1  -2  38   25.80    3.30
   0   2  39   42.50    3.20
   0   2 -39   39.20    3.80
   0  -2 -39   40.40    3.70
   0  -2  39   36.70    3.10
  -1   2  40    2.00    1.30
   1   2 -40   -0.20    1.60
   1  -2 -40    0.30    1.30
  -1  -2  40   -0.30    1.20
   2   2 -41   11.40    3.20
   2  -2 -41    5.60    3.00
   2   3  37   14.70    3.10
   1   3  38    2.40    2.00
   1   3  38    3.80    1.00
   1  -3  38    2.70    1.60
   0   3  39    6.60    1.60
   0   3 -39    4.20    2.20
   0  -3  39    3.30    1.30
   0  -3 -39    0.20    1.70
  -1   3  40   54.19    4.20
   1  -4  38   33.20    4.20
   2   0  38   80.39    6.50
   1   0  39   79.09    6.50
   0   0 -40   83.09    5.80
   0   0  40   71.69    5.00
  -1   0  41   13.10    1.80
   1   0 -41   15.80    2.20
   2   0 -42   24.40    4.10
   2   1  38   13.20    2.80
   2  -1  38   19.80    3.10
   1   1  39   10.20    2.40
   1   1  39    6.70    1.00
   1  -1  39   10.40    2.20
   0   1 -40    7.60    2.00
   0   1  40    9.00    1.40
   0  -1 -40    9.30    2.10
   0  -1  40    9.80    1.50
   1   1 -41   24.30    2.70
  -1   1  41   27.10    2.50
  -1  -1  41   20.10    2.40
   1  -1 -41   19.60    2.40
   2   1 -42   20.20    3.80
   2  -1 -42   11.30    3.20
   2   2  38    0.90    1.80
   2  -2  38    2.90    1.70
   1   2  39   26.60    2.00
   1   2  39   20.50    3.30
   1  -2  39   22.40    3.20
   0   2  40   15.70    1.90
   0   2 -40    8.30    2.30
   0  -2  40   10.70    1.60
   0  -2 -40    8.40    2.20
  -1   2  41    8.40    1.60
   1   2 -41    6.30    2.00
   1  -2 -41    3.30    1.50
  -1  -2  41    6.20    1.60
   2   2 -42    4.30    3.00
   2  -2 -42    6.90    3.20
   1   3  39    3.10    1.00
   1   3  39   -0.10    2.20
   1  -3  39    0.80    1.60
   0   3 -40   24.10    3.20
   0  -3 -40   15.50    2.50
  -1   3  41   77.29    5.40
   1  -4  39   -2.20    2.00
   2   0  39    1.40    1.80
   1   0  40    4.00    2.00
   0   0 -41    0.80    1.70
   0   0  41    1.70    1.10
  -1   0  42   -0.20    1.10
   1   0 -42    0.90    1.50
   2   0 -43    3.40    3.20
   2   1  39   15.80    2.90
   2  -1  39   17.20    3.00
   1   1  40   28.20    2.20
   1   1  40   36.10    3.90
   1  -1  40   41.40    4.50
   0   1 -41   60.59    5.30
   0   1  41   75.29    4.80
   0  -1  41   75.19    4.80
   0  -1 -41   69.29    5.40
   1   1 -42   44.20    3.70
  -1   1  42   44.00    3.40
  -1  -1  42   39.00    3.40
   1  -1 -42   42.70    3.50
   2   1 -43    2.90    2.80
   2  -1 -43    5.90    3.00
   2   2  39   11.60    2.80
   2  -2  39   18.40    3.00
   1   2  40   26.20    2.00
   1   2  40   24.30    3.60
   1  -2  40   14.10    2.80
   0   2  41   26.50    2.50
   0   2 -41   20.60    2.90
   0  -2  41   22.50    2.30
   0  -2 -41   19.90    2.80
  -1   2  42    1.50    1.30
  -1  -2  42    1.00    1.30
   2   2 -43   22.70    4.50
   2  -2 -43   31.50    4.70
   1   3  40   20.90    1.90
   1   3  40   18.60    3.40
   1  -3  40   14.10    2.80
   0   3 -41    8.90    2.70
   2   0  40   71.39    6.20
   1   0  41  158.58   11.00
   0   0  42   13.10    1.60
   0   0 -42   10.40    2.30
   1   0 -43   31.30    3.00
  -1   0  43   25.60    2.70
   2   1  40    0.20    1.90
   2  -1  40    2.40    1.90
   1   1  41    1.70    0.80
   1   1  41    1.10    1.80
   1  -1  41    0.80    1.70
   0   1  42    8.20    1.30
   0   1 -42    7.50    2.10
   0  -1  42    6.10    1.30
   0  -1 -42    6.50    2.00
  -1   1  43   14.30    1.90
   1   1 -43   13.80    2.30
   1  -1 -43   12.40    2.00
  -1  -1  43   12.40    1.90
   2   1 -44    2.00    3.00
   2  -1 -44    4.40    2.90
   2   2  40   11.60    2.80
   2  -2  40   13.50    2.90
   1   2  41   75.69    4.70
   1   2  41   61.79    6.00
   0   2  42    4.30    1.50
   0   2 -42    3.70    2.00
   0  -2  42    4.10    1.30
   0  -2 -42    4.20    1.90
  -1   2  43   50.39    3.70
  -1  -2  43   42.40    3.90
   1  -3  41    0.90    1.90
   0   3 -42   34.10    4.30
   2   0  41    1.90    2.00
   1   0  42    2.40    2.00
   0   0  43   -0.30    1.00
   0   0 -43    0.30    1.70
  -1   0  44    1.80    1.20
   2   0 -45    3.70    3.40
   2   1  41   12.10    3.00
   2  -1  41   15.30    2.90
   1   1  42    6.10    2.30
   1  -1  42    8.70    2.50
   0   1 -43  113.49    7.80
   0   1  43  117.49    7.30
   0  -1 -43  110.39    7.80
   0  -1  43  113.29    7.20
  -1   1  44  141.09    8.90
  -1  -1  44  140.79    9.00
   2   1 -45    5.70    3.40
   2  -1 -45   -0.80    2.70
   1   2  42   30.30    2.20
   1   2  42   25.30    3.90
   1  -2  42   27.70    3.60
   0   2 -43    1.70    2.00
   0  -2 -43    2.70    1.90
  -1   2  44    7.90    1.70
   1  -3  42    0.70    1.80
   2   0  42   14.00    3.00
   1   0  43   38.30    4.70
   0   0  44   10.50    1.50
   0   0 -44    8.60    2.40
  -1   0  45   16.90    2.30
   2   0 -46   91.09    8.70
   2   1  42    1.60    2.20
   2  -1  42   -0.20    1.80
   1   1  43    4.60    2.50
   1  -1  43    4.10    2.20
   0   1 -44    8.60    2.20
   0   1  44   11.80    1.60
   0  -1 -44   11.60    2.60
   0  -1  44    9.00    1.50
  -1   1  45   10.90    1.70
  -1  -1  45    8.80    1.70
   1   2  43   18.60    3.40
   1  -2  43   30.30    3.70
   0   2 -44    1.10    2.10
   0  -2 -44    1.50    1.90
   1  -3  43    2.70    2.20
   2   0  43   -0.90    2.30
   1   0  44    2.10    2.10
   0   0 -45    1.90    1.90
  -1   0  46   -0.10    1.30
   1   1  44   51.49    5.20
   1  -1  44   52.79    5.30
   0   1 -45   38.10    3.90
   0  -1 -45   40.50    4.00
  -1   1  46    4.80    2.00
   1   2  44   11.00    2.90
   1  -2  44   19.10    3.40
   0   2 -45    0.90    2.00
   1   0  45   20.50    3.50
   0   0 -46   52.19    4.80
   1   1  45    5.30    2.40
   1  -1  45    2.70    2.20
   0   1 -46   18.20    2.80
   0  -1 -46   21.30    3.00
   1   2  45    6.80    2.50
   1  -2  45    5.30    2.50
   1   0  46    4.20    2.30
   0   0 -47    2.00    2.00
   1   1  46   54.79    5.90
   1  -1  46   48.10    5.40
   1  -2  46    3.80    2.30
   1   0  47   19.40    3.50
   1   1  47   13.60    3.30
   1  -1  47   10.60    3.00
   1   0  48   -1.80    2.10
   1   1  48   20.80    4.10
   1  -1  48   15.20    3.30
   1   0  49   24.50    4.10
;
_shelx_hkl_checksum              49524
loop_
_space_group_symop_operation_xyz
'x, y, z'
'-x+1/2, y+1/2, -z+1/2'
'-x, -y, -z'
'x-1/2, -y-1/2, z-1/2'
loop_
_atom_site_label
_atom_site_type_symbol
_atom_site_fract_x
_atom_site_fract_y
_atom_site_fract_z
_atom_site_U_iso_or_equiv
_atom_site_adp_type
_atom_site_occupancy
_atom_site_site_symmetry_order
_atom_site_calc_flag
_atom_site_refinement_flags_posn
Br1 Br 0.34865(13) 0.05920(9) 0.72176(2) 0.0516(2) Uani 1 1 d .
C1 C 0.7540(11) 0.5081(7) 0.63902(11) 0.0364(10) Uani 1 1 d .
C2 C 0.7911(12) 0.5896(7) 0.66954(11) 0.0451(11) Uani 1 1 d .
H2 H 0.8969 0.7323 0.6736 0.054 Uiso 1 1 calc R
C3 C 0.6686(13) 0.4563(7) 0.69436(12) 0.0472(12) Uani 1 1 d .
H3 H 0.6920 0.5076 0.7154 0.057 Uiso 1 1 calc R
C4 C 0.5116(10) 0.2466(7) 0.68748(10) 0.0381(10) Uani 1 1 d .
C5 C 0.4639(11) 0.1614(7) 0.65637(10) 0.0386(10) Uani 1 1 d .
H5 H 0.3528 0.0209 0.6523 0.046 Uiso 1 1 calc R
C6 C 0.5901(10) 0.2966(7) 0.63221(9) 0.0342(9) Uani 1 1 d .
C7 C 0.5879(11) 0.2556(7) 0.59761(10) 0.0401(10) Uani 1 1 d .
H7 H 0.4911 0.1268 0.5874 0.048 Uiso 1 1 calc R
C8 C 0.7479(11) 0.4331(7) 0.58276(10) 0.0406(10) Uani 1 1 d .
C9 C 0.8677(11) 0.6063(7) 0.60806(11) 0.0407(10) Uani 1 1 d .
C10 C 0.6795(15) 0.2171(9) 0.52533(12) 0.0649(15) Uani 1 1 d .
H10A H 0.8038 0.0849 0.5333 0.097 Uiso 1 1 calc GR
H10B H 0.6994 0.2257 0.5026 0.097 Uiso 1 1 calc GR
H10C H 0.4514 0.1983 0.5306 0.097 Uiso 1 1 calc GR
O1 O 1.0250(9) 0.7836(5) 0.60330(8) 0.0600(9) Uani 1 1 d .
S1 S 0.8369(4) 0.4838(2) 0.54311(3) 0.0547(4) Uani 1 1 d .
loop_
_atom_site_aniso_label
_atom_site_aniso_U_11
_atom_site_aniso_U_22
_atom_site_aniso_U_33
_atom_site_aniso_U_23
_atom_site_aniso_U_13
_atom_site_aniso_U_12
Br1 0.0576(4) 0.0581(4) 0.0393(3) 0.00498(19) 0.0076(2) 0.0025(2)
C1 0.033(2) 0.0286(19) 0.048(3) -0.0003(18) -0.0003(19) 0.0023(17)
C2 0.044(3) 0.034(2) 0.057(3) -0.006(2) -0.012(2) -0.0025(19)
C3 0.050(3) 0.041(3) 0.050(3) -0.009(2) -0.002(2) 0.004(2)
C4 0.035(2) 0.041(2) 0.038(2) 0.0053(18) -0.0010(19) 0.0053(18)
C5 0.041(2) 0.032(2) 0.043(2) -0.0020(18) -0.0022(19) -0.0018(19)
C6 0.032(2) 0.031(2) 0.040(2) -0.0022(17) -0.0014(18) -0.0001(17)
C7 0.043(3) 0.032(2) 0.046(2) -0.0040(18) -0.001(2) -0.0055(19)
C8 0.038(3) 0.040(2) 0.044(3) 0.0081(19) 0.002(2) 0.0029(19)
C9 0.037(2) 0.028(2) 0.057(3) 0.0055(19) -0.003(2) 0.0033(19)
C10 0.074(4) 0.069(3) 0.052(3) -0.003(3) 0.009(3) -0.004(3)
O1 0.067(2) 0.0383(17) 0.075(2) 0.0044(16) 0.0077(19) -0.0161(17)
S1 0.0617(8) 0.0563(7) 0.0464(7) 0.0102(5) 0.0106(6) -0.0065(6)
loop_
_atom_type_symbol
_atom_type_description
_atom_type_scat_dispersion_real
_atom_type_scat_dispersion_imag
_atom_type_scat_source
C C 0.0033 0.0016 'International Tables Vol C Tables 4.2.6.8 and 6.1.1.4'
H H 0.0000 0.0000 'International Tables Vol C Tables 4.2.6.8 and 6.1.1.4'
O O 0.0106 0.0060 'International Tables Vol C Tables 4.2.6.8 and 6.1.1.4'
S S 0.1246 0.1234 'International Tables Vol C Tables 4.2.6.8 and 6.1.1.4'
Br Br -0.2901 2.4595 'International Tables Vol C Tables 4.2.6.8 and 6.1.1.4'
loop_
_geom_angle_atom_site_label_1
_geom_angle_atom_site_label_2
_geom_angle_atom_site_label_3
_geom_angle
C2 C1 C6 121.7(4)
C2 C1 C9 131.1(4)
C6 C1 C9 107.2(4)
C1 C2 C3 118.9(4)
C4 C3 C2 119.0(4)
C3 C4 Br1 119.1(3)
C3 C4 C5 123.3(4)
C5 C4 Br1 117.6(3)
C6 C5 C4 116.5(4)
C1 C6 C7 109.4(4)
C5 C6 C1 120.6(4)
C5 C6 C7 130.0(4)
C8 C7 C6 109.9(4)
C7 C8 C9 108.1(4)
C7 C8 S1 132.4(4)
C9 C8 S1 119.5(3)
C1 C9 C8 105.4(4)
O1 C9 C1 128.7(4)
O1 C9 C8 125.9(4)
C8 S1 C10 100.3(2)
loop_
_geom_bond_atom_site_label_1
_geom_bond_atom_site_label_2
_geom_bond_distance
Br1 C4 1.914(4)
C1 C2 1.366(6)
C1 C6 1.399(6)
C1 C9 1.492(6)
C2 C3 1.385(7)
C3 C4 1.378(6)
C4 C5 1.400(6)
C5 C6 1.376(6)
C6 C7 1.468(6)
C7 C8 1.355(6)
C8 C9 1.519(6)
C8 S1 1.730(4)
C9 O1 1.209(5)
C10 S1 1.799(5)
loop_
_geom_torsion_atom_site_label_1
_geom_torsion_atom_site_label_2
_geom_torsion_atom_site_label_3
_geom_torsion_atom_site_label_4
_geom_torsion
Br1 C4 C5 C6 -178.5(3)
C1 C2 C3 C4 -0.4(7)
C1 C6 C7 C8 0.6(5)
C2 C1 C6 C5 -0.9(7)
C2 C1 C6 C7 179.8(4)
C2 C1 C9 C8 -179.9(5)
C2 C1 C9 O1 0.8(8)
C2 C3 C4 Br1 178.9(3)
C2 C3 C4 C5 -1.0(7)
C3 C4 C5 C6 1.4(7)
C4 C5 C6 C1 -0.5(6)
C4 C5 C6 C7 178.7(4)
C5 C6 C7 C8 -178.6(4)
C6 C1 C2 C3 1.3(7)
C6 C1 C9 C8 1.0(5)
C6 C1 C9 O1 -178.3(5)
C6 C7 C8 C9 0.0(5)
C6 C7 C8 S1 178.3(3)
C7 C8 C9 C1 -0.6(5)
C7 C8 C9 O1 178.7(4)
C7 C8 S1 C10 -3.8(5)
C9 C1 C2 C3 -177.7(4)
C9 C1 C6 C5 178.3(4)
C9 C1 C6 C7 -1.0(5)
C9 C8 S1 C10 174.3(4)
S1 C8 C9 C1 -179.2(3)
S1 C8 C9 O1 0.1(7)
