#------------------------------------------------------------------------------
#$Date: 2016-03-04 05:59:37 +0200 (Fri, 04 Mar 2016) $
#$Revision: 177240 $
#$URL: svn://www.crystallography.net/cod/cif/4/03/19/4031903.cif $
#------------------------------------------------------------------------------
#
# This file is available in the Crystallography Open Database (COD),
# http://www.crystallography.net/
#
# All data on this site have been placed in the public domain by the
# contributors.
#
data_4031903
loop_
_publ_author_name
'Bentley, Keith W.'
'Joyce, Leo A.'
'Sherer, Edward C.'
'Sheng, Huaming'
'Wolf, Christian'
'Welch, Christopher J.'
_publ_section_title
;
 Antenna Biphenols: Development of Extended Wavelength Chiroptical
 Reporters.
;
_journal_issue                   3
_journal_name_full               'The Journal of organic chemistry'
_journal_page_first              1185
_journal_page_last               1191
_journal_paper_doi               10.1021/acs.joc.5b02716
_journal_volume                  81
_journal_year                    2016
_chemical_formula_sum            'C16 H14 Br4 O4'
_chemical_formula_weight         589.91
_space_group_crystal_system      triclinic
_space_group_IT_number           2
_space_group_name_Hall           '-P 1'
_space_group_name_H-M_alt        'P -1'
_symmetry_space_group_name_Hall  '-P 1'
_symmetry_space_group_name_H-M   'P -1'
_atom_sites_solution_hydrogens   geom
_audit_creation_method           SHELXL-2014/7
_cell_angle_alpha                67.4250(10)
_cell_angle_beta                 86.1630(10)
_cell_angle_gamma                69.1440(10)
_cell_formula_units_Z            2
_cell_length_a                   8.5230(2)
_cell_length_b                   10.0979(3)
_cell_length_c                   12.3744(3)
_cell_measurement_temperature    296(2)
_cell_volume                     915.95(4)
_computing_structure_refinement  'SHELXL-2014/7 (Sheldrick, 2014)'
_diffrn_ambient_temperature      296(2)
_diffrn_measured_fraction_theta_full 0.990
_diffrn_measured_fraction_theta_max 0.990
_diffrn_radiation_type           MoK\a
_diffrn_radiation_wavelength     0.71073
_diffrn_reflns_av_R_equivalents  0.0189
_diffrn_reflns_av_unetI/netI     0.0231
_diffrn_reflns_laue_measured_fraction_full 0.990
_diffrn_reflns_laue_measured_fraction_max 0.990
_diffrn_reflns_limit_h_max       11
_diffrn_reflns_limit_h_min       -11
_diffrn_reflns_limit_k_max       13
_diffrn_reflns_limit_k_min       -13
_diffrn_reflns_limit_l_max       16
_diffrn_reflns_limit_l_min       -16
_diffrn_reflns_number            11000
_diffrn_reflns_point_group_measured_fraction_full 0.990
_diffrn_reflns_point_group_measured_fraction_max 0.990
_diffrn_reflns_theta_full        28.373
_diffrn_reflns_theta_max         28.373
_diffrn_reflns_theta_min         1.788
_exptl_absorpt_coefficient_mu    8.805
_exptl_crystal_density_diffrn    2.139
_exptl_crystal_F_000             564
_refine_diff_density_max         0.916
_refine_diff_density_min         -0.718
_refine_diff_density_rms         0.076
_refine_ls_extinction_method     none
_refine_ls_goodness_of_fit_ref   1.015
_refine_ls_hydrogen_treatment    constr
_refine_ls_matrix_type           full
_refine_ls_number_parameters     219
_refine_ls_number_reflns         4549
_refine_ls_number_restraints     0
_refine_ls_restrained_S_all      1.015
_refine_ls_R_factor_all          0.0208
_refine_ls_R_factor_gt           0.0178
_refine_ls_shift/su_max          0.009
_refine_ls_shift/su_mean         0.001
_refine_ls_structure_factor_coef Fsqd
_refine_ls_weighting_details
'w=1/[\s^2^(Fo^2^)+(0.0180P)^2^+0.6246P] where P=(Fo^2^+2Fc^2^)/3'
_refine_ls_weighting_scheme      calc
_refine_ls_wR_factor_gt          0.0433
_refine_ls_wR_factor_ref         0.0442
_reflns_Friedel_coverage         0.000
_reflns_number_gt                4158
_reflns_number_total             4549
_reflns_threshold_expression     'I > 2\s(I)'
_cod_data_source_file            jo5b02716_si_004.cif
_cod_data_source_block           G:\TETRAB~1\pn1
_cod_database_code               4031903
_shelx_shelxl_version_number     2014/7
_shelx_space_group_comment
;
The symmetry employed for this shelxl refinement is uniquely defined
by the following loop, which should always be used as a source of
symmetry information in preference to the above space-group names.
They are only intended as comments.
;
_shelx_res_file
;

    G:\TETRAB~1\pn1.res created by SHELXL-2014/7

REM  pn1 in P-1
REM R1 =  0.0183 for    4158 Fo > 4sig(Fo)  and  0.0213 for all    4549 data
REM    219 parameters refined using      0 restraints
REM Highest difference peak  0.918,  deepest hole -0.696,  1-sigma level  0.079
TITL pn1 in P-1
CELL 0.71073 8.5230 10.0979 12.3744 67.425 86.163 69.144
ZERR 2.0000 0.0002 0.0003 0.0003 0.001 0.001 0.001
LATT 1
SFAC C H O BR
UNIT 32 28 8 8
MERG 2
OMIT 0 180
FMAP 2
GRID
PLAN 20
TEMP 23
L.S. 4
ACTA 180
WGHT    0.018000    0.624600
FVAR       0.12412
BR1   4    0.037059    0.602799    0.233556    11.00000    0.01100    0.01823 =
         0.02211   -0.00508    0.00244   -0.00587
BR2   4    1.117728    0.166596    0.109263    11.00000    0.01254    0.02531 =
         0.02602   -0.01786    0.00226   -0.00264
BR3   4    0.331600    0.995830   -0.091427    11.00000    0.02075    0.01165 =
         0.01489   -0.00170    0.00096   -0.00419
BR4   4    0.972466    0.208076    0.549664    11.00000    0.01717    0.02682 =
         0.01511   -0.00420   -0.00325    0.00058
O1    3    0.648152    0.460095    0.409097    11.00000    0.01237    0.01526 =
         0.01501   -0.00711    0.00315   -0.00483
O2    3    0.636832    0.715356    0.338049    11.00000    0.01660    0.01720 =
         0.02161   -0.00720    0.00504   -0.00746
O3    3    0.408274    0.386708    0.301144    11.00000    0.01538    0.01065 =
         0.01281   -0.00265    0.00017   -0.00537
C6    1    0.233010    0.640304    0.171938    11.00000    0.01008    0.01571 =
         0.01581   -0.00772    0.00165   -0.00580
O7    3    0.438425    0.137598    0.337775    11.00000    0.01637    0.01200 =
         0.02862   -0.00270   -0.00285   -0.00492
C8    1    0.692329    0.573560    0.431558    11.00000    0.01674    0.01839 =
         0.01601   -0.00849    0.00101   -0.00643
AFIX  23
H8A   2    0.642587    0.584854    0.501813    11.00000   -1.20000
H8B   2    0.813701    0.538187    0.445497    11.00000   -1.20000
AFIX   0
C9    1    0.908681    0.276268    0.388310    11.00000    0.01476    0.01597 =
         0.01421   -0.00469   -0.00083   -0.00566
C10   1    0.968787    0.257471    0.203391    11.00000    0.01208    0.01468 =
         0.02154   -0.01051    0.00396   -0.00442
C12   1    0.535659    0.558263    0.170114    11.00000    0.01063    0.01224 =
         0.01351   -0.00716   -0.00001   -0.00278
C13   1    0.358787    0.806817    0.035688    11.00000    0.01749    0.01045 =
         0.01232   -0.00364    0.00014   -0.00500
C14   1    0.705082    0.439878    0.221665    11.00000    0.00998    0.01049 =
         0.01638   -0.00461    0.00005   -0.00354
C15   1    0.518868    0.698015    0.078643    11.00000    0.01283    0.01466 =
         0.01450   -0.00656    0.00258   -0.00516
AFIX  43
H15   2    0.613776    0.718217    0.046710    11.00000   -1.20000
AFIX   0
C18   1    1.017910    0.207295    0.321070    11.00000    0.01061    0.01394 =
         0.02200   -0.00734   -0.00012   -0.00241
AFIX  43
H18   2    1.121017    0.129698    0.354035    11.00000   -1.20000
AFIX   0
C20   1    0.391374    0.527465    0.215032    11.00000    0.01222    0.01210 =
         0.01234   -0.00474    0.00007   -0.00460
C21   1    0.612624    0.062657    0.381004    11.00000    0.01643    0.01701 =
         0.02221   -0.00558   -0.00297   -0.00147
AFIX 137
H21A  2    0.681698    0.067626    0.316066    11.00000   -1.50000
H21B  2    0.633586   -0.042877    0.430678    11.00000   -1.50000
H21C  2    0.639141    0.113081    0.425194    11.00000   -1.50000
AFIX   0
C22   1    0.754301    0.394009    0.340123    11.00000    0.01090    0.01284 =
         0.01618   -0.00675    0.00308   -0.00540
C23   1    0.814163    0.372110    0.152608    11.00000    0.01288    0.01687 =
         0.01597   -0.00769    0.00090   -0.00566
AFIX  43
H23   2    0.783741    0.403307    0.073448    11.00000   -1.20000
AFIX   0
C24   1    0.215000    0.781234    0.083223    11.00000    0.01290    0.01188 =
         0.01613   -0.00645   -0.00188   -0.00200
AFIX  43
H24   2    0.108993    0.856925    0.056165    11.00000   -1.20000
AFIX   0
C26   1    0.404275    0.280275    0.249943    11.00000    0.01969    0.01188 =
         0.02023   -0.00465   -0.00277   -0.00631
AFIX  23
H26A  2    0.294100    0.314946    0.210279    11.00000   -1.20000
H26B  2    0.487475    0.275555    0.192736    11.00000   -1.20000
AFIX   0
C1    1    0.458132    0.793467    0.332626    11.00000    0.01891    0.01477 =
         0.02337   -0.00782    0.00289   -0.00361
AFIX 137
H1A   2    0.400359    0.735292    0.317837    11.00000   -1.50000
H1B   2    0.426164    0.893482    0.270460    11.00000   -1.50000
H1C   2    0.428462    0.803822    0.405956    11.00000   -1.50000
AFIX   0
HKLF 4

REM  pn1 in P-1
REM R1 =  0.0178 for    4158 Fo > 4sig(Fo)  and  0.0208 for all    4549 data
REM    219 parameters refined using      0 restraints

END

WGHT      0.0169      0.5128

REM Highest difference peak  0.916,  deepest hole -0.718,  1-sigma level  0.076
Q1    1   1.0871  0.1004  0.1645  11.00000  0.05    0.92
Q2    1   0.4659  0.5487  0.1983  11.00000  0.05    0.44
Q3    1   0.5196  0.6376  0.1290  11.00000  0.05    0.40
Q4    1   0.7170  0.3972  0.2854  11.00000  0.05    0.39
Q5    1   0.9774  0.2018  0.2741  11.00000  0.05    0.39
Q6    1   0.6233  0.4993  0.1958  11.00000  0.05    0.37
Q7    1   0.9241  0.1545  0.5321  11.00000  0.05    0.34
Q8    1   0.8198  0.3184  0.3691  11.00000  0.05    0.34
Q9    1   0.4002  0.4629  0.2595  11.00000  0.05    0.32
Q10   1   0.7617  0.4095  0.1947  11.00000  0.05    0.31
Q11   1   0.2942  0.7971  0.0704  11.00000  0.05    0.30
Q12   1   0.2272  0.7179  0.1371  11.00000  0.05    0.30
Q13   1   0.3102  0.5710  0.1835  11.00000  0.05    0.30
Q14   1   0.7044  0.4260  0.3723  11.00000  0.05    0.30
Q15   1   0.5979  0.4958  0.3662  11.00000  0.05    0.30
Q16   1   1.0266  0.2266  0.1751  11.00000  0.05    0.29
Q17   1   1.0196  0.2617  0.5224  11.00000  0.05    0.29
Q18   1   0.9242  0.2625  0.4377  11.00000  0.05    0.28
Q19   1   0.4376  0.7470  0.0593  11.00000  0.05    0.28
Q20   1   0.9552  0.2423  0.3506  11.00000  0.05    0.27
;
_shelx_res_checksum              98207
_shelx_hkl_file
;
  -1   0   0   50.64    1.47
   1   0   0   54.89    1.47
   1   0   0   58.04    1.47
   2   0   0  143.61    3.95
   2   0   0  150.74    3.96
   3   0   0  272.51    7.24
   3   0   0  265.87    7.24
   4   0   0    2.79    0.14
   4   0   0    2.95    0.12
   5   0   0    1.70    0.14
   5   0   0    1.67    0.10
   6   0   0   27.83    0.80
   6   0   0   29.66    0.84
  -7   0   0    0.10    0.11
   7   0   0    0.19    0.12
   8   0   0    2.68    0.20
   9   0   0   16.22    0.58
  10   0   0    2.16    0.23
  10  -1   0    0.08    0.19
   9  -1   0    3.90    0.31
   8  -1   0   15.60    0.54
   7  -1   0   67.37    1.88
   6  -1   0   58.92    1.59
   6  -1   0   56.35    1.56
  -6   1   0   56.09    1.56
   5  -1   0  197.50    5.42
   5  -1   0  206.45    5.44
  -5   1   0  202.18    5.43
   4  -1   0  176.08    4.66
   4  -1   0  171.03    4.64
  -4   1   0  171.62    4.64
   3  -1   0    7.14    0.22
   3  -1   0    7.17    0.23
  -3   1   0    6.72    0.22
   2  -1   0   33.70    0.90
   2  -1   0   30.58    0.92
   2  -1   0   33.68    0.90
  -2   1   0   34.14    0.90
   1  -1   0   12.20    0.36
   1  -1   0   12.52    0.34
   1  -1   0   12.52    0.34
  -1   1   0   12.02    0.34
   0  -1   0    0.75    0.06
   0  -1   0    0.78    0.03
   0   1   0    0.58    0.03
   0   1   0    0.68    0.03
   1   1   0    0.39    0.05
   1   1   0    0.44    0.06
   2   1   0    1.08    0.05
   2   1   0    0.95    0.06
   2   1   0    0.93    0.07
   3   1   0    2.51    0.12
   3   1   0    2.43    0.11
   3   1   0    2.50    0.09
   4   1   0    0.87    0.08
   4   1   0    0.99    0.07
   4   1   0    1.10    0.09
   5   1   0   15.49    0.46
   5   1   0   15.30    0.43
   6   1   0  213.91    5.90
   6   1   0  226.70    5.93
   7   1   0   91.39    2.51
   8   1   0   35.04    1.02
   9   1   0   83.60    2.33
  10   1   0    5.38    0.37
   9  -2   0    2.40    0.23
   8  -2   0   10.81    0.44
   7  -2   0   14.05    0.49
   6  -2   0    2.87    0.23
   6  -2   0    3.10    0.18
   5  -2   0    3.15    0.16
   5  -2   0    3.48    0.20
  -5   2   0    3.09    0.14
   4  -2   0    0.18    0.08
   4  -2   0    0.16    0.07
   4  -2   0    0.19    0.12
  -4   2   0    0.17    0.05
   3  -2   0   73.88    2.01
   3  -2   0   75.00    2.01
   3  -2   0   74.76    2.05
  -3   2   0   72.02    2.00
   2  -2   0    0.77    0.06
   2  -2   0    0.79    0.06
   2  -2   0    0.93    0.11
  -2   2   0    0.64    0.05
   1  -2   0   47.64    1.26
   1  -2   0   47.40    1.26
   1  -2   0   45.69    1.29
  -1   2   0   45.89    1.26
   0  -2   0   22.25    0.60
   0  -2   0   22.18    0.64
   0   2   0   21.60    0.62
   0   2   0   22.02    0.60
  -1  -2   0  367.00    9.99
   1   2   0  371.06    9.94
   1   2   0  370.15   10.00
  -2  -2   0  603.46   16.93
   2   2   0  630.83   16.92
   2   2   0  637.91   16.90
   2   2   0  641.77   16.85
   3   2   0    7.69    0.25
   3   2   0    8.11    0.24
   4   2   0   61.26    1.67
   4   2   0   59.50    1.66
   4   2   0   62.35    1.64
   5   2   0   36.95    1.04
   5   2   0   36.68    1.00
   5   2   0   36.72    1.02
   6   2   0   19.37    0.58
   6   2   0   19.80    0.60
   6   2   0   19.10    0.54
   7   2   0    4.62    0.23
   8   2   0   32.64    0.96
   9   2   0    5.93    0.32
  10   2   0   25.86    0.83
  11   2   0    6.22    0.40
   9  -3   0    4.96    0.37
   8  -3   0   28.71    0.90
   7  -3   0   18.84    0.62
   6  -3   0    0.24    0.11
   6  -3   0    0.19    0.12
   5  -3   0    0.43    0.12
   5  -3   0    0.23    0.17
   5  -3   0    0.50    0.10
   4  -3   0    1.61    0.11
   4  -3   0    1.45    0.12
   4  -3   0    1.20    0.14
  -4   3   0    1.53    0.10
   3  -3   0   34.55    1.02
   3  -3   0   35.66    0.98
   3  -3   0   35.39    0.97
  -3   3   0   34.34    0.95
   2  -3   0   34.46    1.00
   2  -3   0   34.48    0.95
   2  -3   0   35.30    0.96
  -2   3   0   33.68    0.94
   1  -3   0  139.46    3.76
   1  -3   0  144.23    3.75
   1  -3   0  138.58    3.79
  -1   3   0  135.63    3.78
  -1   3   0  140.84    3.75
   0  -3   0    9.68    0.27
   0  -3   0    9.83    0.35
   0   3   0    9.70    0.32
   0   3   0    9.57    0.28
  -1  -3   0   37.83    1.05
   1   3   0   36.25    1.01
  -2  -3   0   89.49    2.40
   2   3   0   86.48    2.37
   2   3   0   89.12    2.39
   2   3   0   88.40    2.39
  -3  -3   0   36.30    1.02
   3   3   0   36.01    0.99
   3   3   0   36.55    1.01
   4   3   0   26.24    0.74
   4   3   0   25.54    0.72
   5   3   0    0.14    0.08
   5   3   0    0.07    0.07
   6   3   0   55.66    1.51
   6   3   0   52.35    1.49
   7   3   0   20.00    0.64
   7   3   0   20.93    0.62
   8   3   0   13.82    0.47
   8   3   0   14.28    0.51
   9   3   0    0.04    0.14
  10   3   0    3.91    0.31
  11   3   0    1.99    0.23
   8  -4   0    6.97    0.39
   7  -4   0   15.39    0.55
   6  -4   0  151.76    4.29
   6  -4   0  154.49    4.22
   6  -4   0  158.45    4.20
   5  -4   0   24.48    0.84
   5  -4   0   24.54    0.75
   5  -4   0   26.17    0.74
   4  -4   0    4.08    0.21
   4  -4   0    4.29    0.31
   4  -4   0    4.13    0.20
   3  -4   0   54.92    1.50
   3  -4   0   53.19    1.56
   3  -4   0   55.03    1.50
  -3   4   0   54.68    1.48
   2  -4   0   40.60    1.11
   2  -4   0   40.35    1.11
   2  -4   0   39.42    1.17
  -2   4   0   40.83    1.10
   1  -4   0   40.22    1.17
   1  -4   0   40.49    1.10
   1  -4   0   40.61    1.10
  -1   4   0   39.84    1.10
  -1   4   0   39.54    1.15
   0  -4   0    3.24    0.11
   0  -4   0    3.15    0.14
   0  -4   0    3.34    0.24
   0   4   0    3.50    0.20
   0   4   0    3.22    0.13
  -1  -4   0   49.30    1.36
   1   4   0   47.62    1.34
   1   4   0   47.30    1.31
  -2  -4   0    1.92    0.15
   2   4   0    1.64    0.11
   2   4   0    1.44    0.11
  -3  -4   0   74.31    2.01
   3   4   0   70.99    1.99
   3   4   0   72.96    1.97
   3   4   0   74.44    2.00
  -4  -4   0   38.41    1.10
   4   4   0   37.80    1.06
   4   4   0   40.14    1.09
   5   4   0   60.21    1.64
   5   4   0   60.41    1.67
   6   4   0   10.82    0.35
   6   4   0   11.38    0.39
   7   4   0  109.97    2.99
   7   4   0  109.56    3.01
   8   4   0   37.99    1.10
   8   4   0   39.15    1.13
   9   4   0    1.57    0.17
   9   4   0    1.56    0.20
  10   4   0    0.25    0.16
  11   4   0    0.66    0.19
   8  -5   0    0.57    0.21
   7  -5   0    5.52    0.34
   6  -5   0   41.23    1.21
   6  -5   0   42.04    1.19
   6  -5   0   41.13    1.32
   5  -5   0    5.06    0.42
   5  -5   0    4.92    0.27
   5  -5   0    5.11    0.28
   4  -5   0    2.21    0.26
   4  -5   0    1.82    0.15
   4  -5   0    1.81    0.15
   3  -5   0   24.85    0.72
   3  -5   0   24.34    0.82
   3  -5   0   25.20    0.72
  -3   5   0   24.72    0.79
  -3   5   0   24.23    0.69
   2  -5   0    5.50    0.21
   2  -5   0    5.08    0.33
   2  -5   0    5.46    0.22
  -2   5   0    5.13    0.19
  -2   5   0    5.56    0.31
   1  -5   0   26.83    0.77
   1  -5   0   27.40    0.76
   1  -5   0   27.56    0.86
  -1   5   0   27.31    0.83
  -1   5   0   27.18    0.76
   0  -5   0  347.85    9.64
   0  -5   0  357.43    9.69
   0  -5   0  367.96    9.62
   0   5   0  363.04    9.64
   0   5   0  359.32    9.67
  -1  -5   0  221.85    5.99
   1   5   0  222.23    5.96
   1   5   0  217.83    5.96
  -2  -5   0   52.36    1.46
   2   5   0   50.00    1.40
   2   5   0   51.11    1.43
  -3  -5   0  317.66    8.56
   3   5   0  322.87    8.55
   3   5   0  313.59    8.53
  -4  -5   0   44.51    1.24
   4   5   0   41.73    1.18
   4   5   0   44.89    1.23
  -5  -5   0    0.69    0.13
   5   5   0    0.83    0.12
   5   5   0    0.73    0.07
  -6  -5   0    9.98    0.40
   6   5   0   10.15    0.33
   6   5   0   10.23    0.38
  -7  -5   0    2.02    0.19
   7   5   0    2.06    0.17
   7   5   0    2.37    0.19
   8   5   0    3.11    0.23
   8   5   0    2.99    0.21
   9   5   0   15.46    0.57
   9   5   0   15.74    0.52
  10   5   0    0.01    0.19
  10   5   0    0.10    0.15
  11   5   0    4.06    0.32
   7  -6   0   18.05    0.65
   6  -6   0    3.94    0.25
   6  -6   0    3.97    0.31
   6  -6   0    4.82    0.42
   5  -6   0   84.99    2.36
   5  -6   0   84.95    2.49
   5  -6   0   85.60    2.37
  -5   6   0   86.80    2.46
   4  -6   0   76.74    2.13
   4  -6   0   77.07    2.13
   4  -6   0   75.56    2.24
  -4   6   0   78.83    2.22
   3  -6   0   18.16    0.71
   3  -6   0   18.78    0.57
   3  -6   0   18.35    0.58
  -3   6   0   18.46    0.67
   2  -6   0   32.36    0.94
   2  -6   0   32.56    1.05
   2  -6   0   33.19    0.93
  -2   6   0   33.47    1.02
  -2   6   0   32.87    0.92
   1  -6   0   39.45    1.09
   1  -6   0   39.63    1.10
   1  -6   0   38.75    1.20
  -1   6   0   39.03    1.09
  -1   6   0   39.39    1.17
   0  -6   0   12.74    0.39
   0  -6   0   14.47    0.55
   0  -6   0   13.92    0.42
   0   6   0   13.49    0.41
   0   6   0   13.41    0.49
  -1  -6   0    2.06    0.23
  -1  -6   0    2.06    0.15
   1   6   0    2.01    0.14
   1   6   0    1.87    0.17
  -2  -6   0   14.20    0.52
   2   6   0   14.26    0.43
   2   6   0   13.78    0.47
  -3  -6   0    3.21    0.27
   3   6   0    3.26    0.18
   3   6   0    3.25    0.21
  -4  -6   0   35.91    1.03
   4   6   0   35.67    1.00
   4   6   0   32.60    0.94
  -5  -6   0    0.46    0.14
   5   6   0    0.56    0.12
   5   6   0    0.48    0.06
  -6  -6   0   63.98    1.78
   6   6   0   64.41    1.76
   6   6   0   59.78    1.71
  -7  -6   0   38.47    1.14
   7   6   0   39.54    1.12
   7   6   0   36.74    1.07
  -8  -6   0   22.30    0.74
   8   6   0   21.35    0.66
   8   6   0   22.59    0.72
  -9  -6   0  129.71    3.54
   9   6   0  129.16    3.51
   9   6   0  122.66    3.48
 -10  -6   0   16.85    0.67
  10   6   0   16.25    0.62
 -11  -6   0    4.46    0.38
  11   6   0    4.33    0.33
   6  -7   0   -0.01    0.18
   6  -7   0   -0.01    0.18
   6  -7   0    0.59    0.35
  -6   7   0    0.23    0.32
   5  -7   0   10.51    0.43
   5  -7   0   11.13    0.64
   5  -7   0   10.14    0.44
  -5   7   0    9.78    0.61
   4  -7   0   10.12    0.40
   4  -7   0   10.25    0.41
   4  -7   0   10.89    0.60
  -4   7   0   10.39    0.55
   3  -7   0   10.96    0.41
   3  -7   0   11.32    0.40
   3  -7   0   10.97    0.58
  -3   7   0   11.37    0.53
   2  -7   0   12.03    0.58
   2  -7   0   12.10    0.42
   2  -7   0   12.02    0.40
  -2   7   0   12.49    0.53
   1  -7   0    9.31    0.33
   1  -7   0    9.23    0.34
   1  -7   0    9.49    0.52
  -1   7   0    9.68    0.44
  -1   7   0    9.79    0.32
   0  -7   0   20.19    0.75
   0  -7   0   20.34    0.61
   0   7   0   20.35    0.68
   0   7   0   19.96    0.59
  -1  -7   0   45.93    1.37
  -1  -7   0   43.84    1.25
   1   7   0   44.63    1.31
   1   7   0   44.57    1.25
  -2  -7   0  161.29    4.34
   2   7   0  157.29    4.29
   2   7   0  152.84    4.24
  -3  -7   0    2.30    0.24
   3   7   0    2.37    0.19
   3   7   0    2.27    0.18
  -4  -7   0   87.48    2.44
   4   7   0   85.01    2.38
   4   7   0   87.63    2.40
  -5  -7   0  131.82    3.61
   5   7   0  130.37    3.58
  -6  -7   0    3.46    0.30
   6   7   0    3.50    0.27
  -7  -7   0    4.09    0.33
   7   7   0    4.35    0.29
  -8  -7   0   11.77    0.53
   8   7   0   11.28    0.47
  -9  -7   0    0.32    0.23
   9   7   0    0.40    0.19
 -10  -7   0   12.33    0.60
  10   7   0   11.99    0.53
 -11  -7   0   14.43    0.68
  11   7   0   14.20    0.61
   5  -8   0    0.63    0.20
   5  -8   0    1.17    0.37
  -5   8   0    1.36    0.35
   4  -8   0    3.67    0.24
   4  -8   0    3.76    0.42
  -4   8   0    3.91    0.38
   3  -8   0   23.82    0.95
   3  -8   0   24.30    0.76
  -3   8   0   24.64    0.88
   2  -8   0    3.52    0.38
   2  -8   0    3.01    0.20
  -2   8   0    4.03    0.33
   1  -8   0    0.65    0.14
   1  -8   0    0.75    0.30
  -1   8   0    0.77    0.14
  -1   8   0    0.67    0.23
   0  -8   0    2.37    0.32
   0  -8   0    2.95    0.19
   0   8   0    3.12    0.19
   0   8   0    3.26    0.28
  -1  -8   0   21.56    0.67
  -1  -8   0   23.38    0.86
   1   8   0   21.55    0.74
   1   8   0   22.58    0.66
  -2  -8   0    5.02    0.24
  -2  -8   0    5.15    0.42
   2   8   0    4.92    0.33
   2   8   0    4.96    0.24
  -3  -8   0    1.31    0.24
   3   8   0    1.62    0.14
   3   8   0    1.43    0.20
  -4  -8   0    6.83    0.42
   4   8   0    6.33    0.29
   4   8   0    7.19    0.36
  -5  -8   0   13.68    0.55
   5   8   0   13.48    0.50
  -6  -8   0   19.56    0.70
   6   8   0   20.15    0.66
  -7  -8   0    4.77    0.39
   7   8   0    4.55    0.33
  -8  -8   0    3.35    0.30
   8   8   0    3.71    0.28
  -9  -8   0    0.82    0.26
   9   8   0    0.85    0.22
 -10  -8   0    5.80    0.49
  10   8   0    5.17    0.40
   4  -9   0    6.92    0.56
   4  -9   0    6.56    0.39
  -4   9   0    7.18    0.58
   3  -9   0   24.79    0.80
   3  -9   0   23.97    1.04
  -3   9   0   26.69    0.95
   2  -9   0    1.06    0.18
   2  -9   0    0.76    0.36
  -2   9   0    1.10    0.29
   1  -9   0   20.89    0.90
   1  -9   0   22.02    0.68
  -1   9   0   21.03    0.79
   0  -9   0    0.61    0.15
   0  -9   0    0.48    0.31
   0   9   0    0.65    0.24
   0   9   0    0.52    0.12
  -1  -9   0   14.50    0.49
  -1  -9   0   13.82    0.72
   1   9   0   13.90    0.59
   1   9   0   14.35    0.47
  -2  -9   0   27.02    0.97
  -2  -9   0   25.62    0.78
   2   9   0   26.24    0.86
   2   9   0   25.86    0.78
  -3  -9   0    4.10    0.25
  -3  -9   0    5.26    0.40
   3   9   0    4.25    0.36
   3   9   0    4.25    0.25
  -4  -9   0    1.76    0.29
   4   9   0    1.66    0.17
   4   9   0    1.50    0.22
  -5  -9   0   20.15    0.77
   5   9   0   20.95    0.71
  -6  -9   0   12.69    0.58
   6   9   0   13.15    0.52
  -7  -9   0    8.79    0.49
   7   9   0    8.74    0.43
  -8  -9   0   35.90    1.15
   8   9   0   34.95    1.09
  -9  -9   0    1.10    0.29
   9   9   0    0.56    0.23
 -10  -9   0    2.51    0.35
  10   9   0    2.66    0.29
   3 -10   0   18.47    0.93
   3 -10   0   18.39    0.66
  -3  10   0   19.44    0.83
   2 -10   0    1.57    0.22
   2 -10   0    1.14    0.41
  -2  10   0    1.55    0.33
   1 -10   0    0.16    0.18
   1 -10   0   -0.16    0.36
  -1  10   0    0.09    0.26
   0 -10   0   39.87    1.36
   0 -10   0   38.72    1.14
   0  10   0   37.98    1.23
  -1 -10   0   10.88    0.68
  -1 -10   0   10.67    0.42
   1  10   0   10.45    0.41
   1  10   0   11.38    0.54
  -2 -10   0   15.64    0.54
  -2 -10   0   15.57    0.77
   2  10   0   15.75    0.53
   2  10   0   15.46    0.63
  -3 -10   0   81.02    2.34
  -3 -10   0   75.41    2.16
   3  10   0   77.37    2.24
   3  10   0   78.95    2.18
  -4 -10   0   14.14    0.49
  -4 -10   0   13.61    0.67
   4  10   0   14.20    0.58
  -5 -10   0   -0.05    0.27
  -5 -10   0   -0.02    0.15
   5  10   0   -0.01    0.20
  -6 -10   0    7.08    0.53
   6  10   0    7.11    0.43
  -7 -10   0    7.63    0.51
   7  10   0    7.09    0.43
  -8 -10   0    4.05    0.38
   8  10   0    4.95    0.41
  -9 -10   0   -0.11    0.28
   9  10   0    0.00    0.23
   1 -11   0   20.80    0.70
   1 -11   0   19.64    0.97
  -1  11   0   20.42    0.83
   0 -11   0    6.75    0.39
   0 -11   0    6.15    0.56
   0  11   0    6.17    0.52
  -1 -11   0   -0.03    0.17
  -1 -11   0    0.12    0.39
   1  11   0    0.13    0.26
  -2 -11   0    0.61    0.18
  -2 -11   0    0.18    0.38
   2  11   0    0.72    0.27
   2  11   0    0.83    0.17
  -3 -11   0   15.45    0.81
  -3 -11   0   14.47    0.52
   3  11   0   14.71    0.63
  -4 -11   0    1.57    0.37
  -4 -11   0    1.90    0.20
   4  11   0    1.50    0.27
  -5 -11   0    2.46    0.38
  -5 -11   0    2.55    0.22
   5  11   0    2.87    0.29
  -6 -11   0    9.33    0.41
  -6 -11   0    8.49    0.60
   6  11   0    9.03    0.49
  -7 -11   0    1.17    0.33
   7  11   0    1.11    0.26
  -8 -11   0    0.94    0.33
   8  11   0    0.56    0.25
  -2 -12   0   11.91    0.51
  -2 -12   0   12.85    0.81
   2  12   0   12.23    0.64
  -3 -12   0    0.22    0.19
  -3 -12   0   -0.59    0.37
   3  12   0   -0.02    0.26
  -4 -12   0   14.45    0.79
  -4 -12   0   12.70    0.51
   4  12   0   13.37    0.64
  -5 -12   0   40.41    1.36
  -5 -12   0   36.97    1.15
   5  12   0   38.48    1.24
  -6 -12   0    1.38    0.21
  -6 -12   0    1.18    0.38
   6  12   0    1.42    0.29
   5  12  -1    5.22    0.40
  -5 -12   1    5.40    0.51
  -5 -12   1    5.00    0.36
   4  12  -1    0.37    0.28
  -4 -12   1    0.08    0.19
  -4 -12   1    0.32    0.37
   3  12  -1   19.46    0.79
  -3 -12   1   18.87    0.66
  -3 -12   1   19.89    0.95
   8  11  -1    7.85    0.53
   7  11  -1   33.17    1.10
  -7 -11   1   33.04    1.19
   6  11  -1    1.59    0.29
  -6 -11   1    1.52    0.19
  -6 -11   1    1.71    0.36
   5  11  -1   19.88    0.77
  -5 -11   1   18.93    0.65
  -5 -11   1   21.16    0.89
   4  11  -1   21.56    0.82
  -4 -11   1   21.50    0.70
  -4 -11   1   21.73    0.91
   3  11  -1    0.29    0.26
  -3 -11   1    0.08    0.34
  -3 -11   1    0.20    0.17
   2  11  -1    4.92    0.39
  -2 -11   1    5.08    0.49
  -2 -11   1    5.58    0.35
   1  11  -1   12.30    0.63
  -1 -11   1   11.76    0.48
  -1 -11   1   12.32    0.78
   0  11  -1    0.26    0.29
   0 -11   1    0.07    0.19
   0 -11   1    0.20    0.39
   9  10  -1    2.74    0.31
  -9 -10   1    2.64    0.36
   8  10  -1   -0.14    0.23
  -8 -10   1    0.09    0.28
   7  10  -1    1.30    0.26
  -7 -10   1    1.60    0.31
   6  10  -1   20.53    0.74
  -6 -10   1   19.65    0.63
  -6 -10   1   19.75    0.81
   5  10  -1    2.93    0.29
  -5 -10   1    3.30    0.37
  -5 -10   1    2.84    0.20
   4  10  -1    0.82    0.25
  -4 -10   1    1.07    0.16
  -4 -10   1    1.22    0.33
   3  10  -1   42.42    1.31
  -3 -10   1   41.41    1.22
  -3 -10   1   43.14    1.41
   2  10  -1    0.61    0.25
  -2 -10   1    0.38    0.34
  -2 -10   1    0.70    0.17
   1  10  -1   14.43    0.63
  -1 -10   1   15.56    0.77
  -1 -10   1   14.57    0.52
   0  10  -1    0.62    0.27
   0 -10   1    0.31    0.37
   0 -10   1    0.47    0.18
  -1  10  -1   24.94    0.91
   1 -10   1   24.43    0.79
   1 -10   1   24.11    1.04
  -2  10  -1   19.42    0.81
   2 -10   1   19.03    0.67
   2 -10   1   18.30    0.92
   9   9  -1   -0.28    0.23
  -9  -9   1    0.21    0.28
   8   9  -1   18.59    0.69
  -8  -9   1   17.74    0.73
   7   9  -1   11.60    0.53
  -7  -9   1   11.15    0.56
   6   9  -1   11.43    0.50
  -6  -9   1   10.97    0.55
  -6  -9   1   10.70    0.40
   5   9  -1    2.68    0.26
  -5  -9   1    2.20    0.17
  -5  -9   1    2.37    0.31
   4   9  -1   11.12    0.52
  -4  -9   1   11.43    0.57
  -4  -9   1   11.30    0.41
   3   9  -1    2.90    0.28
  -3  -9   1    2.59    0.34
  -3  -9   1    2.99    0.19
   2   9  -1    0.96    0.23
  -2  -9   1    1.25    0.32
  -2  -9   1    1.20    0.15
   1   9  -1   35.91    1.14
   1   9  -1   35.73    1.03
  -1  -9   1   35.58    1.04
  -1  -9   1   36.11    1.23
   0   9  -1    6.66    0.44
   0  -9   1    6.24    0.56
   0  -9   1    5.82    0.31
  -1   9  -1    0.82    0.26
   1  -9   1    1.27    0.18
   1  -9   1    1.10    0.36
  -2   9  -1    2.25    0.33
   2  -9   1    2.48    0.41
   2  -9   1    2.38    0.23
  -3   9  -1   18.03    0.78
   3  -9   1   17.34    0.62
   3  -9   1   17.29    0.87
   4  -9   1    3.94    0.49
  10   8  -1    0.49    0.23
 -10  -8   1    0.51    0.27
   9   8  -1   24.23    0.82
  -9  -8   1   24.06    0.88
   8   8  -1   14.53    0.58
  -8  -8   1   14.54    0.63
   7   8  -1   19.06    0.68
  -7  -8   1   19.48    0.72
   6   8  -1   39.50    1.17
  -6  -8   1   38.15    1.20
   5   8  -1   17.06    0.60
  -5  -8   1   16.50    0.52
  -5  -8   1   16.30    0.64
   4   8  -1    3.28    0.26
  -4  -8   1    3.14    0.20
  -4  -8   1    3.21    0.29
   3   8  -1   13.08    0.53
  -3  -8   1   13.01    0.43
  -3  -8   1   13.09    0.57
   2   8  -1   38.00    1.09
   2   8  -1   37.41    1.16
  -2  -8   1   40.04    1.23
  -2  -8   1   37.51    1.09
   1   8  -1   15.93    0.50
   1   8  -1   15.15    0.60
  -1  -8   1   15.34    0.51
  -1  -8   1   16.65    0.70
   0   8  -1   21.34    0.63
   0   8  -1   21.04    0.75
   0  -8   1   22.39    0.83
   0  -8   1   20.31    0.65
  -1   8  -1   -0.05    0.22
   1  -8   1   -0.06    0.13
   1  -8   1    0.04    0.29
  -2   8  -1    0.50    0.25
   2  -8   1    0.23    0.15
   2  -8   1   -0.13    0.31
  -3   8  -1    2.09    0.32
   3  -8   1    1.92    0.20
   3  -8   1    1.51    0.35
  -4   8  -1    3.30    0.38
   4  -8   1    3.22    0.43
   4  -8   1    3.58    0.25
  -5   8  -1   13.65    0.74
   5  -8   1   12.75    0.53
   5  -8   1   13.68    0.80
  10   7  -1   16.57    0.64
 -10  -7   1   15.84    0.68
   9   7  -1    0.38    0.20
  -9  -7   1    0.11    0.23
   8   7  -1    2.61    0.24
  -8  -7   1    2.89    0.28
   7   7  -1    2.38    0.23
  -7  -7   1    2.22    0.24
   6   7  -1   33.07    0.99
  -6  -7   1   32.40    1.01
   5   7  -1    5.46    0.31
  -5  -7   1    5.11    0.34
   4   7  -1    8.10    0.38
  -4  -7   1    8.59    0.41
   3   7  -1   38.51    1.12
  -3  -7   1   38.09    1.16
  -3  -7   1   36.69    1.06
   2   7  -1   30.54    0.90
   2   7  -1   32.04    0.97
  -2  -7   1   32.86    1.02
  -2  -7   1   31.03    0.90
   1   7  -1   13.42    0.53
   1   7  -1   13.74    0.43
  -1  -7   1   13.98    0.44
  -1  -7   1   13.88    0.59
   0   7  -1  122.96    3.43
   0   7  -1  124.02    3.35
   0  -7   1  120.37    3.36
   0  -7   1  128.09    3.49
  -1   7  -1  113.67    3.12
  -1   7  -1  115.63    3.22
   1  -7   1  116.29    3.27
   1  -7   1  116.32    3.14
  -2   7  -1   17.63    0.69
   2  -7   1   18.14    0.58
   2  -7   1   18.15    0.74
  -3   7  -1   59.79    1.76
   3  -7   1   56.70    1.81
   3  -7   1   60.66    1.73
   3  -7   1   60.04    1.67
  -4   7  -1    5.86    0.49
   4  -7   1    5.31    0.30
   4  -7   1    5.50    0.52
   4  -7   1    5.01    0.38
  -5   7  -1    1.82    0.34
   5  -7   1    2.76    0.38
   5  -7   1    2.08    0.22
   5  -7   1    2.20    0.36
  -6   7  -1   12.38    0.69
   6  -7   1   12.31    0.51
   6  -7   1   12.61    0.73
  11   6  -1    0.01    0.22
 -11  -6   1    0.38    0.28
  10   6  -1    0.36    0.21
 -10  -6   1    0.20    0.25
   9   6  -1    3.04    0.26
  -9  -6   1    3.00    0.29
   8   6  -1    8.09    0.40
  -8  -6   1    8.10    0.42
   7   6  -1   66.70    1.93
   7   6  -1   70.84    1.95
  -7  -6   1   70.55    1.97
   6   6  -1   17.59    0.57
   6   6  -1   16.45    0.51
  -6  -6   1   17.99    0.60
   5   6  -1   92.04    2.66
   5   6  -1  102.59    2.71
  -5  -6   1  101.03    2.73
   4   6  -1  204.57    5.53
  -4  -6   1  203.73    5.55
   3   6  -1    4.08    0.25
  -3  -6   1    3.56    0.28
   2   6  -1   26.23    0.78
   2   6  -1   24.81    0.73
  -2  -6   1   24.46    0.72
  -2  -6   1   26.15    0.82
   1   6  -1   17.58    0.52
   1   6  -1   18.03    0.59
  -1  -6   1   16.99    0.52
  -1  -6   1   18.08    0.64
   0   6  -1   18.58    0.55
   0   6  -1   18.59    0.64
   0  -6   1   18.83    0.56
   0  -6   1   19.55    0.69
  -1   6  -1   29.61    0.82
  -1   6  -1   30.21    0.92
   1  -6   1   28.19    0.83
   1  -6   1   29.86    0.96
   1  -6   1   28.99    0.84
  -2   6  -1   45.12    1.36
   2  -6   1   46.31    1.28
   2  -6   1   45.85    1.28
   2  -6   1   45.14    1.39
  -3   6  -1    1.29    0.23
   3  -6   1    1.57    0.15
   3  -6   1    1.21    0.14
   3  -6   1    1.39    0.27
  -4   6  -1    6.69    0.45
   4  -6   1    5.89    0.47
   4  -6   1    6.38    0.32
   4  -6   1    6.55    0.31
  -5   6  -1    0.36    0.27
   5  -6   1    0.61    0.29
   5  -6   1    0.65    0.17
   5  -6   1    0.42    0.16
  -6   6  -1   37.56    1.22
   6  -6   1   35.26    1.10
   6  -6   1   36.36    1.08
   6  -6   1   36.26    1.24
  -7   6  -1   19.95    0.82
   7  -6   1   18.81    0.69
   7  -6   1   18.34    0.84
  11   5  -1   16.33    0.59
  10   5  -1    7.37    0.35
  10   5  -1    7.83    0.43
   9   5  -1   37.38    1.12
   9   5  -1   40.10    1.17
   8   5  -1    2.36    0.20
  -8  -5   1    2.24    0.23
   7   5  -1   15.48    0.53
   7   5  -1   15.06    0.47
  -7  -5   1   15.08    0.54
   6   5  -1   16.89    0.55
   6   5  -1   16.41    0.49
  -6  -5   1   17.08    0.56
   5   5  -1    0.07    0.11
   5   5  -1    0.03    0.06
  -5  -5   1    0.11    0.12
   4   5  -1    1.06    0.08
   4   5  -1    1.21    0.13
  -4  -5   1    1.35    0.14
   3   5  -1  142.69    3.84
  -3  -5   1  140.15    3.86
   2   5  -1    0.91    0.09
   2   5  -1    0.87    0.13
  -2  -5   1    1.35    0.16
  -2  -5   1    0.73    0.08
   1   5  -1    7.03    0.24
   1   5  -1    7.10    0.31
  -1  -5   1    6.89    0.24
  -1  -5   1    6.90    0.35
   0   5  -1    0.39    0.06
   0   5  -1    0.36    0.14
   0  -5   1    0.44    0.08
   0  -5   1    0.65    0.17
   0  -5   1    0.38    0.06
  -1   5  -1   39.77    1.15
  -1   5  -1   38.01    1.07
   1  -5   1   37.55    1.08
   1  -5   1   40.51    1.18
   1  -5   1   39.26    1.09
  -2   5  -1  233.62    6.31
  -2   5  -1  225.44    6.24
   2  -5   1  239.24    6.26
   2  -5   1  232.59    6.26
  -3   5  -1    8.43    0.40
   3  -5   1    7.78    0.31
   3  -5   1    8.30    0.31
   3  -5   1    8.42    0.43
   4  -5   1   53.57    1.48
   4  -5   1   53.92    1.48
   4  -5   1   50.58    1.57
   5  -5   1   32.07    0.94
   5  -5   1   31.38    0.93
   5  -5   1   30.95    1.05
   6  -5   1    0.61    0.28
   6  -5   1    0.27    0.16
   6  -5   1    0.19    0.15
   7  -5   1    8.82    0.43
  11   4  -1    0.26    0.18
  10   4  -1    8.27    0.38
   9   4  -1    0.33    0.14
   9   4  -1    0.21    0.18
   8   4  -1   31.63    0.92
   7   4  -1   36.14    1.06
   7   4  -1   36.06    1.02
   6   4  -1    1.66    0.15
   6   4  -1    1.64    0.14
   5   4  -1    1.70    0.11
  -5  -4   1    1.32    0.13
   4   4  -1    0.08    0.05
   4   4  -1    0.01    0.09
  -4  -4   1   -0.11    0.09
   3   4  -1   26.39    0.75
   3   4  -1   28.51    0.80
  -3  -4   1   27.98    0.81
   2   4  -1   21.83    0.64
   2   4  -1   20.39    0.58
   2   4  -1   21.43    0.61
  -2  -4   1   21.82    0.66
   1   4  -1  108.36    3.02
   1   4  -1  108.71    2.98
  -1  -4   1  114.15    3.04
  -1  -4   1  111.03    2.98
   0   4  -1    3.09    0.12
   0   4  -1    3.09    0.22
   0  -4   1    3.34    0.25
   0  -4   1    3.26    0.15
   0  -4   1    2.87    0.12
  -1   4  -1   13.72    0.46
  -1   4  -1   12.88    0.38
   1  -4   1   13.62    0.48
   1  -4   1   13.07    0.40
   1  -4   1   13.02    0.39
  -2   4  -1   23.86    0.74
  -2   4  -1   23.43    0.66
   2  -4   1   24.19    0.68
   2  -4   1   23.76    0.75
   2  -4   1   24.16    0.68
  -3   4  -1   48.33    1.33
   3  -4   1   49.95    1.37
   3  -4   1   49.72    1.37
   4  -4   1   23.61    0.71
   4  -4   1   23.94    0.70
   4  -4   1   23.49    0.79
   5  -4   1    2.59    0.17
   5  -4   1    2.52    0.21
   5  -4   1    2.62    0.28
   6  -4   1   13.81    0.60
   6  -4   1   14.42    0.48
   6  -4   1   13.40    0.49
   7  -4   1   -0.06    0.15
   7  -4   1    0.13    0.16
   8  -4   1   21.18    0.73
  11   3  -1    2.22    0.24
  10   3  -1    0.33    0.16
   9   3  -1    4.16    0.29
   8   3  -1    5.87    0.28
   8   3  -1    6.18    0.33
   7   3  -1    6.24    0.26
   7   3  -1    6.41    0.30
   6   3  -1  116.40    3.12
   6   3  -1  111.92    3.09
   5   3  -1   97.74    2.62
   5   3  -1   93.99    2.59
   4   3  -1   13.09    0.38
   4   3  -1   12.68    0.40
   3   3  -1   33.09    0.92
   3   3  -1   33.83    0.94
  -3  -3   1   34.16    0.95
   2   3  -1    8.84    0.25
   2   3  -1    9.00    0.30
  -2  -3   1    8.80    0.30
   1   3  -1  257.87    7.27
   1   3  -1  272.60    7.28
  -1  -3   1  275.74    7.26
   0   3  -1   19.34    0.53
   0   3  -1   18.53    0.58
   0  -3   1   19.66    0.54
   0  -3   1   18.54    0.53
  -1   3  -1   20.94    0.59
  -1   3  -1   21.87    0.65
   1  -3   1   22.20    0.61
   1  -3   1   21.55    0.60
  -2   3  -1   36.85    1.01
   2  -3   1   37.24    1.03
   2  -3   1   37.32    1.03
  -3   3  -1   56.45    1.55
   3  -3   1   56.92    1.57
   3  -3   1   59.02    1.58
  -4   3  -1    1.59    0.12
   4  -3   1    1.59    0.12
   4  -3   1    1.66    0.13
   5  -3   1   21.04    0.65
   5  -3   1   21.57    0.63
   5  -3   1   20.79    0.72
   6  -3   1    2.25    0.26
   6  -3   1    2.03    0.16
   6  -3   1    1.69    0.17
   7  -3   1   17.97    0.60
   7  -3   1   17.44    0.57
   8  -3   1   43.65    1.29
   9  -3   1    0.76    0.20
  11   2  -1   34.16    1.06
  10   2  -1   64.19    1.82
   9   2  -1    0.16    0.15
   8   2  -1    2.28    0.18
   7   2  -1    0.09    0.13
   7   2  -1    0.13    0.10
   6   2  -1   74.89    2.08
   6   2  -1   77.38    2.10
   5   2  -1    8.02    0.27
   5   2  -1    8.16    0.30
   4   2  -1    0.08    0.06
   4   2  -1    0.06    0.07
   3   2  -1   68.00    1.82
   3   2  -1   67.16    1.84
   2   2  -1   90.05    2.40
   2   2  -1   88.63    2.41
   1   2  -1    0.37    0.03
   1   2  -1    0.39    0.07
  -1  -2   1    0.38    0.04
   0   2  -1  269.05    7.10
   0   2  -1  248.83    7.13
   0  -2   1  276.93    7.11
   0  -2   1  260.94    7.10
  -1   2  -1  414.24   11.28
   1  -2   1  428.15   11.35
   1  -2   1  420.64   11.34
  -2   2  -1  173.57    4.69
   2  -2   1  174.85    4.71
   2  -2   1  177.06    4.71
  -3   2  -1  229.26    6.06
   3  -2   1  237.85    6.09
   3  -2   1  237.53    6.08
   3  -2   1  201.43    6.11
  -4   2  -1   51.54    1.44
   4  -2   1   54.88    1.48
   4  -2   1   53.09    1.46
   4  -2   1   54.01    1.52
   5  -2   1    2.70    0.17
   5  -2   1    2.61    0.19
   6  -2   1    4.77    0.23
   6  -2   1    5.03    0.26
   7  -2   1    0.56    0.12
   7  -2   1    0.40    0.14
   8  -2   1    1.57    0.19
   9  -2   1    8.86    0.43
  10   1  -1    5.36    0.36
   9   1  -1    2.54    0.21
   8   1  -1    6.44    0.32
   7   1  -1   12.08    0.42
   6   1  -1   20.46    0.58
   6   1  -1   21.95    0.63
   5   1  -1  161.20    4.45
   5   1  -1  171.51    4.49
   5   1  -1  166.76    4.50
   4   1  -1  522.36   14.04
   4   1  -1  518.14   14.10
   4   1  -1  521.47   14.06
   3   1  -1  113.93    3.07
   3   1  -1  113.40    3.06
   2   1  -1  229.65    6.29
  -2  -1   1  236.73    6.25
   1   1  -1   41.86    1.12
   1   1  -1   42.37    1.13
  -1  -1   1   41.38    1.11
  -1  -1   1   40.31    1.13
   0   1  -1   64.29    1.80
   0  -1   1   67.82    1.78
   0  -1   1   66.81    1.80
  -1   1  -1    0.95    0.04
   1  -1   1    0.97    0.07
   1  -1   1    1.01    0.08
   1  -1   1    0.90    0.07
   2  -1   1   43.62    1.18
   2  -1   1   42.92    1.18
  -3   1  -1   65.45    1.80
   3  -1   1   69.00    1.85
   3  -1   1   67.44    1.82
   3  -1   1   65.29    1.81
  -4   1  -1   15.67    0.45
   4  -1   1   16.27    0.48
   4  -1   1   15.72    0.46
  -5   1  -1   24.88    0.69
   5  -1   1   25.16    0.73
   5  -1   1   24.76    0.71
   6  -1   1   23.25    0.69
   6  -1   1   22.57    0.66
   7  -1   1   23.31    0.71
   7  -1   1   22.93    0.68
   8  -1   1   28.02    0.87
   9  -1   1   78.50    2.21
  10  -1   1   36.73    1.13
  10   0  -1   24.43    0.81
   9   0  -1   54.23    1.56
   8   0  -1   40.00    1.17
   7   0  -1    3.62    0.23
   6   0  -1   16.87    0.49
   6   0  -1   17.98    0.54
   5   0  -1    0.13    0.05
   5   0  -1    0.14    0.08
   4   0  -1   64.44    1.75
   4   0  -1   63.77    1.73
   3   0  -1   29.13    0.81
   3   0  -1   31.09    0.84
   3   0  -1   29.85    0.83
   2   0  -1    1.24    0.08
   2   0  -1    1.10    0.04
   2   0  -1    1.06    0.07
  -2   0   1    1.06    0.04
   0   0  -1    9.25    0.25
   0   0  -1    8.76    0.25
   0   0   1    9.10    0.25
   0   0   1    8.46    0.25
   0   0   1    9.59    0.25
  -1   0  -1   13.38    0.39
   1   0   1   14.49    0.40
   1   0   1   14.79    0.41
   1   0   1   13.81    0.39
   2   0   1  368.96    9.82
   2   0   1  359.46    9.79
   3   0   1  302.35    8.30
   3   0   1  315.25    8.34
   4   0   1   55.19    1.49
   4   0   1   53.67    1.48
   5   0   1  274.58    7.47
   5   0   1  282.72    7.49
   6   0   1    4.60    0.23
   6   0   1    4.41    0.19
   7   0   1    3.01    0.17
   7   0   1    3.06    0.22
   8   0   1   28.24    0.86
   9   0   1    0.11    0.16
  10   0   1   12.97    0.53
  10  -1  -1    3.11    0.26
   9  -1  -1   11.41    0.46
   8  -1  -1    7.63    0.36
   7  -1  -1   49.09    1.37
  -7   1   1   47.20    1.42
   6  -1  -1    3.43    0.21
   6  -1  -1    3.12    0.15
  -6   1   1    2.81    0.19
   5  -1  -1    1.87    0.13
   5  -1  -1    1.94    0.11
  -5   1   1    1.86    0.15
   4  -1  -1    2.01    0.13
   4  -1  -1    1.98    0.10
  -4   1   1    2.36    0.13
   3  -1  -1  189.88    5.16
   3  -1  -1  190.90    5.18
  -3   1   1  195.51    5.15
   2  -1  -1   67.57    1.77
   2  -1  -1   64.05    1.74
   2  -1  -1   63.84    1.75
  -2   1   1   63.61    1.75
   1  -1  -1    3.22    0.13
   1  -1  -1    3.18    0.11
  -1   1   1    3.33    0.12
   0  -1  -1   41.58    1.13
   0  -1  -1   42.98    1.13
   0   1   1   42.73    1.14
   0   1   1   40.26    1.14
   1   1   1    7.40    0.21
   1   1   1    7.38    0.21
   1   1   1    7.80    0.21
   1   1   1    7.46    0.22
   2   1   1  278.06    7.38
   2   1   1  267.78    7.34
   2   1   1  270.77    7.33
   2   1   1  273.50    7.37
   3   1   1   29.70    0.82
   3   1   1   29.75    0.80
   3   1   1   28.81    0.81
   4   1   1    1.22    0.08
   4   1   1    1.25    0.11
   5   1   1    8.56    0.29
   5   1   1    8.56    0.26
   6   1   1  173.57    4.76
   6   1   1  181.17    4.79
   7   1   1    0.35    0.12
   7   1   1    0.29    0.08
   8   1   1    0.97    0.15
   9   1   1    0.28    0.16
  10   1   1   13.09    0.53
   9  -2  -1    1.70    0.21
   8  -2  -1    0.36    0.16
   7  -2  -1    3.26    0.25
   6  -2  -1   42.12    1.17
   6  -2  -1   40.84    1.14
  -6   2   1   40.39    1.14
   5  -2  -1   27.55    0.79
   5  -2  -1   27.15    0.77
  -5   2   1   27.70    0.78
   4  -2  -1   20.79    0.61
   4  -2  -1   21.22    0.65
   4  -2  -1   20.49    0.59
  -4   2   1   21.04    0.59
   3  -2  -1  142.70    3.86
   3  -2  -1  147.09    3.90
   3  -2  -1  142.03    3.87
  -3   2   1  142.63    3.86
   2  -2  -1   37.77    1.04
   2  -2  -1   38.41    1.03
   2  -2  -1   38.46    1.07
  -2   2   1   37.48    1.04
   1  -2  -1   62.67    1.73
   1  -2  -1   63.96    1.71
  -1   2   1   63.92    1.71
   0  -2  -1    7.90    0.23
   0  -2  -1    7.81    0.26
   0   2   1    7.87    0.25
   0   2   1    7.80    0.24
  -1  -2  -1    6.63    0.21
   1   2   1    6.48    0.20
   1   2   1    6.37    0.20
   2   2   1  167.53    4.71
   2   2   1  171.64    4.73
   2   2   1  171.61    4.72
   2   2   1  186.44    4.71
   3   2   1   15.92    0.46
   3   2   1   16.38    0.45
   3   2   1   16.17    0.46
   4   2   1    7.70    0.24
   4   2   1    7.08    0.25
   4   2   1    6.99    0.22
   5   2   1    0.14    0.05
   5   2   1    0.27    0.07
   5   2   1    0.09    0.08
   6   2   1    4.22    0.20
   6   2   1    3.76    0.15
   7   2   1    2.20    0.13
   7   2   1    2.17    0.16
   8   2   1   60.55    1.70
   9   2   1    1.02    0.17
  10   2   1    0.17    0.17
  11   2   1    1.33    0.22
   9  -3  -1    4.52    0.37
   8  -3  -1   15.13    0.56
   7  -3  -1   11.06    0.43
   6  -3  -1   58.38    1.64
   6  -3  -1   58.93    1.62
   5  -3  -1   18.04    0.56
   5  -3  -1   18.56    0.63
   5  -3  -1   18.81    0.54
  -5   3   1   17.45    0.53
   4  -3  -1   24.02    0.69
   4  -3  -1   23.59    0.74
   4  -3  -1   23.61    0.67
  -4   3   1   23.38    0.67
   3  -3  -1   39.36    1.12
   3  -3  -1   39.56    1.07
   3  -3  -1   39.22    1.08
  -3   3   1   37.34    1.06
   2  -3  -1   28.76    0.83
   2  -3  -1   28.93    0.79
   2  -3  -1   28.71    0.80
  -2   3   1   28.37    0.79
   1  -3  -1    3.17    0.18
   1  -3  -1    3.18    0.12
  -1   3   1    3.00    0.12
   0  -3  -1   67.45    1.80
   0  -3  -1   67.44    1.85
   0   3   1   66.40    1.81
   0   3   1   66.98    1.83
  -1  -3  -1  206.85    5.56
   1   3   1  203.63    5.58
   1   3   1  208.49    5.62
  -2  -3  -1  166.52    4.48
   2   3   1  169.07    4.51
   2   3   1  166.24    4.47
   2   3   1  164.64    4.48
   3   3   1  438.17   11.88
   3   3   1  444.82   11.83
   3   3   1  436.77   11.89
   4   3   1  218.44    5.90
   4   3   1  220.66    5.90
   5   3   1    7.94    0.28
   5   3   1    7.96    0.24
   5   3   1    7.60    0.26
   6   3   1   23.46    0.68
   6   3   1   22.97    0.65
   6   3   1   24.17    0.70
   7   3   1    1.01    0.12
   7   3   1    0.90    0.14
   7   3   1    1.07    0.08
   8   3   1   33.74    0.99
   9   3   1   -0.04    0.14
  10   3   1    0.04    0.16
  11   3   1    0.92    0.21
   8  -4  -1    1.49    0.21
   7  -4  -1   14.37    0.51
   6  -4  -1    0.06    0.14
   6  -4  -1    0.10    0.11
   5  -4  -1   34.13    1.07
   5  -4  -1   35.20    0.98
   5  -4  -1   33.85    0.99
   4  -4  -1  172.55    4.69
   4  -4  -1  176.63    4.68
   4  -4  -1  177.76    4.75
  -4   4   1  168.43    4.67
   3  -4  -1  105.83    2.95
   3  -4  -1  107.49    2.89
   3  -4  -1  108.37    2.90
  -3   4   1  106.38    2.89
   2  -4  -1  192.50    5.25
   2  -4  -1  195.15    5.20
   2  -4  -1  193.42    5.20
  -2   4   1  193.68    5.20
   1  -4  -1  306.60    8.36
   1  -4  -1  317.96    8.36
   1  -4  -1  307.40    8.35
  -1   4   1  310.57    8.37
  -1   4   1  309.85    8.35
   0  -4  -1    4.76    0.24
   0  -4  -1    4.31    0.14
   0   4   1    4.18    0.21
   0   4   1    4.41    0.16
  -1  -4  -1    2.50    0.20
   1   4   1    3.05    0.13
   1   4   1    2.74    0.16
  -2  -4  -1   37.26    1.02
   2   4   1   35.51    1.00
   2   4   1   35.51    0.99
  -3  -4  -1  117.27    3.13
   3   4   1  115.44    3.12
   3   4   1  114.16    3.11
   3   4   1  114.64    3.10
  -4  -4  -1   14.99    0.46
   4   4   1   14.71    0.43
   4   4   1   14.79    0.45
   4   4   1   14.99    0.45
   5   4   1   20.14    0.59
   5   4   1   19.54    0.57
   6   4   1    7.32    0.29
   6   4   1    7.03    0.26
   7   4   1   12.32    0.44
   7   4   1   12.36    0.41
   8   4   1    1.49    0.18
   8   4   1    1.04    0.14
   9   4   1   90.66    2.51
  10   4   1   62.22    1.77
  11   4   1    6.23    0.39
   8  -5  -1   16.53    0.62
   7  -5  -1    5.47    0.34
   6  -5  -1   38.50    1.25
   6  -5  -1   39.19    1.15
   6  -5  -1   40.73    1.14
   5  -5  -1    3.43    0.22
   5  -5  -1    3.37    0.24
   5  -5  -1    3.68    0.31
   4  -5  -1   57.36    1.57
   4  -5  -1   55.52    1.65
   4  -5  -1   56.61    1.57
   3  -5  -1    3.67    0.30
   3  -5  -1    3.69    0.19
   3  -5  -1    3.85    0.19
  -3   5   1    3.74    0.16
   2  -5  -1    7.37    0.26
   2  -5  -1    7.60    0.35
   2  -5  -1    7.13    0.25
  -2   5   1    7.54    0.25
  -2   5   1    7.28    0.33
   1  -5  -1   32.88    1.00
   1  -5  -1   33.58    0.91
   1  -5  -1   32.98    0.92
  -1   5   1   33.68    0.92
  -1   5   1   32.36    0.97
   0  -5  -1   35.78    0.95
   0  -5  -1   33.97    1.04
   0   5   1   34.73    1.01
   0   5   1   34.73    0.96
  -1  -5  -1    8.82    0.37
   1   5   1    8.95    0.28
   1   5   1    8.50    0.32
  -2  -5  -1   95.82    2.57
   2   5   1   90.53    2.54
  -3  -5  -1  124.39    3.33
   3   5   1  120.11    3.30
   3   5   1  121.54    3.31
  -4  -5  -1  186.97    5.04
   4   5   1  184.59    5.00
   4   5   1  187.48    5.03
  -5  -5  -1  235.60    6.45
   5   5   1  235.12    6.41
   5   5   1  246.34    6.44
  -6  -5  -1   71.82    1.99
   6   5   1   69.23    1.95
   6   5   1   73.57    1.98
   7   5   1   41.23    1.16
   7   5   1   41.26    1.19
   8   5   1   29.59    0.88
   8   5   1   30.57    0.91
   9   5   1    0.13    0.17
   9   5   1   -0.18    0.13
  10   5   1    0.43    0.16
  11   5   1    3.93    0.33
   7  -6  -1    6.69    0.39
   6  -6  -1    0.51    0.29
   6  -6  -1    0.35    0.17
   6  -6  -1    0.11    0.15
   5  -6  -1    2.80    0.31
   5  -6  -1    2.41    0.19
   5  -6  -1    2.50    0.19
   4  -6  -1   12.54    0.42
   4  -6  -1   12.35    0.56
   4  -6  -1   12.10    0.42
   3  -6  -1   34.88    1.00
   3  -6  -1   35.90    1.00
   3  -6  -1   34.73    1.10
  -3   6   1   35.80    0.98
  -3   6   1   34.33    1.08
   2  -6  -1   27.55    0.79
   2  -6  -1   27.92    0.80
   2  -6  -1   27.17    0.89
  -2   6   1   27.66    0.78
  -2   6   1   28.16    0.87
   1  -6  -1   13.57    0.40
   1  -6  -1   12.95    0.41
   1  -6  -1   13.54    0.53
  -1   6   1   12.86    0.48
  -1   6   1   13.45    0.41
   0  -6  -1  151.44    4.03
   0  -6  -1  146.60    4.13
   0   6   1  151.91    4.05
   0   6   1  150.28    4.10
  -1  -6  -1   27.38    0.90
   1   6   1   28.88    0.85
   1   6   1   29.37    0.81
  -2  -6  -1   14.17    0.52
   2   6   1   13.81    0.43
   2   6   1   14.26    0.46
  -3  -6  -1   13.13    0.48
   3   6   1   12.86    0.42
   3   6   1   12.76    0.41
  -4  -6  -1   -0.07    0.12
   4   6   1    0.10    0.10
   4   6   1    0.17    0.09
  -5  -6  -1   39.45    1.14
   5   6   1   37.43    1.07
   5   6   1   40.44    1.12
   5   6   1   39.10    1.11
  -6  -6  -1   40.60    1.18
   6   6   1   38.94    1.11
   6   6   1   41.08    1.15
  -7  -6  -1   23.39    0.75
   7   6   1   23.73    0.72
   7   6   1   22.55    0.68
  -8  -6  -1    2.74    0.24
   8   6   1    2.75    0.20
   8   6   1    2.80    0.22
  -9  -6  -1    8.13    0.43
   9   6   1    7.28    0.33
   9   6   1    8.16    0.40
  10   6   1    2.06    0.20
  10   6   1    2.22    0.25
   6  -7  -1    0.71    0.32
   6  -7  -1    0.57    0.20
   6  -7  -1    0.43    0.18
  -6   7   1    0.24    0.30
   5  -7  -1    0.71    0.31
   5  -7  -1    0.43    0.16
   5  -7  -1    0.55    0.16
  -5   7   1    0.87    0.29
   4  -7  -1    2.08    0.18
   4  -7  -1    2.62    0.19
   4  -7  -1    2.10    0.33
  -4   7   1    2.90    0.30
   3  -7  -1   38.73    1.25
   3  -7  -1   38.50    1.12
   3  -7  -1   40.61    1.12
  -3   7   1   39.15    1.22
   2  -7  -1   44.45    1.26
   2  -7  -1   45.76    1.25
   2  -7  -1   43.77    1.38
  -2   7   1   45.54    1.35
  -2   7   1   44.74    1.25
   1  -7  -1   13.77    0.59
   1  -7  -1   13.44    0.42
   1  -7  -1   13.97    0.44
  -1   7   1   13.69    0.43
  -1   7   1   13.51    0.53
   0  -7  -1    9.60    0.49
   0  -7  -1    9.59    0.30
   0  -7  -1   10.46    0.34
   0   7   1   10.52    0.42
   0   7   1   10.20    0.34
  -1  -7  -1    6.47    0.43
   1   7   1    6.79    0.25
   1   7   1    6.37    0.32
  -2  -7  -1   41.49    1.25
   2   7   1   40.53    1.15
   2   7   1   41.04    1.19
  -3  -7  -1    7.05    0.37
   3   7   1    6.86    0.31
  -4  -7  -1    9.60    0.42
   4   7   1    8.65    0.33
   4   7   1    9.14    0.35
  -5  -7  -1    0.50    0.16
   5   7   1    0.55    0.13
   5   7   1    0.59    0.12
  -6  -7  -1   24.88    0.80
   6   7   1   25.11    0.77
  -7  -7  -1   19.11    0.67
   7   7   1   19.07    0.62
  -8  -7  -1    3.78    0.34
   8   7   1    3.62    0.31
  -9  -7  -1    1.45    0.24
   9   7   1    1.28    0.21
 -10  -7  -1    0.02    0.25
  10   7   1    0.21    0.20
 -11  -7  -1    4.06    0.37
  11   7   1    4.51    0.40
   5  -8  -1    7.04    0.60
   5  -8  -1    6.38    0.36
  -5   8   1    6.44    0.56
   4  -8  -1    0.13    0.31
   4  -8  -1   -0.01    0.15
  -4   8   1   -0.10    0.26
   3  -8  -1   61.78    1.70
   3  -8  -1   58.86    1.84
  -3   8   1   60.83    1.80
   2  -8  -1    9.98    0.57
   2  -8  -1   10.51    0.39
  -2   8   1    9.65    0.51
   1  -8  -1    0.64    0.28
   1  -8  -1    0.73    0.14
  -1   8   1    0.68    0.11
  -1   8   1    0.66    0.22
   0  -8  -1    6.09    0.27
   0  -8  -1    5.72    0.46
   0   8   1    5.45    0.36
   0   8   1    5.45    0.25
  -1  -8  -1    7.22    0.49
  -1  -8  -1    8.70    0.33
   1   8   1    8.52    0.31
   1   8   1    8.48    0.41
  -2  -8  -1    3.77    0.33
   2   8   1    2.87    0.20
   2   8   1    2.88    0.23
  -3  -8  -1   96.20    2.67
   3   8   1   94.02    2.60
   3   8   1   91.50    2.57
  -4  -8  -1   69.42    1.95
   4   8   1   64.25    1.86
   4   8   1   68.42    1.89
  -5  -8  -1    0.61    0.20
   5   8   1    0.68    0.15
   5   8   1    0.73    0.13
  -6  -8  -1   79.84    2.27
   6   8   1   80.13    2.23
  -7  -8  -1    5.13    0.39
   7   8   1    5.51    0.33
  -8  -8  -1   18.52    0.69
   8   8   1   18.53    0.64
  -9  -8  -1    0.68    0.24
   9   8   1    0.72    0.20
 -10  -8  -1    2.89    0.32
  10   8   1    2.87    0.28
   4  -9  -1   17.84    0.88
   4  -9  -1   16.85    0.60
  -4   9   1   17.25    0.78
   3  -9  -1    9.10    0.41
   3  -9  -1    8.67    0.63
  -3   9   1    8.96    0.57
   2  -9  -1   33.36    1.01
   2  -9  -1   32.44    1.19
  -2   9   1   36.53    1.13
   1  -9  -1   94.99    2.51
   1  -9  -1   85.67    2.65
  -1   9   1   91.39    2.59
   0  -9  -1   14.77    0.49
   0  -9  -1   13.23    0.71
   0   9   1   14.98    0.47
   0   9   1   13.66    0.58
  -1  -9  -1    5.42    0.45
  -1  -9  -1    6.28    0.30
   1   9   1    6.17    0.28
   1   9   1    6.34    0.38
  -2  -9  -1   33.20    0.95
  -2  -9  -1   32.78    1.12
   2   9   1   31.48    1.02
   2   9   1   33.82    0.96
  -3  -9  -1   28.96    0.99
   3   9   1   27.51    0.87
   3   9   1   26.80    0.83
  -4  -9  -1    4.89    0.45
   4   9   1    5.84    0.35
   4   9   1    5.53    0.29
  -5  -9  -1    0.76    0.24
   5   9   1    0.49    0.17
   5   9   1    0.55    0.14
  -6  -9  -1    0.16    0.22
   6   9   1    0.28    0.17
  -7  -9  -1    1.80    0.27
   7   9   1    1.94    0.22
  -8  -9  -1    0.77    0.25
   8   9   1    0.65    0.20
  -9  -9  -1    5.75    0.46
   9   9   1    6.20    0.40
 -10  -9  -1   25.36    0.92
  10   9   1   25.48    0.86
   3 -10  -1    1.47    0.41
   3 -10  -1    1.88    0.23
  -3  10   1    1.68    0.34
   2 -10  -1    1.87    0.41
   2 -10  -1    2.07    0.21
  -2  10   1    2.34    0.34
   1 -10  -1   25.89    1.09
   1 -10  -1   29.83    0.87
  -1  10   1   27.76    0.97
   0 -10  -1    2.53    0.41
   0 -10  -1    2.32    0.20
   0  10   1    2.26    0.29
  -1 -10  -1   -0.35    0.32
  -1 -10  -1   -0.03    0.15
   1  10   1   -0.01    0.14
   1  10   1   -0.11    0.22
  -2 -10  -1   11.71    0.43
  -2 -10  -1   11.73    0.68
   2  10   1   12.18    0.44
   2  10   1   11.55    0.53
  -3 -10  -1    2.63    0.36
  -3 -10  -1    2.44    0.19
   3  10   1    2.13    0.25
   3  10   1    2.62    0.20
  -4 -10  -1   14.72    0.69
   4  10   1   15.21    0.53
   4  10   1   14.88    0.58
  -5 -10  -1   83.16    2.39
   5  10   1   79.88    2.27
   5  10   1   81.94    2.31
  -6 -10  -1   25.07    0.91
   6  10   1   25.26    0.82
  -7 -10  -1   42.39    1.36
   7  10   1   43.38    1.29
  -8 -10  -1   57.65    1.73
   8  10   1   55.49    1.65
  -9 -10  -1    1.69    0.32
   9  10   1    1.63    0.25
   1 -11  -1    0.37    0.41
   1 -11  -1    0.21    0.19
  -1  11   1    0.60    0.29
   0 -11  -1   36.48    1.08
   0 -11  -1   33.53    1.32
   0  11   1   36.90    1.18
  -1 -11  -1   25.01    1.07
  -1 -11  -1   26.18    0.82
   1  11   1   26.59    0.91
   1  11   1   25.93    0.82
  -2 -11  -1    0.14    0.16
  -2 -11  -1    0.34    0.37
   2  11   1    0.36    0.24
   2  11   1    0.42    0.16
  -3 -11  -1   26.01    1.01
  -3 -11  -1   24.45    0.78
   3  11   1   23.77    0.78
   3  11   1   25.91    0.87
  -4 -11  -1    2.01    0.38
  -4 -11  -1    2.02    0.20
   4  11   1    2.04    0.21
   4  11   1    2.16    0.27
  -5 -11  -1   10.64    0.65
   5  11   1    9.92    0.49
  -6 -11  -1    8.13    0.57
   6  11   1    7.78    0.45
  -7 -11  -1    8.84    0.60
   7  11   1    8.42    0.48
  -8 -11  -1    0.59    0.30
   8  11   1    0.34    0.23
  -1 -12  -1    0.24    0.20
  -1 -12  -1    0.02    0.42
   1  12   1    0.17    0.28
  -2 -12  -1   19.38    0.66
  -2 -12  -1   19.11    0.91
   2  12   1   17.56    0.64
   2  12   1   19.45    0.77
  -3 -12  -1    0.05    0.18
  -3 -12  -1    0.16    0.39
   3  12   1    0.11    0.25
   3  12   1   -0.08    0.18
  -4 -12  -1    1.03    0.41
  -4 -12  -1    1.33    0.21
   4  12   1    1.02    0.27
  -5 -12  -1    4.35    0.33
  -5 -12  -1    4.33    0.47
   5  12   1    4.93    0.36
  -6 -12  -1    4.15    0.27
  -6 -12  -1    3.85    0.43
   6  12   1    4.39    0.34
  -7 -12  -1    6.40    0.38
  -7 -12  -1    6.35    0.58
   7  12   1    6.22    0.46
   7  11  -2   20.73    0.81
  -7 -11   2   20.63    0.90
   6  11  -2    1.69    0.31
  -6 -11   2    1.15    0.36
   5  11  -2    0.33    0.28
  -5 -11   2    0.25    0.18
  -5 -11   2    0.55    0.34
   4  11  -2    0.45    0.29
  -4 -11   2    0.31    0.18
  -4 -11   2    0.54    0.33
   3  11  -2   20.28    0.80
  -3 -11   2   21.17    0.92
  -3 -11   2   19.56    0.68
   2  11  -2    4.63    0.40
  -2 -11   2    5.34    0.50
  -2 -11   2    4.54    0.34
   1  11  -2    0.31    0.29
  -1 -11   2    0.71    0.20
  -1 -11   2    0.15    0.36
   8  10  -2    0.77    0.28
  -8 -10   2    0.57    0.31
   7  10  -2    1.39    0.29
  -7 -10   2    1.28    0.31
   6  10  -2   13.16    0.61
  -6 -10   2   12.42    0.46
  -6 -10   2   12.42    0.65
   5  10  -2   10.35    0.55
  -5 -10   2    9.35    0.40
  -5 -10   2   10.70    0.61
   4  10  -2    1.70    0.29
  -4 -10   2    1.49    0.35
  -4 -10   2    1.72    0.18
   3  10  -2    6.30    0.49
  -3 -10   2    6.99    0.57
  -3 -10   2    6.94    0.34
   2  10  -2    0.97    0.28
  -2 -10   2    0.86    0.35
  -2 -10   2    0.78    0.17
   1  10  -2   26.41    0.95
  -1 -10   2   25.19    0.81
  -1 -10   2   27.09    1.03
   0  10  -2    0.45    0.28
   0 -10   2   -0.02    0.17
   0 -10   2   -0.03    0.35
  -1  10  -2    0.07    0.28
   1 -10   2    0.10    0.20
   1 -10   2    0.29    0.37
   2 -10   2   10.25    0.78
   9   9  -2   11.11    0.56
  -9  -9   2   11.50    0.63
   8   9  -2    0.11    0.23
  -8  -9   2   -0.19    0.26
   7   9  -2    2.58    0.29
  -7  -9   2    2.37    0.31
   6   9  -2    8.70    0.48
  -6  -9   2    8.53    0.52
  -6  -9   2    8.58    0.34
   5   9  -2   17.96    0.68
  -5  -9   2   17.37    0.56
  -5  -9   2   17.33    0.72
   4   9  -2    6.84    0.44
  -4  -9   2    6.38    0.30
  -4  -9   2    6.80    0.51
   3   9  -2    2.90    0.29
  -3  -9   2    3.21    0.24
  -3  -9   2    3.71    0.37
   2   9  -2    2.30    0.28
  -2  -9   2    2.46    0.35
  -2  -9   2    2.73    0.19
   1   9  -2    5.49    0.43
  -1  -9   2    4.72    0.30
  -1  -9   2    5.43    0.45
   0   9  -2   21.67    0.80
   0  -9   2   21.18    0.70
   0  -9   2   23.23    0.91
  -1   9  -2   37.66    1.22
   1  -9   2   37.52    1.11
   1  -9   2   37.41    1.30
  -2   9  -2    2.57    0.36
   2  -9   2    2.78    0.43
   2  -9   2    2.63    0.24
  -3   9  -2   37.63    1.25
   3  -9   2   37.29    1.35
   3  -9   2   35.07    1.11
  10   8  -2   10.13    0.55
 -10  -8   2   11.61    0.60
   9   8  -2    1.28    0.26
  -9  -8   2    1.24    0.28
   8   8  -2   -0.02    0.21
  -8  -8   2   -0.21    0.23
   7   8  -2   33.71    1.04
  -7  -8   2   32.19    1.07
   6   8  -2    1.36    0.22
  -6  -8   2    1.26    0.24
  -6  -8   2    1.31    0.13
   5   8  -2   14.30    0.57
  -5  -8   2   13.89    0.61
  -5  -8   2   14.68    0.46
   4   8  -2  161.17    4.37
  -4  -8   2  158.13    4.40
  -4  -8   2  157.94    4.30
   3   8  -2   26.86    0.85
  -3  -8   2   25.12    0.76
  -3  -8   2   24.92    0.89
   2   8  -2   47.11    1.43
  -2  -8   2   47.32    1.35
  -2  -8   2   50.01    1.49
   1   8  -2   73.30    2.17
  -1  -8   2   73.19    2.09
  -1  -8   2   81.06    2.24
   0   8  -2    0.89    0.24
   0  -8   2    0.95    0.14
   0  -8   2    0.87    0.30
  -1   8  -2    1.16    0.26
   1  -8   2    0.98    0.33
   1  -8   2    1.53    0.18
  -2   8  -2   20.48    0.80
   2  -8   2   20.19    0.67
   2  -8   2   21.07    0.87
  -3   8  -2    0.74    0.30
   3  -8   2    0.83    0.18
   3  -8   2    0.91    0.35
  -4   8  -2    0.28    0.31
   4  -8   2    0.01    0.18
   4  -8   2    0.13    0.35
  10   7  -2    6.27    0.46
 -10  -7   2    6.83    0.49
   9   7  -2   73.32    2.11
  -9  -7   2   73.75    2.14
   8   7  -2   44.70    1.33
  -8  -7   2   44.32    1.36
   7   7  -2   12.83    0.51
  -7  -7   2   12.36    0.54
   6   7  -2   20.61    0.68
  -6  -7   2   18.91    0.69
  -6  -7   2   19.83    0.58
   5   7  -2    0.98    0.19
  -5  -7   2    0.72    0.11
  -5  -7   2    0.79    0.19
   4   7  -2    0.18    0.17
  -4  -7   2    0.08    0.18
  -4  -7   2    0.32    0.10
   3   7  -2    5.01    0.33
  -3  -7   2    5.74    0.37
  -3  -7   2    5.00    0.23
   2   7  -2   20.67    0.71
  -2  -7   2   22.10    0.75
  -2  -7   2   20.03    0.62
   1   7  -2    1.01    0.20
  -1  -7   2    0.84    0.24
  -1  -7   2    1.14    0.12
   0   7  -2    5.86    0.38
   0  -7   2    5.48    0.45
   0  -7   2    5.37    0.26
  -1   7  -2    1.13    0.23
   1  -7   2    0.93    0.14
   1  -7   2    1.02    0.28
  -2   7  -2   89.54    2.54
   2  -7   2   88.84    2.59
   2  -7   2   89.53    2.46
  -3   7  -2   29.56    0.98
   3  -7   2   27.25    1.03
   3  -7   2   28.19    0.86
  -4   7  -2   41.72    1.33
   4  -7   2   40.25    1.36
   4  -7   2   40.51    1.20
  -5   7  -2   64.30    1.91
   5  -7   2   60.65    1.77
   5  -7   2   61.24    1.93
  10   6  -2    3.45    0.30
 -10  -6   2    3.23    0.33
   9   6  -2    1.92    0.24
  -9  -6   2    1.62    0.26
   8   6  -2    0.20    0.18
  -8  -6   2   -0.03    0.20
   7   6  -2   34.71    1.04
  -7  -6   2   33.98    1.06
   6   6  -2    0.47    0.16
  -6  -6   2    0.19    0.16
  -6  -6   2    0.38    0.08
   5   6  -2    1.05    0.17
  -5  -6   2    1.27    0.10
  -5  -6   2    1.15    0.17
   4   6  -2    4.17    0.29
  -4  -6   2    4.12    0.18
   3   6  -2   48.02    1.36
  -3  -6   2   45.86    1.29
   2   6  -2  147.64    4.00
  -2  -6   2  144.82    3.94
   1   6  -2    1.37    0.18
  -1  -6   2    1.59    0.12
   0   6  -2   79.09    2.23
   0  -6   2   79.29    2.17
  -1   6  -2   18.98    0.66
   1  -6   2   19.77    0.71
   1  -6   2   17.95    0.56
   1  -6   2   19.06    0.58
  -2   6  -2    1.22    0.22
   2  -6   2    1.19    0.13
   2  -6   2    1.04    0.14
   2  -6   2    1.00    0.25
  -3   6  -2    4.49    0.32
   3  -6   2    3.55    0.24
   3  -6   2    3.49    0.25
   3  -6   2    3.30    0.33
  -4   6  -2    8.51    0.52
   4  -6   2    8.76    0.38
   4  -6   2    8.36    0.37
   4  -6   2    8.43    0.53
  -5   6  -2    0.75    0.29
   5  -6   2    0.32    0.18
   5  -6   2    0.22    0.30
   5  -6   2    0.66    0.18
  -6   6  -2   19.59    0.83
   6  -6   2   19.14    0.69
   6  -6   2   19.94    0.67
   6  -6   2   20.11    0.86
  11   5  -2    5.21    0.44
 -11  -5   2    5.54    0.51
  10   5  -2   -0.02    0.15
  10   5  -2    0.02    0.21
 -10  -5   2   -0.04    0.23
   9   5  -2    7.40    0.34
   9   5  -2    8.04    0.43
  -9  -5   2    8.42    0.44
   8   5  -2    2.64    0.21
   8   5  -2    3.38    0.29
  -8  -5   2    2.97    0.25
   7   5  -2   23.45    0.70
   7   5  -2   24.82    0.76
  -7  -5   2   24.10    0.78
   6   5  -2    1.35    0.17
  -6  -5   2    1.32    0.17
   5   5  -2   22.01    0.65
   5   5  -2   19.54    0.58
   4   5  -2    3.91    0.14
   4   5  -2    4.37    0.24
  -4  -5   2    3.83    0.16
   3   5  -2   27.04    0.77
   3   5  -2   29.71    0.85
  -3  -5   2   28.72    0.79
   2   5  -2   33.42    0.97
   2   5  -2   31.99    0.89
  -2  -5   2   32.69    0.91
   1   5  -2   59.43    1.69
  -1  -5   2   59.89    1.63
   0   5  -2    0.45    0.15
   0  -5   2    0.53    0.08
  -1   5  -2    3.81    0.15
  -1   5  -2    4.04    0.29
   1  -5   2    4.13    0.19
   1  -5   2    3.58    0.18
  -2   5  -2   80.50    2.28
   2  -5   2   82.86    2.22
   2  -5   2   79.74    2.22
  -3   5  -2   24.74    0.82
   3  -5   2   23.73    0.84
   3  -5   2   25.30    0.74
   3  -5   2   25.39    0.74
  -4   5  -2   22.93    0.80
   4  -5   2   23.61    0.71
   4  -5   2   22.03    0.81
   4  -5   2   22.32    0.70
  -5   5  -2    0.46    0.24
   5  -5   2   -0.26    0.24
   5  -5   2    0.14    0.15
   5  -5   2    0.10    0.15
   6  -5   2   15.70    0.57
   6  -5   2   15.57    0.55
   6  -5   2   15.94    0.72
   7  -5   2   11.60    0.51
   7  -5   2   11.65    0.48
   7  -5   2   11.90    0.66
  11   4  -2    2.93    0.25
  10   4  -2   76.07    2.12
  10   4  -2   75.01    2.16
   9   4  -2   27.58    0.87
   9   4  -2   26.79    0.82
   8   4  -2    8.33    0.33
   7   4  -2   54.17    1.52
   7   4  -2   52.65    1.48
   6   4  -2    9.55    0.32
   6   4  -2   10.03    0.37
   5   4  -2   44.45    1.22
   5   4  -2   41.39    1.18
   4   4  -2    0.98    0.12
   4   4  -2    0.82    0.07
  -4  -4   2    0.82    0.06
   3   4  -2   77.79    2.08
   3   4  -2   74.79    2.03
  -3  -4   2   73.79    2.04
   2   4  -2    0.82    0.06
   2   4  -2    0.83    0.12
  -2  -4   2    0.72    0.07
   1   4  -2   27.97    0.84
  -1  -4   2   28.53    0.79
   0   4  -2   20.50    0.62
   0  -4   2   21.26    0.57
   0  -4   2   17.08    0.62
  -1   4  -2    5.41    0.18
  -1   4  -2    5.53    0.29
   1  -4   2    5.53    0.29
   1  -4   2    5.07    0.20
   1  -4   2    5.51    0.21
  -2   4  -2    1.09    0.16
  -2   4  -2    1.04    0.07
   2  -4   2    1.12    0.10
   2  -4   2    0.45    0.11
   2  -4   2    1.02    0.10
  -3   4  -2   66.80    1.94
   3  -4   2   69.54    1.89
   3  -4   2   69.96    1.90
   4  -4   2   93.65    2.51
   4  -4   2   92.13    2.52
   4  -4   2   89.72    2.59
   5  -4   2   11.48    0.42
   5  -4   2   10.49    0.53
   5  -4   2   10.98    0.40
   6  -4   2   11.23    0.45
   6  -4   2   11.35    0.42
   6  -4   2   10.67    0.56
   7  -4   2    0.48    0.17
   7  -4   2    0.83    0.19
   8  -4   2   14.25    0.57
  11   3  -2    1.62    0.22
  10   3  -2    9.46    0.43
   9   3  -2    1.40    0.17
   9   3  -2    1.45    0.21
   8   3  -2    9.98    0.37
   8   3  -2    9.69    0.41
   7   3  -2   20.56    0.66
   7   3  -2   20.94    0.62
   6   3  -2    0.36    0.09
   6   3  -2    0.49    0.12
   5   3  -2    6.89    0.24
   5   3  -2    7.40    0.28
   4   3  -2  198.14    5.37
   4   3  -2  202.38    5.40
  -4  -3   2  199.98    5.40
   3   3  -2  123.97    3.30
   3   3  -2  122.52    3.27
  -3  -3   2  119.90    3.27
  -3  -3   2  121.17    3.31
   2   3  -2  160.10    4.33
   2   3  -2  160.84    4.30
  -2  -3   2  161.97    4.33
  -2  -3   2  157.84    4.31
   1   3  -2  398.05   10.90
  -1  -3   2  394.69   10.94
  -1  -3   2  412.40   10.81
   0   3  -2  120.90    3.42
   0  -3   2  128.89    3.43
   0  -3   2  127.04    3.38
  -1   3  -2   17.46    0.55
   1  -3   2   18.11    0.51
   1  -3   2   17.85    0.57
   1  -3   2   16.91    0.51
   2  -3   2   32.70    0.91
   2  -3   2   32.81    0.97
   2  -3   2   32.05    0.91
   3  -3   2    0.30    0.09
   3  -3   2    0.27    0.08
   3  -3   2    0.50    0.15
   4  -3   2   27.81    0.77
   4  -3   2   28.83    0.79
   4  -3   2   23.06    0.83
   5  -3   2   75.50    2.07
   5  -3   2   74.07    2.15
   5  -3   2   76.27    2.09
   6  -3   2    1.49    0.17
   6  -3   2    1.47    0.25
   6  -3   2    1.95    0.16
   7  -3   2    1.58    0.17
   7  -3   2    1.28    0.18
   8  -3   2    3.46    0.26
  11   2  -2    3.23    0.27
  10   2  -2    0.43    0.18
   9   2  -2   90.52    2.51
   8   2  -2  157.64    4.28
   7   2  -2   60.30    1.72
   7   2  -2   61.96    1.70
   6   2  -2  108.42    2.94
   5   2  -2   70.89    1.94
   5   2  -2   70.39    1.93
   4   2  -2    5.25    0.19
   3   2  -2    1.40    0.09
   3   2  -2    1.51    0.11
  -3  -2   2    1.56    0.06
  -3  -2   2    1.52    0.12
   2   2  -2    6.08    0.19
   2   2  -2    5.88    0.22
  -2  -2   2    5.78    0.18
   1   2  -2   19.61    0.59
  -1  -2   2   20.70    0.56
   0   2  -2   25.45    0.76
   0  -2   2   27.09    0.73
  -1   2  -2    6.57    0.25
   1  -2   2    6.53    0.21
   1  -2   2    6.21    0.21
   2  -2   2   43.70    1.19
   2  -2   2   42.67    1.19
   2  -2   2   43.55    1.23
   3  -2   2   21.14    0.61
   3  -2   2   21.18    0.66
   3  -2   2   20.74    0.60
   4  -2   2   74.36    2.00
   4  -2   2   72.45    2.04
   4  -2   2   71.76    1.99
   5  -2   2  290.53    7.85
   5  -2   2  292.84    7.81
   5  -2   2  286.56    7.79
   6  -2   2   98.75    2.69
   6  -2   2   96.55    2.67
   7  -2   2   46.57    1.31
   7  -2   2   46.17    1.34
   8  -2   2   41.52    1.23
   9  -2   2    2.03    0.24
  10   1  -2    5.23    0.37
   9   1  -2    0.77    0.17
   8   1  -2   11.16    0.41
   7   1  -2   12.46    0.42
   6   1  -2    3.16    0.19
   6   1  -2    3.19    0.21
   5   1  -2   -0.02    0.09
   5   1  -2    0.07    0.07
   4   1  -2   97.14    2.59
   4   1  -2   93.70    2.58
   3   1  -2  142.11    3.83
   3   1  -2  142.54    3.83
   2   1  -2  142.23    3.82
   2   1  -2  144.30    3.84
  -2  -1   2  139.68    3.81
   1   1  -2   57.47    1.56
   1   1  -2   58.24    1.55
  -1  -1   2   57.08    1.55
  -1  -1   2   57.34    1.57
   0   1  -2  346.36    9.91
   0  -1   2  382.21    9.85
   0  -1   2  370.10    9.94
   1  -1   2  282.95    7.66
   1  -1   2  284.64    7.68
   1  -1   2  283.34    7.66
   2  -1   2    2.98    0.13
   2  -1   2    2.81    0.13
   3  -1   2   15.53    0.46
   3  -1   2   16.00    0.50
   3  -1   2   15.34    0.45
   4  -1   2   23.30    0.66
   4  -1   2   22.38    0.65
   5  -1   2    2.17    0.13
   5  -1   2    1.69    0.18
   5  -1   2    2.12    0.17
   6  -1   2   16.74    0.50
   6  -1   2   16.00    0.53
   7  -1   2   49.61    1.40
   7  -1   2   50.66    1.43
   8  -1   2    0.12    0.16
   9  -1   2    2.08    0.22
  10   0  -2    0.83    0.20
   9   0  -2   17.25    0.60
   8   0  -2    0.12    0.14
  -8   0   2    0.03    0.15
   7   0  -2  116.07    3.17
  -7   0   2  116.02    3.17
   6   0  -2    2.17    0.18
   5   0  -2   45.92    1.25
   5   0  -2   44.19    1.21
   4   0  -2   14.36    0.44
   4   0  -2   14.64    0.43
   3   0  -2    6.71    0.22
   2   0  -2   27.51    0.74
   2   0  -2   26.41    0.74
   1   0  -2   18.93    0.52
   1   0  -2   18.68    0.52
  -1   0   2   18.69    0.51
   0   0  -2   11.18    0.33
   0   0   2   11.70    0.33
   0   0   2   11.92    0.34
   0   0   2   11.96    0.33
   1   0   2    9.85    0.28
   1   0   2   10.19    0.30
   1   0   2   10.27    0.30
  -2   0  -2  200.22    5.65
   2   0   2  215.18    5.73
   2   0   2  214.98    5.66
   2   0   2  212.71    5.72
   2   0   2  210.75    5.66
   3   0   2    0.29    0.09
   3   0   2    0.46    0.06
   3   0   2    0.40    0.07
   4   0   2    3.44    0.15
   5   0   2    0.08    0.09
   5   0   2    0.04    0.07
   6   0   2   45.15    1.26
   6   0   2   43.70    1.23
   7   0   2   81.83    2.27
   7   0   2   85.01    2.31
   8   0   2    7.96    0.37
   9   0   2    9.03    0.41
  10   0   2    1.59    0.22
  10  -1  -2   14.64    0.57
   9  -1  -2    9.23    0.43
   8  -1  -2    7.08    0.35
   7  -1  -2   66.95    1.88
  -7   1   2   67.89    1.87
   6  -1  -2   22.66    0.67
  -6   1   2   22.17    0.67
   5  -1  -2   30.07    0.85
   5  -1  -2   28.34    0.81
  -5   1   2   30.58    0.85
   4  -1  -2   -0.07    0.04
   4  -1  -2   -0.07    0.06
  -4   1   2   -0.09    0.08
   3  -1  -2   58.96    1.60
   3  -1  -2   58.72    1.58
  -3   1   2   58.26    1.60
   2  -1  -2  207.99    5.54
  -2   1   2  201.31    5.49
   1  -1  -2   96.40    2.56
  -1   1   2   94.27    2.57
   0   1   2   91.06    2.42
   0   1   2   85.38    2.41
   0   1   2   93.47    2.41
   0   1   2   89.52    2.41
   1   1   2    7.47    0.22
   1   1   2    7.86    0.22
   2   1   2  133.91    3.64
   2   1   2  136.81    3.62
   2   1   2  134.67    3.64
   3   1   2   42.88    1.14
   3   1   2   41.03    1.16
   3   1   2   41.81    1.15
   4   1   2  126.11    3.37
   4   1   2  123.71    3.36
   5   1   2    8.47    0.27
   6   1   2   25.11    0.73
   6   1   2   26.41    0.76
   7   1   2    9.71    0.37
   7   1   2    9.29    0.31
   8   1   2   12.52    0.46
   9   1   2    3.14    0.23
  10   1   2   -0.01    0.19
   9  -2  -2    5.81    0.36
   8  -2  -2   11.84    0.46
   7  -2  -2   41.48    1.20
   6  -2  -2    0.03    0.12
  -6   2   2    0.06    0.11
   5  -2  -2    1.45    0.12
   5  -2  -2    1.50    0.11
  -5   2   2    1.53    0.12
   4  -2  -2  120.77    3.26
   4  -2  -2  120.76    3.28
  -4   2   2  122.60    3.28
   3  -2  -2    1.32    0.08
   3  -2  -2    1.01    0.08
  -3   2   2    1.44    0.09
   2  -2  -2  147.22    3.95
   2  -2  -2  148.87    3.96
  -2   2   2  144.56    3.95
   1  -2  -2  640.40   17.26
   1  -2  -2  648.78   17.22
  -1   2   2  631.99   17.23
   0  -2  -2  195.58    5.14
   0  -2  -2  191.84    5.15
   0   2   2  187.77    5.15
   0   2   2  187.74    5.14
  -1  -2  -2   10.96    0.31
   1   2   2   11.38    0.31
   1   2   2   10.76    0.31
   1   2   2   10.86    0.31
   2   2   2   69.86    1.86
   2   2   2   69.17    1.86
   2   2   2   69.00    1.87
   2   2   2   68.34    1.86
   3   2   2    6.24    0.19
   3   2   2    5.99    0.20
   3   2   2    6.21    0.20
   3   2   2    6.22    0.20
   4   2   2   49.65    1.36
   4   2   2   49.19    1.35
   4   2   2   48.96    1.34
   5   2   2    0.05    0.07
   5   2   2    0.12    0.06
   6   2   2   14.82    0.46
   6   2   2   14.31    0.43
   7   2   2    5.87    0.22
   7   2   2    5.82    0.27
   8   2   2   34.58    1.02
   9   2   2    0.88    0.17
  10   2   2   16.79    0.61
   9  -3  -2   12.88    0.53
   8  -3  -2   65.77    1.87
   7  -3  -2   33.71    1.00
   6  -3  -2  114.76    3.06
  -6   3   2  108.69    3.09
   5  -3  -2  173.22    4.62
   5  -3  -2  171.26    4.64
  -5   3   2  170.85    4.63
   4  -3  -2    3.07    0.24
   4  -3  -2    2.87    0.14
   4  -3  -2    2.76    0.16
  -4   3   2    2.88    0.15
   3  -3  -2    4.13    0.17
   3  -3  -2    4.28    0.23
   3  -3  -2    4.29    0.16
  -3   3   2    4.18    0.17
   2  -3  -2   11.38    0.37
   2  -3  -2   10.70    0.33
  -2   3   2   10.84    0.33
   1  -3  -2  175.88    4.79
   1  -3  -2  180.21    4.77
  -1   3   2  177.13    4.78
   0  -3  -2    0.91    0.07
   0  -3  -2    1.10    0.13
   0   3   2    1.05    0.11
   0   3   2    0.81    0.09
  -1  -3  -2   28.07    0.81
   1   3   2   29.22    0.80
   1   3   2   28.89    0.79
  -2  -3  -2    3.52    0.15
   2   3   2    3.66    0.13
   2   3   2    3.44    0.14
   3   3   2    0.31    0.05
   3   3   2    0.28    0.06
   3   3   2    0.20    0.05
   3   3   2    0.35    0.05
   4   3   2   19.96    0.56
   4   3   2   19.37    0.56
   4   3   2   19.11    0.54
   4   3   2   19.17    0.55
   5   3   2  268.96    7.42
   5   3   2  283.78    7.42
   5   3   2  275.09    7.41
   6   3   2  140.31    3.80
   6   3   2  144.63    3.81
   6   3   2  136.54    3.78
   7   3   2   54.50    1.50
   7   3   2   52.66    1.46
   8   3   2  117.21    3.21
   9   3   2   17.10    0.59
  10   3   2    2.74    0.24
  11   3   2    3.16    0.27
   8  -4  -2    2.15    0.22
   7  -4  -2    0.21    0.16
   6  -4  -2   12.83    0.46
   5  -4  -2    1.50    0.22
   5  -4  -2    1.63    0.12
   5  -4  -2    1.54    0.14
  -5   4   2    1.40    0.11
   4  -4  -2   28.95    0.89
   4  -4  -2   30.12    0.82
   4  -4  -2   28.33    0.84
  -4   4   2   29.21    0.82
   3  -4  -2    4.55    0.26
   3  -4  -2    4.36    0.18
   3  -4  -2    4.22    0.19
  -3   4   2    4.45    0.18
   2  -4  -2   31.16    0.86
   2  -4  -2   31.42    0.90
   2  -4  -2   30.34    0.86
  -2   4   2   30.46    0.86
   1  -4  -2   17.03    0.48
   1  -4  -2   17.15    0.53
  -1   4   2   16.82    0.52
  -1   4   2   16.48    0.48
   0  -4  -2  240.64    6.42
   0  -4  -2  241.00    6.43
   0   4   2  236.20    6.46
   0   4   2  237.12    6.42
  -1  -4  -2  373.78    9.58
  -1  -4  -2  333.24    9.66
   1   4   2  356.32    9.64
   1   4   2  363.05    9.66
  -2  -4  -2   67.77    1.80
   2   4   2   63.63    1.78
   2   4   2   64.97    1.78
  -3  -4  -2   19.44    0.57
   3   4   2   19.48    0.56
   3   4   2   19.61    0.56
   3   4   2   20.02    0.56
   4   4   2  143.40    3.85
   4   4   2  140.85    3.84
   4   4   2  143.56    3.85
   5   4   2   15.53    0.47
   5   4   2   16.08    0.47
   5   4   2   15.49    0.45
   5   4   2   15.48    0.48
   6   4   2    1.80    0.15
   6   4   2    1.66    0.11
   6   4   2    1.84    0.15
   7   4   2   18.19    0.57
   7   4   2   16.63    0.50
   7   4   2   17.72    0.54
   8   4   2    0.13    0.12
   9   4   2   10.89    0.43
  10   4   2   14.18    0.53
  11   4   2    6.55    0.39
   8  -5  -2   11.19    0.49
   7  -5  -2   14.61    0.54
   6  -5  -2    5.39    0.31
   5  -5  -2    2.27    0.17
   5  -5  -2    2.79    0.27
   5  -5  -2    2.64    0.16
   4  -5  -2  116.41    3.20
   4  -5  -2  119.63    3.27
   4  -5  -2  121.31    3.19
  -4   5   2  114.03    3.18
   3  -5  -2   10.00    0.33
   3  -5  -2   10.13    0.33
   3  -5  -2   10.22    0.42
  -3   5   2    9.75    0.32
   2  -5  -2    5.32    0.21
   2  -5  -2    5.16    0.29
   2  -5  -2    5.25    0.20
  -2   5   2    5.30    0.20
   1  -5  -2   10.86    0.33
   1  -5  -2   11.24    0.41
  -1   5   2   10.82    0.34
  -1   5   2   11.33    0.40
   0  -5  -2   23.63    0.72
   0  -5  -2   22.95    0.63
   0   5   2   22.64    0.69
   0   5   2   22.61    0.65
  -1  -5  -2   23.34    0.64
  -1  -5  -2   22.59    0.73
   1   5   2   24.07    0.69
   1   5   2   24.20    0.67
  -2  -5  -2   81.93    2.22
  -2  -5  -2   78.68    2.15
   2   5   2   79.51    2.18
   2   5   2   80.27    2.18
   3   5   2    0.27    0.07
   3   5   2    0.21    0.07
  -4  -5  -2   20.65    0.60
   4   5   2   19.68    0.59
   4   5   2   19.36    0.57
  -5  -5  -2   42.19    1.19
   5   5   2   41.75    1.17
   5   5   2   42.82    1.18
   5   5   2   40.91    1.16
   6   5   2   33.59    0.94
   6   5   2   31.50    0.92
   7   5   2   38.01    1.09
   7   5   2   37.08    1.07
   8   5   2    9.83    0.40
   8   5   2    9.30    0.36
   9   5   2   34.51    1.03
   9   5   2   33.08    1.00
  10   5   2   21.41    0.71
  11   5   2    0.06    0.19
   7  -6  -2   23.65    0.78
   6  -6  -2   10.82    0.58
   6  -6  -2   10.28    0.42
   5  -6  -2    0.51    0.13
   5  -6  -2    0.54    0.24
   5  -6  -2    0.51    0.15
   4  -6  -2   14.15    0.46
   4  -6  -2   13.98    0.59
   4  -6  -2   14.43    0.47
   3  -6  -2   38.55    1.10
   3  -6  -2   39.42    1.10
   3  -6  -2   38.17    1.18
  -3   6   2   39.98    1.17
  -3   6   2   38.30    1.08
   2  -6  -2   57.89    1.69
   2  -6  -2   57.37    1.61
   2  -6  -2   59.18    1.61
  -2   6   2   59.05    1.61
  -2   6   2   59.75    1.68
   1  -6  -2    0.39    0.17
   1  -6  -2    0.26    0.07
  -1   6   2    0.32    0.14
  -1   6   2    0.26    0.08
   0  -6  -2   21.28    0.71
   0  -6  -2   21.73    0.61
   0   6   2   21.94    0.68
   0   6   2   22.34    0.63
  -1  -6  -2   23.76    0.63
  -1  -6  -2   20.85    0.74
   1   6   2   23.56    0.67
   1   6   2   23.76    0.70
  -2  -6  -2   98.74    2.77
   2   6   2  101.45    2.71
   2   6   2   99.22    2.72
  -3  -6  -2    1.17    0.16
   3   6   2    1.06    0.10
   3   6   2    1.04    0.11
  -4  -6  -2   15.84    0.53
   4   6   2   15.98    0.49
   4   6   2   15.94    0.49
  -5  -6  -2    1.12    0.15
   5   6   2    0.72    0.11
   5   6   2    0.76    0.09
   5   6   2    0.88    0.11
  -6  -6  -2   14.10    0.50
   6   6   2   14.28    0.47
   6   6   2   14.70    0.47
   6   6   2   13.77    0.44
  -7  -6  -2   30.11    0.93
   7   6   2   29.52    0.87
   7   6   2   31.21    0.90
  -8  -6  -2    0.13    0.18
   8   6   2    0.18    0.12
   8   6   2    0.33    0.16
   9   6   2    5.75    0.34
   9   6   2    5.61    0.30
  10   6   2    1.52    0.23
  10   6   2    1.64    0.19
  11   6   2   22.48    0.75
   6  -7  -2    4.32    0.34
   6  -7  -2    5.55    0.51
   5  -7  -2    2.77    0.34
   5  -7  -2    2.43    0.19
   5  -7  -2    2.22    0.19
  -5   7   2    2.67    0.32
   4  -7  -2   19.09    0.62
   4  -7  -2   19.17    0.62
   4  -7  -2   20.33    0.76
  -4   7   2   20.09    0.73
   3  -7  -2   -0.02    0.22
   3  -7  -2    0.10    0.11
   3  -7  -2   -0.03    0.12
  -3   7   2   -0.27    0.20
   2  -7  -2    0.16    0.11
   2  -7  -2    0.09    0.09
   2  -7  -2    0.22    0.22
  -2   7   2    0.01    0.09
  -2   7   2   -0.04    0.17
   1  -7  -2   95.66    2.60
   1  -7  -2   95.64    2.61
   1  -7  -2   94.46    2.71
  -1   7   2   97.30    2.61
  -1   7   2   96.97    2.68
   0  -7  -2   47.22    1.48
   0  -7  -2   50.35    1.36
   0   7   2   50.92    1.44
   0   7   2   50.47    1.38
  -1  -7  -2   20.79    0.77
   1   7   2   23.36    0.71
   1   7   2   23.29    0.66
  -2  -7  -2  101.01    2.88
   2   7   2  104.50    2.82
   2   7   2  103.16    2.80
  -3  -7  -2    6.23    0.36
   3   7   2    6.23    0.25
   3   7   2    6.00    0.27
  -4  -7  -2   19.64    0.63
   4   7   2   18.72    0.58
   4   7   2   18.39    0.57
  -5  -7  -2    1.44    0.18
   5   7   2    1.55    0.15
   5   7   2    1.36    0.14
  -6  -7  -2   50.49    1.46
   6   7   2   51.01    1.43
   6   7   2   50.20    1.43
  -7  -7  -2   22.14    0.74
   7   7   2   22.90    0.71
  -8  -7  -2    4.98    0.36
   8   7   2    5.18    0.32
  -9  -7  -2    2.08    0.26
   9   7   2    2.15    0.22
 -10  -7  -2    5.13    0.45
  10   7   2    6.31    0.38
 -11  -7  -2    0.23    0.27
  11   7   2   -0.13    0.21
   5  -8  -2   49.43    1.44
   5  -8  -2   51.18    1.62
  -5   8   2   50.91    1.58
   4  -8  -2   18.84    0.78
   4  -8  -2   18.46    0.62
  -4   8   2   19.58    0.77
   3  -8  -2    3.31    0.35
   3  -8  -2    2.50    0.19
  -3   8   2    2.88    0.30
   2  -8  -2   29.39    0.87
   2  -8  -2   29.87    1.00
  -2   8   2   29.24    0.96
  -2   8   2   29.35    0.85
   1  -8  -2   41.63    1.33
   1  -8  -2   43.87    1.21
  -1   8   2   40.30    1.27
  -1   8   2   43.82    1.20
   0  -8  -2   23.80    0.88
   0  -8  -2   25.63    0.74
   0   8   2   24.98    0.81
   0   8   2   25.87    0.74
  -1  -8  -2    1.06    0.26
   1   8   2    0.96    0.18
   1   8   2    0.97    0.12
  -2  -8  -2   58.74    1.79
   2   8   2   60.25    1.68
   2   8   2   63.21    1.72
  -3  -8  -2    0.11    0.20
   3   8   2    0.34    0.11
   3   8   2    0.40    0.14
  -4  -8  -2    1.43    0.23
   4   8   2    1.50    0.16
   4   8   2    1.27    0.14
  -5  -8  -2  111.54    3.07
   5   8   2  108.80    3.02
   5   8   2  110.76    3.03
  -6  -8  -2   28.54    0.90
   6   8   2   27.88    0.85
   6   8   2   28.12    0.86
  -7  -8  -2   20.73    0.71
   7   8   2   20.03    0.66
  -8  -8  -2   89.75    2.52
   8   8   2   87.72    2.47
  -9  -8  -2   48.18    1.47
   9   8   2   48.61    1.42
 -10  -8  -2    1.80    0.29
  10   8   2    1.61    0.24
   4  -9  -2    3.14    0.24
   4  -9  -2    3.66    0.41
  -4   9   2    3.45    0.38
   3  -9  -2    2.52    0.21
   3  -9  -2    2.16    0.37
  -3   9   2    2.00    0.31
   2  -9  -2    8.81    0.37
   2  -9  -2    8.50    0.57
  -2   9   2    8.44    0.50
   1  -9  -2    4.20    0.28
   1  -9  -2    4.46    0.39
  -1   9   2    4.87    0.25
  -1   9   2    4.46    0.39
   0  -9  -2   36.58    1.29
   0  -9  -2   40.61    1.13
   0   9   2   39.57    1.20
   0   9   2   40.74    1.13
  -1  -9  -2   63.72    2.09
   1   9   2   73.24    2.01
   1   9   2   73.56    1.95
  -2  -9  -2   16.41    0.73
   2   9   2   17.64    0.56
   2   9   2   18.42    0.62
  -3  -9  -2  105.85    2.99
   3   9   2  103.25    2.87
   3   9   2  105.62    2.90
  -4  -9  -2   62.69    1.83
   4   9   2   61.43    1.74
   4   9   2   59.99    1.72
  -5  -9  -2    4.05    0.37
   5   9   2    4.17    0.28
   5   9   2    3.38    0.27
  -6  -9  -2    5.25    0.41
   6   9   2    5.11    0.32
   6   9   2    5.35    0.31
  -7  -9  -2    3.19    0.30
   7   9   2    3.41    0.30
  -8  -9  -2   11.00    0.54
   8   9   2   10.51    0.46
  -9  -9  -2    2.45    0.30
   9   9   2    2.36    0.25
 -10  -9  -2    1.51    0.30
  10   9   2    1.78    0.25
   3 -10  -2   15.36    0.79
   3 -10  -2   14.99    0.55
  -3  10   2   15.70    0.72
   2 -10  -2    1.39    0.39
   2 -10  -2    2.27    0.21
  -2  10   2    2.54    0.33
   1 -10  -2   13.44    0.72
   1 -10  -2   14.13    0.51
  -1  10   2   13.45    0.61
   0 -10  -2    0.37    0.16
   0 -10  -2    0.38    0.33
   0  10   2    0.37    0.14
   0  10   2    0.84    0.24
  -1 -10  -2   11.60    0.43
  -1 -10  -2    9.06    0.66
   1  10   2   12.17    0.53
   1  10   2   12.14    0.43
  -2 -10  -2    1.83    0.36
   2  10   2    2.55    0.19
   2  10   2    1.90    0.24
  -3 -10  -2    1.00    0.32
   3  10   2    0.81    0.16
   3  10   2    0.74    0.20
  -4 -10  -2    3.00    0.35
   4  10   2    2.53    0.24
   4  10   2    2.61    0.21
  -5 -10  -2   18.97    0.74
   5  10   2   17.79    0.61
   5  10   2   17.85    0.64
  -6 -10  -2    1.13    0.27
   6  10   2    1.50    0.21
   6  10   2    1.06    0.18
  -7 -10  -2   10.48    0.54
   7  10   2    9.98    0.46
  -8 -10  -2    0.19    0.25
   8  10   2    0.18    0.19
  -9 -10  -2   23.30    0.88
   9  10   2   23.61    0.80
  10  10   2   24.92    0.85
   2 -11  -2    6.39    0.57
   2 -11  -2    7.60    0.40
  -2  11   2    7.66    0.55
   1 -11  -2   -0.06    0.37
   1 -11  -2    0.23    0.18
  -1  11   2    0.00    0.26
   0 -11  -2    7.67    0.68
   0 -11  -2    8.42    0.39
   0  11   2    7.90    0.49
  -1 -11  -2   18.65    0.91
  -1 -11  -2   21.44    0.69
   1  11   2   21.49    0.69
   1  11   2   21.85    0.78
  -2 -11  -2    7.21    0.66
  -2 -11  -2    7.47    0.36
   2  11   2    7.63    0.45
   2  11   2    7.26    0.36
  -3 -11  -2    1.91    0.40
   3  11   2    1.80    0.25
   3  11   2    2.44    0.21
  -4 -11  -2    0.39    0.34
   4  11   2    0.65    0.17
   4  11   2    0.28    0.21
  -5 -11  -2   23.57    0.92
   5  11   2   22.06    0.74
   5  11   2   22.71    0.77
  -6 -11  -2    0.23    0.30
   6  11   2    0.07    0.18
   6  11   2    0.27    0.20
  -7 -11  -2    7.80    0.56
   7  11   2    7.46    0.44
  -8 -11  -2    0.30    0.30
   8  11   2    0.24    0.21
  -9 -11  -2    0.09    0.29
   9  11   2    0.37    0.23
   0 -12  -2    1.16    0.44
   0 -12  -2    1.72    0.24
   0  12   2    2.21    0.32
  -1 -12  -2   -0.20    0.37
  -1 -12  -2    0.04    0.19
   1  12   2    0.05    0.26
  -2 -12  -2   26.84    0.82
  -2 -12  -2   22.54    1.04
   2  12   2   26.08    0.90
   2  12   2   25.80    0.82
  -3 -12  -2    3.29    0.46
  -3 -12  -2    3.56    0.25
   3  12   2    3.73    0.32
   3  12   2    3.47    0.26
  -4 -12  -2    3.17    0.46
  -4 -12  -2    3.37    0.25
   4  12   2    3.18    0.25
   4  12   2    2.85    0.30
  -5 -12  -2    6.55    0.52
   5  12   2    5.92    0.39
   5  12   2    5.79    0.43
  -6 -12  -2   13.54    0.74
   6  12   2   13.07    0.57
  -7 -12  -2   13.41    0.73
   7  12   2   12.78    0.58
   6  11  -3    0.03    0.29
  -6 -11   3   -0.12    0.34
   5  11  -3    8.12    0.55
  -5 -11   3    7.78    0.67
  -5 -11   3    7.20    0.39
   4  11  -3    0.51    0.30
  -4 -11   3    0.37    0.34
  -4 -11   3    0.33    0.19
   3  11  -3    4.53    0.40
  -3 -11   3    3.94    0.27
  -3 -11   3    4.00    0.45
   2  11  -3    6.59    0.55
  -2 -11   3    6.53    0.53
  -2 -11   3    6.84    0.40
   8  10  -3    0.30    0.29
  -8 -10   3    0.32    0.32
   7  10  -3   10.45    0.58
  -7 -10   3   11.00    0.65
   6  10  -3    0.05    0.26
  -6 -10   3   -0.08    0.30
   5  10  -3    0.53    0.27
  -5 -10   3    0.16    0.16
  -5 -10   3    0.35    0.30
   4  10  -3   23.99    0.87
  -4 -10   3   23.40    0.93
  -4 -10   3   21.54    0.72
   3  10  -3   11.11    0.58
  -3 -10   3   10.54    0.44
  -3 -10   3   11.28    0.66
   2  10  -3    3.50    0.35
  -2 -10   3    4.08    0.43
  -2 -10   3    3.48    0.24
   1  10  -3   46.58    1.46
  -1 -10   3   43.71    1.34
  -1 -10   3   47.89    1.52
   0  10  -3    5.99    0.52
   0 -10   3    5.24    0.37
   0 -10   3    6.47    0.61
  -1  10  -3    0.74    0.31
   1 -10   3    0.03    0.20
   1 -10   3   -0.07    0.37
   9   9  -3    9.75    0.56
  -9  -9   3    9.41    0.58
   8   9  -3   46.72    1.46
  -8  -9   3   47.58    1.49
   7   9  -3    5.69    0.48
  -7  -9   3    5.59    0.48
   6   9  -3   52.07    1.56
  -6  -9   3   51.34    1.59
   5   9  -3   38.80    1.22
  -5  -9   3   38.00    1.09
  -5  -9   3   37.50    1.25
   4   9  -3   -0.08    0.25
  -4  -9   3   -0.10    0.27
  -4  -9   3   -0.15    0.13
   3   9  -3    1.23    0.27
  -3  -9   3    1.38    0.31
  -3  -9   3    1.41    0.17
   2   9  -3   11.17    0.58
  -2  -9   3   10.51    0.42
  -2  -9   3   11.98    0.62
   1   9  -3    6.23    0.48
  -1  -9   3    6.30    0.33
  -1  -9   3    6.54    0.58
   0   9  -3    1.84    0.30
   0  -9   3    1.32    0.35
   0  -9   3    1.84    0.20
  -1   9  -3   11.71    0.60
   1  -9   3   11.22    0.72
   1  -9   3   11.57    0.47
  -2   9  -3    6.38    0.55
   2  -9   3    6.18    0.37
   2  -9   3    5.93    0.51
   3  -9   3    1.91    0.42
   9   8  -3    0.67    0.26
  -9  -8   3    0.58    0.27
   8   8  -3    0.89    0.26
  -8  -8   3    0.77    0.26
   7   8  -3    4.74    0.42
  -7  -8   3    4.76    0.42
   6   8  -3    2.26    0.27
  -6  -8   3    1.89    0.27
   5   8  -3    0.21    0.20
  -5  -8   3   -0.06    0.23
  -5  -8   3    0.34    0.12
   4   8  -3    6.32    0.41
  -4  -8   3    5.69    0.43
  -4  -8   3    5.57    0.27
   3   8  -3    0.59    0.22
  -3  -8   3    0.44    0.13
  -3  -8   3    0.96    0.26
   2   8  -3   57.23    1.70
  -2  -8   3   58.73    1.74
  -2  -8   3   57.42    1.61
   1   8  -3   10.00    0.51
  -1  -8   3   10.83    0.57
  -1  -8   3    9.41    0.38
   0   8  -3   42.04    1.29
   0  -8   3   41.56    1.34
   0  -8   3   41.13    1.20
  -1   8  -3   94.94    2.68
   1  -8   3   96.70    2.74
   1  -8   3   90.47    2.59
  -2   8  -3    2.12    0.32
   2  -8   3    1.92    0.37
   2  -8   3    1.50    0.20
  -3   8  -3    7.60    0.57
   3  -8   3    7.84    0.41
   3  -8   3    8.63    0.63
  -4   8  -3   17.42    0.78
   4  -8   3   16.91    0.84
   4  -8   3   16.88    0.63
  10   7  -3    0.08    0.24
 -10  -7   3    0.17    0.27
   9   7  -3    5.19    0.43
  -9  -7   3    5.74    0.45
   8   7  -3   10.45    0.51
  -8  -7   3   10.87    0.52
   7   7  -3   26.50    0.86
  -7  -7   3   24.82    0.86
   6   7  -3   20.89    0.73
  -6  -7   3   21.10    0.74
   5   7  -3   -0.08    0.18
  -5  -7   3   -0.05    0.19
  -5  -7   3    0.22    0.10
   4   7  -3   94.31    2.58
  -4  -7   3   88.70    2.59
  -4  -7   3   91.73    2.49
   3   7  -3    0.49    0.20
  -3  -7   3    0.54    0.20
  -3  -7   3    0.34    0.11
   2   7  -3    3.14    0.27
  -2  -7   3    3.89    0.32
  -2  -7   3    3.25    0.21
   1   7  -3   17.55    0.64
  -1  -7   3   17.65    0.68
  -1  -7   3   16.89    0.54
   0   7  -3    0.24    0.20
   0  -7   3   -0.05    0.24
   0  -7   3    0.08    0.12
  -1   7  -3    1.34    0.25
   1  -7   3    1.02    0.15
   1  -7   3    1.11    0.29
  -2   7  -3   37.31    1.18
   2  -7   3   37.06    1.08
   2  -7   3   36.66    1.22
  -3   7  -3   10.05    0.56
   3  -7   3    9.54    0.60
   3  -7   3    9.67    0.41
  -4   7  -3    0.74    0.30
   4  -7   3    0.77    0.35
   4  -7   3    0.66    0.20
  -5   7  -3   -0.16    0.31
   5  -7   3   -0.26    0.18
   5  -7   3   -0.24    0.34
  10   6  -3    4.87    0.43
 -10  -6   3    5.88    0.46
   9   6  -3    1.33    0.23
  -9  -6   3    1.68    0.27
   8   6  -3    2.63    0.25
  -8  -6   3    2.58    0.27
   7   6  -3   30.49    0.97
  -7  -6   3   31.43    0.98
   6   6  -3    1.50    0.20
  -6  -6   3    1.52    0.20
   5   6  -3    1.29    0.19
  -5  -6   3    1.54    0.21
  -5  -6   3    1.42    0.11
   4   6  -3    0.45    0.17
  -4  -6   3    0.56    0.17
  -4  -6   3    0.68    0.10
   3   6  -3   23.24    0.76
  -3  -6   3   24.08    0.68
   2   6  -3   37.51    1.12
  -2  -6   3   37.41    1.05
   1   6  -3    2.92    0.24
  -1  -6   3    3.17    0.19
   0   6  -3    3.27    0.25
   0  -6   3    3.40    0.21
   0  -6   3    3.22    0.29
  -1   6  -3    0.28    0.19
   1  -6   3    0.18    0.22
   1  -6   3    0.17    0.12
  -2   6  -3   12.07    0.52
   2  -6   3   11.64    0.57
   2  -6   3   11.90    0.42
  -3   6  -3    7.93    0.48
   3  -6   3    7.54    0.35
   3  -6   3    8.02    0.35
   3  -6   3    6.99    0.50
  -4   6  -3   15.27    0.67
   4  -6   3   15.64    0.56
   4  -6   3   16.03    0.72
   4  -6   3   15.57    0.55
  -5   6  -3    1.71    0.33
   5  -6   3    1.00    0.19
   5  -6   3    1.71    0.22
   5  -6   3    1.46    0.34
  -6   6  -3    5.59    0.44
   6  -6   3    4.69    0.30
   6  -6   3    4.86    0.39
   6  -6   3    4.84    0.47
  10   5  -3   13.20    0.59
 -10  -5   3   14.30    0.62
   9   5  -3    6.52    0.41
   9   5  -3    7.25    0.33
  -9  -5   3    7.54    0.44
   8   5  -3    3.21    0.25
   8   5  -3    3.33    0.21
  -8  -5   3    3.71    0.33
   7   5  -3   54.21    1.54
   7   5  -3   57.46    1.61
  -7  -5   3   55.90    1.61
   6   5  -3   12.12    0.38
   6   5  -3   12.57    0.46
  -6  -5   3   11.86    0.46
   5   5  -3   13.31    0.40
   5   5  -3   14.68    0.48
  -5  -5   3   14.16    0.40
  -5  -5   3   11.21    0.46
   4   5  -3   75.48    2.01
   4   5  -3   68.03    1.94
  -4  -5   3   71.90    1.95
   3   5  -3    0.92    0.15
   3   5  -3    0.82    0.06
  -3  -5   3    0.85    0.09
   2   5  -3    1.90    0.10
   2   5  -3    1.49    0.18
  -2  -5   3    1.80    0.13
  -2  -5   3    1.23    0.15
   1   5  -3  131.97    3.57
  -1  -5   3  120.98    3.57
  -1  -5   3  136.30    3.51
   0   5  -3   74.42    2.13
   0  -5   3   77.48    2.08
  -1   5  -3   32.84    0.98
   1  -5   3   32.62    0.91
   1  -5   3   29.73    0.99
  -2   5  -3   31.10    0.96
   2  -5   3   31.20    1.00
   2  -5   3   29.50    0.89
   2  -5   3   31.59    0.90
  -3   5  -3    2.54    0.26
   3  -5   3    2.60    0.18
   3  -5   3    2.37    0.29
   3  -5   3    1.99    0.17
  -4   5  -3   28.25    0.93
   4  -5   3   28.17    0.98
   4  -5   3   27.00    0.83
   4  -5   3   28.18    0.85
  -5   5  -3    0.95    0.27
   5  -5   3    1.01    0.18
   5  -5   3    1.34    0.29
   5  -5   3    1.18    0.17
  -6   5  -3    0.04    0.28
   6  -5   3    0.16    0.30
   6  -5   3    0.08    0.18
   6  -5   3    0.14    0.19
  -7   5  -3    0.80    0.34
   7  -5   3    1.43    0.36
   7  -5   3    1.25    0.24
   7  -5   3    1.19    0.21
  11   4  -3   17.54    0.64
  10   4  -3    2.82    0.27
  10   4  -3    2.50    0.22
   9   4  -3    4.69    0.28
   9   4  -3    4.58    0.35
   8   4  -3   89.44    2.49
   8   4  -3   87.85    2.45
  -8  -4   3   90.37    2.51
   7   4  -3   24.09    0.72
   7   4  -3   24.65    0.77
  -7  -4   3   24.42    0.78
   6   4  -3  149.98    4.02
   6   4  -3  145.62    3.97
  -6  -4   3  146.00    4.02
   5   4  -3  226.65    6.20
   5   4  -3  240.20    6.24
  -5  -4   3  225.94    6.18
   4   4  -3   19.22    0.59
   4   4  -3   18.24    0.53
  -4  -4   3   18.91    0.59
  -4  -4   3   18.40    0.53
   3   4  -3   14.62    0.43
   3   4  -3   15.82    0.50
  -3  -4   3   14.38    0.43
  -3  -4   3   15.08    0.50
   2   4  -3   14.36    0.49
   2   4  -3   14.41    0.41
  -2  -4   3   14.74    0.43
  -2  -4   3   14.33    0.49
   1   4  -3   24.08    0.75
  -1  -4   3   24.52    0.76
  -1  -4   3   24.47    0.69
   0   4  -3    3.46    0.25
   0  -4   3    3.07    0.16
   0  -4   3    3.59    0.29
  -1   4  -3   51.43    1.50
   1  -4   3   52.40    1.45
   1  -4   3   53.38    1.52
  -2   4  -3   44.53    1.30
   2  -4   3   42.91    1.25
   2  -4   3   45.24    1.33
   2  -4   3   46.06    1.25
  -3   4  -3    0.75    0.18
   3  -4   3    0.54    0.12
   3  -4   3    0.91    0.21
   3  -4   3    0.73    0.12
  -4   4  -3    2.09    0.24
   4  -4   3    2.17    0.17
   4  -4   3    2.09    0.18
   4  -4   3    1.84    0.26
   5  -4   3   75.09    2.05
   5  -4   3   70.06    2.14
   5  -4   3   76.40    2.07
   6  -4   3   46.47    1.32
   6  -4   3   42.29    1.41
   6  -4   3   46.09    1.30
   7  -4   3   26.15    0.99
   7  -4   3   26.23    0.86
   7  -4   3   26.75    0.83
   8  -4   3   74.50    2.14
  11   3  -3   18.23    0.66
  10   3  -3   42.55    1.25
   9   3  -3    4.20    0.28
   9   3  -3    4.31    0.34
   8   3  -3   14.08    0.47
   8   3  -3   13.71    0.51
   7   3  -3    6.98    0.28
   7   3  -3    6.54    0.33
   6   3  -3   10.80    0.41
   6   3  -3   11.23    0.36
   5   3  -3   35.58    0.99
   5   3  -3   36.38    1.02
  -5  -3   3   35.18    1.03
  -5  -3   3   34.89    0.96
   4   3  -3   12.59    0.37
  -4  -3   3   12.78    0.42
  -4  -3   3   12.17    0.35
   3   3  -3    0.05    0.05
   3   3  -3    0.06    0.09
  -3  -3   3    0.02    0.04
  -3  -3   3   -0.03    0.09
   2   3  -3   69.10    1.85
   2   3  -3   68.48    1.89
  -2  -3   3   67.89    1.89
  -2  -3   3   68.26    1.85
   1   3  -3    0.63    0.12
  -1  -3   3    0.61    0.07
  -1  -3   3    0.57    0.12
   0   3  -3  168.89    4.72
   0  -3   3  174.49    4.73
   0  -3   3  179.30    4.68
  -1   3  -3  387.95   10.61
   1  -3   3  393.46   10.59
   1  -3   3  398.19   10.61
  -2   3  -3  111.74    3.10
   2  -3   3  110.83    3.07
   2  -3   3  115.04    3.12
   2  -3   3  115.06    3.07
   3  -3   3  146.44    3.98
   3  -3   3  145.74    4.03
   3  -3   3  148.62    3.97
   4  -3   3   59.37    1.60
   4  -3   3   57.58    1.61
   4  -3   3   55.68    1.67
   5  -3   3    4.92    0.28
   5  -3   3    4.65    0.38
   5  -3   3    4.95    0.25
   6  -3   3    0.29    0.23
   6  -3   3    0.29    0.14
   6  -3   3    0.36    0.15
   7  -3   3    7.87    0.35
   7  -3   3    7.21    0.40
   8  -3   3    1.76    0.24
  10   2  -3    0.58    0.18
   9   2  -3   -0.04    0.15
   8   2  -3   17.16    0.59
   8   2  -3   16.79    0.55
   7   2  -3   11.43    0.40
   7   2  -3   11.35    0.43
   6   2  -3   36.12    1.02
   5   2  -3   30.65    0.87
   5   2  -3   29.63    0.85
   4   2  -3  218.83    5.88
   4   2  -3  224.28    5.86
  -4  -2   3  211.99    5.84
   3   2  -3  116.70    3.13
   3   2  -3  115.83    3.11
  -3  -2   3  113.86    3.13
  -3  -2   3  115.11    3.09
   2   2  -3    0.76    0.09
   2   2  -3    0.60    0.06
  -2  -2   3    0.61    0.05
  -2  -2   3    0.68    0.09
   1   2  -3   54.90    1.56
  -1  -2   3   58.08    1.53
   0   2  -3    9.08    0.33
   0  -2   3    9.31    0.28
  -1   2  -3   38.81    1.11
   1  -2   3   39.79    1.12
   1  -2   3   38.78    1.08
  -2   2  -3   56.39    1.60
   2  -2   3   57.86    1.61
   2  -2   3   59.07    1.57
   2  -2   3   56.16    1.57
   3  -2   3   25.56    0.74
   3  -2   3   25.98    0.75
   3  -2   3   25.96    0.79
   4  -2   3    2.08    0.20
   4  -2   3    2.25    0.17
   4  -2   3    2.47    0.19
   5  -2   3   23.71    0.71
   5  -2   3   22.69    0.77
   5  -2   3   23.21    0.69
   6  -2   3    0.53    0.15
   6  -2   3    0.34    0.21
   6  -2   3    0.38    0.12
   7  -2   3   75.89    2.13
   7  -2   3   75.32    2.09
   8  -2   3   12.93    0.53
   9  -2   3   27.73    0.91
  10   1  -3    0.90    0.19
   9   1  -3    4.39    0.30
  -9  -1   3    4.19    0.34
   8   1  -3    0.37    0.14
   7   1  -3   28.42    0.82
   7   1  -3   27.24    0.84
   6   1  -3   25.70    0.79
   6   1  -3   26.94    0.77
   5   1  -3    2.08    0.14
   5   1  -3    1.73    0.14
   4   1  -3   39.72    1.10
   4   1  -3   38.97    1.09
   3   1  -3    0.79    0.08
   3   1  -3    0.80    0.07
   2   1  -3  123.24    3.29
   2   1  -3  122.83    3.30
  -2  -1   3  120.34    3.28
   1   1  -3    3.87    0.17
  -1  -1   3    3.74    0.16
  -1  -1   3    3.90    0.14
   0   1  -3    3.31    0.17
   0  -1   3    3.43    0.17
   0  -1   3    3.62    0.13
  -1   1  -3    8.62    0.29
   1  -1   3    8.97    0.30
   1  -1   3    8.51    0.27
   2  -1   3  105.59    2.87
   2  -1   3  106.96    2.89
   2  -1   3  105.95    2.86
   3  -1   3   95.86    2.56
   3  -1   3   95.59    2.58
   3  -1   3   90.92    2.55
   4  -1   3    4.25    0.25
   4  -1   3    4.02    0.20
   4  -1   3    3.96    0.19
   5  -1   3   31.28    0.95
   5  -1   3   31.68    0.91
   5  -1   3   30.81    0.89
   6  -1   3   -0.02    0.12
   6  -1   3    0.34    0.11
   7  -1   3   20.98    0.64
   7  -1   3   20.61    0.67
   8  -1   3    0.28    0.17
   9  -1   3    1.78    0.23
  10   0  -3    0.38    0.19
   9   0  -3    0.15    0.17
   8   0  -3   -0.05    0.15
  -8   0   3   -0.07    0.16
   7   0  -3   57.42    1.61
  -7   0   3   57.59    1.62
   6   0  -3   64.70    1.79
   5   0  -3    4.87    0.23
   5   0  -3    4.98    0.21
   4   0  -3   64.44    1.74
   4   0  -3   62.88    1.75
   3   0  -3    5.19    0.19
   3   0  -3    5.20    0.19
   2   0  -3  145.93    4.02
   2   0  -3  158.15    4.02
  -2   0   3  144.44    4.00
   1   0  -3  335.37    9.00
   1   0  -3  329.07    9.00
  -1   0   3  324.43    9.00
  -1   0   3  345.51    8.97
   0   0  -3   38.57    1.12
   0   0   3   41.37    1.11
   0   0   3   42.28    1.12
   0   0   3   40.79    1.11
  -1   0  -3   34.38    0.96
   1   0   3   34.67    0.94
   1   0   3   34.94    0.96
   2   0   3  281.67    7.76
   2   0   3  295.78    7.75
   2   0   3  289.07    7.83
   2   0   3  286.09    7.72
   3   0   3    1.79    0.13
   3   0   3    1.64    0.12
   3   0   3    1.87    0.15
   4   0   3    2.79    0.16
   4   0   3    2.79    0.20
   4   0   3    2.49    0.14
   5   0   3    0.03    0.08
   5   0   3    0.07    0.09
   6   0   3    5.94    0.24
   6   0   3    5.82    0.27
   7   0   3   22.98    0.69
   7   0   3   23.44    0.73
   8   0   3    1.17    0.20
   8   0   3    1.19    0.18
   9   0   3    3.67    0.27
  10   0   3    0.90    0.22
  10  -1  -3    5.43    0.40
   9  -1  -3    3.77    0.31
   8  -1  -3   28.79    0.87
  -8   1   3   27.91    0.87
   7  -1  -3   10.11    0.39
  -7   1   3   10.05    0.39
   6  -1  -3  133.20    3.55
  -6   1   3  127.82    3.55
   5  -1  -3  258.00    7.36
   5  -1  -3  292.53    7.40
  -5   1   3  274.78    7.40
   4  -1  -3  109.88    2.85
   4  -1  -3  100.63    2.81
  -4   1   3  104.42    2.85
   3  -1  -3  149.26    4.05
   3  -1  -3  155.68    4.07
  -3   1   3  148.76    4.07
   2  -1  -3  130.37    3.54
   2  -1  -3  135.83    3.54
  -2   1   3  128.29    3.54
   1  -1  -3   33.50    0.91
  -1   1   3   32.91    0.92
  -1   1   3   33.96    0.90
   0  -1  -3    7.78    0.21
   0   1   3    7.20    0.21
   0   1   3    7.54    0.22
   0   1   3    7.84    0.24
   0   1   3    7.83    0.22
   1   1   3   62.86    1.76
   1   1   3   66.43    1.76
   1   1   3   66.70    1.76
   2   1   3   24.57    0.68
   2   1   3   23.91    0.66
   2   1   3   23.16    0.68
   2   1   3   24.82    0.67
   3   1   3   19.81    0.57
   3   1   3   19.77    0.56
   3   1   3   19.91    0.55
   4   1   3   56.95    1.55
   4   1   3   55.40    1.53
   5   1   3   12.15    0.38
   5   1   3   12.44    0.40
   6   1   3   47.56    1.31
   6   1   3   44.91    1.28
   7   1   3   13.35    0.42
   8   1   3  119.27    3.33
   8   1   3  125.03    3.36
   9   1   3   55.16    1.59
  10   1   3    8.33    0.45
   9  -2  -3   31.99    1.00
   8  -2  -3    1.24    0.19
   7  -2  -3   11.39    0.42
  -7   2   3   11.34    0.41
   6  -2  -3    1.10    0.14
  -6   2   3    0.57    0.13
   5  -2  -3  129.16    3.58
   5  -2  -3  134.98    3.61
  -5   2   3  135.83    3.61
   4  -2  -3    2.23    0.10
   4  -2  -3    2.19    0.15
  -4   2   3    2.50    0.17
   3  -2  -3    0.52    0.07
   3  -2  -3    0.60    0.05
  -3   2   3    0.77    0.09
   2  -2  -3   75.21    2.02
  -2   2   3   73.55    2.02
   1  -2  -3    0.75    0.06
  -1   2   3    1.03    0.07
   0  -2  -3    1.31    0.07
   0   2   3    1.38    0.09
   0   2   3    1.33    0.07
  -1  -2  -3  919.45   26.11
  -1  -2  -3  923.23   26.02
   1   2   3  977.00   26.66
   1   2   3 1000.00   25.94
   1   2   3  981.93   25.78
   2   2   3   71.14    1.96
   2   2   3   72.51    1.96
   2   2   3   73.46    1.95
   3   2   3  260.76    7.09
   3   2   3  260.02    7.04
   3   2   3  264.21    7.05
   4   2   3  427.20   11.47
   4   2   3  424.13   11.57
   4   2   3  427.39   11.49
   5   2   3   10.33    0.32
   5   2   3   10.41    0.35
   6   2   3   37.83    1.06
   6   2   3   36.24    1.03
   7   2   3    8.16    0.33
   7   2   3    7.75    0.28
   8   2   3    3.42    0.26
   8   2   3    3.02    0.19
   9   2   3    0.29    0.17
  10   2   3    8.54    0.43
   9  -3  -3    7.05    0.41
   8  -3  -3    5.82    0.34
   7  -3  -3    1.21    0.16
   6  -3  -3    9.69    0.37
  -6   3   3    9.67    0.35
   5  -3  -3   18.13    0.56
   5  -3  -3   18.17    0.52
  -5   3   3   18.13    0.55
   4  -3  -3  225.05    5.98
   4  -3  -3  222.34    5.96
  -4   3   3  219.42    5.98
   3  -3  -3  171.28    4.63
   3  -3  -3  174.19    4.67
   3  -3  -3  172.18    4.65
  -3   3   3  172.70    4.65
   2  -3  -3   83.49    2.23
   2  -3  -3   81.03    2.21
  -2   3   3   80.28    2.21
   1  -3  -3  231.56    6.28
   1  -3  -3  231.57    6.30
  -1   3   3  235.56    6.25
   0  -3  -3  116.12    3.11
   0  -3  -3  117.18    3.10
   0   3   3  112.69    3.11
   0   3   3  116.04    3.11
  -1  -3  -3   74.86    2.13
   1   3   3   80.72    2.11
   1   3   3   79.91    2.12
  -2  -3  -3   24.20    0.68
   2   3   3   24.96    0.68
   2   3   3   24.35    0.67
   2   3   3   24.25    0.68
   3   3   3    0.02    0.05
   3   3   3   -0.02    0.05
   3   3   3    0.04    0.06
   3   3   3    0.07    0.07
   4   3   3    7.44    0.26
   4   3   3    7.75    0.25
   4   3   3    7.58    0.25
   4   3   3    7.44    0.24
   5   3   3   77.86    2.15
   5   3   3   79.46    2.16
   5   3   3   79.89    2.17
   5   3   3   79.95    2.17
   6   3   3   11.33    0.38
   6   3   3   11.07    0.35
   7   3   3   36.98    1.05
   7   3   3   35.79    1.01
   8   3   3    3.72    0.26
   8   3   3    3.32    0.18
   9   3   3   38.73    1.15
  10   3   3   96.98    2.71
  11   3   3   23.35    0.81
   8  -4  -3   21.86    0.74
   7  -4  -3    0.04    0.16
   6  -4  -3    0.46    0.14
   5  -4  -3    1.94    0.16
   5  -4  -3    2.08    0.15
  -5   4   3    2.13    0.14
   4  -4  -3   67.02    1.82
   4  -4  -3   66.75    1.87
   4  -4  -3   65.72    1.81
  -4   4   3   65.66    1.82
   3  -4  -3   32.91    0.97
   3  -4  -3   32.61    0.91
   3  -4  -3   33.12    0.93
  -3   4   3   33.22    0.93
   2  -4  -3   30.40    0.85
   2  -4  -3   30.40    0.88
  -2   4   3   30.26    0.85
   1  -4  -3    0.57    0.10
   1  -4  -3    0.58    0.06
  -1   4   3    0.60    0.08
   0  -4  -3    5.21    0.21
   0  -4  -3    4.96    0.16
   0   4   3    4.68    0.18
   0   4   3    5.01    0.20
  -1  -4  -3   51.42    1.55
  -1  -4  -3   57.66    1.51
   1   4   3   57.24    1.53
   1   4   3   57.74    1.53
  -2  -4  -3   38.54    1.04
   2   4   3   36.90    1.02
   2   4   3   35.89    1.02
  -3  -4  -3   52.73    1.39
   3   4   3   48.93    1.38
   3   4   3   49.60    1.38
   4   4   3   10.98    0.34
   4   4   3   10.79    0.34
   4   4   3   10.48    0.32
   4   4   3   10.79    0.34
   5   4   3  151.69    4.09
   5   4   3  149.87    4.10
   5   4   3  152.41    4.10
   5   4   3  153.67    4.10
   6   4   3   24.10    0.71
   6   4   3   24.16    0.69
   6   4   3   24.47    0.72
   7   4   3    3.66    0.24
   7   4   3    3.70    0.22
   7   4   3    3.20    0.17
   8   4   3    0.27    0.14
   8   4   3    0.07    0.08
   9   4   3    4.31    0.31
  10   4   3    0.10    0.18
  11   4   3    5.44    0.40
   8  -5  -3    4.21    0.36
   7  -5  -3   11.74    0.47
   6  -5  -3   19.31    0.62
   5  -5  -3    6.62    0.26
   5  -5  -3    6.47    0.30
   5  -5  -3    6.75    0.39
  -5   5   3    5.79    0.35
   4  -5  -3    9.70    0.36
   4  -5  -3   10.48    0.34
   4  -5  -3   10.51    0.45
  -4   5   3   10.19    0.34
   3  -5  -3    4.61    0.29
   3  -5  -3    4.52    0.21
   3  -5  -3    4.83    0.20
  -3   5   3    4.67    0.21
   2  -5  -3   31.57    0.94
   2  -5  -3   32.19    0.90
  -2   5   3   32.44    0.90
   1  -5  -3    0.66    0.07
   1  -5  -3    0.60    0.12
  -1   5   3    0.77    0.12
  -1   5   3    0.68    0.08
   0  -5  -3    0.90    0.08
   0  -5  -3    1.17    0.13
   0   5   3    0.86    0.11
   0   5   3    0.83    0.09
  -1  -5  -3    8.92    0.25
  -1  -5  -3    7.62    0.33
   1   5   3    8.50    0.28
   1   5   3    8.47    0.29
  -2  -5  -3   88.64    2.44
   2   5   3   88.32    2.40
   2   5   3   89.37    2.41
  -3  -5  -3   77.11    2.07
   3   5   3   74.39    2.05
   3   5   3   74.71    2.05
  -4  -5  -3    4.82    0.22
   4   5   3    4.78    0.20
   4   5   3    4.74    0.20
  -5  -5  -3    0.77    0.11
   5   5   3    0.71    0.10
   5   5   3    0.75    0.09
   5   5   3    0.82    0.10
   6   5   3    0.15    0.10
   6   5   3   -0.05    0.09
   6   5   3    0.21    0.10
   7   5   3  115.44    3.16
   7   5   3  116.78    3.17
   8   5   3    1.68    0.16
   8   5   3    1.73    0.19
   9   5   3    0.01    0.15
  10   5   3    5.77    0.35
  11   5   3   18.42    0.67
   7  -6  -3    0.12    0.18
   6  -6  -3    6.55    0.34
   5  -6  -3   59.96    1.65
   5  -6  -3   59.46    1.67
   5  -6  -3   58.44    1.75
   4  -6  -3   17.78    0.65
   4  -6  -3   18.56    0.55
   4  -6  -3   18.10    0.56
  -4   6   3   17.36    0.54
   3  -6  -3   66.73    1.86
   3  -6  -3   69.70    1.86
   3  -6  -3   68.76    1.93
  -3   6   3   65.97    1.86
   2  -6  -3  207.36    5.55
   2  -6  -3  207.61    5.50
   2  -6  -3  200.06    5.49
  -2   6   3  202.30    5.54
  -2   6   3  203.77    5.50
   1  -6  -3    0.85    0.08
   1  -6  -3    1.24    0.17
  -1   6   3    0.85    0.10
  -1   6   3    0.90    0.15
   0  -6  -3    2.01    0.10
   0  -6  -3    2.04    0.19
   0   6   3    2.16    0.17
   0   6   3    2.04    0.14
  -1  -6  -3    0.50    0.15
  -1  -6  -3    0.63    0.05
   1   6   3    0.58    0.11
   1   6   3    0.49    0.08
  -2  -6  -3   98.38    2.66
  -2  -6  -3   95.12    2.74
   2   6   3  103.22    2.69
   2   6   3   99.21    2.69
  -3  -6  -3   30.19    0.88
   3   6   3   29.25    0.84
   3   6   3   28.86    0.83
  -4  -6  -3    2.42    0.20
   4   6   3    2.94    0.17
  -5  -6  -3    9.58    0.37
   5   6   3   10.00    0.34
   5   6   3   10.20    0.34
  -6  -6  -3    2.05    0.18
   6   6   3    2.18    0.19
   6   6   3    1.93    0.17
   6   6   3    2.10    0.16
  -7  -6  -3    0.69    0.16
   7   6   3    0.97    0.12
   7   6   3    0.91    0.15
   8   6   3   48.95    1.37
   8   6   3   46.25    1.35
   9   6   3   15.85    0.56
   9   6   3   15.05    0.54
  10   6   3   14.52    0.54
  11   6   3   11.57    0.50
   6  -7  -3    3.27    0.24
   5  -7  -3   19.74    0.65
   5  -7  -3   20.71    0.77
   5  -7  -3   19.44    0.63
   4  -7  -3    8.03    0.48
   4  -7  -3    7.70    0.32
   4  -7  -3    7.67    0.32
  -4   7   3    7.76    0.44
   3  -7  -3    1.57    0.24
   3  -7  -3    1.46    0.13
   3  -7  -3    1.96    0.15
  -3   7   3    1.59    0.13
  -3   7   3    1.97    0.24
   2  -7  -3   49.95    1.42
   2  -7  -3   52.24    1.43
   2  -7  -3   52.67    1.52
  -2   7   3   51.36    1.43
  -2   7   3   51.19    1.50
   1  -7  -3    0.87    0.19
   1  -7  -3    0.59    0.08
  -1   7   3    0.75    0.17
  -1   7   3    0.60    0.10
   0  -7  -3    0.13    0.06
   0  -7  -3    0.27    0.17
   0   7   3    0.16    0.09
   0   7   3    0.01    0.13
  -1  -7  -3  109.08    3.26
  -1  -7  -3  116.42    3.16
   1   7   3  123.16    3.19
   1   7   3  121.72    3.22
  -2  -7  -3    5.71    0.35
   2   7   3    4.66    0.24
   2   7   3    5.02    0.23
  -3  -7  -3   76.51    2.12
   3   7   3   74.87    2.05
   3   7   3   72.83    2.05
  -4  -7  -3  242.84    6.47
   4   7   3  239.20    6.43
   4   7   3  233.93    6.43
  -5  -7  -3   45.88    1.31
   5   7   3   44.94    1.28
   5   7   3   45.37    1.28
  -6  -7  -3   22.44    0.73
   6   7   3   23.36    0.71
   6   7   3   22.97    0.70
  -7  -7  -3   33.61    1.02
   7   7   3   35.16    1.00
   7   7   3   32.76    0.98
  -8  -7  -3   10.19    0.46
   8   7   3    9.95    0.49
   8   7   3   10.31    0.42
  -9  -7  -3    4.64    0.37
   9   7   3    4.77    0.32
 -10  -7  -3    0.76    0.25
  10   7   3    0.59    0.21
 -11  -7  -3   -0.06    0.26
   6  -8  -3    2.63    0.37
  -6   8   3    2.83    0.38
   5  -8  -3    0.51    0.16
   5  -8  -3    0.41    0.20
   5  -8  -3    0.74    0.30
  -5   8   3    0.59    0.29
   4  -8  -3   31.55    1.08
   4  -8  -3   31.22    0.94
   4  -8  -3   31.28    0.95
  -4   8   3   32.57    1.05
   3  -8  -3   27.26    0.83
   3  -8  -3   27.56    0.83
   3  -8  -3   28.54    0.95
  -3   8   3   27.86    0.93
   2  -8  -3   26.33    0.89
   2  -8  -3   24.46    0.83
   2  -8  -3   26.05    0.77
  -2   8   3   26.17    0.76
  -2   8   3   26.10    0.86
   1  -8  -3  194.05    5.23
   1  -8  -3  191.84    5.32
  -1   8   3  192.31    5.29
  -1   8   3  196.19    5.23
   0  -8  -3   56.95    1.71
   0   8   3   57.37    1.60
   0   8   3   58.90    1.66
  -1  -8  -3    4.60    0.41
   1   8   3    5.51    0.25
   1   8   3    5.16    0.30
  -2  -8  -3    0.44    0.21
   2   8   3    0.58    0.12
   2   8   3    0.53    0.13
  -3  -8  -3    1.41    0.23
   3   8   3    1.69    0.14
   3   8   3    2.04    0.16
  -4  -8  -3   23.18    0.78
   4   8   3   22.64    0.69
  -5  -8  -3    4.36    0.33
   5   8   3    3.91    0.24
   5   8   3    4.35    0.25
  -6  -8  -3    8.43    0.40
   6   8   3    8.47    0.36
   6   8   3    8.14    0.34
  -7  -8  -3    6.00    0.37
   7   8   3    5.82    0.31
   7   8   3    5.77    0.32
  -8  -8  -3    0.36    0.20
   8   8   3    0.41    0.16
  -9  -8  -3    0.49    0.23
   9   8   3    0.65    0.19
 -10  -8  -3   47.29    1.45
  10   8   3   46.93    1.40
   5  -9  -3   18.00    0.66
   5  -9  -3   19.73    0.86
  -5   9   3   19.58    0.82
   4  -9  -3    7.95    0.38
   4  -9  -3    8.79    0.58
  -4   9   3    8.36    0.55
   3  -9  -3    6.81    0.34
   3  -9  -3    6.73    0.52
  -3   9   3    6.67    0.49
   2  -9  -3    1.25    0.31
   2  -9  -3    1.26    0.17
  -2   9   3    1.30    0.26
   1  -9  -3    2.16    0.18
   1  -9  -3    1.86    0.30
  -1   9   3    2.08    0.17
  -1   9   3    2.29    0.26
   0  -9  -3    9.05    0.55
   0   9   3    9.92    0.36
   0   9   3    9.69    0.45
  -1  -9  -3   31.80    1.13
   1   9   3   35.23    0.99
   1   9   3   34.18    1.03
  -2  -9  -3    0.70    0.27
   2   9   3    0.82    0.16
   2   9   3    0.76    0.13
  -3  -9  -3   17.31    0.72
   3   9   3   18.19    0.59
   3   9   3   17.71    0.57
  -4  -9  -3   10.16    0.53
   4   9   3   10.24    0.39
   4   9   3   10.09    0.40
  -5  -9  -3   81.02    2.26
   5   9   3   78.14    2.19
   5   9   3   77.55    2.19
  -6  -9  -3   56.40    1.66
   6   9   3   55.88    1.59
   6   9   3   56.08    1.59
  -7  -9  -3    0.20    0.21
   7   9   3    0.26    0.17
   7   9   3    0.28    0.16
  -8  -9  -3   24.69    0.85
   8   9   3   24.21    0.78
  -9  -9  -3    1.48    0.27
   9   9   3    1.29    0.22
 -10  -9  -3    1.64    0.30
  10   9   3    1.29    0.24
   3 -10  -3    8.29    0.39
   3 -10  -3    8.72    0.64
  -3  10   3    8.00    0.55
   2 -10  -3    1.88    0.20
   2 -10  -3    2.51    0.38
  -2  10   3    1.61    0.29
   1 -10  -3    1.26    0.18
   1 -10  -3    1.39    0.35
  -1  10   3    1.52    0.20
  -1  10   3    1.14    0.26
   0 -10  -3   14.16    0.49
   0 -10  -3   12.96    0.68
   0  10   3   13.85    0.58
   0  10   3   13.96    0.48
  -1 -10  -3   26.23    1.03
   1  10   3   29.00    0.85
   1  10   3   28.33    0.91
  -2 -10  -3    5.67    0.45
   2  10   3    6.23    0.36
   2  10   3    6.58    0.32
  -3 -10  -3    3.34    0.38
   3  10   3    3.57    0.30
   3  10   3    3.77    0.27
  -4 -10  -3    2.23    0.33
   4  10   3    1.82    0.18
   4  10   3    2.22    0.21
  -5 -10  -3    6.06    0.48
   5  10   3    6.02    0.33
   5  10   3    6.09    0.33
  -6 -10  -3    0.51    0.26
   6  10   3    0.83    0.18
   6  10   3    0.54    0.18
  -7 -10  -3   19.54    0.74
   7  10   3   18.51    0.65
   7  10   3   18.44    0.64
  -8 -10  -3    9.83    0.54
   8  10   3    9.45    0.44
  -9 -10  -3    4.45    0.37
   9  10   3    4.10    0.36
 -10 -10  -3   10.17    0.59
  10  10   3    9.03    0.49
   2 -11  -3   30.01    1.17
   2 -11  -3   29.49    0.92
  -2  11   3   29.50    1.04
   1 -11  -3    1.33    0.20
   1 -11  -3    1.30    0.38
  -1  11   3    0.90    0.28
   0 -11  -3    0.29    0.35
   0 -11  -3   -0.02    0.16
   0  11   3    0.10    0.16
   0  11   3    0.08    0.23
  -1 -11  -3    5.76    0.33
  -1 -11  -3    4.50    0.47
   1  11   3    6.20    0.32
   1  11   3    5.40    0.42
  -2 -11  -3    8.82    0.68
   2  11   3   10.81    0.49
   2  11   3   10.45    0.43
  -3 -11  -3   28.08    1.08
   3  11   3   27.27    0.86
   3  11   3   28.17    0.90
  -4 -11  -3    2.87    0.39
   4  11   3    2.63    0.25
   4  11   3    2.44    0.22
  -5 -11  -3   10.29    0.61
   5  11   3    8.77    0.42
   5  11   3    8.51    0.43
  -6 -11  -3    3.22    0.37
   6  11   3    2.75    0.25
   6  11   3    3.06    0.24
  -7 -11  -3    1.08    0.30
   7  11   3    0.68    0.20
   7  11   3    0.91    0.21
  -8 -11  -3    2.21    0.33
   8  11   3    2.46    0.25
  -9 -11  -3    6.30    0.52
   9  11   3    5.79    0.40
   0 -12  -3    0.10    0.19
   0 -12  -3   -0.56    0.36
   0  12   3    0.11    0.26
  -1 -12  -3    9.14    0.70
  -1 -12  -3   10.23    0.46
   1  12   3   10.57    0.45
   1  12   3    9.78    0.54
  -2 -12  -3    0.58    0.39
  -2 -12  -3    1.07    0.20
   2  12   3    0.88    0.20
   2  12   3    0.98    0.25
  -3 -12  -3    3.98    0.48
   3  12   3    4.44    0.34
   3  12   3    4.36    0.33
  -4 -12  -3   33.33    1.22
   4  12   3   31.77    1.03
   4  12   3   31.49    0.99
  -5 -12  -3   13.26    0.74
   5  12   3   12.18    0.52
   5  12   3   12.26    0.54
  -6 -12  -3    4.90    0.45
   6  12   3    4.32    0.37
   6  12   3    4.49    0.36
  -7 -12  -3   33.97    1.18
   7  12   3   32.18    1.04
  -8 -12  -3    0.31    0.30
   8  12   3    0.38    0.22
  -3 -13  -3    2.92    0.48
  -3 -13  -3    3.09    0.26
   3  13   3    3.34    0.32
   3  13   3    3.05    0.26
  -4 -13  -3    9.48    0.72
  -4 -13  -3    9.92    0.47
   4  13   3    9.50    0.48
   4  13   3   10.22    0.53
  -5 -13  -3    0.07    0.39
   5  13   3   -0.04    0.23
   5  13   3    0.01    0.20
   7  10  -4    6.97    0.54
  -7 -10   4    7.34    0.58
   6  10  -4   -0.13    0.28
  -6 -10   4    0.04    0.31
   5  10  -4    7.66    0.57
  -5 -10   4    7.63    0.59
  -5 -10   4    7.09    0.36
   4  10  -4    8.80    0.58
  -4 -10   4    8.28    0.39
  -4 -10   4    8.88    0.62
   3  10  -4    0.70    0.30
  -3 -10   4   -0.24    0.18
  -3 -10   4    0.26    0.31
   2  10  -4   13.69    0.67
  -2 -10   4   13.28    0.52
  -2 -10   4   14.13    0.75
   1  10  -4   -0.01    0.28
  -1 -10   4   -0.05    0.19
  -1 -10   4    0.03    0.33
   0  10  -4    4.85    0.41
   0 -10   4    4.75    0.36
   0 -10   4    4.30    0.46
   8   9  -4    9.48    0.57
  -8  -9   4   10.17    0.59
   7   9  -4    3.84    0.37
  -7  -9   4    3.01    0.35
   6   9  -4   18.60    0.75
  -6  -9   4   18.76    0.78
   5   9  -4    0.36    0.27
  -5  -9   4    0.27    0.14
  -5  -9   4    0.51    0.29
   4   9  -4   52.58    1.59
  -4  -9   4   51.56    1.48
  -4  -9   4   52.69    1.62
   3   9  -4   50.32    1.58
  -3  -9   4   53.55    1.63
  -3  -9   4   52.11    1.48
   2   9  -4    5.17    0.46
  -2  -9   4    4.58    0.30
  -2  -9   4    4.99    0.42
   1   9  -4   24.06    0.90
  -1  -9   4   23.90    0.78
  -1  -9   4   26.88    0.97
   0   9  -4    5.74    0.41
   0  -9   4    5.02    0.34
   0  -9   4    5.96    0.47
  -1   9  -4    0.85    0.28
   1  -9   4   -0.10    0.17
   1  -9   4   -0.29    0.32
  -2   9  -4    5.91    0.44
   2  -9   4    6.02    0.39
   2  -9   4    4.93    0.48
   9   8  -4    2.48    0.33
  -9  -8   4    2.65    0.33
   8   8  -4   16.20    0.69
  -8  -8   4   15.32    0.68
   7   8  -4    0.52    0.26
  -7  -8   4    0.64    0.26
   6   8  -4    0.88    0.27
  -6  -8   4    0.83    0.26
   5   8  -4    7.80    0.49
  -5  -8   4    7.56    0.32
  -5  -8   4    7.70    0.49
   4   8  -4    7.84    0.47
  -4  -8   4    7.57    0.32
  -4  -8   4    7.81    0.49
   3   8  -4    0.03    0.23
  -3  -8   4   -0.03    0.13
  -3  -8   4    0.29    0.26
   2   8  -4   38.16    1.22
  -2  -8   4   39.67    1.26
  -2  -8   4   37.81    1.11
   1   8  -4    0.93    0.26
  -1  -8   4    0.67    0.16
  -1  -8   4    0.31    0.28
   0   8  -4    0.06    0.24
   0  -8   4    0.24    0.16
   0  -8   4   -0.34    0.26
  -1   8  -4    5.59    0.46
   1  -8   4    5.12    0.32
   1  -8   4    4.63    0.42
  -2   8  -4   15.33    0.70
   2  -8   4   14.79    0.55
   2  -8   4   15.22    0.75
  -3   8  -4   24.31    0.93
   3  -8   4   25.57    1.00
   3  -8   4   24.59    0.81
  10   7  -4    1.71    0.28
 -10  -7   4    1.61    0.32
   9   7  -4    4.10    0.34
  -9  -7   4    5.25    0.48
   8   7  -4    0.69    0.25
  -8  -7   4    0.52    0.24
   7   7  -4   20.79    0.74
  -7  -7   4   19.79    0.74
   6   7  -4   35.14    1.10
  -6  -7   4   34.74    1.11
   5   7  -4    8.64    0.46
  -5  -7   4    7.79    0.44
  -5  -7   4    8.16    0.30
   4   7  -4    3.60    0.30
  -4  -7   4    3.30    0.30
  -4  -7   4    3.48    0.21
   3   7  -4    3.16    0.29
  -3  -7   4    3.12    0.22
  -3  -7   4    2.97    0.29
   2   7  -4   25.06    0.85
  -2  -7   4   24.63    0.74
  -2  -7   4   25.59    0.87
   1   7  -4    0.47    0.21
  -1  -7   4    0.28    0.13
  -1  -7   4    0.27    0.25
   0   7  -4   13.11    0.55
   0  -7   4   12.52    0.61
   0  -7   4   12.74    0.46
  -1   7  -4    2.28    0.28
   1  -7   4    1.89    0.18
   1  -7   4    1.88    0.32
  -2   7  -4   16.81    0.71
   2  -7   4   17.29    0.59
   2  -7   4   18.00    0.76
  -3   7  -4    9.58    0.56
   3  -7   4    9.57    0.43
   3  -7   4    9.79    0.61
  -4   7  -4    8.32    0.58
   4  -7   4    7.42    0.64
   4  -7   4    7.77    0.41
   5  -7   4    0.25    0.36
  10   6  -4    1.62    0.28
 -10  -6   4    2.10    0.32
   9   6  -4    0.61    0.23
  -9  -6   4    0.76    0.26
   8   6  -4   31.88    1.02
  -8  -6   4   31.69    1.03
   7   6  -4    0.26    0.21
  -7  -6   4    0.38    0.20
   6   6  -4    9.51    0.46
  -6  -6   4    8.76    0.44
   5   6  -4   82.19    2.27
  -5  -6   4   79.10    2.27
  -5  -6   4   78.77    2.18
   4   6  -4   41.39    1.24
  -4  -6   4   40.69    1.23
  -4  -6   4   40.94    1.14
   3   6  -4   43.50    1.29
  -3  -6   4   43.43    1.21
  -3  -6   4   42.75    1.30
   2   6  -4   84.71    2.39
  -2  -6   4   83.88    2.31
  -2  -6   4   84.71    2.39
   1   6  -4    3.01    0.27
  -1  -6   4    3.10    0.28
  -1  -6   4    2.66    0.20
   0   6  -4    4.91    0.36
   0  -6   4    5.30    0.41
   0  -6   4    5.35    0.27
  -1   6  -4   15.01    0.61
   1  -6   4   14.99    0.51
   1  -6   4   15.57    0.65
  -2   6  -4   12.61    0.56
   2  -6   4   12.79    0.46
   2  -6   4   12.93    0.63
  -3   6  -4    0.43    0.25
   3  -6   4    0.88    0.30
   3  -6   4    0.50    0.17
  -4   6  -4    6.82    0.51
   4  -6   4    7.46    0.56
   4  -6   4    7.52    0.37
   4  -6   4    7.19    0.39
  -5   6  -4   -0.12    0.30
   5  -6   4    0.56    0.21
   5  -6   4    0.13    0.33
   5  -6   4    0.19    0.19
  -6   6  -4    3.96    0.43
   6  -6   4    4.34    0.34
   6  -6   4    3.68    0.28
   6  -6   4    4.69    0.47
  10   5  -4   48.62    1.50
 -10  -5   4   50.93    1.54
   9   5  -4   61.75    1.81
  -9  -5   4   62.72    1.83
   8   5  -4    4.80    0.37
   8   5  -4    4.30    0.25
  -8  -5   4    4.48    0.37
   7   5  -4   12.25    0.42
   7   5  -4   12.91    0.52
  -7  -5   4   13.45    0.52
   6   5  -4    0.57    0.18
   6   5  -4    0.50    0.10
  -6  -5   4    0.34    0.17
   5   5  -4   19.02    0.58
   5   5  -4   20.98    0.68
  -5  -5   4   19.41    0.57
  -5  -5   4   21.02    0.67
   4   5  -4    1.24    0.09
   4   5  -4    1.19    0.18
  -4  -5   4    1.31    0.19
  -4  -5   4    1.41    0.10
   3   5  -4    0.37    0.17
   3   5  -4    0.31    0.07
  -3  -5   4    0.29    0.15
  -3  -5   4    0.23    0.08
   2   5  -4   24.78    0.78
   2   5  -4   24.52    0.69
  -2  -5   4   23.84    0.78
  -2  -5   4   24.67    0.71
   1   5  -4   -0.08    0.16
  -1  -5   4    0.03    0.16
  -1  -5   4    0.15    0.09
   0   5  -4    1.28    0.19
   0  -5   4    0.89    0.12
   0  -5   4    0.90    0.21
  -1   5  -4   81.31    2.33
   1  -5   4   85.44    2.36
   1  -5   4   81.50    2.27
  -2   5  -4   66.36    1.93
   2  -5   4   68.37    1.87
   2  -5   4   66.81    1.96
  -3   5  -4   53.48    1.59
   3  -5   4   53.69    1.62
   3  -5   4   53.92    1.51
   3  -5   4   53.10    1.52
  -4   5  -4  122.90    3.50
   4  -5   4  126.74    3.44
   4  -5   4  124.85    3.42
   4  -5   4  125.38    3.53
  -5   5  -4   13.85    0.65
   5  -5   4   13.87    0.51
   5  -5   4   13.66    0.67
   5  -5   4   13.62    0.54
  -6   5  -4    5.66    0.44
   6  -5   4    6.23    0.42
   6  -5   4    6.13    0.37
   6  -5   4    5.66    0.47
  10   4  -4    3.64    0.31
  10   4  -4    4.28    0.33
 -10  -4   4    4.21    0.34
   9   4  -4    0.17    0.21
   9   4  -4    0.22    0.15
  -9  -4   4    0.00    0.22
   8   4  -4    0.68    0.19
   8   4  -4    0.49    0.13
  -8  -4   4    0.55    0.20
   7   4  -4    0.74    0.18
   7   4  -4    0.73    0.12
  -7  -4   4    1.02    0.19
   6   4  -4    9.06    0.32
   6   4  -4    9.55    0.39
  -6  -4   4    9.02    0.39
   5   4  -4    1.61    0.14
   5   4  -4    1.85    0.19
  -5  -4   4    1.66    0.11
  -5  -4   4    1.55    0.17
   4   4  -4   86.53    2.36
   4   4  -4   88.29    2.42
  -4  -4   4   86.40    2.36
  -4  -4   4   87.88    2.42
   3   4  -4  324.30    8.65
   3   4  -4  316.41    8.61
  -3  -4   4  322.11    8.60
  -3  -4   4  321.01    8.65
   2   4  -4   56.61    1.55
   2   4  -4   55.72    1.61
  -2  -4   4   57.81    1.62
  -2  -4   4   57.28    1.56
   1   4  -4  169.17    4.84
  -1  -4   4  180.56    4.86
  -1  -4   4  184.76    4.80
   0   4  -4  126.93    3.55
   0  -4   4  129.48    3.50
   0  -4   4  132.28    3.57
  -1   4  -4    4.15    0.28
   1  -4   4    3.98    0.31
   1  -4   4    4.22    0.22
  -2   4  -4   44.07    1.32
   2  -4   4   46.35    1.35
   2  -4   4   45.04    1.27
  -3   4  -4    2.75    0.24
   3  -4   4    3.04    0.23
   3  -4   4    2.25    0.17
   3  -4   4    3.07    0.28
  -4   4  -4    1.43    0.24
   4  -4   4    1.38    0.16
   4  -4   4    1.24    0.26
   4  -4   4    1.41    0.18
  -5   4  -4   10.51    0.53
   5  -4   4   11.16    0.45
   5  -4   4   10.36    0.42
   5  -4   4   10.29    0.56
  -6   4  -4   18.41    0.74
   6  -4   4   18.09    0.77
   6  -4   4   18.55    0.65
   6  -4   4   18.32    0.62
   7  -4   4    2.22    0.36
   7  -4   4    2.80    0.27
   7  -4   4    2.39    0.23
  10   3  -4   -0.08    0.17
   9   3  -4    0.62    0.20
   9   3  -4    0.69    0.17
   8   3  -4   88.30    2.43
   8   3  -4   87.87    2.47
   7   3  -4   13.00    0.49
   7   3  -4   13.08    0.44
   6   3  -4    1.02    0.16
   6   3  -4    0.61    0.11
  -6  -3   4    0.83    0.15
   5   3  -4   44.03    1.22
   5   3  -4   42.60    1.18
  -5  -3   4   43.07    1.22
  -5  -3   4   40.34    1.15
   4   3  -4    7.81    0.26
   4   3  -4    7.47    0.31
  -4  -3   4    7.58    0.24
  -4  -3   4    8.75    0.32
   3   3  -4   22.33    0.66
   3   3  -4   21.71    0.62
  -3  -3   4   21.34    0.61
  -3  -3   4   21.73    0.66
   2   3  -4   91.87    2.54
   2   3  -4   93.04    2.50
  -2  -3   4   94.07    2.50
  -2  -3   4   91.23    2.54
   1   3  -4   31.87    0.97
  -1  -3   4   34.12    0.92
  -1  -3   4   32.76    0.97
   0   3  -4   17.13    0.57
   0  -3   4   17.61    0.52
   0  -3   4   17.95    0.58
  -1   3  -4   48.36    1.39
   1  -3   4   49.26    1.40
   1  -3   4   47.92    1.34
  -2   3  -4   12.12    0.46
   2  -3   4   12.89    0.50
   2  -3   4   13.16    0.41
  -3   3  -4   81.47    2.31
   3  -3   4   83.54    2.27
   3  -3   4   82.91    2.28
   3  -3   4   82.94    2.33
   4  -3   4    9.38    0.35
   4  -3   4    9.20    0.46
   4  -3   4    9.61    0.37
   5  -3   4   79.37    2.32
   5  -3   4   84.08    2.26
   5  -3   4   79.98    2.24
   6  -3   4   69.13    1.90
   6  -3   4   66.82    1.87
   6  -3   4   64.38    1.97
   7  -3   4    0.33    0.19
   7  -3   4    0.42    0.27
   7  -3   4    0.43    0.17
   8  -3   4   15.14    0.61
   8  -3   4   15.07    0.61
  10   2  -4    2.10    0.22
   9   2  -4    1.05    0.18
   8   2  -4    7.23    0.33
   8   2  -4    6.93    0.36
   7   2  -4    8.83    0.34
   6   2  -4   32.54    0.92
   6   2  -4   31.60    0.94
   5   2  -4   10.51    0.38
   5   2  -4   10.64    0.34
   4   2  -4   40.45    1.10
   4   2  -4   39.86    1.12
  -4  -2   4   39.63    1.12
  -4  -2   4   38.39    1.07
   3   2  -4   24.36    0.70
   3   2  -4   23.69    0.67
  -3  -2   4   23.48    0.70
  -3  -2   4   24.03    0.66
   2   2  -4   79.43    2.13
   2   2  -4   78.22    2.11
  -2  -2   4   76.82    2.13
  -2  -2   4   76.80    2.10
   1   2  -4   42.45    1.24
  -1  -2   4   45.54    1.21
  -1  -2   4   44.82    1.25
   0   2  -4    0.00    0.10
   0  -2   4    0.03    0.11
   0  -2   4    0.10    0.06
  -1   2  -4   48.03    1.38
   1  -2   4   48.71    1.35
   1  -2   4   50.64    1.40
  -2   2  -4    1.31    0.14
   2  -2   4    1.26    0.11
   2  -2   4    1.32    0.16
   2  -2   4    1.08    0.10
   3  -2   4   51.14    1.47
   3  -2   4   49.53    1.41
   3  -2   4   52.64    1.43
   4  -2   4    4.63    0.31
   4  -2   4    4.25    0.24
   4  -2   4    4.15    0.22
   5  -2   4    3.65    0.24
   5  -2   4    2.91    0.26
   5  -2   4    3.40    0.22
   6  -2   4    1.21    0.17
   6  -2   4    0.74    0.15
   6  -2   4    0.63    0.23
   7  -2   4   34.46    1.02
   7  -2   4   34.76    1.06
   8  -2   4    3.45    0.24
   8  -2   4    3.41    0.28
   9  -2   4    0.12    0.22
  10   1  -4    9.28    0.45
   9   1  -4   26.09    0.82
  -9  -1   4   25.86    0.85
   8   1  -4   30.38    0.91
   7   1  -4    0.45    0.15
   7   1  -4    0.31    0.13
   6   1  -4    0.89    0.14
   6   1  -4    0.57    0.11
   5   1  -4   87.52    2.40
   5   1  -4   87.75    2.39
   4   1  -4   56.18    1.51
   4   1  -4   53.80    1.52
   3   1  -4   45.37    1.27
   3   1  -4   46.81    1.26
  -3  -1   4   44.65    1.23
  -3  -1   4   46.40    1.27
   2   1  -4  241.07    6.68
   2   1  -4  256.85    6.67
  -2  -1   4  246.26    6.65
   1   1  -4   31.67    0.88
  -1  -1   4   30.68    0.86
  -1  -1   4   31.17    0.88
   0   1  -4   14.90    0.48
   0  -1   4   15.53    0.45
   0  -1   4   16.03    0.48
  -1   1  -4   50.02    1.38
   1  -1   4   48.51    1.35
   1  -1   4   50.54    1.36
  -2   1  -4   51.70    1.43
   2  -1   4   51.60    1.44
   2  -1   4   50.70    1.41
   3  -1   4   64.97    1.79
   3  -1   4   63.73    1.75
   3  -1   4   62.86    1.76
   4  -1   4   21.10    0.63
   4  -1   4   22.22    0.68
   4  -1   4   20.91    0.64
   5  -1   4    0.39    0.12
   5  -1   4    0.26    0.17
   5  -1   4    0.23    0.10
   6  -1   4    1.66    0.15
   6  -1   4    1.37    0.17
   7  -1   4   19.81    0.62
   7  -1   4   19.33    0.65
   8  -1   4    3.09    0.26
   8  -1   4    2.93    0.21
   9  -1   4   20.47    0.73
  10   0  -4   17.01    0.63
   9   0  -4   93.90    2.55
  -9   0   4   89.11    2.56
   8   0  -4   25.33    0.79
  -8   0   4   24.86    0.80
   7   0  -4   28.40    0.84
  -7   0   4   27.91    0.86
   6   0  -4   53.64    1.50
   5   0  -4   33.89    0.94
   5   0  -4   32.41    0.95
   4   0  -4    4.07    0.18
   4   0  -4    4.10    0.19
   3   0  -4   61.91    1.65
   3   0  -4   59.05    1.65
   2   0  -4  106.40    2.89
   2   0  -4  109.12    2.90
  -2   0   4  106.50    2.88
   1   0  -4   26.75    0.74
  -1   0   4   26.52    0.73
  -1   0   4   25.94    0.74
   0   0  -4   42.43    1.24
   0   0   4   46.35    1.23
   0   0   4   45.25    1.23
   0   0   4   46.48    1.24
  -1   0  -4   53.26    1.46
   1   0   4   54.74    1.46
   1   0   4   52.78    1.44
   1   0   4   51.20    1.44
   2   0   4   52.37    1.34
   2   0   4   49.51    1.32
   2   0   4   44.70    1.35
   3   0   4   33.74    0.98
   3   0   4   34.99    0.96
   3   0   4   35.19    0.99
   4   0   4  311.08    8.62
   4   0   4  330.13    8.64
   4   0   4  321.55    8.61
   5   0   4  104.90    2.90
   5   0   4  108.45    2.92
   6   0   4   39.87    1.14
   6   0   4   40.82    1.17
   7   0   4   49.11    1.41
   7   0   4   48.45    1.37
   8   0   4   -0.05    0.17
   8   0   4    0.10    0.12
   9   0   4    5.70    0.40
  10   0   4    1.44    0.25
  10  -1  -4    9.19    0.46
   9  -1  -4   19.43    0.67
   8  -1  -4    0.96    0.17
  -8   1   4    0.36    0.18
   7  -1  -4   69.95    1.94
  -7   1   4   69.36    1.95
   6  -1  -4    1.09    0.13
  -6   1   4    1.39    0.15
   5  -1  -4    5.84    0.24
  -5   1   4    5.34    0.26
   4  -1  -4   94.42    2.51
  -4   1   4   90.07    2.52
   3  -1  -4  249.53    6.55
   3  -1  -4  243.75    6.58
  -3   1   4  238.10    6.55
   2  -1  -4   85.13    2.26
  -2   1   4   81.56    2.27
   1  -1  -4  395.72   10.90
   1  -1  -4  402.48   10.83
  -1   1   4  402.99   10.87
  -1   1   4  409.93   10.83
   0  -1  -4  425.61   11.24
   0   1   4  436.55   11.27
   0   1   4  409.95   11.29
   0   1   4  401.44   11.24
  -1  -1  -4   36.11    0.99
   1   1   4   35.74    0.99
   1   1   4   35.91    0.99
   1   1   4   36.62    0.99
   2   1   4   97.23    2.73
   2   1   4  101.24    2.74
   2   1   4  105.71    2.74
   3   1   4   25.18    0.68
   3   1   4   24.60    0.71
   3   1   4   23.74    0.69
   4   1   4   63.06    1.71
   4   1   4   61.84    1.69
   4   1   4   60.97    1.67
   5   1   4   13.01    0.42
   5   1   4   12.28    0.39
   6   1   4    7.28    0.28
   6   1   4    7.92    0.32
   7   1   4    1.23    0.16
   7   1   4    1.23    0.13
   8   1   4   -0.03    0.16
   8   1   4    0.01    0.12
   9   1   4    0.47    0.19
  10   1   4   21.27    0.76
   9  -2  -4    0.44    0.19
   8  -2  -4   47.36    1.38
   7  -2  -4   41.47    1.18
  -7   2   4   40.18    1.18
   6  -2  -4    7.31    0.31
  -6   2   4    7.31    0.32
   5  -2  -4   77.00    2.11
  -5   2   4   76.85    2.12
   4  -2  -4   11.04    0.36
   4  -2  -4   10.52    0.31
  -4   2   4   11.05    0.37
   3  -2  -4   47.98    1.30
  -3   2   4   46.39    1.31
   2  -2  -4    4.64    0.18
  -2   2   4    4.41    0.20
   1  -2  -4   32.22    0.89
  -1   2   4   31.98    0.89
   0   2   4    5.70    0.20
   0   2   4    5.89    0.18
   1   2   4   98.89    2.63
   1   2   4   96.68    2.64
   2   2   4    2.81    0.12
   2   2   4    2.96    0.13
   3   2   4   42.38    1.16
   3   2   4   42.20    1.18
   3   2   4   42.40    1.16
   4   2   4    3.58    0.15
   4   2   4    3.52    0.16
   4   2   4    3.75    0.18
   5   2   4   91.94    2.49
   5   2   4   90.39    2.47
   6   2   4  214.34    5.84
   6   2   4  219.89    5.86
   7   2   4   50.35    1.43
   7   2   4   52.94    1.47
   8   2   4   39.87    1.15
   8   2   4   41.98    1.20
   9   2   4   25.27    0.81
  10   2   4    3.70    0.29
   9  -3  -4    0.22    0.19
   8  -3  -4   34.50    1.04
   7  -3  -4    2.14    0.19
  -7   3   4    2.16    0.18
   6  -3  -4    0.28    0.13
  -6   3   4    0.23    0.12
   5  -3  -4    0.91    0.13
   5  -3  -4    0.77    0.08
  -5   3   4    0.78    0.13
   4  -3  -4   33.82    0.96
   4  -3  -4   33.41    0.92
  -4   3   4   33.74    0.96
   3  -3  -4   60.35    1.65
  -3   3   4   59.68    1.65
   2  -3  -4   39.95    1.10
  -2   3   4   39.31    1.10
   1  -3  -4   11.52    0.34
   1  -3  -4   10.84    0.34
  -1   3   4   11.26    0.35
   0  -3  -4   13.37    0.38
   0  -3  -4   12.88    0.37
   0   3   4   12.92    0.39
   0   3   4   12.91    0.37
  -1  -3  -4  397.37   11.35
   1   3   4  422.60   11.45
   1   3   4  427.73   11.34
   1   3   4  445.50   11.42
   2   3   4   20.67    0.57
   2   3   4   21.17    0.59
   2   3   4   20.20    0.59
   3   3   4    2.43    0.13
   3   3   4    2.34    0.11
   4   3   4    8.75    0.31
   4   3   4    8.68    0.28
   4   3   4    9.06    0.29
   5   3   4    1.99    0.16
   5   3   4    2.63    0.15
   5   3   4    2.15    0.14
   6   3   4   25.20    0.76
   6   3   4   25.52    0.73
   7   3   4   54.38    1.51
   7   3   4   55.38    1.55
   8   3   4    0.77    0.12
   8   3   4    1.13    0.17
   9   3   4    3.92    0.32
  10   3   4   15.66    0.60
   8  -4  -4   39.20    1.18
   7  -4  -4    5.67    0.32
   6  -4  -4    2.46    0.19
  -6   4   4    2.23    0.17
   5  -4  -4   26.76    0.80
   5  -4  -4   26.73    0.76
  -5   4   4   27.12    0.79
   4  -4  -4    4.72    0.22
   4  -4  -4    4.87    0.19
  -4   4   4    4.70    0.23
   3  -4  -4    1.57    0.15
   3  -4  -4    1.70    0.12
  -3   4   4    1.56    0.12
   2  -4  -4  259.90    6.99
   2  -4  -4  261.21    6.99
  -2   4   4  258.55    6.98
   1  -4  -4   63.76    1.71
   1  -4  -4   61.84    1.72
  -1   4   4   62.62    1.72
   0  -4  -4   36.58    1.01
   0  -4  -4   37.19    1.01
   0   4   4   37.25    1.02
   0   4   4   35.50    1.02
  -1  -4  -4   37.10    1.02
   1   4   4   36.29    1.00
   1   4   4   37.09    1.02
  -2  -4  -4   14.48    0.43
   2   4   4   14.15    0.41
   2   4   4   15.04    0.42
   2   4   4   13.90    0.43
  -3  -4  -4   88.08    2.41
   3   4   4   90.04    2.40
   3   4   4   87.12    2.41
   3   4   4   89.90    2.40
   4   4   4    1.53    0.11
   4   4   4    1.61    0.13
   4   4   4    1.67    0.12
   5   4   4   15.35    0.46
   5   4   4   16.48    0.48
   5   4   4   15.53    0.49
   5   4   4   15.22    0.47
   6   4   4   15.99    0.47
   6   4   4   15.49    0.50
   6   4   4   16.07    0.49
   7   4   4   53.40    1.48
   7   4   4   51.15    1.44
   8   4   4    3.29    0.27
   8   4   4    2.88    0.19
   9   4   4    6.20    0.36
  10   4   4    0.87    0.20
  11   4   4    9.79    0.48
   8  -5  -4    7.92    0.43
   7  -5  -4   51.18    1.48
   6  -5  -4   63.45    1.79
   5  -5  -4    0.85    0.14
   5  -5  -4    1.05    0.12
  -5   5   4    0.87    0.12
   4  -5  -4    5.57    0.22
   4  -5  -4    6.07    0.33
   4  -5  -4    5.25    0.25
  -4   5   4    5.56    0.25
   3  -5  -4   29.03    0.82
   3  -5  -4   28.99    0.84
   3  -5  -4   29.85    0.89
  -3   5   4   29.47    0.84
   2  -5  -4   86.42    2.34
   2  -5  -4   84.64    2.37
  -2   5   4   86.79    2.34
   1  -5  -4   47.72    1.33
   1  -5  -4   48.27    1.30
  -1   5   4   46.87    1.31
  -1   5   4   46.38    1.33
   0  -5  -4   10.48    0.35
   0  -5  -4   10.49    0.31
   0   5   4   10.56    0.34
   0   5   4   10.33    0.35
  -1  -5  -4   19.98    0.56
  -1  -5  -4   20.38    0.61
   1   5   4   19.91    0.58
   1   5   4   19.63    0.57
  -2  -5  -4   23.71    0.72
   2   5   4   24.52    0.68
   2   5   4   24.82    0.70
  -3  -5  -4    3.64    0.18
   3   5   4    3.51    0.17
   3   5   4    3.38    0.15
  -4  -5  -4  118.78    3.25
   4   5   4  120.33    3.24
   4   5   4  120.24    3.25
   5   5   4   93.77    2.47
   5   5   4   91.42    2.46
   5   5   4   87.04    2.45
   5   5   4   89.89    2.47
   6   5   4   27.86    0.81
   6   5   4   26.46    0.78
   6   5   4   29.47    0.82
   6   5   4   27.53    0.81
   7   5   4   87.46    2.43
   7   5   4   90.91    2.46
   7   5   4   90.01    2.46
   8   5   4   20.06    0.64
   8   5   4   19.39    0.58
   9   5   4    1.07    0.18
  10   5   4   -0.13    0.18
  11   5   4    6.10    0.40
   7  -6  -4   24.78    0.81
   6  -6  -4   34.69    1.03
   5  -6  -4    0.43    0.14
   5  -6  -4    0.36    0.12
   4  -6  -4   24.48    0.72
   4  -6  -4   23.74    0.80
   4  -6  -4   24.11    0.71
  -4   6   4   23.94    0.71
   3  -6  -4   73.44    1.99
   3  -6  -4   72.53    2.00
   3  -6  -4   73.11    2.05
  -3   6   4   71.89    2.00
   2  -6  -4    9.55    0.39
   2  -6  -4   10.25    0.32
  -2   6   4    9.55    0.39
  -2   6   4    9.32    0.33
   1  -6  -4  129.07    3.50
   1  -6  -4  130.38    3.55
  -1   6   4  130.68    3.52
  -1   6   4  129.52    3.54
   0  -6  -4  348.63    9.24
   0  -6  -4  342.11    9.22
   0   6   4  342.94    9.23
   0   6   4  338.87    9.23
  -1  -6  -4   83.73    2.26
  -1  -6  -4   80.82    2.19
   1   6   4   80.76    2.22
   1   6   4   79.95    2.22
  -2  -6  -4   90.07    2.65
  -2  -6  -4   95.44    2.58
   2   6   4   98.36    2.60
   2   6   4   99.82    2.61
  -3  -6  -4  102.33    2.77
   3   6   4   98.56    2.73
   3   6   4  101.18    2.74
  -4  -6  -4   41.49    1.16
   4   6   4   40.14    1.13
   4   6   4   39.80    1.14
  -5  -6  -4    2.55    0.20
   5   6   4    2.39    0.17
   5   6   4    2.61    0.19
  -6  -6  -4    1.01    0.14
   6   6   4    0.92    0.13
   6   6   4    0.76    0.12
   6   6   4    0.86    0.12
   7   6   4   16.19    0.53
   7   6   4   15.25    0.52
   7   6   4   15.90    0.52
   8   6   4    0.72    0.14
   8   6   4    0.94    0.16
   9   6   4    4.02    0.29
  10   6   4   12.67    0.50
  11   6   4   16.99    0.64
   6  -7  -4    5.34    0.34
   5  -7  -4   89.46    2.59
   5  -7  -4   93.38    2.52
   5  -7  -4   89.70    2.51
   4  -7  -4   36.40    1.04
   4  -7  -4   36.86    1.14
   4  -7  -4   35.72    1.05
   3  -7  -4    0.17    0.19
   3  -7  -4    0.04    0.10
   3  -7  -4    0.13    0.11
  -3   7   4    0.06    0.19
  -3   7   4    0.11    0.11
   2  -7  -4    4.45    0.31
   2  -7  -4    4.35    0.21
  -2   7   4    4.58    0.31
  -2   7   4    4.61    0.23
   1  -7  -4   26.98    0.85
   1  -7  -4   27.04    0.77
  -1   7   4   27.80    0.84
  -1   7   4   26.79    0.79
   0  -7  -4   29.87    0.86
   0  -7  -4   32.41    0.95
   0   7   4   30.86    0.92
   0   7   4   30.94    0.89
  -1  -7  -4    3.24    0.29
  -1  -7  -4    2.49    0.12
   1   7   4    2.70    0.18
   1   7   4    2.26    0.20
  -2  -7  -4    5.21    0.17
  -2  -7  -4    4.65    0.33
   2   7   4    5.32    0.23
   2   7   4    5.37    0.23
  -3  -7  -4    7.13    0.37
   3   7   4    7.08    0.26
  -4  -7  -4    4.10    0.27
   4   7   4    3.86    0.20
   4   7   4    4.06    0.22
  -5  -7  -4   17.32    0.57
   5   7   4   17.25    0.54
   5   7   4   16.91    0.53
  -6  -7  -4   83.81    2.36
   6   7   4   86.50    2.34
   6   7   4   84.29    2.33
  -7  -7  -4   35.87    1.11
   7   7   4   36.07    1.07
   7   7   4   38.37    1.09
   7   7   4   38.27    1.08
  -8  -7  -4   68.25    1.99
   8   7   4   72.11    1.97
   8   7   4   69.63    1.96
  -9  -7  -4   65.19    1.86
   9   7   4   62.00    1.82
   9   7   4   65.51    1.83
 -10  -7  -4    4.16    0.33
   6  -8  -4    1.21    0.20
  -6   8   4    0.96    0.32
   5  -8  -4   16.02    0.57
   5  -8  -4   16.50    0.72
  -5   8   4   17.20    0.72
   4  -8  -4    2.68    0.20
   4  -8  -4    2.70    0.19
   4  -8  -4    3.01    0.32
  -4   8   4    2.66    0.30
   3  -8  -4    7.62    0.32
   3  -8  -4    7.65    0.45
   3  -8  -4    7.63    0.31
  -3   8   4    7.49    0.44
  -3   8   4    7.79    0.32
   2  -8  -4   12.13    0.40
   2  -8  -4   12.21    0.43
   2  -8  -4   13.06    0.53
  -2   8   4   12.72    0.43
  -2   8   4   12.36    0.52
   1  -8  -4    1.80    0.23
   1  -8  -4    1.51    0.11
  -1   8   4    1.88    0.15
  -1   8   4    1.60    0.21
   0  -8  -4    1.20    0.21
   0   8   4    0.87    0.13
   0   8   4    1.16    0.18
  -1  -8  -4  113.33    3.19
   1   8   4  113.24    3.11
   1   8   4  115.93    3.13
  -2  -8  -4   59.97    1.86
   2   8   4   66.03    1.78
   2   8   4   65.89    1.78
  -3  -8  -4    2.03    0.24
   3   8   4    2.53    0.17
   3   8   4    2.44    0.19
  -4  -8  -4   62.09    1.73
   4   8   4   57.76    1.67
   4   8   4   59.83    1.66
  -5  -8  -4    0.15    0.17
   5   8   4    0.04    0.13
   5   8   4    0.19    0.11
  -6  -8  -4   10.60    0.45
   6   8   4   10.62    0.41
   6   8   4   10.86    0.39
  -7  -8  -4    9.92    0.44
   7   8   4   10.10    0.41
   7   8   4    9.65    0.39
  -8  -8  -4    0.74    0.21
   8   8   4    0.78    0.18
  -9  -8  -4    0.39    0.21
   9   8   4    0.75    0.19
 -10  -8  -4   20.57    0.76
  10   8   4   20.43    0.71
   5  -9  -4    2.51    0.36
  -5   9   4    2.23    0.34
   4  -9  -4    0.43    0.16
   4  -9  -4    0.64    0.29
  -4   9   4    0.31    0.27
   3  -9  -4   10.45    0.42
   3  -9  -4   11.17    0.57
  -3   9   4   10.57    0.55
   2  -9  -4    3.39    0.33
   2  -9  -4    3.62    0.22
  -2   9   4    3.57    0.31
  -2   9   4    3.66    0.24
   1  -9  -4   26.78    0.91
   1  -9  -4   26.21    0.79
  -1   9   4   25.80    0.78
  -1   9   4   25.95    0.86
   0  -9  -4    0.55    0.24
   0   9   4   -0.17    0.16
   0   9   4    0.04    0.12
  -1  -9  -4   52.61    1.62
   1   9   4   55.26    1.54
   1   9   4   53.22    1.51
  -2  -9  -4    0.13    0.25
   2   9   4    0.32    0.14
   2   9   4    0.17    0.12
  -3  -9  -4    4.78    0.37
   3   9   4    5.07    0.27
   3   9   4    4.67    0.28
  -4  -9  -4    1.53    0.26
   4   9   4    1.52    0.16
   4   9   4    1.64    0.16
  -5  -9  -4   22.24    0.77
   5   9   4   20.81    0.68
   5   9   4   21.77    0.67
  -6  -9  -4   24.15    0.81
   6   9   4   23.12    0.74
   6   9   4   23.25    0.73
  -7  -9  -4    0.79    0.22
   7   9   4    0.97    0.17
   7   9   4    0.85    0.18
  -8  -9  -4    7.83    0.45
   8   9   4    7.85    0.38
  -9  -9  -4    2.32    0.29
   9   9   4    2.42    0.24
 -10  -9  -4   16.82    0.69
  10   9   4   15.75    0.62
   4 -10  -4    6.73    0.38
   4 -10  -4    7.48    0.58
  -4  10   4    7.41    0.55
   3 -10  -4    8.36    0.59
   3 -10  -4    7.29    0.38
  -3  10   4    7.81    0.53
   2 -10  -4   24.83    0.92
   2 -10  -4   24.22    0.75
  -2  10   4   22.17    0.84
   1 -10  -4    6.38    0.32
   1 -10  -4    6.98    0.50
  -1  10   4    6.30    0.31
  -1  10   4    5.15    0.41
   0 -10  -4    2.71    0.34
   0  10   4    2.59    0.19
   0  10   4    2.29    0.26
  -1 -10  -4   44.98    1.45
   1  10   4   45.93    1.30
   1  10   4   45.39    1.35
  -2 -10  -4    0.83    0.30
   2  10   4    0.74    0.16
   2  10   4    0.95    0.18
  -3 -10  -4    3.93    0.38
   3  10   4    4.26    0.28
   3  10   4    4.23    0.30
  -4 -10  -4    9.52    0.56
   4  10   4    9.60    0.40
   4  10   4    9.64    0.40
  -5 -10  -4   14.33    0.63
   5  10   4   13.80    0.50
   5  10   4   13.47    0.50
  -6 -10  -4    1.65    0.27
   6  10   4    1.89    0.20
   6  10   4    1.41    0.19
  -7 -10  -4   46.22    1.40
   7  10   4   45.12    1.33
   7  10   4   44.18    1.31
  -8 -10  -4   14.49    0.62
   8  10   4   13.74    0.53
  -9 -10  -4    0.13    0.25
   9  10   4    0.28    0.20
 -10 -10  -4    1.15    0.29
  10  10   4    0.87    0.22
   2 -11  -4    1.22    0.36
   2 -11  -4    0.57    0.19
  -2  11   4    0.88    0.28
   1 -11  -4   14.28    0.52
   1 -11  -4   15.17    0.74
  -1  11   4   12.75    0.60
   0 -11  -4   36.79    1.26
   0 -11  -4   39.15    1.11
   0  11   4   35.98    1.17
   0  11   4   37.03    1.10
  -1 -11  -4   23.53    0.95
   1  11   4   24.08    0.75
   1  11   4   23.57    0.81
  -2 -11  -4   37.20    1.34
   2  11   4   41.11    1.17
   2  11   4   40.83    1.21
  -3 -11  -4   52.50    1.75
   3  11   4   57.18    1.61
   3  11   4   57.12    1.59
  -4 -11  -4    0.11    0.32
   4  11   4    0.32    0.18
   4  11   4    0.26    0.17
  -5 -11  -4    0.00    0.29
   5  11   4    0.41    0.17
   5  11   4    0.34    0.17
  -6 -11  -4    1.14    0.31
   6  11   4    0.96    0.20
   6  11   4    0.94    0.19
  -7 -11  -4   10.59    0.58
   7  11   4   10.08    0.45
   7  11   4   10.36    0.47
  -8 -11  -4    2.36    0.33
   8  11   4    2.30    0.24
  -9 -11  -4    0.07    0.27
   9  11   4    0.23    0.20
   1 -12  -4    0.41    0.36
   0 -12  -4    4.56    0.34
   0 -12  -4    4.12    0.47
   0  12   4    4.51    0.36
  -1 -12  -4    0.28    0.18
  -1 -12  -4    0.68    0.36
   1  12   4    0.69    0.24
   1  12   4    0.61    0.19
  -2 -12  -4    3.64    0.45
   2  12   4    4.77    0.33
   2  12   4    4.27    0.33
  -3 -12  -4    7.59    0.65
   3  12   4    8.08    0.41
   3  12   4    8.08    0.44
  -4 -12  -4    0.34    0.36
   4  12   4    0.81    0.20
   4  12   4    0.73    0.21
  -5 -12  -4   -0.15    0.33
   5  12   4    0.21    0.19
   5  12   4    0.06    0.19
  -6 -12  -4   13.97    0.72
   6  12   4   13.71    0.55
   6  12   4   14.18    0.56
  -7 -12  -4    1.31    0.34
   7  12   4    0.96    0.23
   7  12   4    1.11    0.22
  -8 -12  -4   17.90    0.79
   8  12   4   17.64    0.65
  -2 -13  -4   14.06    0.54
  -2 -13  -4   12.12    0.83
   2  13   4   13.63    0.54
   2  13   4   13.05    0.60
  -3 -13  -4    1.80    0.43
   3  13   4    3.50    0.30
   3  13   4    2.62    0.25
  -4 -13  -4   36.61    1.35
   4  13   4   35.64    1.15
   4  13   4   37.34    1.13
  -5 -13  -4    6.64    0.55
   5  13   4    5.90    0.41
   5  13   4    5.55    0.42
  -6 -13  -4   -0.23    0.36
   6  13   4    0.24    0.22
   6  13   4    0.31    0.22
   5  10  -5   14.37    0.71
  -5 -10   5   14.31    0.77
   4  10  -5    1.54    0.34
  -4 -10   5    1.55    0.21
  -4 -10   5    1.84    0.38
   3  10  -5   10.10    0.60
  -3 -10   5    8.24    0.41
  -3 -10   5    8.68    0.62
   2  10  -5    8.89    0.56
  -2 -10   5    8.20    0.66
  -2 -10   5    7.17    0.42
   7   9  -5    0.14    0.30
  -7  -9   5    0.58    0.30
   6   9  -5   10.47    0.63
  -6  -9   5   11.21    0.62
   5   9  -5   -0.18    0.29
  -5  -9   5    0.00    0.29
   4   9  -5    3.66    0.37
  -4  -9   5    4.10    0.40
  -4  -9   5    3.54    0.24
   3   9  -5    4.13    0.37
  -3  -9   5    5.15    0.42
  -3  -9   5    4.57    0.32
   2   9  -5   11.22    0.58
  -2  -9   5   10.18    0.62
  -2  -9   5   10.48    0.45
   1   9  -5    1.89    0.32
  -1  -9   5    1.59    0.35
  -1  -9   5    1.49    0.21
   0   9  -5    0.76    0.28
   0  -9   5    0.42    0.19
   0  -9   5    0.49    0.33
  -1   9  -5   16.76    0.75
   1  -9   5   15.57    0.78
   1  -9   5   15.73    0.61
   8   8  -5   19.02    0.77
  -8  -8   5   18.40    0.77
   7   8  -5    0.18    0.27
  -7  -8   5    0.22    0.27
   6   8  -5    5.07    0.40
  -6  -8   5    5.40    0.45
   5   8  -5   20.44    0.80
  -5  -8   5   21.32    0.81
   4   8  -5    1.52    0.29
  -4  -8   5    1.50    0.29
  -4  -8   5    1.78    0.18
   3   8  -5    0.46    0.25
  -3  -8   5    0.14    0.14
  -3  -8   5    0.34    0.29
   2   8  -5   51.83    1.58
  -2  -8   5   51.44    1.48
  -2  -8   5   52.66    1.61
   1   8  -5   14.69    0.65
  -1  -8   5   14.71    0.71
  -1  -8   5   13.70    0.51
   0   8  -5    6.35    0.47
   0  -8   5    5.44    0.34
   0  -8   5    5.50    0.52
  -1   8  -5    8.65    0.54
   1  -8   5    7.51    0.58
   1  -8   5    8.25    0.40
  -2   8  -5    2.57    0.34
   2  -8   5    2.52    0.24
   2  -8   5    2.55    0.38
  -3   8  -5    9.12    0.59
   3  -8   5    8.77    0.65
   3  -8   5    9.02    0.45
   9   7  -5   12.24    0.63
  -9  -7   5   12.93    0.62
   8   7  -5   21.98    0.83
  -8  -7   5   22.16    0.83
   7   7  -5   22.87    0.84
  -7  -7   5   22.38    0.82
   6   7  -5   32.41    1.05
  -6  -7   5   30.56    1.04
   5   7  -5    0.33    0.23
  -5  -7   5    0.13    0.16
  -5  -7   5   -0.12    0.22
   4   7  -5    5.89    0.44
  -4  -7   5    6.21    0.28
  -4  -7   5    5.66    0.42
   3   7  -5    1.71    0.26
  -3  -7   5    1.78    0.27
  -3  -7   5    1.76    0.16
   2   7  -5   18.03    0.70
  -2  -7   5   17.67    0.57
  -2  -7   5   18.10    0.71
   1   7  -5    6.45    0.45
  -1  -7   5    6.07    0.32
  -1  -7   5    6.35    0.48
   0   7  -5    3.44    0.31
   0  -7   5    3.18    0.22
   0  -7   5    3.12    0.33
  -1   7  -5   13.69    0.63
   1  -7   5   15.51    0.70
   1  -7   5   13.78    0.51
  -2   7  -5    2.44    0.32
   2  -7   5    2.28    0.36
   2  -7   5    2.57    0.23
  -3   7  -5   -0.26    0.28
   3  -7   5   -0.10    0.31
   3  -7   5    0.07    0.19
  -4   7  -5   40.19    1.32
   4  -7   5   39.09    1.20
   4  -7   5   39.95    1.38
  10   6  -5    0.22    0.26
 -10  -6   5    0.11    0.27
   9   6  -5   11.29    0.57
  -9  -6   5   11.80    0.58
   8   6  -5    1.83    0.27
  -8  -6   5    1.62    0.27
   7   6  -5    2.19    0.28
  -7  -6   5    1.96    0.26
   6   6  -5   29.11    0.94
  -6  -6   5   27.29    0.93
   5   6  -5    0.39    0.21
  -5  -6   5    0.36    0.12
  -5  -6   5    0.46    0.21
   4   6  -5    3.67    0.30
  -4  -6   5    2.85    0.26
  -4  -6   5    3.51    0.20
   3   6  -5  106.71    2.98
  -3  -6   5  104.43    2.98
  -3  -6   5  107.37    2.89
   2   6  -5   13.50    0.57
  -2  -6   5   14.46    0.47
  -2  -6   5   14.63    0.58
   1   6  -5  107.83    3.00
  -1  -6   5  107.77    3.02
  -1  -6   5  105.48    2.92
   0   6  -5  206.29    5.57
   0  -6   5  201.11    5.50
   0  -6   5  203.33    5.60
  -1   6  -5   14.33    0.60
   1  -6   5   14.61    0.50
   1  -6   5   14.28    0.65
  -2   6  -5   15.15    0.65
   2  -6   5   16.14    0.54
   2  -6   5   15.53    0.68
  -3   6  -5   34.05    1.11
   3  -6   5   32.83    1.14
   3  -6   5   33.23    1.01
  -4   6  -5    1.02    0.30
   4  -6   5    1.30    0.21
   4  -6   5    1.02    0.33
  -5   6  -5   -0.23    0.31
   5  -6   5    0.39    0.20
   5  -6   5   -0.22    0.32
  10   5  -5    1.18    0.27
 -10  -5   5    0.97    0.29
   9   5  -5    0.15    0.23
  -9  -5   5    0.33    0.24
   8   5  -5   31.92    1.01
  -8  -5   5   30.72    1.01
   7   5  -5   49.35    1.44
  -7  -5   5   47.50    1.44
   6   5  -5   45.14    1.32
   6   5  -5   49.37    1.40
  -6  -5   5   47.06    1.39
   5   5  -5   82.34    2.26
   5   5  -5   76.69    2.17
  -5  -5   5   80.26    2.25
   4   5  -5   47.77    1.32
   4   5  -5   47.77    1.41
  -4  -5   5   47.58    1.41
  -4  -5   5   48.98    1.33
   3   5  -5    4.26    0.18
   3   5  -5    3.72    0.32
  -3  -5   5    3.79    0.31
  -3  -5   5    4.32    0.20
   2   5  -5   21.81    0.64
   2   5  -5   21.34    0.74
  -2  -5   5   22.64    0.65
  -2  -5   5   21.86    0.73
   1   5  -5    0.16    0.18
  -1  -5   5    0.23    0.11
  -1  -5   5    0.06    0.18
   0   5  -5   13.44    0.52
   0  -5   5   12.97    0.44
   0  -5   5   14.17    0.56
  -1   5  -5    8.18    0.42
   1  -5   5    7.92    0.33
   1  -5   5    8.19    0.46
  -2   5  -5    2.92    0.27
   2  -5   5    2.68    0.19
   2  -5   5    3.17    0.30
  -3   5  -5   15.25    0.63
   3  -5   5   15.71    0.53
   3  -5   5   14.48    0.65
  -4   5  -5    0.39    0.26
   4  -5   5    0.35    0.28
   4  -5   5    0.33    0.17
  -5   5  -5   21.02    0.82
   5  -5   5   21.27    0.71
   5  -5   5   20.30    0.73
   5  -5   5   20.89    0.85
  -6   5  -5   58.01    1.75
   6  -5   5   55.53    1.77
   6  -5   5   56.71    1.63
   6  -5   5   55.40    1.67
  10   4  -5    2.97    0.23
  10   4  -5    2.86    0.30
 -10  -4   5    2.99    0.33
   9   4  -5   10.06    0.51
   9   4  -5    9.52    0.41
  -9  -4   5    9.76    0.50
   8   4  -5    5.64    0.30
   8   4  -5    5.81    0.38
  -8  -4   5    5.93    0.39
   7   4  -5    0.96    0.20
   7   4  -5    0.90    0.13
  -7  -4   5    0.74    0.20
   6   4  -5   17.29    0.54
   6   4  -5   18.07    0.61
  -6  -4   5   17.45    0.61
   5   4  -5   21.69    0.63
   5   4  -5   21.76    0.70
  -5  -4   5   21.26    0.70
   4   4  -5   27.90    0.86
   4   4  -5   28.34    0.79
  -4  -4   5   27.45    0.78
  -4  -4   5   27.69    0.86
   3   4  -5   11.02    0.35
   3   4  -5   10.96    0.45
  -3  -4   5   11.22    0.35
  -3  -4   5   10.72    0.43
   2   4  -5   11.77    0.48
   2   4  -5   12.36    0.39
  -2  -4   5   12.69    0.39
  -2  -4   5   12.22    0.46
   1   4  -5   17.11    0.60
  -1  -4   5   17.98    0.53
  -1  -4   5   17.58    0.60
   0   4  -5   20.88    0.69
   0  -4   5   20.41    0.62
   0  -4   5   20.74    0.71
  -1   4  -5  116.35    3.23
   1  -4   5  116.12    3.17
   1  -4   5  117.73    3.24
  -2   4  -5   65.10    1.88
   2  -4   5   65.28    1.82
   2  -4   5   67.01    1.91
  -3   4  -5    3.39    0.28
   3  -4   5    4.09    0.26
   3  -4   5    4.05    0.32
  -4   4  -5   18.04    0.68
   4  -4   5   19.10    0.60
   4  -4   5   17.80    0.62
   4  -4   5   17.71    0.71
  -5   4  -5    2.86    0.31
   5  -4   5    2.80    0.34
   5  -4   5    2.82    0.22
   5  -4   5    3.33    0.26
  -6   4  -5    5.65    0.49
   6  -4   5    6.10    0.41
   6  -4   5    5.64    0.34
   6  -4   5    4.68    0.41
  -7   4  -5   11.78    0.67
   7  -4   5   12.08    0.51
   7  -4   5   11.47    0.67
   7  -4   5   12.47    0.57
  10   3  -5    8.24    0.48
  10   3  -5    7.76    0.40
   9   3  -5    2.80    0.22
   9   3  -5    2.89    0.27
  -9  -3   5    3.33    0.30
   8   3  -5   46.22    1.36
   8   3  -5   44.57    1.31
  -8  -3   5   46.50    1.37
   7   3  -5    4.73    0.26
   7   3  -5    5.26    0.33
  -7  -3   5    4.70    0.32
   6   3  -5   10.31    0.36
   6   3  -5   10.00    0.41
  -6  -3   5    9.66    0.41
   5   3  -5   -0.03    0.14
   5   3  -5    0.08    0.09
  -5  -3   5    0.14    0.14
   4   3  -5    0.42    0.14
   4   3  -5    0.62    0.09
  -4  -3   5    0.69    0.07
  -4  -3   5    0.59    0.13
   3   3  -5   27.94    0.83
   3   3  -5   27.45    0.78
  -3  -3   5   27.73    0.83
  -3  -3   5   27.45    0.77
   2   3  -5   17.74    0.60
   2   3  -5   18.61    0.55
  -2  -3   5   19.51    0.54
  -2  -3   5   18.77    0.60
   1   3  -5  109.30    3.15
  -1  -3   5  117.04    3.16
  -1  -3   5  118.50    3.11
   0   3  -5    7.07    0.32
   0  -3   5    6.57    0.33
   0  -3   5    6.88    0.25
  -1   3  -5   52.09    1.52
   1  -3   5   54.61    1.54
   1  -3   5   52.92    1.47
  -2   3  -5    7.15    0.36
   2  -3   5    7.86    0.40
   2  -3   5    7.82    0.30
  -3   3  -5   69.14    2.00
   3  -3   5   71.38    2.02
   3  -3   5   71.73    1.96
  -4   3  -5    8.49    0.42
   4  -3   5    8.11    0.37
   4  -3   5    7.88    0.46
   4  -3   5    8.53    0.35
  -5   3  -5    1.75    0.25
   5  -3   5    1.28    0.26
   5  -3   5    1.06    0.16
   5  -3   5    1.39    0.20
   6  -3   5    5.21    0.37
   6  -3   5    5.01    0.46
   6  -3   5    5.56    0.32
   7  -3   5   18.72    0.70
   7  -3   5   18.31    0.64
   7  -3   5   18.69    0.78
   8  -3   5    5.43    0.44
   8  -3   5    6.19    0.38
  10   2  -5    0.33    0.18
 -10  -2   5    0.42    0.25
   9   2  -5   18.18    0.67
   9   2  -5   19.32    0.64
   8   2  -5    4.31    0.33
   8   2  -5    4.42    0.28
   7   2  -5   34.91    1.00
   7   2  -5   33.84    1.04
   6   2  -5  126.44    3.37
   6   2  -5  121.11    3.39
   5   2  -5    1.08    0.14
   5   2  -5    0.91    0.11
  -5  -2   5    0.76    0.13
   4   2  -5    5.28    0.24
   4   2  -5    4.93    0.21
  -4  -2   5    4.97    0.24
  -4  -2   5    4.65    0.16
   3   2  -5   13.13    0.41
   3   2  -5   13.82    0.45
  -3  -2   5   13.47    0.39
  -3  -2   5   13.56    0.44
   2   2  -5   87.87    2.38
   2   2  -5   87.84    2.41
  -2  -2   5   88.84    2.37
  -2  -2   5   86.80    2.41
   1   2  -5    4.51    0.25
  -1  -2   5    5.60    0.24
  -1  -2   5    4.99    0.19
   0   2  -5    0.69    0.13
   0  -2   5    0.37    0.08
   0  -2   5    0.34    0.12
  -1   2  -5   44.88    1.27
   1  -2   5   44.91    1.28
   1  -2   5   44.13    1.24
  -2   2  -5    3.43    0.24
   2  -2   5    2.94    0.12
   2  -2   5    3.26    0.26
   2  -2   5    3.29    0.18
  -3   2  -5   18.02    0.61
   3  -2   5   19.34    0.64
   4  -2   5   42.79    1.25
   4  -2   5   43.52    1.29
   4  -2   5   43.50    1.23
   5  -2   5   19.48    0.62
   5  -2   5   17.69    0.58
   5  -2   5   18.07    0.67
   6  -2   5   19.64    0.65
   6  -2   5   21.43    0.69
   6  -2   5   20.07    0.75
   7  -2   5   34.16    1.02
   7  -2   5   34.03    1.06
   8  -2   5   13.54    0.51
   8  -2   5   13.54    0.58
  10   1  -5    6.96    0.40
 -10  -1   5    6.72    0.47
   9   1  -5    8.02    0.40
  -9  -1   5    8.03    0.45
   8   1  -5    0.05    0.15
   7   1  -5   22.13    0.69
   7   1  -5   22.17    0.71
   6   1  -5   82.89    2.24
   6   1  -5   79.63    2.25
   5   1  -5    0.50    0.10
   5   1  -5    0.29    0.12
   4   1  -5    0.70    0.09
   4   1  -5    0.56    0.11
  -4  -1   5    0.66    0.10
   3   1  -5   58.47    1.61
   3   1  -5   59.93    1.60
  -3  -1   5   57.00    1.58
  -3  -1   5   58.07    1.61
   2   1  -5   10.90    0.34
   2   1  -5   11.32    0.36
  -2  -1   5   11.09    0.32
  -2  -1   5   10.62    0.35
   1   1  -5   79.42    2.23
  -1  -1   5   83.54    2.20
   0   1  -5  538.99   15.10
   0  -1   5  576.26   15.05
  -1   1  -5  190.15    5.08
   1  -1   5  190.31    5.09
   1  -1   5  187.89    5.06
   1  -1   5  183.92    5.05
  -2   1  -5   83.45    2.29
   2  -1   5   86.15    2.30
   2  -1   5   79.46    2.24
   2  -1   5   83.97    2.27
   3  -1   5  183.58    5.03
   3  -1   5  189.97    5.07
   4  -1   5    7.28    0.35
   4  -1   5    7.40    0.31
   4  -1   5    7.26    0.28
   5  -1   5    7.55    0.30
   5  -1   5    7.52    0.34
   5  -1   5    7.42    0.38
   6  -1   5   13.98    0.57
   6  -1   5   14.49    0.52
   6  -1   5   13.91    0.48
   7  -1   5    7.35    0.34
   7  -1   5    7.54    0.39
   8  -1   5   -0.03    0.19
   8  -1   5    0.15    0.16
   9  -1   5   12.32    0.57
  10   0  -5    0.11    0.19
   9   0  -5    1.49    0.21
  -9   0   5    1.39    0.24
   8   0  -5   21.07    0.68
  -8   0   5   21.09    0.71
   7   0  -5   17.14    0.56
  -7   0   5   16.70    0.59
   6   0  -5   67.95    1.87
   6   0  -5   67.23    1.88
  -6   0   5   67.19    1.89
   5   0  -5  172.16    4.55
   5   0  -5  164.46    4.56
   4   0  -5  133.62    3.67
   4   0  -5  137.64    3.67
   3   0  -5   58.01    1.55
   3   0  -5   57.75    1.55
  -3   0   5   54.13    1.52
   2   0  -5   50.56    1.40
   2   0  -5   50.81    1.40
  -2   0   5   51.51    1.38
   1   0  -5   11.58    0.35
  -1   0   5   11.24    0.34
  -1   0   5   10.88    0.35
  -1   0   5   11.48    0.33
   0   0  -5   40.09    1.22
   0   0   5   45.92    1.21
   0   0   5   45.76    1.22
   0   0   5   44.49    1.21
  -1   0  -5    1.49    0.12
   1   0   5    1.25    0.10
   1   0   5    1.26    0.11
   1   0   5    1.35    0.09
  -2   0  -5    0.07    0.09
   2   0   5   -0.08    0.04
   2   0   5   -0.13    0.06
   2   0   5   -0.06    0.07
   3   0   5    9.51    0.34
   3   0   5    8.68    0.26
   4   0   5    3.51    0.19
   4   0   5    3.76    0.22
   4   0   5    3.71    0.24
   5   0   5    2.83    0.22
   5   0   5    2.84    0.19
   5   0   5    2.51    0.21
   6   0   5  129.79    3.56
   6   0   5  130.41    3.53
   7   0   5   32.15    0.95
   7   0   5   33.53    1.00
   8   0   5   54.26    1.55
   8   0   5   51.61    1.49
   9   0   5   90.13    2.55
  10  -1  -5   10.06    0.49
   9  -1  -5   44.91    1.26
  -9   1   5   38.05    1.41
   8  -1  -5    0.14    0.16
  -8   1   5    0.09    0.18
   7  -1  -5    3.17    0.26
  -7   1   5    3.50    0.23
   6  -1  -5    3.72    0.24
  -6   1   5    3.62    0.26
   5  -1  -5   34.38    0.96
  -5   1   5   32.21    0.97
   4  -1  -5   12.04    0.38
   4  -1  -5   11.47    0.39
  -4   1   5   11.85    0.40
   3  -1  -5  147.01    3.95
   3  -1  -5  148.19    3.96
  -3   1   5  144.62    3.96
   2  -1  -5   16.36    0.47
   2  -1  -5   15.92    0.46
  -2   1   5   15.99    0.45
   1  -1  -5    5.15    0.17
   1  -1  -5    5.12    0.20
  -1   1   5    4.95    0.20
  -1   1   5    5.47    0.17
  -1   1   5    5.06    0.17
   0  -1  -5    2.37    0.10
   0   1   5    2.06    0.13
   0   1   5    2.04    0.11
   0   1   5    2.32    0.11
  -1  -1  -5  332.04    9.03
   1   1   5  337.99    9.02
   1   1   5  337.71    9.03
   1   1   5  334.70    9.02
   2   1   5  239.61    6.28
   2   1   5  236.59    6.28
   2   1   5  225.19    6.27
   3   1   5   97.81    2.46
   3   1   5   77.78    2.47
   3   1   5   96.33    2.44
   4   1   5  130.93    3.56
   4   1   5  130.96    3.59
   4   1   5  131.22    3.54
   4   1   5  134.38    3.59
   5   1   5   67.66    1.84
   5   1   5   64.47    1.81
   6   1   5    3.14    0.20
   6   1   5    3.40    0.24
   7   1   5    5.69    0.27
   7   1   5    6.31    0.32
   8   1   5    4.88    0.27
   8   1   5    5.55    0.36
   9   1   5    0.10    0.19
  10   1   5   11.70    0.54
   9  -2  -5    0.41    0.19
   8  -2  -5   35.88    1.06
  -8   2   5   34.68    1.06
   7  -2  -5   20.91    0.65
  -7   2   5   19.55    0.66
   6  -2  -5    0.94    0.14
  -6   2   5    1.09    0.16
   5  -2  -5   23.99    0.72
  -5   2   5   24.00    0.73
   4  -2  -5   29.56    0.85
   4  -2  -5   32.85    0.89
  -4   2   5   31.35    0.91
   3  -2  -5   69.08    1.90
  -3   2   5   69.65    1.91
   2  -2  -5    0.50    0.07
  -2   2   5    0.39    0.09
   1  -2  -5   18.39    0.53
  -1   2   5   18.34    0.51
  -1   2   5   17.66    0.54
   0   2   5    9.46    0.31
   0   2   5    9.82    0.29
   1   2   5   21.00    0.61
   1   2   5   21.85    0.60
   2   2   5   33.77    0.96
   2   2   5   36.25    0.97
   3   2   5   20.47    0.58
   4   2   5    0.11    0.09
   4   2   5    0.36    0.08
   4   2   5    0.31    0.06
   5   2   5   10.55    0.35
   5   2   5   11.04    0.38
   5   2   5   10.64    0.33
   6   2   5   36.16    1.07
   6   2   5   36.95    1.03
   7   2   5    2.93    0.20
   7   2   5    3.18    0.26
   8   2   5   19.46    0.65
   8   2   5   18.38    0.59
   9   2   5    3.17    0.26
  10   2   5   23.21    0.81
   9  -3  -5    3.09    0.27
   8  -3  -5    0.22    0.18
   7  -3  -5    0.12    0.15
  -7   3   5    0.12    0.15
   6  -3  -5  104.57    2.87
  -6   3   5  104.80    2.87
   5  -3  -5    6.56    0.29
  -5   3   5    6.52    0.30
   4  -3  -5   14.47    0.43
   4  -3  -5   15.43    0.47
  -4   3   5   15.17    0.49
   3  -3  -5   64.90    1.77
  -3   3   5   64.15    1.78
   2  -3  -5   49.67    1.35
  -2   3   5   48.59    1.36
   1  -3  -5   81.80    2.23
  -1   3   5   82.93    2.24
   0  -3  -5    6.38    0.23
   0   3   5    6.51    0.21
   0   3   5    6.34    0.23
   1   3   5  134.51    3.70
   1   3   5  139.71    3.69
   2   3   5    1.56    0.11
   2   3   5    1.42    0.11
   3   3   5   76.45    2.04
   3   3   5   73.51    2.04
   4   3   5    0.10    0.07
   4   3   5    0.03    0.07
   5   3   5    3.49    0.17
   5   3   5    2.89    0.21
   5   3   5    2.91    0.17
   6   3   5    3.29    0.23
   6   3   5    2.98    0.18
   6   3   5    3.33    0.19
   7   3   5   31.28    0.94
   7   3   5   31.64    0.90
   8   3   5   23.12    0.70
   8   3   5   23.96    0.76
   9   3   5    0.45    0.19
  10   3   5    3.09    0.28
   8  -4  -5    2.63    0.24
   7  -4  -5    7.96    0.38
   6  -4  -5   78.31    2.15
  -6   4   5   76.12    2.14
   5  -4  -5   34.23    1.00
  -5   4   5   34.44    1.00
   4  -4  -5   16.35    0.51
   4  -4  -5   15.37    0.46
  -4   4   5   16.25    0.51
   3  -4  -5   60.20    1.66
  -3   4   5   60.11    1.66
   2  -4  -5    0.10    0.08
  -2   4   5    0.24    0.09
   1  -4  -5    9.70    0.31
   1  -4  -5   10.01    0.31
  -1   4   5    9.62    0.32
   0  -4  -5  164.73    4.46
   0  -4  -5  166.01    4.45
   0   4   5  165.39    4.47
   0   4   5  166.56    4.45
  -1  -4  -5  126.04    3.41
   1   4   5  128.59    3.43
   1   4   5  126.78    3.40
  -2  -4  -5   22.89    0.65
   2   4   5   23.15    0.63
   2   4   5   23.23    0.66
   2   4   5   23.51    0.65
   3   4   5  415.49   11.16
   3   4   5  412.84   11.16
   3   4   5  416.31   11.25
   4   4   5   37.32    1.04
   4   4   5   37.83    1.05
   4   4   5   36.93    1.03
   5   4   5    0.12    0.09
   5   4   5    0.07    0.10
   5   4   5    0.25    0.08
   6   4   5   11.80    0.38
   6   4   5   12.00    0.40
   6   4   5   12.12    0.42
   7   4   5   44.04    1.24
   7   4   5   44.45    1.27
   8   4   5    5.57    0.25
   8   4   5    5.60    0.31
   9   4   5    2.71    0.23
  10   4   5    0.13    0.20
   8  -5  -5    4.30    0.29
   7  -5  -5    6.73    0.37
   6  -5  -5    1.34    0.17
  -6   5   5    1.13    0.17
   5  -5  -5   90.43    2.45
  -5   5   5   87.13    2.44
   4  -5  -5   98.78    2.72
   4  -5  -5  101.23    2.75
  -4   5   5  101.92    2.75
   3  -5  -5   26.01    0.77
   3  -5  -5   26.19    0.80
  -3   5   5   26.81    0.77
   2  -5  -5  158.08    4.26
   2  -5  -5  159.82    4.24
  -2   5   5  153.14    4.24
   1  -5  -5   45.85    1.26
   1  -5  -5   45.69    1.27
  -1   5   5   45.17    1.27
   0  -5  -5   95.14    2.65
   0  -5  -5   97.96    2.64
   0   5   5   98.83    2.65
   0   5   5   99.16    2.66
  -1  -5  -5    1.00    0.09
  -1  -5  -5    0.96    0.08
   1   5   5    0.89    0.07
   1   5   5    0.95    0.10
  -2  -5  -5   35.95    1.09
   2   5   5   39.50    1.09
   2   5   5   40.88    1.06
  -3  -5  -5   33.86    0.93
   3   5   5   33.06    0.91
   3   5   5   32.34    0.93
  -4  -5  -5   29.94    0.86
   4   5   5   30.13    0.84
   4   5   5   30.31    0.86
   4   5   5   30.19    0.85
   5   5   5    6.31    0.24
   5   5   5    6.24    0.26
   5   5   5    6.02    0.23
   6   5   5   20.08    0.59
   6   5   5   19.29    0.62
   6   5   5   20.24    0.61
   6   5   5   19.99    0.60
   7   5   5   19.03    0.62
   7   5   5   18.77    0.58
   7   5   5   20.26    0.61
   8   5   5   18.46    0.62
   8   5   5   18.11    0.56
   9   5   5  115.25    3.19
  10   5   5   36.58    1.13
  11   5   5   11.65    0.55
   7  -6  -5    2.27    0.22
   6  -6  -5    5.03    0.32
   5  -6  -5   29.14    0.88
  -5   6   5   29.56    0.87
   4  -6  -5   27.95    0.83
   4  -6  -5   27.70    0.89
   4  -6  -5   28.62    0.81
  -4   6   5   28.10    0.83
  -3   6   5    0.12    0.11
   2  -6  -5    2.43    0.16
   2  -6  -5    2.60    0.22
  -2   6   5    2.37    0.18
   1  -6  -5    4.52    0.19
   1  -6  -5    5.00    0.23
  -1   6   5    3.78    0.21
  -1   6   5    3.74    0.23
   0  -6  -5   10.91    0.36
   0  -6  -5   10.73    0.32
   0   6   5    9.98    0.35
   0   6   5    9.61    0.35
  -1  -6  -5   27.51    0.78
  -1  -6  -5   26.02    0.74
   1   6   5   26.84    0.77
   1   6   5   25.60    0.75
  -2  -6  -5   58.31    1.67
   2   6   5   58.99    1.62
   2   6   5   61.48    1.65
  -3  -6  -5   75.03    2.09
   3   6   5   76.34    2.05
   3   6   5   75.54    2.07
  -4  -6  -5  110.06    2.96
   4   6   5  106.65    2.95
   4   6   5  108.18    2.93
  -5  -6  -5  248.14    6.69
   5   6   5  245.86    6.68
   5   6   5  250.01    6.67
  -6  -6  -5    5.97    0.29
   6   6   5    6.08    0.24
   6   6   5    6.11    0.26
   6   6   5    6.32    0.28
   7   6   5    3.25    0.19
   7   6   5    3.70    0.25
   7   6   5    3.45    0.25
   7   6   5    3.59    0.23
   8   6   5   11.71    0.44
   8   6   5   10.93    0.38
   9   6   5    6.14    0.36
  10   6   5    4.70    0.36
  11   6   5    4.44    0.32
   6  -7  -5    0.21    0.16
   5  -7  -5   18.06    0.60
   4  -7  -5    0.00    0.19
   4  -7  -5    0.13    0.12
   4  -7  -5   -0.12    0.11
  -4   7   5    0.16    0.12
   3  -7  -5   29.21    0.83
   3  -7  -5   28.92    0.84
   3  -7  -5   29.44    0.91
  -3   7   5   28.20    0.91
  -3   7   5   28.71    0.85
   2  -7  -5    3.34    0.19
   2  -7  -5    3.45    0.28
  -2   7   5    3.46    0.22
  -2   7   5    3.26    0.28
   1  -7  -5   16.32    0.49
   1  -7  -5   16.34    0.55
  -1   7   5   15.87    0.51
  -1   7   5   16.29    0.55
   0  -7  -5   51.90    1.42
   0  -7  -5   51.45    1.46
   0   7   5   50.67    1.44
   0   7   5   52.64    1.46
  -1  -7  -5   23.23    0.72
  -1  -7  -5   22.85    0.65
   1   7   5   23.24    0.68
   1   7   5   22.80    0.68
  -2  -7  -5   16.24    0.56
  -2  -7  -5   15.82    0.46
   2   7   5   16.55    0.50
   2   7   5   16.30    0.49
  -3  -7  -5    5.05    0.31
   3   7   5    5.63    0.22
   3   7   5    5.64    0.25
  -4  -7  -5   11.09    0.42
   4   7   5   10.85    0.35
   4   7   5   10.21    0.37
  -5  -7  -5    4.41    0.26
   5   7   5    4.22    0.21
   5   7   5    4.44    0.23
  -6  -7  -5   41.73    1.22
   6   7   5   41.62    1.19
   6   7   5   42.44    1.21
  -7  -7  -5    0.49    0.16
   7   7   5    0.17    0.13
   7   7   5    0.34    0.15
  -8  -7  -5    0.04    0.17
   8   7   5    0.01    0.14
   8   7   5    0.08    0.14
  -9  -7  -5    0.61    0.22
   9   7   5    1.08    0.18
   9   7   5    1.04    0.19
  10   7   5   21.44    0.74
   6  -8  -5    5.08    0.35
  -6   8   5    4.79    0.40
   5  -8  -5    2.80    0.22
  -5   8   5    4.10    0.35
   4  -8  -5    0.06    0.14
   4  -8  -5    0.06    0.14
   4  -8  -5    0.25    0.22
  -4   8   5    0.08    0.22
   3  -8  -5   82.92    2.31
   3  -8  -5   83.77    2.31
   3  -8  -5   86.08    2.39
  -3   8   5   85.00    2.39
  -3   8   5   83.34    2.32
   2  -8  -5   -0.02    0.10
   2  -8  -5    0.52    0.19
  -2   8   5    0.12    0.12
  -2   8   5    0.00    0.18
   1  -8  -5   15.72    0.49
   1  -8  -5   16.59    0.58
  -1   8   5   16.15    0.52
  -1   8   5   16.06    0.57
   0  -8  -5    1.18    0.19
   0  -8  -5    0.85    0.09
   0   8   5    1.01    0.17
   0   8   5    0.86    0.13
  -1  -8  -5   75.92    2.04
  -1  -8  -5   68.39    1.94
   1   8   5   71.45    1.99
   1   8   5   71.30    1.98
  -2  -8  -5   51.96    1.48
   2   8   5   50.39    1.41
   2   8   5   48.79    1.41
  -3  -8  -5    3.59    0.28
   3   8   5    3.42    0.20
   3   8   5    3.52    0.23
  -4  -8  -5    6.20    0.35
   4   8   5    5.81    0.28
   4   8   5    6.00    0.25
  -5  -8  -5    1.31    0.19
   5   8   5    1.35    0.13
   5   8   5    1.14    0.15
  -6  -8  -5   29.82    0.92
   6   8   5   29.67    0.89
   6   8   5   29.72    0.87
  -7  -8  -5    0.47    0.18
   7   8   5    0.05    0.13
   7   8   5    0.29    0.16
  -8  -8  -5    2.98    0.26
   8   8   5    2.93    0.24
   8   8   5    3.31    0.28
  -9  -8  -5    0.67    0.22
   9   8   5    0.30    0.18
 -10  -8  -5    2.56    0.29
  10   8   5    2.46    0.25
   5  -9  -5    7.61    0.54
  -5   9   5    7.30    0.53
   4  -9  -5   18.10    0.72
   4  -9  -5   17.67    0.59
  -4   9   5   18.12    0.72
   3  -9  -5   59.35    1.74
   3  -9  -5   57.37    1.64
  -3   9   5   58.59    1.73
   2  -9  -5    0.01    0.13
   2  -9  -5    0.30    0.22
  -2   9   5   -0.09    0.13
  -2   9   5   -0.06    0.21
   1  -9  -5   13.28    0.56
  -1   9   5   13.29    0.46
  -1   9   5   12.94    0.53
   0  -9  -5   22.43    0.76
   0   9   5   21.30    0.71
   0   9   5   22.00    0.68
  -1  -9  -5    0.16    0.21
   1   9   5    0.15    0.13
   1   9   5    0.20    0.15
  -2  -9  -5   17.86    0.68
   2   9   5   18.33    0.58
   2   9   5   17.92    0.58
  -3  -9  -5   93.84    2.76
   3   9   5  100.74    2.68
   3   9   5   96.90    2.66
  -4  -9  -5   24.89    0.88
   4   9   5   26.30    0.79
   4   9   5   26.06    0.77
  -5  -9  -5    4.51    0.36
   5   9   5    4.50    0.25
   5   9   5    4.50    0.27
  -6  -9  -5   11.27    0.50
   6   9   5   10.67    0.40
   6   9   5   11.17    0.43
  -7  -9  -5   14.01    0.56
   7   9   5   13.93    0.49
   7   9   5   13.82    0.52
  -8  -9  -5   16.46    0.64
   8   9   5   16.91    0.61
   8   9   5   16.61    0.58
  -9  -9  -5    0.03    0.22
   9   9   5    0.12    0.18
 -10  -9  -5    7.12    0.48
  10   9   5    7.56    0.42
   4 -10  -5   15.45    0.71
   4 -10  -5   13.59    0.52
  -4  10   5   14.85    0.69
   3 -10  -5    8.51    0.54
   3 -10  -5    7.52    0.37
  -3  10   5    7.74    0.52
   2 -10  -5   33.84    1.01
   2 -10  -5   35.77    1.14
  -2  10   5   33.96    1.10
  -2  10   5   33.10    1.02
   1 -10  -5   76.83    2.12
   1 -10  -5   77.69    2.22
  -1  10   5   74.49    2.18
  -1  10   5   76.01    2.12
   0 -10  -5    6.59    0.46
   0  10   5    5.24    0.29
   0  10   5    4.96    0.36
  -1 -10  -5    1.15    0.27
   1  10   5    1.11    0.16
   1  10   5    0.69    0.18
  -2 -10  -5    0.40    0.26
   2  10   5    0.18    0.15
   2  10   5    0.32    0.15
  -3 -10  -5   53.13    1.66
   3  10   5   54.02    1.53
   3  10   5   55.12    1.54
  -4 -10  -5    6.91    0.48
   4  10   5    6.68    0.34
   4  10   5    7.02    0.32
  -5 -10  -5    0.13    0.24
   5  10   5    0.04    0.15
   5  10   5   -0.04    0.13
  -6 -10  -5   36.40    1.16
   6  10   5   35.45    1.06
   6  10   5   36.51    1.08
  -7 -10  -5    2.84    0.30
   7  10   5    3.02    0.24
   7  10   5    2.49    0.21
  -8 -10  -5    1.30    0.26
   8  10   5    1.39    0.20
   8  10   5    1.36    0.22
  -9 -10  -5   25.37    0.90
   9  10   5   25.98    0.83
 -10 -10  -5   18.52    0.75
  10  10   5   17.79    0.68
   2 -11  -5   11.51    0.47
   2 -11  -5   12.51    0.66
  -2  11   5   11.16    0.58
   1 -11  -5   11.14    0.62
   1 -11  -5   10.86    0.43
  -1  11   5    9.66    0.43
  -1  11   5    9.14    0.50
   0 -11  -5    0.50    0.29
   0  11   5    0.27    0.16
   0  11   5    0.15    0.21
  -1 -11  -5    4.62    0.40
   1  11   5    4.10    0.30
   1  11   5    4.11    0.35
  -2 -11  -5    8.71    0.57
   2  11   5    9.14    0.42
   2  11   5    9.06    0.39
  -3 -11  -5   -0.05    0.30
   3  11   5    0.20    0.16
   3  11   5    0.03    0.16
  -4 -11  -5   64.89    2.01
   4  11   5   67.88    1.88
   4  11   5   67.41    1.89
  -5 -11  -5   63.32    1.88
   5  11   5   60.15    1.75
   5  11   5   61.24    1.74
  -6 -11  -5   10.67    0.58
   6  11   5   10.38    0.47
   6  11   5   10.17    0.43
  -7 -11  -5   10.38    0.55
   7  11   5    9.74    0.42
   7  11   5    9.82    0.48
  -8 -11  -5    9.89    0.56
   8  11   5    9.83    0.46
   8  11   5   10.31    0.50
  -9 -11  -5    1.49    0.44
   1 -12  -5    3.19    0.41
   1 -12  -5    3.47    0.26
  -1  12   5    2.58    0.39
   0 -12  -5   43.22    1.41
   0 -12  -5   42.71    1.24
   0  12   5   41.33    1.24
   0  12   5   40.84    1.32
  -1 -12  -5   -0.14    0.31
   1  12   5    0.09    0.22
   1  12   5    0.05    0.18
  -2 -12  -5    2.27    0.39
   2  12   5    2.70    0.27
   2  12   5    2.54    0.23
  -3 -12  -5    8.67    0.64
   3  12   5    9.05    0.44
   3  12   5    9.47    0.44
  -4 -12  -5    8.55    0.65
   4  12   5    9.81    0.46
   4  12   5   10.25    0.45
  -5 -12  -5    1.55    0.37
   5  12   5    1.46    0.21
  -6 -12  -5    1.04    0.40
   6  12   5    1.13    0.22
   7  12   5    0.31    0.21
   8  12   5    1.03    0.24
   2  13   5    8.12    0.44
   3  13   5    2.25    0.25
   4  13   5    1.86    0.24
   5  13   5    0.61    0.22
   6  13   5    9.27    0.47
   6   9  -6    9.91    0.64
  -6  -9   6   10.81    0.67
   5   9  -6    1.28    0.33
  -5  -9   6    1.44    0.35
   4   9  -6    0.07    0.29
  -4  -9   6    0.26    0.18
  -4  -9   6    0.23    0.32
   3   9  -6    7.59    0.53
  -3  -9   6    7.02    0.56
  -3  -9   6    6.30    0.37
   2   9  -6   23.73    0.87
  -2  -9   6   21.86    0.74
  -2  -9   6   22.69    0.91
   1   9  -6   11.17    0.60
  -1  -9   6   10.77    0.64
  -1  -9   6    9.52    0.47
   0   9  -6    2.71    0.35
   0  -9   6    2.28    0.39
   0  -9   6    2.11    0.25
   8   8  -6    0.28    0.31
  -8  -8   6    0.44    0.31
   7   8  -6    0.20    0.31
  -7  -8   6    0.19    0.28
   6   8  -6   25.63    0.96
  -6  -8   6   25.75    0.94
   5   8  -6    0.07    0.28
  -5  -8   6   -0.07    0.27
   4   8  -6    0.28    0.28
  -4  -8   6   -0.03    0.15
  -4  -8   6    0.23    0.28
   3   8  -6   24.06    0.88
  -3  -8   6   25.06    0.92
  -3  -8   6   23.45    0.75
   2   8  -6    1.39    0.29
  -2  -8   6    0.91    0.18
  -2  -8   6    0.86    0.30
   1   8  -6    0.82    0.27
  -1  -8   6    0.58    0.31
  -1  -8   6    0.49    0.18
   0   8  -6   31.00    1.03
   0  -8   6   30.43    1.08
   0  -8   6   29.23    0.93
  -1   8  -6   16.41    0.72
   1  -8   6   15.17    0.59
   1  -8   6   15.52    0.75
  -2   8  -6    9.67    0.61
   2  -8   6    9.10    0.45
   2  -8   6    9.79    0.64
   8   7  -6    6.49    0.54
  -8  -7   6    7.30    0.50
   7   7  -6   19.59    0.80
  -7  -7   6   20.31    0.78
   6   7  -6    1.77    0.30
  -6  -7   6    2.00    0.30
   5   7  -6   68.99    2.05
  -5  -7   6   70.89    2.06
   4   7  -6   56.63    1.71
  -4  -7   6   56.60    1.59
  -4  -7   6   57.63    1.72
   3   7  -6    8.72    0.53
  -3  -7   6    8.85    0.36
  -3  -7   6    8.06    0.52
   2   7  -6   28.41    0.95
  -2  -7   6   27.46    0.83
  -2  -7   6   26.89    0.95
   1   7  -6    6.27    0.47
  -1  -7   6    5.84    0.31
  -1  -7   6    5.52    0.50
   0   7  -6   13.11    0.60
   0  -7   6   11.72    0.61
   0  -7   6   12.28    0.47
  -1   7  -6    1.84    0.29
   1  -7   6    2.50    0.34
   1  -7   6    2.44    0.22
  -2   7  -6    3.87    0.36
   2  -7   6    3.08    0.38
   2  -7   6    2.90    0.25
  -3   7  -6    8.18    0.56
   3  -7   6    8.06    0.63
   3  -7   6    8.35    0.43
   9   6  -6   30.06    1.06
  -9  -6   6   31.30    1.05
   8   6  -6   10.11    0.55
  -8  -6   6    9.65    0.54
   7   6  -6    0.33    0.26
  -7  -6   6    0.16    0.23
   6   6  -6   11.54    0.57
  -6  -6   6   10.69    0.52
   5   6  -6    3.42    0.32
  -5  -6   6    3.51    0.30
   4   6  -6    3.89    0.33
  -4  -6   6    4.28    0.23
  -4  -6   6    4.53    0.38
   3   6  -6   10.30    0.53
  -3  -6   6   10.91    0.38
  -3  -6   6   10.74    0.51
   2   6  -6    0.81    0.24
  -2  -6   6    0.76    0.24
  -2  -6   6    0.60    0.14
   1   6  -6   19.30    0.70
  -1  -6   6   18.44    0.72
  -1  -6   6   19.33    0.60
   0   6  -6    5.12    0.39
   0  -6   6    5.26    0.46
   0  -6   6    5.06    0.30
  -1   6  -6   14.32    0.61
   1  -6   6   14.29    0.64
   1  -6   6   14.10    0.50
  -2   6  -6   80.29    2.27
   2  -6   6   75.91    2.19
   2  -6   6   79.32    2.30
  -3   6  -6    8.04    0.53
   3  -6   6    8.14    0.58
   3  -6   6    7.29    0.41
  -4   6  -6   42.39    1.35
   4  -6   6   40.69    1.23
   4  -6   6   40.79    1.38
   9   5  -6    3.69    0.33
  -9  -5   6    4.45    0.42
   8   5  -6   12.86    0.57
  -8  -5   6   12.54    0.57
   7   5  -6   21.19    0.77
  -7  -5   6   20.89    0.75
   6   5  -6    7.41    0.43
  -6  -5   6    6.93    0.42
   5   5  -6    0.11    0.21
  -5  -5   6    0.28    0.20
   4   5  -6   -0.05    0.19
  -4  -5   6   -0.20    0.17
  -4  -5   6    0.12    0.09
   3   5  -6   69.12    2.04
   3   5  -6   70.89    1.98
  -3  -5   6   72.71    1.95
  -3  -5   6   71.31    2.03
   2   5  -6    8.50    0.31
   2   5  -6    7.87    0.44
  -2  -5   6    8.35    0.43
  -2  -5   6    8.36    0.32
   1   5  -6    5.07    0.37
  -1  -5   6    4.37    0.36
  -1  -5   6    5.27    0.26
   0   5  -6    9.47    0.45
   0  -5   6    8.39    0.35
   0  -5   6    8.06    0.47
  -1   5  -6    3.84    0.29
   1  -5   6    4.01    0.27
   1  -5   6    3.26    0.31
  -2   5  -6   10.64    0.49
   2  -5   6    9.64    0.41
   2  -5   6    9.49    0.52
  -3   5  -6   15.51    0.64
   3  -5   6   15.30    0.67
   3  -5   6   15.25    0.54
  -4   5  -6    0.16    0.26
   4  -5   6    0.43    0.29
   4  -5   6    0.31    0.18
  -5   5  -6    0.25    0.29
   5  -5   6    0.18    0.20
   5  -5   6    0.20    0.31
   6  -5   6    9.54    0.67
  10   4  -6   -0.02    0.22
  10   4  -6    0.04    0.24
 -10  -4   6   -0.07    0.27
   9   4  -6    7.61    0.38
   9   4  -6    8.35    0.50
  -9  -4   6    7.91    0.47
   8   4  -6    5.75    0.40
   8   4  -6    5.45    0.31
  -8  -4   6    6.53    0.41
   7   4  -6    0.78    0.13
   7   4  -6    0.87    0.22
  -7  -4   6    0.61    0.21
   6   4  -6   21.24    0.64
   6   4  -6   21.24    0.73
  -6  -4   6   20.41    0.72
   5   4  -6    2.97    0.25
   5   4  -6    2.68    0.20
  -5  -4   6    2.59    0.23
   4   4  -6   18.98    0.56
   4   4  -6   18.25    0.65
  -4  -4   6   18.19    0.54
  -4  -4   6   18.10    0.63
   3   4  -6   26.33    0.86
   3   4  -6   27.34    0.78
  -3  -4   6   28.17    0.78
  -3  -4   6   26.47    0.85
   2   4  -6    2.50    0.18
   2   4  -6    2.26    0.22
  -2  -4   6    2.27    0.21
  -2  -4   6    2.74    0.17
   1   4  -6   37.64    1.13
  -1  -4   6   36.98    1.13
  -1  -4   6   38.02    1.06
   0   4  -6    5.14    0.33
   0  -4   6    5.02    0.34
   0  -4   6    4.51    0.25
  -1   4  -6   15.68    0.58
   1  -4   6   15.52    0.59
   1  -4   6   15.64    0.51
  -2   4  -6   38.83    1.16
   2  -4   6   37.54    1.10
   2  -4   6   38.06    1.18
  -3   4  -6   19.96    0.72
   3  -4   6   20.19    0.65
   3  -4   6   21.65    0.76
  -4   4  -6    1.45    0.26
   4  -4   6    1.99    0.30
   4  -4   6    1.97    0.20
  -5   4  -6    0.33    0.26
   5  -4   6    0.12    0.27
   5  -4   6    0.34    0.17
  -6   4  -6    8.12    0.55
   6  -4   6    8.07    0.40
   6  -4   6    7.73    0.57
  10   3  -6   29.10    1.00
  10   3  -6   29.70    0.95
 -10  -3   6   32.03    1.05
   9   3  -6    1.07    0.19
   9   3  -6    0.99    0.23
  -9  -3   6    1.33    0.26
   8   3  -6    9.00    0.46
   8   3  -6    8.03    0.37
  -8  -3   6    8.83    0.45
   7   3  -6    0.19    0.13
   7   3  -6    0.05    0.18
  -7  -3   6    0.12    0.19
   6   3  -6   39.07    1.10
   6   3  -6   38.75    1.15
  -6  -3   6   37.94    1.15
   5   3  -6   14.92    0.48
   5   3  -6   15.12    0.54
  -5  -3   6   14.68    0.52
   4   3  -6    1.69    0.19
   4   3  -6    1.67    0.13
  -4  -3   6    1.60    0.17
  -4  -3   6    1.73    0.13
   3   3  -6   90.71    2.43
   3   3  -6   88.90    2.48
  -3  -3   6   87.39    2.47
  -3  -3   6   90.03    2.42
   2   3  -6    1.60    0.12
   2   3  -6    1.86    0.19
  -2  -3   6    1.66    0.12
  -2  -3   6    1.33    0.17
   1   3  -6    2.42    0.20
  -1  -3   6    2.36    0.17
  -1  -3   6    1.99    0.18
   0   3  -6   66.71    1.90
   0  -3   6   67.71    1.90
   0  -3   6   67.13    1.85
  -1   3  -6   22.75    0.74
   1  -3   6   24.01    0.76
   1  -3   6   23.40    0.69
  -2   3  -6  112.85    3.18
   2  -3   6  113.27    3.14
   2  -3   6  119.79    3.21
  -3   3  -6   50.84    1.51
   3  -3   6   51.93    1.46
   3  -3   6   52.80    1.53
  -4   3  -6   37.36    1.15
   4  -3   6   37.52    1.18
   4  -3   6   37.08    1.09
  -5   3  -6    0.36    0.23
   5  -3   6    0.38    0.16
   5  -3   6    0.48    0.25
  -6   3  -6    8.75    0.51
   6  -3   6    8.14    0.40
   6  -3   6    8.13    0.45
   6  -3   6    8.19    0.56
  -7   3  -6    0.13    0.29
   7  -3   6   -0.27    0.17
   7  -3   6    0.13    0.22
   7  -3   6   -0.08    0.29
  10   2  -6   24.55    0.81
 -10  -2   6   24.85    0.89
   9   2  -6    0.50    0.21
   9   2  -6    0.23    0.18
   8   2  -6   11.64    0.45
   8   2  -6   11.45    0.50
   7   2  -6   26.47    0.84
   7   2  -6   26.22    0.80
  -7  -2   6   26.46    0.84
   6   2  -6    0.68    0.13
   6   2  -6    0.52    0.16
  -6  -2   6    0.63    0.16
   5   2  -6   88.72    2.41
   5   2  -6   87.86    2.43
  -5  -2   6   87.38    2.44
   4   2  -6  246.34    6.56
   4   2  -6  246.44    6.58
  -4  -2   6  247.68    6.58
  -4  -2   6  234.48    6.53
   3   2  -6   42.11    1.21
   3   2  -6   42.65    1.18
  -3  -2   6   43.43    1.21
  -3  -2   6   41.33    1.16
   2   2  -6  200.97    5.59
   2   2  -6  208.45    5.56
  -2  -2   6  206.75    5.58
  -2  -2   6  209.74    5.55
   1   2  -6   79.06    2.35
  -1  -2   6   86.70    2.35
  -1  -2   6   88.96    2.31
   0   2  -6    5.30    0.28
   0  -2   6    5.48    0.29
   0  -2   6    5.67    0.22
  -1   2  -6    2.65    0.23
   1  -2   6    2.59    0.24
   1  -2   6    2.45    0.14
   1  -2   6    2.52    0.18
  -2   2  -6    4.55    0.27
   2  -2   6    4.73    0.23
   2  -2   6    4.31    0.20
   2  -2   6    4.81    0.29
  -3   2  -6   99.78    2.78
   3  -2   6   99.62    2.75
   3  -2   6  102.11    2.80
  -4   2  -6    0.57    0.18
   4  -2   6    0.52    0.14
   4  -2   6    0.58    0.19
  -5   2  -6   17.27    0.63
   5  -2   6   16.25    0.55
   5  -2   6   15.87    0.63
   5  -2   6   16.12    0.58
   6  -2   6   22.60    0.84
   6  -2   6   23.14    0.78
   6  -2   6   22.57    0.72
   7  -2   6    3.53    0.25
   7  -2   6    3.22    0.29
   8  -2   6    5.88    0.37
   8  -2   6    6.40    0.46
  10   1  -6    7.88    0.43
 -10  -1   6    7.37    0.51
   9   1  -6   67.24    1.88
  -9  -1   6   65.16    1.92
   8   1  -6   48.28    1.43
   8   1  -6   49.09    1.40
  -8  -1   6   48.42    1.44
   7   1  -6    8.43    0.39
   7   1  -6    8.80    0.37
   6   1  -6   51.31    1.50
   6   1  -6   54.44    1.49
   5   1  -6    0.91    0.14
   5   1  -6    0.77    0.12
  -5  -1   6    0.51    0.13
   4   1  -6   32.95    0.92
   4   1  -6   32.88    0.93
  -4  -1   6   33.03    0.93
  -4  -1   6   29.75    0.87
   3   1  -6    1.15    0.13
   3   1  -6    1.42    0.11
  -3  -1   6    1.23    0.08
  -3  -1   6    1.30    0.12
   2   1  -6   20.58    0.63
   2   1  -6   21.22    0.62
  -2  -1   6   21.23    0.59
  -2  -1   6   20.55    0.62
   1   1  -6   28.60    0.88
  -1  -1   6   30.96    0.87
  -1  -1   6   31.09    0.85
   0   1  -6   12.00    0.43
   0  -1   6   12.60    0.38
   0  -1   6   13.20    0.42
   0  -1   6   12.39    0.38
  -1   1  -6   33.25    0.95
   1  -1   6   33.14    0.95
   1  -1   6   31.29    0.90
   1  -1   6   32.50    0.92
  -2   1  -6  136.22    3.65
   2  -1   6  132.09    3.63
   2  -1   6  128.42    3.60
   2  -1   6  139.85    3.66
  -3   1  -6   76.28    2.15
   3  -1   6   79.83    2.16
   3  -1   6   75.67    2.12
   4  -1   6  156.80    4.35
   4  -1   6  165.03    4.41
   5  -1   6  118.53    3.24
   5  -1   6  119.95    3.27
   5  -1   6  117.60    3.30
   6  -1   6   31.78    1.03
   6  -1   6   31.46    0.98
   6  -1   6   32.24    0.95
   7  -1   6   24.20    0.77
   7  -1   6   25.39    0.83
   8  -1   6    8.48    0.39
   8  -1   6    8.19    0.48
  10   0  -6    3.36    0.28
 -10   0   6    3.53    0.32
   9   0  -6   10.35    0.46
  -9   0   6   10.10    0.50
   8   0  -6    0.30    0.16
  -8   0   6   -0.12    0.19
   7   0  -6   13.76    0.49
  -7   0   6   14.32    0.53
   6   0  -6    5.39    0.29
   6   0  -6    5.14    0.26
  -6   0   6    4.64    0.31
   5   0  -6    6.66    0.28
   5   0  -6    6.66    0.28
  -5   0   6    6.32    0.32
   4   0  -6    3.54    0.21
   4   0  -6    3.96    0.20
  -4   0   6    4.05    0.24
   3   0  -6  195.56    5.13
   3   0  -6  191.79    5.13
  -3   0   6  193.80    5.14
  -3   0   6  183.35    5.10
  -3   0   6  187.98    5.14
   2   0  -6   53.30    1.46
   2   0  -6   54.04    1.46
  -2   0   6   52.54    1.44
  -2   0   6   53.01    1.46
  -2   0   6   51.80    1.46
   1   0  -6   66.33    1.79
  -1   0   6   64.37    1.80
  -1   0   6   66.05    1.78
   0   0  -6  138.03    4.24
   0   0   6  159.69    4.23
   0   0   6  164.35    4.23
   0   0   6  166.88    4.25
  -1   0  -6   11.82    0.39
   1   0   6   10.87    0.36
   1   0   6   12.12    0.36
  -2   0  -6   15.80    0.49
   2   0   6   15.64    0.50
   2   0   6   16.20    0.48
   2   0   6   15.23    0.45
   3   0   6   12.14    0.40
   3   0   6   10.09    0.32
   3   0   6   11.31    0.36
   4   0   6    8.71    0.32
   4   0   6    9.11    0.36
   5   0   6   15.95    0.57
   5   0   6   15.86    0.51
   6   0   6   33.12    1.00
   6   0   6   32.22    0.95
   7   0   6    1.68    0.22
   7   0   6    1.78    0.17
   8   0   6    3.95    0.28
   8   0   6    3.75    0.29
   9   0   6    0.00    0.22
   9  -1  -6    9.98    0.46
  -9   1   6    9.48    0.49
   8  -1  -6    1.71    0.20
  -8   1   6    1.96    0.24
   7  -1  -6   22.83    0.72
  -7   1   6   22.62    0.74
   6  -1  -6    0.05    0.13
  -6   1   6    0.08    0.15
   5  -1  -6    0.20    0.12
  -5   1   6    0.09    0.14
   4  -1  -6    0.21    0.10
   4  -1  -6    0.20    0.10
  -4   1   6    0.90    0.13
   3  -1  -6   48.68    1.36
   3  -1  -6   48.86    1.35
  -3   1   6   49.35    1.37
   2  -1  -6   18.22    0.52
   2  -1  -6   17.48    0.53
  -2   1   6   17.86    0.50
  -2   1   6   17.87    0.54
   1  -1  -6    1.01    0.09
   1  -1  -6    1.13    0.10
  -1   1   6    0.84    0.10
  -1   1   6    1.02    0.08
  -1   1   6    1.06    0.08
   0  -1  -6    6.63    0.22
   0   1   6    6.44    0.22
   0   1   6    6.67    0.24
   0   1   6    6.92    0.23
  -1  -1  -6    7.16    0.25
   1   1   6    7.19    0.25
   1   1   6    7.19    0.25
   1   1   6    7.31    0.24
  -2  -1  -6   93.11    2.53
   2   1   6   95.07    2.53
   2   1   6   94.78    2.53
   2   1   6   89.57    2.52
   3   1   6    9.71    0.32
   3   1   6    9.17    0.29
   3   1   6    9.81    0.34
   4   1   6   18.20    0.57
   4   1   6   18.56    0.54
   4   1   6   17.43    0.51
   5   1   6    1.37    0.13
   5   1   6    1.07    0.15
   6   1   6   54.74    1.53
   6   1   6   54.87    1.57
   7   1   6    9.57    0.43
   7   1   6    9.04    0.36
   8   1   6    0.79    0.21
   8   1   6    0.69    0.15
   9   1   6    1.56    0.31
   9   1   6    1.85    0.26
   9  -2  -6    4.29    0.36
   8  -2  -6   23.82    0.77
  -8   2   6   23.40    0.78
   7  -2  -6   18.49    0.61
  -7   2   6   18.17    0.63
   6  -2  -6   17.48    0.57
  -6   2   6   17.69    0.59
   5  -2  -6   14.07    0.46
  -5   2   6   13.01    0.48
   4  -2  -6    7.97    0.30
  -4   2   6    7.69    0.32
   3  -2  -6  192.38    5.25
  -3   2   6  197.55    5.26
   2  -2  -6    2.33    0.13
   2  -2  -6    2.72    0.15
  -2   2   6    2.31    0.18
  -2   2   6    2.31    0.10
   1  -2  -6   42.08    1.15
   1  -2  -6   41.55    1.12
  -1   2   6   39.75    1.12
  -1   2   6   41.15    1.13
  -1   2   6   41.97    1.15
   0  -2  -6   54.98    1.51
   0   2   6   57.88    1.53
   0   2   6   57.43    1.54
   0   2   6   54.59    1.52
  -1  -2  -6   -0.04    0.04
   1   2   6    0.02    0.04
   1   2   6   -0.01    0.06
   1   2   6    0.05    0.06
   2   2   6   11.94    0.35
   2   2   6   11.38    0.36
   2   2   6   12.16    0.37
   3   2   6  194.41    5.06
   3   2   6  181.36    5.05
   4   2   6   22.71    0.65
   4   2   6   21.56    0.63
   5   2   6   51.65    1.46
   5   2   6   54.98    1.48
   6   2   6   54.82    1.55
   6   2   6   53.91    1.51
   7   2   6    0.11    0.16
   7   2   6   -0.11    0.12
   8   2   6   15.36    0.57
   8   2   6   14.29    0.50
   9   2   6    1.07    0.23
   9   2   6    1.00    0.18
  10   2   6    0.81    0.24
   9  -3  -6    8.33    0.43
   8  -3  -6   26.43    0.82
  -8   3   6   23.54    0.88
   7  -3  -6   32.33    0.97
  -7   3   6   31.21    0.96
   6  -3  -6    7.03    0.32
  -6   3   6    6.28    0.33
   5  -3  -6   38.01    1.09
  -5   3   6   37.08    1.09
   4  -3  -6   67.11    1.82
  -4   3   6   64.57    1.83
   3  -3  -6   47.23    1.31
  -3   3   6   47.06    1.32
   2  -3  -6  122.68    3.27
  -2   3   6  119.18    3.28
   1  -3  -6  310.36    8.27
  -1   3   6  304.57    8.26
   0   3   6   24.11    0.68
   0   3   6   24.32    0.70
   1   3   6   71.74    1.97
   1   3   6   72.61    1.96
   2   3   6    1.60    0.12
   2   3   6    1.69    0.12
   3   3   6  105.02    2.81
   3   3   6  102.51    2.81
   4   3   6   18.59    0.55
   4   3   6   19.30    0.56
   5   3   6    1.82    0.13
   5   3   6    2.22    0.15
   6   3   6    9.26    0.33
   6   3   6    9.15    0.37
   6   3   6    8.86    0.32
   7   3   6    8.09    0.39
   7   3   6    8.00    0.32
   8   3   6    0.88    0.20
   8   3   6    0.73    0.14
   9   3   6   30.01    0.94
   9   3   6   28.21    0.86
  10   3   6   17.33    0.69
   8  -4  -6   31.03    0.97
   7  -4  -6   31.73    0.95
  -7   4   6   30.63    0.95
   6  -4  -6   62.52    1.75
  -6   4   6   61.21    1.74
   5  -4  -6   30.20    0.90
  -5   4   6   30.52    0.90
   4  -4  -6   21.30    0.66
  -4   4   6   21.91    0.67
   3  -4  -6    0.83    0.11
  -3   4   6    0.68    0.12
   2  -4  -6   30.01    0.86
  -2   4   6   30.43    0.87
   1  -4  -6   84.76    2.29
  -1   4   6   83.40    2.30
   0  -4  -6   40.20    1.11
   0   4   6   39.18    1.09
   0   4   6   40.64    1.12
   1   4   6   23.42    0.69
   1   4   6   24.40    0.67
   2   4   6   73.73    2.05
   2   4   6   76.38    2.04
   3   4   6   13.74    0.41
   3   4   6   12.97    0.41
   4   4   6  143.61    3.96
   4   4   6  149.53    3.96
   5   4   6  209.56    5.59
   5   4   6  205.78    5.60
   6   4   6  109.79    3.07
   6   4   6  113.47    3.04
   6   4   6  112.25    3.05
   7   4   6  124.28    3.37
   7   4   6  124.04    3.41
   8   4   6   34.94    1.05
   8   4   6   33.89    0.99
   9   4   6   -0.14    0.18
   9   4   6    0.18    0.13
  10   4   6   -0.04    0.21
   8  -5  -6   10.06    0.48
   7  -5  -6    0.06    0.17
   6  -5  -6    8.30    0.38
  -6   5   6    8.34    0.37
   5  -5  -6    0.13    0.14
  -5   5   6    0.09    0.13
   4  -5  -6   22.25    0.66
   4  -5  -6   23.77    0.71
  -4   5   6   23.80    0.71
   3  -5  -6   61.82    1.71
  -3   5   6   61.46    1.72
   2  -5  -6   12.11    0.39
  -2   5   6   12.36    0.41
   1  -5  -6   23.64    0.68
   1  -5  -6   23.47    0.68
  -1   5   6   23.75    0.70
   0  -5  -6  277.53    7.46
   0  -5  -6  274.74    7.49
   0   5   6  279.29    7.47
   0   5   6  282.37    7.49
  -1  -5  -6  168.52    4.74
   1   5   6  186.49    4.77
   1   5   6  175.49    4.73
  -2  -5  -6    2.01    0.13
   2   5   6    1.45    0.12
   2   5   6    1.79    0.08
   2   5   6    1.78    0.12
  -3  -5  -6   50.68    1.40
   3   5   6   51.42    1.38
   3   5   6   50.79    1.41
  -4  -5  -6    0.98    0.10
   4   5   6    0.93    0.11
   4   5   6    0.80    0.09
   4   5   6    1.02    0.09
   5   5   6   51.48    1.40
   5   5   6   49.60    1.41
   6   5   6   21.68    0.64
   6   5   6   21.65    0.66
   7   5   6    1.96    0.17
   7   5   6    2.00    0.19
   7   5   6    1.96    0.15
   8   5   6   15.37    0.58
   8   5   6   16.37    0.51
   9   5   6   15.36    0.58
   9   5   6   15.15    0.50
  10   5   6    2.72    0.27
   7  -6  -6    8.05    0.42
   6  -6  -6    2.22    0.20
   5  -6  -6   17.17    0.57
  -5   6   6   17.57    0.58
   4  -6  -6   24.20    0.71
   4  -6  -6   24.47    0.75
  -4   6   6   25.47    0.75
   3  -6  -6    8.62    0.33
  -3   6   6    8.69    0.34
   2  -6  -6    9.52    0.34
   2  -6  -6   10.17    0.37
  -2   6   6    9.75    0.36
   1  -6  -6    0.31    0.09
   1  -6  -6    0.38    0.10
  -1   6   6    0.29    0.11
  -1   6   6    0.34    0.11
   0  -6  -6   17.70    0.52
   0  -6  -6   17.21    0.52
   0   6   6   17.34    0.53
   0   6   6   17.89    0.54
  -1  -6  -6    5.73    0.21
  -1  -6  -6    5.45    0.22
   1   6   6    5.48    0.20
  -2  -6  -6   34.18    0.95
   2   6   6   32.37    0.91
   2   6   6   33.08    0.95
  -3  -6  -6   -0.07    0.10
   3   6   6    0.09    0.09
   3   6   6    0.16    0.06
  -4  -6  -6    2.23    0.18
   4   6   6    2.33    0.15
   4   6   6    2.19    0.13
   4   6   6    1.98    0.14
  -5  -6  -6    1.44    0.13
   5   6   6    1.32    0.12
   5   6   6    1.20    0.14
   5   6   6    1.52    0.12
   6   6   6   83.54    2.29
   6   6   6   82.36    2.27
   6   6   6   83.04    2.27
   7   6   6   21.10    0.66
   7   6   6   20.24    0.62
   8   6   6   35.00    1.00
   9   6   6   12.68    0.52
   9   6   6   12.16    0.43
  10   6   6    1.04    0.22
   6  -7  -6    0.12    0.17
   5  -7  -6    0.31    0.15
   4  -7  -6    0.96    0.15
   4  -7  -6    0.79    0.13
  -4   7   6    1.00    0.16
   3  -7  -6   74.48    2.04
   3  -7  -6   72.72    2.08
  -3   7   6   74.76    2.05
   2  -7  -6   29.62    0.83
   2  -7  -6   28.74    0.87
  -2   7   6   28.25    0.88
  -2   7   6   28.47    0.85
   1  -7  -6    0.07    0.12
   1  -7  -6    0.01    0.09
  -1   7   6    0.04    0.11
  -1   7   6   -0.25    0.13
   0  -7  -6   28.46    0.80
   0  -7  -6   27.85    0.82
   0   7   6   27.33    0.83
   0   7   6   28.96    0.83
  -1  -7  -6    1.19    0.09
  -1  -7  -6    1.40    0.14
   1   7   6    1.28    0.13
   1   7   6    1.31    0.11
  -2  -7  -6   46.50    1.33
  -2  -7  -6   51.83    1.38
   2   7   6   47.56    1.33
   2   7   6   48.18    1.36
  -3  -7  -6   10.41    0.41
   3   7   6   10.58    0.33
   3   7   6   10.82    0.38
  -4  -7  -6    9.67    0.39
   4   7   6   10.03    0.33
   4   7   6   10.54    0.37
  -5  -7  -6    0.07    0.13
   5   7   6    0.23    0.10
   5   7   6    0.19    0.12
  -6  -7  -6   57.68    1.64
   6   7   6   58.71    1.64
   6   7   6   57.89    1.61
  -7  -7  -6    7.94    0.37
   7   7   6    8.24    0.33
   7   7   6    8.61    0.37
  -8  -7  -6    8.97    0.42
   8   7   6    9.62    0.38
   8   7   6    9.41    0.42
   6  -8  -6   -0.07    0.17
   5  -8  -6    3.06    0.23
  -5   8   6    3.13    0.32
   4  -8  -6   11.21    0.50
   4  -8  -6   10.06    0.40
   4  -8  -6   10.02    0.38
  -4   8   6   10.50    0.41
  -4   8   6   10.29    0.51
   3  -8  -6    0.14    0.12
   3  -8  -6    0.09    0.12
   3  -8  -6    0.36    0.19
  -3   8   6    0.05    0.14
  -3   8   6    0.35    0.20
   2  -8  -6   14.15    0.54
   2  -8  -6   15.18    0.47
  -2   8   6   14.59    0.55
  -2   8   6   14.90    0.50
   1  -8  -6   74.37    2.08
   1  -8  -6   75.49    2.12
  -1   8   6   76.46    2.10
  -1   8   6   77.59    2.13
   0  -8  -6   23.34    0.68
   0  -8  -6   23.80    0.73
   0   8   6   23.44    0.71
   0   8   6   23.56    0.73
  -1  -8  -6   27.45    0.80
  -1  -8  -6   29.79    0.87
   1   8   6   28.37    0.83
   1   8   6   28.33    0.84
  -2  -8  -6   17.17    0.57
  -2  -8  -6   15.14    0.47
   2   8   6   16.40    0.52
   2   8   6   15.95    0.49
  -3  -8  -6   27.61    0.82
  -3  -8  -6   29.60    0.92
   3   8   6   29.52    0.84
   3   8   6   30.74    0.87
  -4  -8  -6   13.68    0.53
   4   8   6   13.63    0.43
   4   8   6   13.90    0.47
  -5  -8  -6    1.99    0.21
   5   8   6    1.68    0.17
   5   8   6    2.09    0.17
  -6  -8  -6   28.20    0.87
   6   8   6   28.17    0.82
   6   8   6   27.83    0.86
  -7  -8  -6    2.85    0.23
   7   8   6    3.15    0.23
   7   8   6    2.86    0.23
  -8  -8  -6    2.89    0.25
   8   8   6    3.16    0.26
   8   8   6    3.13    0.25
  -9  -8  -6    4.32    0.36
   9   8   6    4.28    0.31
 -10  -8  -6    0.17    0.23
  -5   9   6   15.58    0.70
   4  -9  -6    0.78    0.25
   4  -9  -6    0.32    0.15
  -4   9   6    0.60    0.25
   3  -9  -6    2.19    0.18
   3  -9  -6    2.12    0.26
  -3   9   6    2.13    0.19
  -3   9   6    1.89    0.27
   2  -9  -6    8.57    0.43
  -2   9   6    7.63    0.36
  -2   9   6    8.45    0.43
   1  -9  -6   55.19    1.64
  -1   9   6   58.44    1.60
  -1   9   6   56.59    1.64
   0  -9  -6    1.24    0.20
   0   9   6    0.90    0.15
   0   9   6    1.09    0.18
  -1  -9  -6    4.66    0.34
   1   9   6    4.61    0.27
   1   9   6    4.62    0.27
  -2  -9  -6   71.75    1.96
   2   9   6   68.18    1.91
   2   9   6   65.50    1.89
  -3  -9  -6   21.87    0.74
   3   9   6   21.23    0.67
   3   9   6   20.61    0.64
  -4  -9  -6   11.02    0.51
   4   9   6   12.17    0.43
   4   9   6   11.44    0.39
  -5  -9  -6   58.86    1.69
   5   9   6   57.36    1.61
   5   9   6   57.99    1.64
  -6  -9  -6   20.33    0.70
   6   9   6   19.80    0.62
   6   9   6   20.09    0.66
  -7  -9  -6   72.97    2.12
   7   9   6   75.49    2.08
   7   9   6   75.68    2.11
  -8  -9  -6   60.50    1.77
   8   9   6   60.73    1.73
   8   9   6   62.01    1.76
  -9  -9  -6    1.49    0.26
   4 -10  -6    0.30    0.27
  -4  10   6    0.42    0.34
   3 -10  -6    2.86    0.32
   3 -10  -6    2.80    0.21
  -3  10   6    2.71    0.31
   2 -10  -6    0.43    0.15
   2 -10  -6    0.74    0.24
  -2  10   6    0.37    0.23
  -2  10   6    0.43    0.16
   1 -10  -6    1.43    0.25
  -1  10   6    1.61    0.23
  -1  10   6    1.66    0.19
   0 -10  -6   68.41    1.95
   0  10   6   68.15    1.89
   0  10   6   65.35    1.91
  -1 -10  -6   45.70    1.35
   1  10   6   43.79    1.29
   1  10   6   44.04    1.29
  -2 -10  -6   18.67    0.68
   2  10   6   17.46    0.58
   2  10   6   17.52    0.59
  -3 -10  -6   34.72    1.11
   3  10   6   33.48    0.99
   3  10   6   34.33    1.02
  -4 -10  -6    4.40    0.36
   4  10   6    5.00    0.30
   4  10   6    4.69    0.25
  -5 -10  -6    3.89    0.33
   5  10   6    4.14    0.29
   5  10   6    4.16    0.30
  -6 -10  -6    0.36    0.24
   6  10   6    0.70    0.18
   7  10   6   -0.02    0.18
   8  10   6    8.39    0.44
   2 -11  -6    0.12    0.16
   1 -11  -6    1.78    0.19
  -1  11   6    1.61    0.20
   0 -11  -6    5.81    0.59
   0  11   6    5.06    0.32
  -1 -11  -6    4.29    0.54
   1  11   6    4.95    0.33
   2  11   6    5.34    0.33
   3  11   6    0.25    0.17
   4  11   6    1.97    0.21
   5  11   6   31.86    0.98
   6  11   6   12.34    0.50
   7  11   6    8.81    0.45
   8  11   6    3.52    0.29
   9  11   6   32.27    1.04
   1 -12  -6    1.07    0.20
   0  12   6   22.42    0.75
   1  12   6    0.34    0.19
   2  12   6    7.91    0.41
   3  12   6   -0.29    0.17
   4  12   6    0.09    0.18
   5  12   6    6.73    0.40
   6  12   6    1.75    0.24
   7  12   6    7.92    0.46
   8  12   6    5.70    0.43
   2  13   6    7.91    0.44
   3  13   6    0.36    0.20
   4  13   6    4.04    0.30
   5  13   6    0.70    0.22
   6  13   6   31.41    1.01
   4   9  -7   24.91    0.96
  -4  -9   7   24.57    0.97
   3   9  -7    2.95    0.36
  -3  -9   7    2.68    0.38
  -3  -9   7    2.65    0.24
   7   8  -7    5.54    0.46
  -7  -8   7    4.81    0.42
   6   8  -7   29.20    1.07
  -6  -8   7   30.45    1.07
   5   8  -7    1.60    0.34
  -5  -8   7    1.55    0.33
   4   8  -7    2.04    0.34
  -4  -8   7    1.81    0.34
  -4  -8   7    1.46    0.24
   3   8  -7    4.60    0.39
  -3  -8   7    4.06    0.26
  -3  -8   7    4.85    0.41
   2   8  -7    0.91    0.28
  -2  -8   7    0.07    0.17
  -2  -8   7    0.28    0.29
   1   8  -7    2.80    0.34
  -1  -8   7    2.90    0.24
  -1  -8   7    2.60    0.36
   0   8  -7    1.95    0.31
   0  -8   7    1.64    0.23
   0  -8   7    1.73    0.36
  -1   8  -7    0.13    0.29
   1  -8   7    0.50    0.32
   1  -8   7    0.12    0.20
   8   7  -7    0.83    0.33
  -8  -7   7    0.71    0.30
   7   7  -7    5.99    0.46
  -7  -7   7    6.19    0.50
   6   7  -7    4.40    0.40
  -6  -7   7    4.25    0.36
   5   7  -7    0.38    0.29
  -5  -7   7    0.21    0.27
   4   7  -7    5.38    0.40
  -4  -7   7    5.48    0.46
  -4  -7   7    5.11    0.29
   3   7  -7   36.52    1.19
  -3  -7   7   35.33    1.18
  -3  -7   7   36.02    1.05
   2   7  -7   20.43    0.77
  -2  -7   7   18.47    0.63
  -2  -7   7   18.54    0.76
   1   7  -7    6.56    0.47
  -1  -7   7    4.34    0.38
  -1  -7   7    4.87    0.33
   0   7  -7   82.46    2.36
   0  -7   7   81.64    2.40
   0  -7   7   81.28    2.28
  -1   7  -7   11.59    0.59
   1  -7   7   12.07    0.64
   1  -7   7   11.85    0.49
  -2   7  -7    0.83    0.29
   2  -7   7    0.95    0.21
   2  -7   7    0.97    0.33
   8   6  -7    1.85    0.34
  -8  -6   7    2.19    0.31
   7   6  -7   22.89    0.88
  -7  -6   7   23.25    0.84
   6   6  -7    0.63    0.28
  -6  -6   7    0.20    0.24
   5   6  -7    5.48    0.47
  -5  -6   7    5.30    0.45
   4   6  -7   16.27    0.69
  -4  -6   7   17.31    0.55
  -4  -6   7   17.61    0.68
   3   6  -7    9.01    0.52
  -3  -6   7    8.15    0.48
  -3  -6   7    8.86    0.35
   2   6  -7    2.25    0.29
  -2  -6   7    1.56    0.27
  -2  -6   7    1.60    0.17
   1   6  -7   17.08    0.66
  -1  -6   7   16.20    0.56
  -1  -6   7   16.08    0.67
   0   6  -7    0.85    0.24
   0  -6   7    0.33    0.16
   0  -6   7    0.19    0.25
  -1   6  -7    3.12    0.31
   1  -6   7    3.07    0.34
   1  -6   7    2.78    0.22
  -2   6  -7   13.53    0.61
   2  -6   7   11.20    0.61
   2  -6   7   13.08    0.50
  -3   6  -7   -0.05    0.28
   3  -6   7    0.16    0.19
   3  -6   7    0.17    0.30
  -4   6  -7    3.23    0.37
   4  -6   7    3.36    0.29
   4  -6   7    3.10    0.39
   9   5  -7    0.53    0.28
  -9  -5   7    0.44    0.27
   8   5  -7    5.94    0.47
  -8  -5   7    6.41    0.45
   7   5  -7   14.86    0.63
  -7  -5   7   14.28    0.61
   6   5  -7    1.00    0.26
  -6  -5   7    0.76    0.23
   5   5  -7    8.12    0.48
  -5  -5   7   10.15    0.48
   4   5  -7    0.03    0.22
  -4  -5   7    0.46    0.21
  -4  -5   7    0.34    0.11
   3   5  -7   25.27    0.88
  -3  -5   7   26.33    0.88
  -3  -5   7   27.06    0.77
   2   5  -7   14.70    0.60
  -2  -5   7   15.31    0.48
  -2  -5   7   13.49    0.58
   1   5  -7   10.93    0.50
  -1  -5   7    9.87    0.51
  -1  -5   7   10.39    0.39
   0   5  -7    4.49    0.37
   0  -5   7    4.71    0.29
   0  -5   7    4.47    0.39
  -1   5  -7    2.72    0.27
   1  -5   7    2.75    0.30
   1  -5   7    2.72    0.21
  -2   5  -7   19.97    0.73
   2  -5   7   20.00    0.65
   2  -5   7   18.56    0.76
  -3   5  -7   14.98    0.65
   3  -5   7   15.30    0.67
   3  -5   7   14.93    0.55
  -4   5  -7    7.20    0.53
   4  -5   7    8.29    0.43
   4  -5   7    8.35    0.58
  -5   5  -7    1.71    0.34
   5  -5   7    1.46    0.34
   5  -5   7    0.95    0.22
   9   4  -7    7.79    0.51
  -9  -4   7    8.07    0.51
   8   4  -7    6.89    0.35
   8   4  -7    6.49    0.46
  -8  -4   7    6.61    0.43
   7   4  -7   44.74    1.34
   7   4  -7   43.25    1.26
  -7  -4   7   44.11    1.33
   6   4  -7    0.00    0.12
   6   4  -7    0.08    0.22
  -6  -4   7   -0.08    0.19
   5   4  -7    0.32    0.12
   5   4  -7    0.37    0.21
  -5  -4   7    0.11    0.18
   4   4  -7   67.70    1.86
   4   4  -7   66.15    1.94
  -4  -4   7   67.22    1.85
  -4  -4   7   68.83    1.93
   3   4  -7    1.57    0.23
   3   4  -7    1.48    0.14
  -3  -4   7    1.66    0.13
  -3  -4   7    1.54    0.21
   2   4  -7   43.81    1.22
   2   4  -7   39.88    1.29
  -2  -4   7   43.09    1.28
  -2  -4   7   44.93    1.21
   1   4  -7  147.75    4.05
  -1  -4   7  144.43    4.05
  -1  -4   7  148.88    3.99
   0   4  -7    5.34    0.36
   0  -4   7    5.28    0.36
   0  -4   7    4.73    0.27
  -1   4  -7    2.59    0.24
   1  -4   7    2.22    0.25
   1  -4   7    2.04    0.18
  -2   4  -7   18.79    0.69
   2  -4   7   18.89    0.70
   2  -4   7   19.09    0.61
  -3   4  -7    7.62    0.45
   3  -4   7    7.14    0.49
   3  -4   7    7.47    0.36
  -4   4  -7    6.16    0.46
   4  -4   7    6.06    0.50
   4  -4   7    5.96    0.35
  -5   4  -7    0.42    0.27
   5  -4   7    0.21    0.29
   5  -4   7    0.22    0.19
  -6   4  -7    0.02    0.29
   6  -4   7   -0.06    0.31
   6  -4   7    0.17    0.21
   9   3  -7   36.16    1.17
   9   3  -7   36.07    1.10
  -9  -3   7   37.26    1.18
   8   3  -7   60.92    1.75
   8   3  -7   58.17    1.69
  -8  -3   7   59.49    1.74
   7   3  -7   16.02    0.55
   7   3  -7   16.39    0.62
  -7  -3   7   16.34    0.62
   6   3  -7  136.17    3.71
   6   3  -7  136.58    3.76
  -6  -3   7  136.10    3.75
   5   3  -7   23.26    0.69
   5   3  -7   22.89    0.76
  -5  -3   7   22.83    0.74
   4   3  -7    0.73    0.18
   4   3  -7    0.75    0.12
  -4  -3   7    0.65    0.09
  -4  -3   7    0.46    0.16
   3   3  -7   15.24    0.48
   3   3  -7   14.49    0.55
  -3  -3   7   15.15    0.53
  -3  -3   7   15.60    0.46
   2   3  -7   18.91    0.56
   2   3  -7   15.04    0.61
  -2  -3   7   18.31    0.54
  -2  -3   7   18.16    0.60
   1   3  -7   25.89    0.85
  -1  -3   7   27.66    0.84
  -1  -3   7   27.00    0.78
   0   3  -7    0.24    0.16
   0  -3   7    0.00    0.17
   0  -3   7    0.08    0.11
  -1   3  -7    0.46    0.17
   1  -3   7    0.67    0.13
   1  -3   7    0.53    0.19
  -2   3  -7    9.43    0.43
   2  -3   7    9.18    0.46
   2  -3   7    9.21    0.36
  -3   3  -7    1.14    0.22
   3  -3   7    1.02    0.16
   3  -3   7    0.63    0.22
  -4   3  -7   14.61    0.59
   4  -3   7   14.54    0.52
   4  -3   7   13.88    0.60
  -5   3  -7  101.05    2.83
   5  -3   7   98.97    2.75
   5  -3   7   98.73    2.84
  -6   3  -7   13.09    0.64
   6  -3   7   12.96    0.52
   6  -3   7   13.39    0.65
  -7   3  -7   29.42    1.04
   7  -3   7   28.65    0.91
   7  -3   7   27.64    1.03
   9   2  -7    1.36    0.20
   9   2  -7    1.17    0.24
  -9  -2   7    1.23    0.26
  -9  -2   7    1.55    0.27
   8   2  -7    1.16    0.18
   8   2  -7    1.10    0.23
  -8  -2   7    1.41    0.24
   7   2  -7    1.96    0.23
   7   2  -7    1.80    0.18
  -7  -2   7    2.15    0.23
   6   2  -7   10.90    0.45
   6   2  -7   11.34    0.41
  -6  -2   7   11.02    0.45
   5   2  -7    7.52    0.36
   5   2  -7    8.13    0.32
  -5  -2   7    7.75    0.36
   4   2  -7   18.54    0.60
   4   2  -7   17.79    0.55
  -4  -2   7   17.51    0.53
  -4  -2   7   17.99    0.58
   3   2  -7   27.27    0.80
   3   2  -7   27.49    0.84
  -3  -2   7   28.25    0.78
  -3  -2   7   27.43    0.83
   2   2  -7   71.43    1.91
   2   2  -7   65.43    1.93
  -2  -2   7   69.11    1.92
  -2  -2   7   69.85    1.88
   1   2  -7   13.70    0.52
  -1  -2   7   15.33    0.51
  -1  -2   7   15.73    0.46
   0   2  -7  153.84    4.20
   0  -2   7  160.49    4.20
   0  -2   7  145.33    4.14
   0  -2   7  155.15    4.15
  -1   2  -7  203.48    5.34
   1  -2   7  193.91    5.31
   1  -2   7  201.05    5.35
   1  -2   7  188.48    5.29
  -2   2  -7    3.98    0.29
   2  -2   7    3.54    0.23
   2  -2   7    3.75    0.30
  -3   2  -7   64.41    1.87
   3  -2   7   65.71    1.83
   3  -2   7   67.32    1.89
  -4   2  -7    6.88    0.39
   4  -2   7    7.11    0.32
   4  -2   7    7.13    0.42
  -5   2  -7    5.76    0.41
   5  -2   7    5.90    0.42
   5  -2   7    5.76    0.32
  -6   2  -7    2.94    0.31
   6  -2   7    2.43    0.22
   6  -2   7    2.37    0.31
  -7   2  -7    1.68    0.31
   7  -2   7    1.49    0.21
   7  -2   7    1.62    0.31
   9   1  -7    9.90    0.45
  -9  -1   7    9.51    0.53
   8   1  -7    1.31    0.19
   8   1  -7    1.31    0.22
  -8  -1   7    1.05    0.23
   7   1  -7   46.10    1.35
   7   1  -7   45.42    1.33
  -7  -1   7   47.19    1.37
   6   1  -7    5.07    0.31
   6   1  -7    4.85    0.28
  -6  -1   7    4.65    0.30
   5   1  -7   29.63    0.85
   5   1  -7   28.68    0.87
  -5  -1   7   28.37    0.87
   4   1  -7  128.25    3.56
   4   1  -7  131.83    3.55
  -4  -1   7  132.46    3.57
   3   1  -7    0.61    0.13
   3   1  -7    0.63    0.11
  -3  -1   7    0.62    0.07
  -3  -1   7    0.73    0.12
   2   1  -7    2.44    0.19
   2   1  -7    2.58    0.20
  -2  -1   7    2.51    0.19
  -2  -1   7    2.67    0.14
   1   1  -7   16.60    0.56
  -1  -1   7   17.98    0.54
  -1  -1   7   17.70    0.56
  -1  -1   7   18.55    0.52
   0   1  -7   54.86    1.57
   0  -1   7   56.71    1.53
   0  -1   7   54.69    1.53
   0  -1   7   56.48    1.57
  -1   1  -7    0.16    0.12
   1  -1   7    0.16    0.12
   1  -1   7    0.16    0.09
   1  -1   7    0.12    0.08
  -2   1  -7   43.99    1.25
   2  -1   7   46.64    1.26
   2  -1   7   41.15    1.19
   2  -1   7   42.36    1.22
  -3   1  -7    3.60    0.27
   3  -1   7    3.80    0.23
   3  -1   7    3.96    0.29
  -4   1  -7    4.99    0.32
   4  -1   7    4.75    0.34
   4  -1   7    5.10    0.26
  -5   1  -7    3.15    0.26
   5  -1   7    2.90    0.27
   5  -1   7    3.04    0.21
   6  -1   7   31.23    1.02
   6  -1   7   31.68    0.94
   7  -1   7   38.62    1.18
   7  -1   7   36.85    1.12
   8  -1   7    6.32    0.37
   8  -1   7    7.36    0.48
   9   0  -7    1.08    0.21
  -9   0   7    0.72    0.25
   8   0  -7   -0.07    0.16
  -8   0   7    0.12    0.21
   7   0  -7   39.34    1.17
   7   0  -7   39.57    1.16
  -7   0   7   39.58    1.19
   6   0  -7    2.07    0.18
   6   0  -7    2.06    0.19
  -6   0   7    1.82    0.20
   5   0  -7    0.34    0.12
   5   0  -7    0.34    0.13
  -5   0   7    0.49    0.16
   4   0  -7    5.07    0.25
   4   0  -7    5.35    0.25
  -4   0   7    4.96    0.27
  -4   0   7    5.09    0.24
   3   0  -7   34.26    0.96
   3   0  -7   33.52    0.95
  -3   0   7   32.38    0.92
  -3   0   7   33.64    0.97
  -3   0   7   33.85    0.96
   2   0  -7   75.18    2.02
   2   0  -7   74.14    2.01
  -2   0   7   72.25    2.01
  -2   0   7   72.52    2.02
  -2   0   7   72.49    1.99
   1   0  -7   10.92    0.37
  -1   0   7   11.44    0.37
  -1   0   7   11.48    0.35
  -1   0   7   10.58    0.36
   0   0  -7   24.41    0.80
   0   0   7   29.53    0.78
   0   0   7   28.64    0.79
  -1   0  -7    1.24    0.13
   1   0   7    1.17    0.11
   1   0   7    1.46    0.13
   1   0   7    1.28    0.10
  -2   0  -7   91.98    2.47
   2   0   7   88.51    2.45
   2   0   7   92.94    2.47
   2   0   7   86.35    2.43
  -3   0  -7    0.61    0.13
   3   0   7    0.77    0.14
   3   0   7    0.74    0.08
   3   0   7    0.80    0.12
   4   0   7    4.35    0.28
   4   0   7    3.74    0.23
   5   0   7    3.48    0.29
   5   0   7    3.31    0.24
   6   0   7   13.09    0.46
   7   0   7    6.29    0.40
   7   0   7    6.44    0.33
   8   0   7    2.75    0.22
   8   0   7    2.53    0.28
   9   0   7    0.33    0.18
   9   0   7   -0.17    0.24
   9  -1  -7    2.00    0.24
  -9   1   7    1.65    0.26
   8  -1  -7   38.87    1.15
  -8   1   7   38.02    1.18
   7  -1  -7   61.04    1.71
  -7   1   7   59.83    1.73
   6  -1  -7    3.35    0.25
  -6   1   7    2.85    0.23
   5  -1  -7    5.23    0.27
   5  -1  -7    5.39    0.27
  -5   1   7    5.37    0.31
   4  -1  -7   15.83    0.51
   4  -1  -7   16.65    0.52
  -4   1   7   16.39    0.54
   3  -1  -7    0.08    0.09
   3  -1  -7    0.08    0.10
  -3   1   7    0.31    0.12
  -3   1   7    0.15    0.08
  -3   1   7    0.16    0.05
   2  -1  -7    6.42    0.23
   2  -1  -7    6.52    0.26
  -2   1   7    6.03    0.21
  -2   1   7    6.68    0.28
   1  -1  -7  164.15    4.37
   1  -1  -7  167.10    4.40
  -1   1   7  153.45    4.37
  -1   1   7  161.57    4.37
  -1   1   7  166.24    4.39
   0  -1  -7   46.87    1.31
   0   1   7   47.66    1.31
   0   1   7   48.08    1.32
   0   1   7   48.12    1.32
  -1  -1  -7   31.55    0.92
   1   1   7   33.20    0.91
   1   1   7   32.22    0.91
   1   1   7   32.62    0.91
  -2  -1  -7   91.59    2.45
   2   1   7   86.68    2.43
   2   1   7   91.07    2.44
  -3  -1  -7    1.06    0.12
   3   1   7    0.93    0.11
   3   1   7    1.26    0.13
   3   1   7    1.18    0.09
   4   1   7   24.52    0.75
   4   1   7   24.98    0.73
   5   1   7    5.02    0.25
   6   1   7   26.22    0.79
   7   1   7    8.78    0.37
   7   1   7    9.47    0.46
   8   1   7   11.81    0.45
   8   1   7   11.93    0.54
   9   1   7    0.35    0.18
   9   1   7    0.26    0.23
   9  -2  -7    9.57    0.46
  -9   2   7    8.95    0.48
   8  -2  -7   18.29    0.63
  -8   2   7   16.38    0.64
   7  -2  -7   17.27    0.59
  -7   2   7   16.41    0.61
   6  -2  -7   59.05    1.65
  -6   2   7   57.63    1.66
   5  -2  -7  156.97    4.24
  -5   2   7  155.05    4.25
   4  -2  -7   11.67    0.40
  -4   2   7   11.39    0.42
   3  -2  -7   48.97    1.35
  -3   2   7   47.75    1.36
   2  -2  -7   -0.02    0.08
   2  -2  -7    0.04    0.06
  -2   2   7   -0.04    0.10
  -2   2   7    0.05    0.05
   1  -2  -7  105.63    2.85
   1  -2  -7  109.97    2.89
  -1   2   7  102.75    2.85
  -1   2   7  106.15    2.86
  -1   2   7  105.33    2.88
   0  -2  -7   23.90    0.67
   0   2   7   24.23    0.68
   0   2   7   24.83    0.69
   0   2   7   24.66    0.71
  -1  -2  -7    5.01    0.19
   1   2   7    5.99    0.21
   1   2   7    5.69    0.22
   1   2   7    5.63    0.18
  -2  -2  -7   78.46    2.07
   2   2   7   77.20    2.08
   2   2   7   73.90    2.07
   2   2   7   74.93    2.06
   3   2   7   -0.02    0.08
   3   2   7    0.03    0.04
   3   2   7    0.30    0.07
   4   2   7    1.27    0.13
   4   2   7    1.06    0.10
   5   2   7  125.22    3.40
   6   2   7   18.76    0.59
   7   2   7   38.55    1.14
   7   2   7   41.28    1.20
   8   2   7   99.50    2.75
   8   2   7   95.83    2.69
   9   2   7   13.82    0.58
   9   2   7   11.83    0.48
   9  -3  -7   -0.07    0.20
   8  -3  -7    1.78    0.22
  -8   3   7    1.82    0.23
   7  -3  -7    1.10    0.19
  -7   3   7    1.17    0.21
   6  -3  -7   57.67    1.62
  -6   3   7   56.88    1.63
   5  -3  -7   22.09    0.68
  -5   3   7   20.96    0.68
   4  -3  -7    2.93    0.22
  -4   3   7    3.33    0.25
   3  -3  -7   38.93    1.09
  -3   3   7   37.85    1.10
   2  -3  -7   30.42    0.88
  -2   3   7   31.38    0.89
   1  -3  -7    0.07    0.09
  -1   3   7    0.01    0.10
  -1   3   7   -0.06    0.05
   0   3   7  180.59    4.91
   0   3   7  183.32    4.89
   1   3   7  242.82    6.45
   1   3   7  237.45    6.46
  -2  -3  -7   83.85    2.25
   2   3   7   80.54    2.28
   2   3   7   86.41    2.28
   3   3   7  184.01    5.14
   3   3   7  198.41    5.15
   4   3   7   58.73    1.63
   4   3   7   59.86    1.64
   5   3   7    3.81    0.21
   5   3   7    3.49    0.19
   6   3   7    0.18    0.12
   7   3   7    3.13    0.24
   7   3   7    3.34    0.25
   8   3   7    5.42    0.37
   8   3   7    5.30    0.29
   9   3   7    0.34    0.22
   9   3   7    0.43    0.15
  10   3   7    0.34    0.24
   8  -4  -7    1.83    0.22
   7  -4  -7    7.86    0.38
  -7   4   7    7.47    0.40
   6  -4  -7    0.06    0.15
  -6   4   7    0.08    0.16
   5  -4  -7   13.81    0.49
  -5   4   7   13.75    0.49
   4  -4  -7  171.16    4.63
  -4   4   7  170.70    4.64
   3  -4  -7   34.58    1.01
  -3   4   7   35.82    1.02
   2  -4  -7   26.39    0.77
  -2   4   7   26.72    0.79
   1  -4  -7   29.15    0.84
  -1   4   7   29.27    0.85
   0  -4  -7   49.69    1.36
   0   4   7   48.51    1.36
   0   4   7   47.84    1.33
   1   4   7    3.77    0.19
   1   4   7    4.02    0.17
   2   4   7    0.09    0.07
   2   4   7    0.18    0.08
   3   4   7    5.43    0.22
   3   4   7    5.18    0.22
   4   4   7    4.81    0.22
   4   4   7    5.31    0.22
   5   4   7   45.18    1.22
   5   4   7   42.08    1.22
   6   4   7   26.30    0.75
   6   4   7   24.83    0.76
   7   4   7   27.05    0.80
   8   4   7    7.82    0.42
   8   4   7    7.39    0.33
   9   4   7   59.12    1.69
   9   4   7   61.32    1.77
  10   4   7   37.64    1.20
   8  -5  -7    1.49    0.23
   7  -5  -7   13.67    0.54
   6  -5  -7    2.09    0.20
  -6   5   7    2.51    0.22
   5  -5  -7    8.50    0.36
  -5   5   7    8.03    0.37
   4  -5  -7   14.95    0.50
  -4   5   7   14.60    0.51
   3  -5  -7    0.61    0.12
  -3   5   7    0.48    0.13
   2  -5  -7   19.78    0.60
  -2   5   7   19.88    0.62
   1  -5  -7    2.88    0.18
  -1   5   7    2.83    0.20
   0  -5  -7    3.08    0.17
   0   5   7    2.58    0.12
   1   5   7   66.77    1.84
   2   5   7  173.89    4.60
   2   5   7  167.54    4.61
  -3  -5  -7   10.74    0.34
   3   5   7   11.25    0.36
   4   5   7    2.79    0.17
   4   5   7    2.46    0.18
   5   5   7   55.40    1.53
   5   5   7   54.69    1.54
   6   5   7    1.74    0.16
   6   5   7    1.90    0.15
   7   5   7   10.18    0.40
   7   5   7   10.65    0.38
   8   5   7    0.24    0.13
   9   5   7    3.96    0.27
  10   5   7    0.56    0.23
   7  -6  -7   38.00    1.15
   6  -6  -7   16.19    0.57
  -6   6   7   15.28    0.56
   5  -6  -7   15.13    0.53
  -5   6   7   15.09    0.53
   4  -6  -7   32.53    0.95
  -4   6   7   32.14    0.96
   3  -6  -7    3.02    0.22
  -3   6   7    2.64    0.19
   2  -6  -7   19.65    0.59
  -2   6   7   19.38    0.61
   1  -6  -7   51.76    1.43
   1  -6  -7   52.09    1.43
  -1   6   7   51.73    1.45
  -1   6   7   50.80    1.44
   0  -6  -7    0.41    0.09
   0  -6  -7    0.18    0.08
   0   6   7    0.29    0.08
   0   6   7    0.20    0.11
  -1  -6  -7    9.52    0.30
  -1  -6  -7   10.50    0.33
   1   6   7    9.33    0.29
   1   6   7   10.34    0.35
  -2  -6  -7  152.66    4.28
   2   6   7  157.87    4.27
   2   6   7  168.22    4.32
  -3  -6  -7    0.69    0.11
   3   6   7    0.87    0.10
   3   6   7    0.74    0.06
   3   6   7    0.54    0.10
  -4  -6  -7    1.91    0.14
   4   6   7    1.63    0.12
   4   6   7    1.80    0.12
   4   6   7    1.73    0.14
  -5  -6  -7    0.12    0.10
   5   6   7    0.07    0.12
   5   6   7   -0.02    0.08
   5   6   7    0.12    0.10
   6   6   7   44.24    1.24
   6   6   7   44.26    1.27
   7   6   7   34.84    0.99
   7   6   7   34.20    1.02
   8   6   7    5.04    0.27
   9   6   7    5.29    0.29
   6  -7  -7   26.49    0.84
   5  -7  -7   40.67    1.19
  -5   7   7   40.24    1.19
   4  -7  -7   14.47    0.50
  -4   7   7   14.41    0.51
   3  -7  -7   57.56    1.61
  -3   7   7   57.21    1.62
   2  -7  -7   12.96    0.46
   2  -7  -7   12.84    0.43
  -2   7   7   13.10    0.46
  -2   7   7   13.11    0.47
   1  -7  -7   11.11    0.37
   1  -7  -7   11.26    0.39
  -1   7   7   11.25    0.41
  -1   7   7   11.06    0.40
   0  -7  -7   16.14    0.51
   0  -7  -7   16.88    0.50
   0   7   7   16.16    0.53
   0   7   7   16.70    0.51
  -1  -7  -7   18.79    0.57
  -1  -7  -7   19.91    0.58
   1   7   7   19.34    0.56
   1   7   7   20.17    0.61
  -2  -7  -7   54.50    1.52
  -2  -7  -7   55.78    1.52
   2   7   7   53.93    1.50
   2   7   7   56.04    1.54
  -3  -7  -7   10.79    0.38
   3   7   7   10.20    0.32
  -4  -7  -7    0.58    0.14
   4   7   7    0.61    0.08
   4   7   7    0.53    0.12
  -5  -7  -7   35.98    1.05
   5   7   7   37.45    1.06
   5   7   7   35.96    1.02
  -6  -7  -7    5.85    0.29
   6   7   7    6.44    0.31
   6   7   7    6.22    0.26
   6   7   7    5.67    0.27
  -7  -7  -7    4.13    0.28
   7   7   7    4.15    0.24
   7   7   7    4.10    0.29
  -8  -7  -7   65.67    1.93
   8   7   7   68.19    1.89
   8   7   7   70.51    1.94
   9   7   7   41.76    1.19
   6  -8  -7   15.64    0.59
   5  -8  -7   20.13    0.67
   4  -8  -7    6.31    0.33
  -4   8   7    6.21    0.34
  -4   8   7    6.95    0.42
   3  -8  -7   32.15    1.02
   3  -8  -7   33.46    0.97
  -3   8   7   32.24    1.02
  -3   8   7   34.32    0.99
   2  -8  -7   13.54    0.44
   2  -8  -7   13.08    0.49
  -2   8   7   13.56    0.47
  -2   8   7   12.52    0.50
   1  -8  -7    2.72    0.19
   1  -8  -7    2.49    0.20
  -1   8   7    2.84    0.21
  -1   8   7    2.79    0.20
   0  -8  -7   21.41    0.62
   0  -8  -7   20.43    0.65
   0   8   7   21.40    0.65
   0   8   7   21.40    0.66
  -1  -8  -7   46.89    1.31
  -1  -8  -7   45.92    1.33
   1   8   7   48.15    1.35
   1   8   7   48.67    1.36
  -2  -8  -7   25.00    0.72
  -2  -8  -7   25.73    0.77
  -3  -8  -7  120.89    3.40
   3   8   7  122.98    3.33
  -4  -8  -7  125.16    3.72
   4   8   7  136.14    3.57
   5   8   7    5.89    0.31
   6   8   7    3.61    0.27
   7   8   7    0.17    0.17
   8   8   7   22.61    0.76
   4  -9  -7   40.52    1.30
   3  -9  -7   23.28    0.78
   3  -9  -7   22.77    0.70
   3  -9  -7   21.98    0.86
  -3   9   7   23.64    0.74
   2  -9  -7   14.24    0.61
   2  -9  -7   13.80    0.56
  -2   9   7   15.66    0.53
   1  -9  -7   66.18    1.99
  -1   9   7   70.15    1.91
   0   9   7    0.17    0.14
   1   9   7    2.76    0.19
   2   9   7    0.74    0.15
   3   9   7   13.58    0.48
   4   9   7   11.63    0.44
   5   9   7    8.38    0.36
   6   9   7    2.38    0.21
   7   9   7    9.15    0.43
   8   9   7    0.05    0.20
   9   9   7   35.15    1.11
   3 -10  -7    0.67    0.16
  -3  10   7    0.67    0.22
  -2  10   7    0.00    0.16
  -1  10   7    6.60    0.34
   0  10   7   23.32    0.74
   1  10   7   11.12    0.44
   2  10   7    7.74    0.37
   3  10   7    2.12    0.20
   4  10   7    6.89    0.35
   5  10   7   60.56    1.72
   6  10   7   12.54    0.49
   7  10   7    0.15    0.19
   8  10   7    4.17    0.30
   9  10   7    3.03    0.29
   2 -11  -7    1.44    0.19
  -2  11   7    1.25    0.20
  -1  11   7    1.12    0.19
   0  11   7    3.94    0.32
   1  11   7    5.64    0.33
   2  11   7   14.08    0.53
   3  11   7    2.48    0.22
   4  11   7    0.03    0.17
   5  11   7    9.05    0.42
   6  11   7    9.76    0.45
   7  11   7   12.97    0.55
   8  11   7    0.18    0.22
   9  11   7    2.98    0.30
   1 -12  -7    0.90    0.19
  -1  12   7    0.87    0.20
   0  12   7    2.81    0.25
   1  12   7    0.16    0.19
   2  12   7   35.16    1.08
   3  12   7    9.51    0.44
   4  12   7    0.65    0.20
   5  12   7    9.24    0.46
   6  12   7    0.15    0.20
   7  12   7    4.47    0.32
   8  12   7   10.15    0.52
   2  13   7    0.86    0.22
   3  13   7   20.26    0.71
   4  13   7   26.76    0.88
   5  13   7    1.39    0.24
   6  13   7   10.52    0.52
   5   8  -8    2.78    0.38
  -5  -8   8    2.02    0.36
   4   8  -8   39.10    1.31
  -4  -8   8   39.27    1.32
   3   8  -8    4.82    0.41
  -3  -8   8    4.62    0.42
  -3  -8   8    4.11    0.27
   2   8  -8    1.49    0.31
  -2  -8   8    0.49    0.20
  -2  -8   8    0.81    0.32
   1   8  -8   17.53    0.72
  -1  -8   8   15.52    0.61
  -1  -8   8   15.27    0.74
   7   7  -8    6.85    0.61
  -7  -7   8    7.07    0.54
   6   7  -8    0.03    0.30
  -6  -7   8    0.54    0.31
   5   7  -8    0.61    0.31
  -5  -7   8    0.14    0.29
   4   7  -8    7.61    0.56
  -4  -7   8    6.95    0.55
   3   7  -8    7.19    0.53
  -3  -7   8    6.00    0.53
  -3  -7   8    6.09    0.35
   2   7  -8   11.69    0.60
  -2  -7   8   10.14    0.45
  -2  -7   8    9.90    0.58
   1   7  -8    6.18    0.47
  -1  -7   8    5.31    0.49
  -1  -7   8    5.47    0.35
   0   7  -8    0.26    0.27
   0  -7   8   -0.02    0.19
   0  -7   8    0.16    0.29
  -1   7  -8    0.06    0.27
   1  -7   8    0.07    0.29
   1  -7   8   -0.13    0.19
   8   6  -8   -0.10    0.31
  -8  -6   8    0.13    0.28
   7   6  -8   40.23    1.34
  -7  -6   8   41.23    1.31
   6   6  -8    6.12    0.45
  -6  -6   8    6.30    0.50
   5   6  -8    0.66    0.29
  -5  -6   8    1.05    0.28
   4   6  -8   19.04    0.79
  -4  -6   8   20.32    0.78
   3   6  -8    1.96    0.30
  -3  -6   8    1.46    0.17
  -3  -6   8    1.68    0.28
   2   6  -8    2.93    0.31
  -2  -6   8    2.30    0.30
  -2  -6   8    1.95    0.20
   1   6  -8   21.41    0.76
  -1  -6   8   19.87    0.67
  -1  -6   8   19.56    0.77
   0   6  -8    3.56    0.32
   0  -6   8    3.09    0.33
   0  -6   8    2.76    0.23
  -1   6  -8    2.04    0.29
   1  -6   8    1.51    0.21
   1  -6   8    1.54    0.31
  -2   6  -8   25.98    0.94
   2  -6   8   26.33    0.96
   2  -6   8   27.32    0.86
  -3   6  -8    0.70    0.29
   3  -6   8    0.68    0.31
   3  -6   8    0.70    0.22
   8   5  -8    8.93    0.57
  -8  -5   8    9.37    0.53
   7   5  -8   11.96    0.61
  -7  -5   8   12.75    0.58
   6   5  -8   32.86    1.12
  -6  -5   8   33.93    1.08
   5   5  -8   57.23    1.79
  -5  -5   8   63.19    1.79
   4   5  -8    3.85    0.34
  -4  -5   8    3.91    0.33
   3   5  -8   20.63    0.79
  -3  -5   8   22.14    0.66
  -3  -5   8   21.65    0.77
   2   5  -8   18.93    0.71
  -2  -5   8   19.08    0.60
  -2  -5   8   17.83    0.70
   1   5  -8   22.22    0.75
  -1  -5   8   20.69    0.66
  -1  -5   8   19.35    0.75
   0   5  -8    0.64    0.23
   0  -5   8    0.27    0.16
   0  -5   8    0.03    0.24
  -1   5  -8    3.00    0.29
   1  -5   8    2.67    0.22
   1  -5   8    3.16    0.32
  -2   5  -8   18.16    0.71
   2  -5   8   18.67    0.75
   2  -5   8   19.57    0.65
  -3   5  -8    0.07    0.26
   3  -5   8   -0.02    0.27
   3  -5   8    0.07    0.20
  -4   5  -8    6.13    0.52
   4  -5   8    6.24    0.41
   4  -5   8    5.57    0.45
   9   4  -8    7.90    0.56
  -9  -4   8    8.09    0.53
   8   4  -8   -0.07    0.25
  -8  -4   8    0.04    0.24
   7   4  -8    9.64    0.54
   7   4  -8    9.94    0.47
  -7  -4   8   10.37    0.50
   6   4  -8   14.32    0.50
   6   4  -8   14.04    0.63
  -6  -4   8   15.09    0.60
   5   4  -8   44.73    1.27
   5   4  -8   43.84    1.37
  -5  -4   8   45.48    1.35
   4   4  -8    0.01    0.21
   4   4  -8   -0.01    0.12
  -4  -4   8    0.17    0.19
   3   4  -8    4.65    0.38
   3   4  -8    5.66    0.27
  -3  -4   8    5.76    0.26
  -3  -4   8    4.79    0.37
   2   4  -8   22.44    0.70
   2   4  -8   22.22    0.78
  -2  -4   8   22.34    0.76
  -2  -4   8   24.23    0.69
   1   4  -8    1.53    0.23
  -1  -4   8    1.53    0.16
  -1  -4   8    1.31    0.23
   0   4  -8   26.87    0.85
   0  -4   8   25.35    0.87
   0  -4   8   25.02    0.78
  -1   4  -8  110.40    3.04
   1  -4   8  108.35    2.99
   1  -4   8  108.06    3.06
  -2   4  -8   28.24    0.92
   2  -4   8   28.95    0.96
   2  -4   8   27.74    0.87
  -3   4  -8   68.24    1.99
   3  -4   8   68.56    2.02
   3  -4   8   68.56    1.93
  -4   4  -8   59.18    1.77
   4  -4   8   58.57    1.79
   4  -4   8   59.86    1.70
  -5   4  -8    0.72    0.31
   5  -4   8    1.03    0.31
   5  -4   8    0.75    0.22
   9   3  -8    0.07    0.26
   9   3  -8    0.02    0.18
  -9  -3   8   -0.16    0.25
   8   3  -8    1.65    0.20
   8   3  -8    1.71    0.28
  -8  -3   8    1.56    0.27
   7   3  -8   14.50    0.53
   7   3  -8   15.86    0.62
  -7  -3   8   14.57    0.59
   6   3  -8    8.14    0.45
   6   3  -8    8.12    0.35
  -6  -3   8    8.31    0.43
   5   3  -8   30.89    0.96
   5   3  -8   30.06    0.89
  -5  -3   8   29.20    0.94
   4   3  -8   69.61    1.89
   4   3  -8   66.43    1.94
  -4  -3   8   67.84    1.93
   3   3  -8   95.59    2.85
   3   3  -8  104.34    2.80
  -3  -3   8  104.88    2.78
  -3  -3   8  103.93    2.84
   2   3  -8    7.10    0.32
   2   3  -8    5.89    0.39
  -2  -3   8    6.74    0.35
  -2  -3   8    7.64    0.28
   1   3  -8  118.14    3.27
  -1  -3   8  115.38    3.27
  -1  -3   8  120.59    3.21
   0   3  -8    0.75    0.19
   0  -3   8    0.37    0.11
   0  -3   8    0.59    0.14
   0  -3   8    0.58    0.19
  -1   3  -8   16.75    0.59
   1  -3   8   16.40    0.62
   1  -3   8   16.44    0.55
  -2   3  -8   33.55    1.01
   2  -3   8   32.36    0.96
   2  -3   8   31.52    1.02
  -3   3  -8    0.69    0.22
   3  -3   8    0.96    0.24
   3  -3   8    0.85    0.17
  -4   3  -8    3.84    0.32
   4  -3   8    3.77    0.34
   4  -3   8    3.83    0.26
  -5   3  -8    8.55    0.53
   5  -3   8    9.13    0.55
   5  -3   8    8.51    0.42
  -6   3  -8    0.44    0.29
   6  -3   8    0.57    0.21
   6  -3   8    0.67    0.30
   9   2  -8   15.61    0.59
   9   2  -8   15.44    0.65
  -9  -2   8   15.74    0.68
  -9  -2   8   15.98    0.67
   8   2  -8   14.28    0.60
   8   2  -8   13.92    0.53
  -8  -2   8   14.72    0.61
  -8  -2   8   14.17    0.59
   7   2  -8    0.18    0.20
   7   2  -8   -0.06    0.15
  -7  -2   8    0.10    0.19
   6   2  -8    1.22    0.21
   6   2  -8    1.37    0.17
  -6  -2   8    1.34    0.21
   5   2  -8   -0.09    0.17
   5   2  -8    0.13    0.13
  -5  -2   8   -0.01    0.16
   4   2  -8   64.25    1.80
   4   2  -8   65.57    1.84
  -4  -2   8   64.61    1.83
   3   2  -8    2.00    0.16
   3   2  -8    1.74    0.20
  -3  -2   8    1.86    0.18
  -3  -2   8    2.10    0.15
   2   2  -8    5.77    0.29
   2   2  -8    5.35    0.33
  -2  -2   8    5.88    0.24
  -2  -2   8    5.80    0.31
   1   2  -8    6.10    0.34
  -1  -2   8    6.14    0.27
  -1  -2   8    6.27    0.26
  -1  -2   8    6.06    0.32
   0   2  -8    6.66    0.34
   0  -2   8    5.96    0.27
   0  -2   8    5.95    0.33
   0  -2   8    5.93    0.26
  -1   2  -8    0.48    0.16
   1  -2   8    0.39    0.12
   1  -2   8    0.44    0.17
   1  -2   8    0.36    0.10
  -2   2  -8   25.64    0.81
   2  -2   8   24.98    0.76
   2  -2   8   25.46    0.82
  -3   2  -8   43.10    1.28
   3  -2   8   42.96    1.24
   3  -2   8   43.68    1.30
  -4   2  -8   35.61    1.11
   4  -2   8   35.97    1.13
   4  -2   8   35.53    1.05
  -5   2  -8   41.63    1.29
   5  -2   8   41.93    1.22
   5  -2   8   41.84    1.30
  -6   2  -8    8.69    0.53
   6  -2   8    8.99    0.43
   6  -2   8    8.93    0.54
  -7   2  -8    0.20    0.29
   7  -2   8    0.11    0.19
   7  -2   8   -0.16    0.28
   9   1  -8    3.28    0.26
  -9  -1   8    2.98    0.32
  -9  -1   8    3.23    0.33
   8   1  -8    0.93    0.19
   8   1  -8    0.94    0.22
  -8  -1   8    1.03    0.25
  -8  -1   8    0.92    0.24
   7   1  -8   31.29    0.96
   7   1  -8   32.10    0.99
  -7  -1   8   32.26    1.00
  -7  -1   8   31.93    1.01
   6   1  -8   16.78    0.59
   6   1  -8   16.44    0.56
  -6  -1   8   16.51    0.58
  -6  -1   8   16.89    0.61
   5   1  -8    0.04    0.13
   5   1  -8    0.09    0.16
  -5  -1   8    0.20    0.15
  -5  -1   8    0.31    0.17
   4   1  -8   27.67    0.84
   4   1  -8   27.93    0.82
  -4  -1   8   27.86    0.84
   3   1  -8    0.00    0.13
   3   1  -8    0.15    0.11
  -3  -1   8    0.24    0.12
  -3  -1   8    0.12    0.07
  -3  -1   8    0.04    0.14
   2   1  -8   35.83    1.08
   2   1  -8   39.15    1.08
  -2  -1   8   36.67    1.07
  -2  -1   8   36.85    1.07
  -2  -1   8   37.79    1.04
   1   1  -8    0.39    0.14
  -1  -1   8    0.38    0.12
  -1  -1   8    0.44    0.11
  -1  -1   8    0.43    0.10
   0   1  -8    2.51    0.20
   0  -1   8    2.28    0.15
   0  -1   8    2.28    0.19
   0  -1   8    2.15    0.15
  -1   1  -8    5.48    0.29
   1  -1   8    5.30    0.29
   1  -1   8    4.91    0.22
   1  -1   8    5.11    0.24
  -2   1  -8   69.24    1.93
   2  -1   8   67.05    1.90
   2  -1   8   70.06    1.94
  -3   1  -8    1.86    0.19
   3  -1   8    2.06    0.21
   3  -1   8    1.87    0.17
  -4   1  -8    6.52    0.36
   4  -1   8    6.06    0.32
   4  -1   8    7.02    0.39
  -5   1  -8   16.11    0.60
   5  -1   8   15.64    0.54
   5  -1   8   15.29    0.61
  -6   1  -8    4.83    0.34
   6  -1   8    3.67    0.25
   6  -1   8    4.23    0.34
  -7   1  -8   25.78    0.91
   7  -1   8   24.90    0.81
   9   0  -8    8.97    0.45
  -9   0   8    8.34    0.51
   8   0  -8    9.04    0.43
  -8   0   8    8.81    0.47
   7   0  -8    0.14    0.18
   7   0  -8   -0.10    0.15
  -7   0   8    0.07    0.20
   6   0  -8   17.47    0.58
   6   0  -8   17.41    0.59
  -6   0   8   17.23    0.59
  -6   0   8   17.13    0.62
   5   0  -8   74.17    2.06
   5   0  -8   74.29    2.06
  -5   0   8   73.69    2.06
  -5   0   8   74.27    2.08
   4   0  -8   17.28    0.55
   4   0  -8   16.30    0.54
  -4   0   8   17.53    0.58
  -4   0   8   17.46    0.55
   3   0  -8  101.32    2.76
   3   0  -8  103.01    2.77
  -3   0   8   96.31    2.73
  -3   0   8  103.21    2.78
  -3   0   8  102.49    2.77
   2   0  -8  102.92    2.77
   2   0  -8  106.28    2.78
  -2   0   8   97.96    2.77
  -2   0   8  102.53    2.78
  -2   0   8   98.40    2.75
   1   0  -8   11.36    0.39
  -1   0   8   11.57    0.36
  -1   0   8   11.99    0.40
  -1   0   8   11.23    0.39
   0   0  -8    1.94    0.16
   0   0   8    2.02    0.15
   0   0   8    2.01    0.14
   0   0   8    2.24    0.16
  -1   0  -8    3.59    0.23
   1   0   8    2.95    0.18
   1   0   8    3.38    0.22
   1   0   8    3.25    0.19
  -2   0  -8   67.75    1.85
   2   0   8   69.19    1.85
   2   0   8   64.17    1.83
   2   0   8   64.51    1.81
  -3   0  -8   10.77    0.41
   3   0   8   10.93    0.39
   3   0   8   11.18    0.42
  -4   0  -8   24.83    0.79
   4   0   8   25.99    0.81
   4   0   8   25.58    0.76
  -5   0  -8    7.07    0.37
   5   0   8    6.95    0.38
   5   0   8    6.47    0.32
   6   0   8    0.13    0.15
   7   0   8    0.34    0.16
   8   0   8   19.72    0.67
   9  -1  -8   25.94    0.85
  -9   1   8   24.41    0.88
   8  -1  -8    6.79    0.39
  -8   1   8    6.38    0.43
   7  -1  -8   34.83    1.02
  -7   1   8   32.46    1.04
   6  -1  -8    1.65    0.18
  -6   1   8    1.61    0.21
   5  -1  -8   71.19    1.99
   5  -1  -8   71.65    1.99
  -5   1   8   71.64    2.01
   4  -1  -8    2.97    0.20
   4  -1  -8    2.99    0.22
  -4   1   8    2.83    0.21
  -4   1   8    3.10    0.20
   3  -1  -8   32.59    0.91
   3  -1  -8   30.95    0.89
  -3   1   8   31.61    0.90
  -3   1   8   29.51    0.86
  -3   1   8   31.84    0.92
   2  -1  -8   76.34    2.00
   2  -1  -8   70.68    1.97
  -2   1   8   70.52    1.96
  -2   1   8   69.56    1.97
  -2   1   8   74.26    2.00
   1  -1  -8    0.19    0.08
  -1   1   8    0.07    0.04
  -1   1   8    0.05    0.08
  -1   1   8    0.24    0.11
   0  -1  -8    9.89    0.34
   0   1   8   10.63    0.34
   0   1   8   10.75    0.34
   0   1   8   10.70    0.36
  -1  -1  -8  115.10    3.11
   1   1   8  109.95    3.11
   1   1   8  116.68    3.11
   1   1   8  116.78    3.11
  -2  -1  -8   30.00    0.84
   2   1   8   28.83    0.84
   2   1   8   28.74    0.83
   2   1   8   28.22    0.82
  -3  -1  -8  101.50    2.76
   3   1   8  104.11    2.77
   3   1   8  102.76    2.75
   3   1   8   95.52    2.73
  -4  -1  -8  166.94    4.58
   4   1   8  168.37    4.57
   4   1   8  171.15    4.59
   5   1   8   12.09    0.47
   5   1   8   12.98    0.44
   6   1   8   34.04    1.00
   7   1   8    7.13    0.35
   8   1   8    9.97    0.43
   9   1   8    0.32    0.19
   9  -2  -8    0.89    0.22
  -9   2   8    0.64    0.25
   8  -2  -8    0.94    0.20
  -8   2   8    0.77    0.22
   7  -2  -8   15.21    0.56
  -7   2   8   15.71    0.59
   6  -2  -8    0.33    0.16
  -6   2   8    0.13    0.18
   5  -2  -8    9.99    0.39
  -5   2   8   10.01    0.42
   4  -2  -8   75.71    2.11
  -4   2   8   77.22    2.13
   3  -2  -8   81.88    2.26
   3  -2  -8   84.64    2.28
  -3   2   8   82.35    2.29
   2  -2  -8  141.36    3.90
   2  -2  -8  146.08    3.93
  -2   2   8  150.57    3.94
  -2   2   8  141.97    3.90
   1  -2  -8  205.53    5.35
   1  -2  -8  193.18    5.30
  -1   2   8  203.21    5.31
  -1   2   8  186.18    5.31
  -1   2   8  200.35    5.34
   0  -2  -8   74.93    2.06
   0   2   8   78.84    2.08
   0   2   8   73.85    2.06
   0   2   8   77.43    2.09
  -1  -2  -8    3.13    0.15
   1   2   8    3.69    0.15
   1   2   8    3.87    0.19
   1   2   8    3.94    0.18
  -2  -2  -8    9.01    0.29
   2   2   8    8.64    0.30
   2   2   8    7.87    0.28
   2   2   8    8.00    0.29
  -3  -2  -8    2.65    0.17
   3   2   8    2.41    0.18
   3   2   8    2.51    0.15
   4   2   8   36.35    1.04
   4   2   8   38.12    1.06
   5   2   8    7.69    0.32
   6   2   8    8.28    0.34
   7   2   8   15.88    0.54
   8   2   8    0.11    0.16
   9   2   8    7.19    0.38
   8  -3  -8   51.82    1.48
  -8   3   8   48.84    1.49
   7  -3  -8    6.90    0.38
  -7   3   8    6.43    0.39
   6  -3  -8   16.63    0.57
  -6   3   8   16.83    0.59
   5  -3  -8   16.09    0.54
  -5   3   8   15.99    0.56
   4  -3  -8   40.44    1.15
  -4   3   8   40.05    1.17
   3  -3  -8    7.79    0.31
  -3   3   8    7.59    0.33
   2  -3  -8    0.32    0.11
  -2   3   8    0.42    0.12
   1  -3  -8   28.90    0.82
  -1   3   8   28.40    0.78
  -1   3   8   28.78    0.82
  -1   3   8   26.21    0.77
   0   3   8    1.09    0.12
   0   3   8    1.09    0.09
   1   3   8   38.59    1.10
   1   3   8   39.33    1.09
   2   3   8   25.03    0.74
   2   3   8   26.48    0.74
  -3  -3  -8   11.66    0.37
   3   3   8   12.26    0.39
   3   3   8   12.64    0.40
   4   3   8   31.67    0.89
   4   3   8   29.80    0.87
   5   3   8   95.54    2.77
   5   3   8  106.91    2.77
   6   3   8   51.47    1.45
   7   3   8   10.43    0.40
   8   3   8   26.75    0.81
   9   3   8   -0.01    0.16
   8  -4  -8    5.88    0.39
  -8   4   8    4.88    0.39
   7  -4  -8   14.75    0.54
  -7   4   8   13.14    0.55
   6  -4  -8    0.09    0.15
  -6   4   8    0.15    0.18
   5  -4  -8    5.18    0.31
  -5   4   8    5.25    0.33
   4  -4  -8   48.37    1.37
  -4   4   8   48.40    1.39
   3  -4  -8    1.82    0.15
  -3   4   8    2.50    0.19
   2  -4  -8   30.14    0.88
  -2   4   8   30.33    0.89
   1  -4  -8    1.67    0.13
  -1   4   8    1.49    0.14
   0  -4  -8   34.89    0.99
   0   4   8   33.99    0.96
   0   4   8   34.15    0.99
   1   4   8   42.58    1.21
   1   4   8   43.04    1.19
   2   4   8    9.29    0.34
   2   4   8   10.54    0.33
   3   4   8    5.09    0.23
   3   4   8    5.88    0.24
   4   4   8    1.25    0.13
   4   4   8    1.66    0.13
   5   4   8   36.65    1.09
   5   4   8   40.42    1.10
   6   4   8    1.01    0.14
   7   4   8   43.57    1.25
   8   4   8    4.17    0.28
   9   4   8    0.40    0.16
   7  -5  -8   -0.13    0.18
  -7   5   8   -0.07    0.20
   6  -5  -8    1.83    0.21
  -6   5   8    2.14    0.22
   5  -5  -8   23.86    0.75
  -5   5   8   23.83    0.76
   4  -5  -8    1.39    0.16
  -4   5   8    1.33    0.18
   3  -5  -8   34.66    1.00
  -3   5   8   34.53    1.02
   2  -5  -8  116.80    3.19
  -2   5   8  117.29    3.20
   1  -5  -8    0.23    0.10
  -1   5   8    0.31    0.11
   0  -5  -8   26.77    0.79
   0   5   8   27.12    0.80
   1   5   8    0.25    0.10
   1   5   8    0.22    0.08
   2   5   8  113.28    2.99
   2   5   8  107.28    3.00
   3   5   8   17.90    0.53
   3   5   8   17.25    0.54
   4   5   8    4.14    0.21
   4   5   8    3.50    0.22
   5   5   8    5.39    0.27
   5   5   8    6.20    0.26
   6   5   8    0.36    0.12
   6   5   8    0.39    0.13
   7   5   8    3.26    0.24
   8   5   8    0.31    0.15
   9   5   8    1.35    0.18
   7  -6  -8   24.57    0.81
   6  -6  -8    2.39    0.22
  -6   6   8    2.38    0.23
   5  -6  -8   11.30    0.44
  -5   6   8   10.74    0.46
   4  -6  -8    6.22    0.32
  -4   6   8    6.67    0.34
   3  -6  -8   32.64    0.96
  -3   6   8   33.31    0.98
   2  -6  -8   95.06    2.60
  -2   6   8   94.93    2.62
   1  -6  -8    2.45    0.18
  -1   6   8    2.06    0.17
   0  -6  -8    4.57    0.22
   0   6   8    4.77    0.25
  -1  -6  -8   35.72    1.03
   1   6   8   36.72    1.04
   2   6   8    2.86    0.20
   3   6   8    3.82    0.22
   3   6   8    3.80    0.20
   4   6   8  155.56    4.19
   4   6   8  154.20    4.20
   5   6   8   40.80    1.17
   5   6   8   40.72    1.15
   6   6   8   20.68    0.63
   6   6   8   19.92    0.65
   7   6   8   71.67    1.93
   7   6   8   66.89    1.94
   8   6   8   34.82    1.02
   9   6   8    2.56    0.20
   6  -7  -8    3.19    0.25
   5  -7  -8    0.79    0.18
  -5   7   8    1.05    0.19
   4  -7  -8   16.73    0.56
  -4   7   8   16.92    0.59
   3  -7  -8   14.58    0.50
  -3   7   8   15.15    0.52
   2  -7  -8   11.52    0.41
  -2   7   8   11.79    0.44
   1  -7  -8  195.15    5.38
  -1   7   8  203.56    5.40
   0  -7  -8   79.96    2.24
   0   7   8   83.83    2.27
  -1  -7  -8   12.30    0.40
   1   7   8   12.14    0.43
  -2  -7  -8   32.54    0.93
   2   7   8   32.02    0.95
   3   7   8    2.11    0.16
   4   7   8   50.10    1.42
   5   7   8    0.57    0.14
   5   7   8    0.64    0.12
   6   7   8   10.00    0.40
   6   7   8   10.58    0.38
   7   7   8    9.54    0.37
   7   7   8    8.96    0.40
   8   7   8   -0.08    0.13
   8   7   8    0.32    0.18
   9   7   8    0.22    0.14
   5  -8  -8   25.12    0.81
  -5   8   8   25.90    0.82
   4  -8  -8    1.66    0.19
  -4   8   8    1.38    0.20
   3  -8  -8    0.68    0.15
  -3   8   8    1.02    0.18
   2  -8  -8    0.29    0.13
  -2   8   8    0.26    0.15
   1  -8  -8   27.13    0.80
  -1   8   8   27.35    0.83
   0  -8  -8   13.16    0.43
   0   8   8   13.72    0.48
  -1  -8  -8    4.58    0.22
   1   8   8    4.56    0.27
  -2  -8  -8    4.03    0.21
   2   8   8    4.65    0.26
   3   8   8    0.14    0.12
   4   8   8   -0.08    0.13
   5   8   8   43.62    1.26
   6   8   8   64.19    1.81
   7   8   8   21.49    0.71
   8   8   8   30.10    0.95
   4  -9  -8   30.42    0.95
  -4   9   8   32.39    0.97
   3  -9  -8    2.87    0.21
  -3   9   8    3.23    0.24
   2  -9  -8    0.07    0.13
  -2   9   8    0.00    0.16
   1  -9  -8    1.49    0.14
  -1   9   8    1.47    0.19
   0  -9  -8   16.67    0.54
   0   9   8   18.34    0.60
  -1  -9  -8   54.63    1.56
   1   9   8   56.56    1.58
   2   9   8    3.41    0.25
   3   9   8    4.03    0.28
   4   9   8    7.51    0.36
   5   9   8   14.02    0.51
   6   9   8    3.56    0.25
   7   9   8    4.13    0.34
   8   9   8    0.90    0.22
   9   9   8    0.12    0.22
   3 -10  -8    1.00    0.17
  -3  10   8    1.34    0.21
  -2  10   8   22.14    0.73
  -1  10   8    0.45    0.18
   0  10   8    2.78    0.22
   1  10   8   25.85    0.81
   2  10   8   19.34    0.64
   3  10   8   10.00    0.42
   4  10   8    1.52    0.20
   5  10   8   38.02    1.14
   6  10   8    1.43    0.21
   7  10   8    3.32    0.27
   8  10   8   -0.04    0.19
   9  10   8    2.01    0.27
  -2  11   8   49.81    1.46
  -1  11   8    1.90    0.22
   0  11   8   19.23    0.66
   1  11   8   17.54    0.62
   2  11   8    3.78    0.26
   3  11   8    0.04    0.17
   4  11   8   17.48    0.63
   5  11   8    2.94    0.25
   6  11   8   13.36    0.55
   7  11   8   26.89    0.88
   8  11   8    0.26    0.22
  -1  12   8   15.14    0.58
   0  12   8   34.84    1.08
   1  12   8    0.92    0.20
   2  12   8   36.19    1.10
   3  12   8    1.56    0.22
   4  12   8    3.08    0.27
   5  12   8    0.58    0.21
   6  12   8    6.88    0.42
   7  12   8   21.31    0.76
   2  13   8    3.15    0.28
   3  13   8    0.14    0.21
   4  13   8    2.75    0.27
   5  13   8    2.81    0.28
   6  13   8   22.42    0.80
   5   7  -9    6.60    0.58
  -5  -7   9    6.51    0.53
   4   7  -9    2.42    0.36
  -4  -7   9    2.03    0.33
   3   7  -9    2.29    0.34
  -3  -7   9    1.33    0.20
  -3  -7   9    1.27    0.32
   2   7  -9   29.30    1.00
  -2  -7   9   27.47    1.03
  -2  -7   9   27.13    0.88
   1   7  -9    0.98    0.29
  -1  -7   9    0.55    0.21
  -1  -7   9    0.62    0.29
   0   7  -9    1.72    0.30
   0  -7   9    1.56    0.23
   0  -7   9    1.51    0.35
   7   6  -9    6.14    0.49
  -7  -6   9    7.02    0.55
   6   6  -9    1.22    0.35
  -6  -6   9    1.16    0.30
   5   6  -9    9.20    0.61
  -5  -6   9   10.07    0.56
   4   6  -9    0.56    0.29
  -4  -6   9    0.19    0.27
   3   6  -9    3.70    0.36
  -3  -6   9    2.66    0.22
  -3  -6   9    2.61    0.34
   2   6  -9   30.67    1.02
  -2  -6   9   28.36    0.91
  -2  -6   9   30.28    1.04
   1   6  -9    1.23    0.27
  -1  -6   9    0.80    0.28
  -1  -6   9    0.86    0.19
   0   6  -9    1.11    0.27
   0  -6   9    0.84    0.29
   0  -6   9    0.81    0.21
  -1   6  -9   16.91    0.70
   1  -6   9   16.62    0.61
   1  -6   9   15.67    0.71
  -2   6  -9    1.52    0.30
   2  -6   9    1.36    0.24
   2  -6   9    1.69    0.33
   8   5  -9   -0.19    0.30
  -8  -5   9    0.26    0.28
   7   5  -9   17.85    0.81
  -7  -5   9   20.07    0.78
   6   5  -9    0.60    0.31
  -6  -5   9    1.19    0.28
   5   5  -9    0.12    0.27
  -5  -5   9    0.49    0.26
   4   5  -9   37.93    1.29
  -4  -5   9   42.45    1.27
   3   5  -9   34.90    1.13
  -3  -5   9   34.56    1.01
  -3  -5   9   33.69    1.11
   2   5  -9   15.08    0.63
  -2  -5   9   13.49    0.50
  -2  -5   9   13.36    0.61
   1   5  -9   80.61    2.25
  -1  -5   9   76.97    2.17
  -1  -5   9   75.78    2.25
   0   5  -9   44.94    1.35
   0  -5   9   44.71    1.28
   0  -5   9   42.39    1.36
  -1   5  -9    0.43    0.24
   1  -5   9    0.39    0.19
   1  -5   9    0.07    0.26
  -2   5  -9   11.46    0.56
   2  -5   9   11.72    0.60
   2  -5   9   11.28    0.49
  -3   5  -9    1.40    0.29
   3  -5   9    1.76    0.23
   3  -5   9    1.29    0.32
   8   4  -9   18.83    0.79
  -8  -4   9   18.82    0.74
   7   4  -9    9.12    0.56
  -7  -4   9   10.12    0.53
   6   4  -9    6.15    0.49
  -6  -4   9    6.25    0.45
   5   4  -9   27.97    0.93
   5   4  -9   26.28    0.95
  -5  -4   9   28.07    0.92
   4   4  -9    0.10    0.14
   4   4  -9    0.25    0.24
  -4  -4   9    0.26    0.22
   3   4  -9    4.85    0.41
   3   4  -9    4.81    0.29
  -3  -4   9    4.87    0.26
  -3  -4   9    4.55    0.38
   2   4  -9    2.64    0.21
   2   4  -9    3.44    0.30
  -2  -4   9    2.66    0.19
  -2  -4   9    2.57    0.27
   1   4  -9    6.45    0.42
  -1  -4   9    5.15    0.41
  -1  -4   9    5.97    0.31
   0   4  -9    7.33    0.43
   0  -4   9    6.99    0.35
   0  -4   9    6.99    0.45
  -1   4  -9   12.06    0.53
   1  -4   9   11.90    0.56
   1  -4   9   11.18    0.46
  -2   4  -9   10.00    0.49
   2  -4   9    9.56    0.51
   2  -4   9   10.43    0.44
  -3   4  -9   15.88    0.66
   3  -4   9   17.02    0.61
   3  -4   9   16.01    0.70
  -4   4  -9    0.67    0.28
   4  -4   9    0.87    0.21
   4  -4   9    0.79    0.29
   8   3  -9    7.11    0.39
   8   3  -9    7.54    0.52
  -8  -3   9    7.72    0.49
   7   3  -9    0.05    0.16
   7   3  -9    0.12    0.24
  -7  -3   9    0.04    0.22
   6   3  -9    4.18    0.30
   6   3  -9    4.62    0.34
  -6  -3   9    3.66    0.35
   5   3  -9    1.38    0.17
   5   3  -9    1.18    0.25
  -5  -3   9    1.39    0.23
   4   3  -9   20.49    0.63
   4   3  -9   18.44    0.70
  -4  -3   9   19.88    0.69
   3   3  -9    5.98    0.41
   3   3  -9    7.35    0.33
  -3  -3   9    7.55    0.40
  -3  -3   9    7.57    0.29
   2   3  -9   26.00    0.81
   2   3  -9   25.78    0.87
  -2  -3   9   26.94    0.78
  -2  -3   9   26.02    0.85
   1   3  -9    1.37    0.22
  -1  -3   9    1.14    0.15
  -1  -3   9    0.88    0.15
  -1  -3   9    0.85    0.20
   0   3  -9   24.17    0.78
   0  -3   9   23.28    0.72
   0  -3   9   22.29    0.79
  -1   3  -9   47.85    1.39
   1  -3   9   46.80    1.34
   1  -3   9   45.95    1.40
  -2   3  -9    2.65    0.26
   2  -3   9    2.80    0.28
   2  -3   9    2.55    0.21
  -3   3  -9    1.48    0.25
   3  -3   9    1.36    0.27
   3  -3   9    1.50    0.20
  -4   3  -9    6.67    0.45
   4  -3   9    6.96    0.49
   4  -3   9    6.17    0.39
  -5   3  -9    0.51    0.28
   5  -3   9    0.51    0.29
   5  -3   9    0.67    0.21
   9   2  -9   10.94    0.51
   9   2  -9   11.72    0.58
  -9  -2   9   11.97    0.58
  -9  -2   9   11.73    0.62
   8   2  -9   37.65    1.16
   8   2  -9   37.30    1.22
  -8  -2   9   39.50    1.23
  -8  -2   9   40.32    1.22
   7   2  -9    1.66    0.20
   7   2  -9    1.83    0.26
  -7  -2   9    2.20    0.27
  -7  -2   9    1.89    0.25
   6   2  -9   -0.08    0.15
   6   2  -9    0.20    0.20
  -6  -2   9    0.04    0.18
   5   2  -9   18.31    0.65
   5   2  -9   17.53    0.60
  -5  -2   9   18.56    0.64
   4   2  -9    1.82    0.23
   4   2  -9    1.93    0.18
  -4  -2   9    1.78    0.21
   3   2  -9    7.84    0.34
   3   2  -9    7.35    0.39
  -3  -2   9    7.10    0.36
  -3  -2   9    8.04    0.29
   2   2  -9   56.76    1.57
   2   2  -9   51.49    1.59
  -2  -2   9   56.40    1.53
  -2  -2   9   54.95    1.58
  -2  -2   9   56.49    1.56
   1   2  -9    2.11    0.22
  -1  -2   9    1.92    0.16
  -1  -2   9    1.91    0.15
  -1  -2   9    1.78    0.20
   0   2  -9    3.69    0.30
   0  -2   9    2.54    0.23
   0  -2   9    2.64    0.18
   0  -2   9    2.69    0.22
  -1   2  -9   18.22    0.63
   1  -2   9   18.36    0.58
   1  -2   9   17.65    0.64
  -2   2  -9    3.71    0.31
   2  -2   9    3.49    0.33
   2  -2   9    3.67    0.26
  -3   2  -9   28.93    0.91
   3  -2   9   29.73    0.94
   3  -2   9   27.46    0.87
  -4   2  -9    7.24    0.43
   4  -2   9    7.30    0.45
   4  -2   9    7.75    0.39
  -5   2  -9    3.65    0.33
   5  -2   9    3.60    0.34
   5  -2   9    4.00    0.26
  -6   2  -9    2.15    0.32
   6  -2   9    2.49    0.24
   6  -2   9    2.48    0.33
   9   1  -9   17.33    0.66
  -9  -1   9   18.14    0.74
  -9  -1   9   18.00    0.71
   8   1  -9    4.15    0.32
   8   1  -9    4.80    0.33
  -8  -1   9    5.28    0.36
  -8  -1   9    5.25    0.41
   7   1  -9   35.32    1.06
   7   1  -9   35.04    1.09
  -7  -1   9   34.75    1.10
  -7  -1   9   35.22    1.09
   6   1  -9   17.96    0.61
   6   1  -9   17.93    0.63
  -6  -1   9   17.43    0.63
  -6  -1   9   17.95    0.66
   5   1  -9    1.09    0.19
   5   1  -9    1.10    0.17
  -5  -1   9    1.14    0.18
  -5  -1   9    1.17    0.20
   4   1  -9    0.09    0.13
   4   1  -9    0.00    0.15
  -4  -1   9    0.10    0.16
  -4  -1   9    0.16    0.14
   3   1  -9   37.16    1.08
   3   1  -9   37.20    1.07
  -3  -1   9   36.26    1.08
  -3  -1   9   36.57    1.08
  -3  -1   9   36.31    1.03
   2   1  -9   77.66    2.09
   2   1  -9   71.60    2.09
  -2  -1   9   74.41    2.09
  -2  -1   9   75.27    2.07
  -2  -1   9   74.91    2.05
   1   1  -9   10.83    0.45
  -1  -1   9   12.36    0.39
  -1  -1   9   11.63    0.43
  -1  -1   9   11.79    0.41
   0   1  -9    0.49    0.16
   0  -1   9    0.21    0.12
   0  -1   9    0.39    0.15
   0  -1   9    0.46    0.12
  -1   1  -9   27.16    0.81
   1  -1   9   24.33    0.75
   1  -1   9   25.95    0.81
   1  -1   9   26.15    0.77
  -2   1  -9    0.53    0.16
   2  -1   9    0.33    0.13
   2  -1   9    0.26    0.17
  -3   1  -9   14.81    0.54
   3  -1   9   15.14    0.57
   3  -1   9   14.70    0.51
  -4   1  -9   37.09    1.15
   4  -1   9   37.41    1.11
   4  -1   9   39.43    1.17
  -5   1  -9   23.52    0.81
   5  -1   9   24.28    0.76
   5  -1   9   23.68    0.83
  -6   1  -9   12.74    0.59
   6  -1   9   13.08    0.50
   6  -1   9   12.65    0.60
  -7   1  -9   34.70    1.16
   7  -1   9   34.57    1.05
   9   0  -9   14.14    0.59
  -9   0   9   15.05    0.65
  -9   0   9   14.67    0.65
   8   0  -9    2.44    0.24
  -8   0   9    1.88    0.28
  -8   0   9    2.52    0.27
   7   0  -9   68.95    1.90
   7   0  -9   65.25    1.91
  -7   0   9   65.73    1.93
  -7   0   9   67.90    1.92
   6   0  -9   21.12    0.68
   6   0  -9   20.74    0.69
  -6   0   9   20.96    0.69
  -6   0   9   21.61    0.73
   5   0  -9    0.14    0.16
   5   0  -9    0.33    0.15
  -5   0   9    0.33    0.18
  -5   0   9    0.40    0.15
   4   0  -9   55.03    1.56
   4   0  -9   54.67    1.56
  -4   0   9   54.89    1.57
  -4   0   9   55.98    1.56
   3   0  -9   76.65    2.06
   3   0  -9   74.50    2.05
  -3   0   9   73.98    2.06
  -3   0   9   75.00    2.05
  -3   0   9   70.20    2.01
   2   0  -9    8.30    0.36
   2   0  -9    7.93    0.32
  -2   0   9    7.51    0.31
  -2   0   9    7.75    0.28
  -2   0   9    8.15    0.34
   1   0  -9  139.53    3.86
  -1   0   9  147.82    3.86
  -1   0   9  139.19    3.86
  -1   0   9  141.32    3.84
   0   0  -9  174.57    4.91
   0   0   9  184.89    4.91
   0   0   9  180.53    4.89
   0   0   9  185.25    4.90
  -1   0  -9   22.72    0.68
   1   0   9   21.06    0.64
   1   0   9   21.60    0.67
   1   0   9   20.90    0.65
  -2   0  -9   77.75    2.10
   2   0   9   77.14    2.11
   2   0   9   75.75    2.09
   2   0   9   72.37    2.07
  -3   0  -9   17.20    0.56
   3   0   9   16.24    0.56
   3   0   9   16.43    0.54
  -4   0  -9   23.58    0.77
   4   0   9   24.18    0.78
   4   0   9   24.76    0.75
  -5   0  -9   -0.06    0.17
   5   0   9    0.21    0.15
   5   0   9    0.05    0.19
  -6   0  -9    0.27    0.22
   6   0   9    0.35    0.16
   6   0   9    0.30    0.22
  -7   0  -9    5.76    0.46
   7   0   9    6.37    0.36
  -8   0  -9    0.52    0.29
   8   0   9    0.73    0.20
   8  -1  -9   25.16    0.83
  -8   1   9   25.70    0.88
   7  -1  -9   21.79    0.73
  -7   1   9   22.22    0.77
   6  -1  -9   19.92    0.66
  -6   1   9   19.17    0.68
   5  -1  -9  113.22    3.11
   5  -1  -9  112.73    3.10
  -5   1   9  113.92    3.13
  -5   1   9  113.21    3.11
   4  -1  -9   14.78    0.49
   4  -1  -9   14.77    0.51
  -4   1   9   15.06    0.49
  -4   1   9   14.61    0.53
   3  -1  -9    1.33    0.15
   3  -1  -9    1.41    0.14
  -3   1   9    1.20    0.17
  -3   1   9    1.23    0.09
  -3   1   9    1.29    0.14
   2  -1  -9    0.41    0.10
   2  -1  -9    0.13    0.13
  -2   1   9    0.47    0.09
  -2   1   9    0.35    0.13
  -2   1   9    0.33    0.10
   1  -1  -9   58.86    1.60
  -1   1   9   57.67    1.60
  -1   1   9   55.91    1.61
  -1   1   9   60.40    1.63
   0  -1  -9   28.87    0.85
   0   1   9   29.83    0.85
   0   1   9   30.85    0.87
  -1  -1  -9    7.29    0.28
   1   1   9    6.76    0.27
   1   1   9    7.06    0.27
   1   1   9    5.28    0.25
  -2  -1  -9   27.28    0.77
   2   1   9   25.57    0.76
   2   1   9   25.53    0.76
   2   1   9   25.16    0.75
  -3  -1  -9    9.45    0.36
   3   1   9    9.58    0.35
   3   1   9    9.41    0.36
  -4  -1  -9    0.21    0.14
   4   1   9    0.36    0.15
   4   1   9    0.09    0.13
  -5  -1  -9   60.62    1.70
   5   1   9   60.06    1.67
   5   1   9   58.32    1.70
   6   1   9   72.94    2.03
   7   1   9   34.86    1.04
   8   1   9   48.43    1.41
   8  -2  -9   11.69    0.49
  -8   2   9   10.69    0.53
   7  -2  -9    0.94    0.20
  -7   2   9    1.19    0.22
   6  -2  -9    2.78    0.22
  -6   2   9    3.37    0.26
   5  -2  -9   28.90    0.88
  -5   2   9   29.41    0.91
   4  -2  -9    9.50    0.38
  -4   2   9    9.69    0.42
   3  -2  -9    7.68    0.32
   3  -2  -9    7.19    0.27
  -3   2   9    7.36    0.33
  -3   2   9    7.23    0.28
  -3   2   9    6.69    0.23
   2  -2  -9   37.04    1.04
  -2   2   9   38.57    1.08
  -2   2   9   37.05    1.05
  -2   2   9   37.31    1.04
   1  -2  -9    1.88    0.12
   1  -2  -9    2.40    0.19
  -1   2   9    1.90    0.14
  -1   2   9    2.02    0.13
  -1   2   9    2.38    0.17
   0  -2  -9   18.32    0.53
   0   2   9   18.86    0.55
   0   2   9   18.79    0.58
   0   2   9   19.13    0.56
  -1  -2  -9  136.68    3.92
   1   2   9  151.26    3.94
   1   2   9  142.77    3.93
   1   2   9  151.70    3.94
  -2  -2  -9   52.57    1.36
   2   2   9   48.41    1.37
   2   2   9   46.42    1.35
   2   2   9   48.82    1.36
  -3  -2  -9   17.31    0.53
   3   2   9   17.17    0.52
   3   2   9   16.95    0.53
   3   2   9   17.33    0.54
  -4  -2  -9   30.25    0.90
   4   2   9   31.38    0.90
   5   2   9    0.43    0.14
   6   2   9    9.43    0.38
   7   2   9    4.45    0.30
   8   2   9    0.23    0.17
   8  -3  -9   23.54    0.79
  -8   3   9   22.63    0.81
   7  -3  -9    2.57    0.24
  -7   3   9    2.48    0.26
   6  -3  -9    0.09    0.16
  -6   3   9    0.11    0.19
   5  -3  -9    1.19    0.17
  -5   3   9    1.09    0.19
   4  -3  -9    7.72    0.35
  -4   3   9    7.33    0.37
   3  -3  -9   10.84    0.40
  -3   3   9   10.70    0.42
   2  -3  -9   18.11    0.57
  -2   3   9   17.53    0.52
  -2   3   9   18.42    0.58
   1  -3  -9   14.42    0.48
  -1   3   9   13.85    0.43
  -1   3   9   14.04    0.47
   0   3   9   16.90    0.51
   0   3   9   16.96    0.54
   1   3   9   64.11    1.75
   1   3   9   62.82    1.76
   2   3   9    0.36    0.10
   2   3   9    0.28    0.10
   3   3   9   20.42    0.61
   3   3   9   19.63    0.60
   4   3   9    0.48    0.10
   4   3   9    0.34    0.12
   5   3   9    9.28    0.37
   6   3   9    5.69    0.30
   7   3   9   32.87    0.98
   8   3   9    4.74    0.32
   9   3   9    2.52    0.22
   8  -4  -9    0.12    0.20
  -8   4   9    0.11    0.23
   7  -4  -9   17.22    0.62
  -7   4   9   16.54    0.64
   6  -4  -9   35.27    1.07
  -6   4   9   35.92    1.09
   5  -4  -9    6.52    0.35
  -5   4   9    6.17    0.36
   4  -4  -9   10.20    0.41
  -4   4   9   10.86    0.43
   3  -4  -9    1.00    0.14
  -3   4   9    0.88    0.17
   2  -4  -9  128.44    3.49
  -2   4   9  127.45    3.49
   1  -4  -9    4.38    0.25
  -1   4   9    4.62    0.19
  -1   4   9    4.41    0.25
   0  -4  -9   15.87    0.53
   0   4   9   15.64    0.47
   0   4   9   15.66    0.51
   1   4   9   72.31    1.97
   1   4   9   71.39    1.98
   2   4   9    2.43    0.18
   2   4   9    1.78    0.14
   3   4   9    0.83    0.12
   3   4   9    0.66    0.11
   4   4   9    8.79    0.33
   4   4   9    8.67    0.32
   5   4   9    2.02    0.15
   5   4   9    1.75    0.16
   6   4   9    8.88    0.36
   7   4   9   45.39    1.30
   8   4   9    9.82    0.41
   9   4   9    0.28    0.18
   7  -5  -9   28.12    0.89
  -7   5   9   26.39    0.89
   6  -5  -9   55.05    1.57
  -6   5   9   54.07    1.58
   5  -5  -9    0.82    0.17
  -5   5   9    0.55    0.18
   4  -5  -9   66.12    1.86
  -4   5   9   66.90    1.88
   3  -5  -9   18.47    0.60
  -3   5   9   18.76    0.62
   2  -5  -9    0.07    0.12
  -2   5   9   -0.02    0.14
   1  -5  -9   59.57    1.66
  -1   5   9   59.10    1.67
   0  -5  -9  128.37    3.50
   0   5   9  128.53    3.50
   1   5   9   81.48    2.22
   1   5   9   79.59    2.20
   2   5   9  127.48    3.45
   2   5   9  127.11    3.47
   3   5   9   70.33    1.94
   4   5   9   11.09    0.38
   4   5   9   10.34    0.38
   5   5   9    0.17    0.12
   5   5   9    0.10    0.12
   6   5   9    2.03    0.17
   6   5   9    1.74    0.17
   7   5   9   26.46    0.81
   8   5   9    0.29    0.16
   9   5   9    1.22    0.19
   7  -6  -9    0.12    0.19
   6  -6  -9    9.37    0.43
  -6   6   9    9.60    0.46
   5  -6  -9   77.14    2.16
  -5   6   9   77.27    2.18
   4  -6  -9   48.87    1.43
  -4   6   9   51.50    1.46
   3  -6  -9   20.88    0.66
  -3   6   9   20.72    0.68
   2  -6  -9    8.92    0.36
  -2   6   9    9.21    0.39
   1  -6  -9    5.15    0.25
  -1   6   9    4.70    0.28
   0  -6  -9   50.12    1.42
   0   6   9   51.03    1.44
  -1  -6  -9    0.09    0.12
   1   6   9    0.07    0.12
   2   6   9   75.63    2.09
   2   6   9   77.29    2.12
   3   6   9   21.87    0.66
   3   6   9   20.82    0.64
   4   6   9    6.00    0.26
   4   6   9    5.83    0.28
   5   6   9   17.04    0.55
   5   6   9   16.82    0.54
   6   6   9   21.34    0.65
   6   6   9   20.11    0.66
   7   6   9   26.01    0.79
   8   6   9   61.23    1.72
   9   6   9   44.75    1.30
   6  -7  -9    0.12    0.18
  -6   7   9   -0.19    0.19
   5  -7  -9   20.98    0.70
  -5   7   9   21.31    0.72
   4  -7  -9    5.33    0.32
  -4   7   9    5.36    0.34
   3  -7  -9    2.78    0.20
  -3   7   9    3.03    0.23
   2  -7  -9   30.48    0.91
  -2   7   9   31.64    0.95
   1  -7  -9    6.62    0.29
  -1   7   9    6.65    0.33
   0  -7  -9    1.99    0.16
   0   7   9    2.27    0.19
  -1  -7  -9  108.82    3.00
   1   7   9  110.59    3.01
   2   7   9   77.53    2.15
   3   7   9   21.89    0.68
   4   7   9  117.91    3.19
   4   7   9  116.58    3.21
   5   7   9    8.11    0.32
   5   7   9    7.49    0.34
   6   7   9    0.27    0.15
   6   7   9    0.38    0.14
   7   7   9    3.82    0.26
   7   7   9    3.50    0.25
   8   7   9    1.87    0.19
   9   7   9    2.45    0.21
   5  -8  -9    3.01    0.24
  -5   8   9    3.18    0.26
   4  -8  -9    8.45    0.38
  -4   8   9    7.33    0.41
   3  -8  -9   28.44    0.87
  -3   8   9   29.43    0.91
   2  -8  -9    1.36    0.16
  -2   8   9    0.92    0.19
   1  -8  -9    3.52    0.24
  -1   8   9    3.66    0.28
   0  -8  -9    0.84    0.13
   0   8   9    0.92    0.17
  -1  -8  -9   33.62    0.99
   1   8   9   35.25    1.02
  -2  -8  -9    1.19    0.14
   2   8   9    1.11    0.16
   3   8   9    2.94    0.21
   4   8   9    7.45    0.35
   5   8   9   19.00    0.63
   6   8   9   16.82    0.58
   7   8   9    3.20    0.25
   8   8   9    0.34    0.16
   8   8   9    0.29    0.19
   9   8   9    0.89    0.17
   4  -9  -9    8.88    0.40
  -4   9   9    9.06    0.43
   3  -9  -9    9.62    0.41
  -3   9   9   10.60    0.45
   2  -9  -9   10.03    0.39
  -2   9   9   10.39    0.44
   1  -9  -9    2.81    0.23
  -1   9   9    3.00    0.23
   0  -9  -9    5.28    0.26
   0   9   9    6.17    0.33
  -1  -9  -9   63.79    1.83
   1   9   9   68.68    1.87
  -2  -9  -9    0.94    0.12
   2   9   9    0.63    0.16
  -3  -9  -9    3.93    0.23
   3   9   9    4.03    0.30
   4   9   9    0.23    0.16
   5   9   9    0.60    0.17
   6   9   9    7.73    0.39
   7   9   9   12.16    0.50
   8   9   9    3.12    0.27
  -3  10   9    9.63    0.46
  -2  10   9    1.64    0.22
  -1  10   9    0.68    0.19
   0  10   9   15.10    0.55
   1  10   9    2.72    0.22
   2  10   9   37.96    1.14
   3  10   9   45.25    1.32
   4  10   9    2.00    0.21
   5  10   9    4.65    0.34
   6  10   9    0.34    0.19
   7  10   9   30.49    0.97
   8  10   9    5.66    0.41
   9  10   9    0.51    0.24
  -2  11   9   30.44    0.96
  -1  11   9    0.88    0.21
   0  11   9    3.03    0.25
   1  11   9    0.14    0.19
   2  11   9   24.02    0.79
   3  11   9   41.39    1.24
   4  11   9    4.55    0.35
   5  11   9    5.52    0.38
   6  11   9    4.83    0.38
   7  11   9   -0.09    0.21
   8  11   9   16.33    0.65
   0  12   9    2.77    0.26
   1  12   9    9.78    0.47
   2  12   9    8.56    0.45
   3  12   9    3.56    0.28
   4  12   9   46.90    1.39
   5  12   9   19.32    0.70
   6  12   9    4.66    0.32
   7  12   9    8.00    0.47
   2  13   9    0.47    0.22
   3  13   9   -0.09    0.21
   4  13   9    9.58    0.50
   5  13   9    0.50    0.22
   5   6 -10   36.18    1.27
  -5  -6  10   38.76    1.26
   4   6 -10    8.86    0.59
  -4  -6  10    6.87    0.54
   3   6 -10    3.53    0.37
  -3  -6  10    3.20    0.35
   2   6 -10   16.51    0.71
  -2  -6  10   16.10    0.73
  -2  -6  10   15.69    0.59
   1   6 -10    0.85    0.28
  -1  -6  10    0.53    0.20
  -1  -6  10    0.65    0.30
   0   6 -10    5.62    0.48
   0  -6  10    4.16    0.40
   0  -6  10    4.87    0.31
   7   5 -10    0.81    0.34
  -7  -5  10    1.35    0.31
   6   5 -10    4.98    0.44
  -6  -5  10    5.74    0.49
   5   5 -10   13.08    0.68
  -5  -5  10   14.55    0.66
   4   5 -10    0.57    0.30
  -4  -5  10    0.16    0.26
   3   5 -10    8.93    0.54
  -3  -5  10    8.49    0.52
   2   5 -10   14.71    0.64
  -2  -5  10   12.96    0.50
  -2  -5  10   13.15    0.61
   1   5 -10    1.38    0.27
  -1  -5  10    0.82    0.26
  -1  -5  10    0.31    0.19
   0   5 -10    2.61    0.29
   0  -5  10    2.41    0.31
   0  -5  10    2.33    0.23
  -1   5 -10   57.45    1.71
   1  -5  10   56.44    1.73
   1  -5  10   57.99    1.65
  -2   5 -10   12.59    0.61
   2  -5  10   12.82    0.65
   2  -5  10   13.00    0.54
   7   4 -10    5.06    0.42
  -7  -4  10    5.88    0.48
   6   4 -10    4.75    0.40
  -6  -4  10    5.01    0.44
   5   4 -10    1.10    0.30
  -5  -4  10    1.35    0.27
   4   4 -10   13.27    0.64
  -4  -4  10   14.87    0.62
   3   4 -10   24.76    0.87
  -3  -4  10   23.46    0.84
   2   4 -10    1.29    0.30
   2   4 -10    2.09    0.28
  -2  -4  10    1.71    0.18
  -2  -4  10    1.66    0.25
   1   4 -10    2.73    0.29
  -1  -4  10    1.90    0.28
  -1  -4  10    2.25    0.20
   0   4 -10    3.39    0.30
   0  -4  10    3.66    0.31
   0  -4  10    3.56    0.24
  -1   4 -10   14.13    0.60
   1  -4  10   14.35    0.54
   1  -4  10   14.75    0.63
  -2   4 -10    0.62    0.24
   2  -4  10    0.45    0.26
   2  -4  10    0.52    0.19
  -3   4 -10    2.13    0.29
   3  -4  10    1.61    0.23
   3  -4  10    1.91    0.32
   4  -4  10    0.88    0.31
   8   3 -10    3.09    0.37
   8   3 -10    3.23    0.26
  -8  -3  10    3.75    0.34
  -8  -3  10    3.73    0.34
   7   3 -10    8.17    0.54
   7   3 -10    8.84    0.42
  -7  -3  10    9.52    0.51
  -7  -3  10    8.52    0.51
   6   3 -10    8.07    0.39
   6   3 -10    7.52    0.50
  -6  -3  10    8.33    0.47
   5   3 -10    1.77    0.29
   5   3 -10    2.29    0.21
  -5  -3  10    2.34    0.27
   4   3 -10   10.34    0.43
   4   3 -10    9.98    0.52
  -4  -3  10   11.09    0.48
   3   3 -10    4.12    0.32
   3   3 -10    4.19    0.29
  -3  -3  10    3.75    0.36
  -3  -3  10    3.92    0.31
   2   3 -10   14.96    0.54
   2   3 -10   14.62    0.60
  -2  -3  10   14.42    0.49
  -2  -3  10   14.07    0.57
  -2  -3  10   14.43    0.52
   1   3 -10   16.62    0.60
  -1  -3  10   14.86    0.50
  -1  -3  10   13.65    0.58
  -1  -3  10   13.47    0.50
   0   3 -10    0.49    0.21
   0  -3  10   -0.03    0.20
   0  -3  10    0.36    0.16
  -1   3 -10   17.63    0.63
   1  -3  10   16.12    0.66
   1  -3  10   16.88    0.58
  -2   3 -10    1.01    0.23
   2  -3  10    0.59    0.24
   2  -3  10    0.86    0.19
  -3   3 -10   11.15    0.53
   3  -3  10   11.63    0.57
   3  -3  10   11.88    0.50
  -4   3 -10    4.06    0.35
   4  -3  10    4.49    0.37
   4  -3  10    4.50    0.30
  -5   3 -10   -0.35    0.26
   5  -3  10    0.24    0.28
   5  -3  10    0.00    0.21
   8   2 -10   -0.02    0.20
   8   2 -10    0.27    0.27
  -8  -2  10    0.22    0.25
  -8  -2  10    0.08    0.26
   7   2 -10    8.03    0.50
   7   2 -10    8.22    0.42
  -7  -2  10    8.29    0.50
  -7  -2  10    7.73    0.47
   6   2 -10   58.96    1.69
   6   2 -10   57.99    1.73
  -6  -2  10   59.37    1.72
  -6  -2  10   60.13    1.73
   5   2 -10   10.03    0.42
   5   2 -10    9.23    0.47
  -5  -2  10    9.34    0.45
  -5  -2  10    9.84    0.48
   4   2 -10    0.16    0.16
   4   2 -10    0.29    0.21
  -4  -2  10    0.20    0.18
  -4  -2  10    0.63    0.19
   3   2 -10   36.83    1.06
   3   2 -10   33.30    1.09
  -3  -2  10   36.41    1.06
  -3  -2  10   36.10    1.09
   2   2 -10    0.19    0.17
   2   2 -10    0.11    0.19
  -2  -2  10    0.21    0.17
  -2  -2  10    0.24    0.15
  -2  -2  10    0.28    0.12
   1   2 -10   10.81    0.46
  -1  -2  10    9.92    0.39
  -1  -2  10   10.22    0.44
  -1  -2  10    9.82    0.38
   0   2 -10   73.75    1.99
   0  -2  10   69.31    1.99
   0  -2  10   69.12    1.94
   0  -2  10   66.50    1.93
  -1   2 -10    6.29    0.36
   1  -2  10    6.39    0.38
   1  -2  10    5.33    0.32
  -2   2 -10   42.17    1.26
   2  -2  10   42.15    1.28
   2  -2  10   43.11    1.24
  -3   2 -10   70.87    2.03
   3  -2  10   71.04    2.00
   3  -2  10   71.64    2.06
  -4   2 -10    0.46    0.23
   4  -2  10    0.36    0.19
   4  -2  10    0.20    0.24
  -5   2 -10    0.81    0.27
   5  -2  10    0.90    0.28
   5  -2  10    0.87    0.21
   6  -2  10    0.29    0.36
   8   1 -10   13.55    0.56
   8   1 -10   12.95    0.60
  -8  -1  10   14.50    0.63
  -8  -1  10   13.90    0.59
   7   1 -10    6.23    0.43
   7   1 -10    5.95    0.38
  -7  -1  10    6.51    0.41
  -7  -1  10    6.51    0.46
   6   1 -10    4.42    0.32
   6   1 -10    4.38    0.31
  -6  -1  10    4.16    0.31
  -6  -1  10    4.23    0.34
   5   1 -10   87.86    2.47
   5   1 -10   86.37    2.45
  -5  -1  10   87.37    2.47
  -5  -1  10   91.03    2.48
   4   1 -10   13.98    0.51
   4   1 -10   13.84    0.52
  -4  -1  10   13.76    0.53
  -4  -1  10   13.69    0.51
   3   1 -10   28.69    0.89
   3   1 -10   29.56    0.88
  -3  -1  10   28.81    0.88
  -3  -1  10   27.79    0.88
   2   1 -10   93.05    2.53
   2   1 -10   86.17    2.52
  -2  -1  10   92.50    2.48
  -2  -1  10   89.28    2.52
  -2  -1  10   93.56    2.51
   1   1 -10    1.25    0.19
  -1  -1  10    1.26    0.17
  -1  -1  10    1.41    0.16
  -1  -1  10    1.25    0.14
   0   1 -10   21.69    0.69
   0  -1  10   20.29    0.64
   0  -1  10   20.94    0.65
   0  -1  10   20.93    0.69
  -1   1 -10    0.44    0.17
   1  -1  10    0.10    0.14
   1  -1  10    0.49    0.17
  -2   1 -10   10.63    0.43
   2  -1  10   10.25    0.42
   2  -1  10   10.35    0.45
  -3   1 -10   12.30    0.49
   3  -1  10   12.59    0.47
   3  -1  10   11.98    0.51
  -4   1 -10    0.11    0.19
   4  -1  10    0.06    0.21
   4  -1  10    0.17    0.16
  -5   1 -10    3.35    0.30
   5  -1  10    3.15    0.30
   5  -1  10    3.36    0.25
  -6   1 -10   18.75    0.84
   6  -1  10   20.14    0.68
   8   0 -10    1.85    0.24
  -8   0  10    2.36    0.30
  -8   0  10    1.93    0.27
   7   0 -10    3.11    0.25
   7   0 -10    2.99    0.27
  -7   0  10    2.87    0.27
  -7   0  10    3.39    0.30
   6   0 -10    0.18    0.17
   6   0 -10    0.25    0.18
  -6   0  10    0.32    0.21
  -6   0  10    0.31    0.18
   5   0 -10   25.96    0.82
   5   0 -10   26.00    0.82
  -5   0  10   25.96    0.82
  -5   0  10   26.35    0.85
   4   0 -10   23.07    0.73
   4   0 -10   22.99    0.73
  -4   0  10   23.26    0.75
  -4   0  10   23.25    0.72
   3   0 -10   13.03    0.48
   3   0 -10   12.74    0.46
  -3   0  10   13.03    0.50
  -3   0  10   13.56    0.46
   2   0 -10   22.24    0.72
   2   0 -10   20.99    0.67
  -2   0  10   21.66    0.68
  -2   0  10   21.30    0.64
  -2   0  10   22.48    0.69
   1   0 -10    2.71    0.23
  -1   0  10    3.11    0.20
  -1   0  10    2.72    0.23
  -1   0  10    3.04    0.24
   0   0 -10    0.31    0.14
   0   0  10    0.17    0.13
   0   0  10    0.02    0.12
   0   0  10    0.20    0.12
  -1   0 -10   58.59    1.57
   1   0  10   53.69    1.54
   1   0  10   53.54    1.54
   1   0  10   55.29    1.56
  -2   0 -10   46.83    1.32
   2   0  10   45.62    1.31
   2   0  10   45.94    1.33
  -3   0 -10   52.83    1.51
   3   0  10   53.13    1.53
   3   0  10   53.05    1.50
  -4   0 -10   90.93    2.52
   4   0  10   91.28    2.49
   4   0  10   88.45    2.65
  -5   0 -10   34.11    1.13
   5   0  10   35.98    1.05
   6   0  10    0.39    0.18
   7   0  10    8.27    0.41
   8  -1 -10    5.72    0.41
  -8   1  10    6.78    0.47
  -8   1  10    6.50    0.53
   7  -1 -10    2.71    0.25
  -7   1  10    3.29    0.29
  -7   1  10    2.76    0.26
   6  -1 -10    0.50    0.18
   6  -1 -10    0.42    0.18
  -6   1  10    0.54    0.17
  -6   1  10    0.16    0.20
   5  -1 -10    9.73    0.41
   5  -1 -10    9.35    0.39
  -5   1  10    9.40    0.45
  -5   1  10    9.54    0.39
   4  -1 -10    4.92    0.31
   4  -1 -10    5.21    0.28
  -4   1  10    5.21    0.28
  -4   1  10    5.65    0.33
   3  -1 -10   47.12    1.35
   3  -1 -10   48.54    1.38
  -3   1  10   48.76    1.38
  -3   1  10   47.42    1.35
   2  -1 -10    2.07    0.18
   2  -1 -10    2.07    0.20
  -2   1  10    2.32    0.19
  -2   1  10    2.36    0.16
  -2   1  10    2.31    0.19
   1  -1 -10   36.79    1.09
   1  -1 -10   38.22    1.15
  -1   1  10   40.67    1.11
  -1   1  10   38.05    1.08
   0  -1 -10   16.98    0.66
   0   1  10   20.03    0.59
   0   1  10   18.71    0.57
   1   1  10   19.71    0.60
   1   1  10   19.03    0.59
   2   1  10    6.82    0.28
   2   1  10    7.25    0.31
   3   1  10    6.01    0.29
   4   1  10   20.35    0.65
   5   1  10    0.36    0.16
   6   1  10   11.66    0.47
   7   1  10    4.44    0.33
   8  -2 -10    3.67    0.29
  -8   2  10    3.45    0.31
   7  -2 -10    3.47    0.27
  -7   2  10    3.24    0.29
   6  -2 -10   12.13    0.50
  -6   2  10   12.11    0.51
   5  -2 -10    0.33    0.17
  -5   2  10    0.37    0.19
   4  -2 -10   10.01    0.42
   4  -2 -10    9.74    0.43
  -4   2  10   10.48    0.43
   3  -2 -10   55.98    1.58
  -3   2  10   55.42    1.59
   2  -2 -10    6.91    0.34
  -2   2  10    7.00    0.32
  -2   2  10    6.34    0.25
   1  -2 -10   22.36    0.73
  -1   2  10   23.02    0.70
  -1   2  10   22.18    0.66
   0   2  10    2.47    0.16
   0   2  10    2.81    0.21
   1   2  10   83.45    2.27
   1   2  10   81.96    2.27
   2   2  10    5.65    0.26
   2   2  10    5.97    0.27
   3   2  10   17.79    0.54
   3   2  10   17.80    0.57
   4   2  10    1.98    0.17
   5   2  10   15.50    0.53
   6   2  10   12.14    0.47
   7   2  10    3.10    0.23
   8   2  10   -0.07    0.18
   8  -3 -10    6.79    0.42
   7  -3 -10    2.31    0.25
  -7   3  10    2.49    0.28
   6  -3 -10   44.68    1.31
  -6   3  10   44.60    1.34
   5  -3 -10   12.15    0.48
  -5   3  10   12.39    0.50
   4  -3 -10   41.83    1.22
  -4   3  10   41.81    1.23
   3  -3 -10   51.04    1.45
  -3   3  10   50.68    1.46
   2  -3 -10    1.89    0.18
  -2   3  10    2.28    0.19
  -2   3  10    2.24    0.15
   1  -3 -10    4.40    0.29
  -1   3  10    4.07    0.20
  -1   3  10    4.59    0.27
   0   3  10   20.86    0.63
   0   3  10   19.96    0.61
   1   3  10    0.68    0.12
   1   3  10    0.72    0.13
   2   3  10   32.40    0.94
   2   3  10   32.74    0.94
   3   3  10  106.80    2.93
   3   3  10  108.35    2.94
   4   3  10   10.33    0.39
   5   3  10    8.24    0.35
   6   3  10    4.24    0.28
   7   3  10    7.04    0.37
   8   3  10   10.64    0.45
   7  -4 -10    4.54    0.37
  -7   4  10    4.22    0.32
   6  -4 -10    0.15    0.18
  -6   4  10    0.17    0.20
   5  -4 -10   25.84    0.82
  -5   4  10   26.28    0.84
   4  -4 -10   29.74    0.89
  -4   4  10   28.53    0.90
   3  -4 -10   30.49    0.91
  -3   4  10   30.02    0.93
   2  -4 -10  125.78    3.44
  -2   4  10  125.75    3.44
  -1   4  10   18.13    0.55
  -1   4  10   18.93    0.60
   0  -4 -10   15.74    0.57
   0   4  10   16.07    0.53
   0   4  10   15.88    0.49
   1   4  10    0.33    0.13
   1   4  10    0.50    0.11
   2   4  10   13.57    0.45
   2   4  10   13.88    0.46
   3   4  10   91.32    2.47
   3   4  10   89.09    2.47
   4   4  10    1.97    0.17
   4   4  10    2.10    0.16
   5   4  10    2.04    0.17
   6   4  10   20.69    0.66
   7   4  10    0.14    0.16
   8   4  10    9.30    0.42
   9   4  10   39.45    1.17
   7  -5 -10   16.80    0.64
  -7   5  10   17.05    0.66
   6  -5 -10    3.19    0.25
  -6   5  10    3.05    0.28
   5  -5 -10    7.29    0.39
  -5   5  10    7.62    0.40
   4  -5 -10   27.61    0.85
  -4   5  10   27.43    0.87
   3  -5 -10    3.89    0.28
  -3   5  10    4.51    0.31
   2  -5 -10   48.31    1.38
  -2   5  10   48.67    1.40
   1  -5 -10   42.50    1.23
  -1   5  10   42.94    1.24
   0  -5 -10    3.22    0.27
   0   5  10    3.15    0.26
   0   5  10    3.47    0.19
   1   5  10   16.91    0.53
   1   5  10   17.33    0.56
   2   5  10   25.39    0.75
   2   5  10   25.37    0.77
   3   5  10   14.42    0.48
   4   5  10  165.46    4.56
   4   5  10  170.64    4.55
   5   5  10   61.71    1.70
   5   5  10   59.47    1.70
   6   5  10   22.95    0.72
   7   5  10   30.17    0.91
   8   5  10    0.86    0.18
   9   5  10    2.87    0.23
   6  -6 -10    5.19    0.37
  -6   6  10    4.97    0.33
   5  -6 -10   17.88    0.64
  -5   6  10   18.91    0.67
   4  -6 -10    0.07    0.16
  -4   6  10    0.37    0.19
   3  -6 -10   33.89    1.01
  -3   6  10   34.78    1.04
   2  -6 -10    2.36    0.19
  -2   6  10    2.33    0.21
   1  -6 -10   51.14    1.46
  -1   6  10   52.22    1.48
   0  -6 -10   93.13    2.60
   0   6  10   95.62    2.61
  -1  -6 -10   19.68    0.66
   1   6  10   20.70    0.65
   2   6  10    6.40    0.27
   2   6  10    6.05    0.31
   3   6  10    1.05    0.14
   3   6  10    0.92    0.15
   4   6  10   28.80    0.86
   4   6  10   28.89    0.85
   5   6  10   11.64    0.42
   5   6  10   11.77    0.44
   6   6  10    7.43    0.35
   6   6  10    8.37    0.36
   7   6  10    0.75    0.16
   8   6  10    0.62    0.18
   9   6  10    0.33    0.18
   6  -7 -10    0.77    0.21
  -6   7  10    0.81    0.23
   5  -7 -10    2.25    0.22
  -5   7  10    2.37    0.25
   4  -7 -10   -0.20    0.16
  -4   7  10   -0.16    0.19
   3  -7 -10   23.68    0.75
  -3   7  10   24.09    0.78
   2  -7 -10    5.67    0.30
  -2   7  10    5.66    0.34
   1  -7 -10    1.58    0.16
  -1   7  10    1.61    0.19
   0  -7 -10    5.88    0.29
   0   7  10    5.56    0.32
  -1  -7 -10    8.94    0.37
   1   7  10    9.01    0.38
   2   7  10   45.80    1.32
   3   7  10    0.84    0.15
   3   7  10    0.83    0.13
   4   7  10    1.79    0.16
   4   7  10    2.03    0.18
   5   7  10    0.64    0.14
   5   7  10    0.89    0.16
   6   7  10   50.29    1.46
   6   7  10   51.24    1.44
   7   7  10    0.84    0.17
   7   7  10    0.99    0.23
   8   7  10    8.45    0.39
   9   7  10    2.38    0.22
   5  -8 -10    0.32    0.19
  -5   8  10    0.38    0.21
   4  -8 -10   19.43    0.67
  -4   8  10   21.18    0.71
   3  -8 -10   56.18    1.62
  -3   8  10   58.16    1.65
   2  -8 -10    2.72    0.20
  -2   8  10    2.64    0.23
   1  -8 -10    3.14    0.25
  -1   8  10    3.28    0.24
   0  -8 -10   11.73    0.42
   0   8  10   12.08    0.47
  -1  -8 -10    8.36    0.33
   1   8  10    5.97    0.35
  -2  -8 -10    0.10    0.13
   2   8  10    0.03    0.15
   3   8  10   64.50    1.82
   4   8  10    1.27    0.18
   5   8  10   17.00    0.59
   6   8  10   27.90    0.83
   6   8  10   26.92    0.86
   7   8  10    4.06    0.28
   7   8  10    3.72    0.27
   8   8  10    8.94    0.40
   9   8  10    0.28    0.18
   4  -9 -10    3.05    0.24
  -4   9  10    3.43    0.27
   3  -9 -10    1.69    0.19
  -3   9  10    1.03    0.21
   2  -9 -10   37.09    1.12
  -2   9  10   39.95    1.16
   1  -9 -10   36.66    1.10
  -1   9  10   39.75    1.15
   0  -9 -10    2.39    0.18
   0   9  10    2.46    0.22
  -1  -9 -10    4.85    0.26
   1   9  10    4.75    0.32
  -2  -9 -10    0.10    0.12
   2   9  10    0.02    0.15
  -3  -9 -10   55.01    1.56
   3   9  10   55.47    1.58
   4   9  10   16.88    0.59
   5   9  10   11.63    0.48
   6   9  10   28.85    0.91
   7   9  10    1.67    0.22
   8   9  10    0.83    0.22
  -3  10  10    0.94    0.22
  -2  10  10   41.30    1.24
  -1  10  10   19.25    0.67
   0  10  10    3.87    0.27
   1  10  10   11.87    0.49
   2  10  10    2.08    0.22
   3  10  10    1.18    0.20
   4  10  10   39.98    1.20
   5  10  10   40.53    1.21
   6  10  10   16.70    0.62
   7  10  10   27.27    0.89
   8  10  10   15.52    0.62
  -2  11  10    0.53    0.22
  -1  11  10    5.84    0.40
   0  11  10   48.71    1.44
   1  11  10    6.64    0.41
   2  11  10    7.07    0.42
   3  11  10   12.72    0.53
   4  11  10    8.19    0.43
   5  11  10   17.91    0.65
   6  11  10    0.08    0.20
   7  11  10    4.92    0.33
   8  11  10    0.67    0.24
   0  12  10   15.69    0.62
   1  12  10    0.39    0.21
   2  12  10    2.55    0.26
   3  12  10    0.55    0.21
   4  12  10    7.53    0.43
   5  12  10    0.31    0.22
   6  12  10    8.58    0.48
   7  12  10    3.36    0.30
   4  13  10    0.97    0.25
   5   5 -11    4.14    0.41
  -5  -5  11    3.33    0.37
   4   5 -11    0.39    0.29
  -4  -5  11    0.14    0.28
   3   5 -11   13.61    0.66
  -3  -5  11   12.69    0.63
   2   5 -11    0.73    0.27
  -2  -5  11    0.33    0.28
  -2  -5  11    0.33    0.18
   1   5 -11    1.06    0.27
  -1  -5  11    0.61    0.27
  -1  -5  11    0.39    0.20
   0   5 -11    6.44    0.47
   0  -5  11    6.29    0.52
   0  -5  11    6.82    0.41
  -1   5 -11    4.14    0.35
   1  -5  11    3.91    0.37
   6   4 -11    7.43    0.58
  -6  -4  11   10.14    0.52
  -6  -4  11    9.05    0.54
   5   4 -11    0.24    0.30
  -5  -4  11    0.31    0.27
  -5  -4  11    0.48    0.23
   4   4 -11    3.09    0.35
  -4  -4  11    2.81    0.27
  -4  -4  11    2.94    0.31
   3   4 -11   25.49    0.90
  -3  -4  11   24.18    0.87
  -3  -4  11   24.54    0.81
   2   4 -11    2.75    0.31
  -2  -4  11    2.41    0.21
  -2  -4  11    2.44    0.30
   1   4 -11    0.62    0.25
  -1  -4  11    0.28    0.24
  -1  -4  11    0.42    0.17
   0   4 -11   10.13    0.51
   0  -4  11    9.43    0.44
   0  -4  11    8.70    0.52
  -1   4 -11    0.54    0.24
   1  -4  11    0.48    0.26
   1  -4  11    0.44    0.20
  -2   4 -11    4.09    0.33
   2  -4  11    4.10    0.29
   2  -4  11    4.02    0.36
   7   3 -11    5.97    0.52
  -7  -3  11    7.17    0.48
  -7  -3  11    6.92    0.49
   6   3 -11   -0.04    0.26
   6   3 -11   -0.08    0.18
  -6  -3  11    0.03    0.24
  -6  -3  11   -0.07    0.23
   5   3 -11   13.21    0.53
   5   3 -11   12.07    0.61
  -5  -3  11   14.51    0.58
  -5  -3  11   13.68    0.60
   4   3 -11   39.85    1.19
   4   3 -11   37.50    1.26
  -4  -3  11   41.68    1.21
  -4  -3  11   40.90    1.25
   3   3 -11    1.14    0.26
   3   3 -11    0.75    0.19
  -3  -3  11    0.81    0.20
  -3  -3  11    0.93    0.23
   2   3 -11   49.23    1.47
   2   3 -11   53.82    1.53
  -2  -3  11   49.63    1.45
  -2  -3  11   49.99    1.43
  -2  -3  11   49.89    1.50
   1   3 -11   60.90    1.73
  -1  -3  11   56.95    1.73
  -1  -3  11   58.59    1.66
   0   3 -11    1.09    0.23
   0  -3  11    0.60    0.18
   0  -3  11    0.29    0.22
  -1   3 -11    9.32    0.47
   1  -3  11    9.12    0.42
   1  -3  11    8.74    0.50
  -2   3 -11    0.29    0.22
   2  -3  11   -0.05    0.19
   2  -3  11   -0.14    0.26
  -3   3 -11   22.27    0.90
   3  -3  11   25.55    0.81
   4  -3  11    0.31    0.21
   7   2 -11   16.54    0.63
   7   2 -11   16.15    0.69
  -7  -2  11   17.28    0.70
  -7  -2  11   16.53    0.68
   6   2 -11   27.20    0.88
   6   2 -11   26.14    0.93
  -6  -2  11   27.30    0.91
  -6  -2  11   29.01    0.93
   5   2 -11    1.14    0.20
   5   2 -11    1.32    0.26
  -5  -2  11    1.35    0.24
  -5  -2  11    1.15    0.23
   4   2 -11    6.15    0.36
   4   2 -11    6.11    0.42
  -4  -2  11    5.60    0.38
  -4  -2  11    6.81    0.41
   3   2 -11    0.26    0.17
   3   2 -11    0.19    0.21
  -3  -2  11    0.15    0.19
  -3  -2  11   -0.03    0.17
   2   2 -11   21.16    0.73
   2   2 -11   21.83    0.75
  -2  -2  11   21.02    0.73
  -2  -2  11   21.02    0.66
  -2  -2  11   22.31    0.70
   1   2 -11    9.01    0.44
  -1  -2  11    8.15    0.44
  -1  -2  11    8.54    0.36
  -1  -2  11    8.07    0.38
   0   2 -11    0.43    0.20
   0  -2  11   -0.10    0.19
   0  -2  11    0.27    0.16
  -1   2 -11   13.15    0.53
   1  -2  11   13.19    0.50
  -2   2 -11   23.16    0.86
   2  -2  11   23.85    0.76
   3  -2  11    7.71    0.40
   4  -2  11   40.70    1.22
   5  -2  11   53.12    1.55
   7   1 -11    0.18    0.20
  -7  -1  11   -0.41    0.23
   6   1 -11   18.03    0.71
   6   1 -11   18.69    0.67
  -6  -1  11   20.11    0.72
   5   1 -11    0.65    0.19
   5   1 -11    0.67    0.21
  -5  -1  11    0.69    0.22
   4   1 -11    0.14    0.19
   4   1 -11   -0.16    0.16
  -4  -1  11   -0.21    0.18
   3   1 -11   39.14    1.16
   3   1 -11   36.75    1.16
  -3  -1  11   39.73    1.15
   2   1 -11   25.67    0.84
   2   1 -11   24.30    0.83
  -2  -1  11   26.33    0.76
  -2  -1  11   26.23    0.81
   1   1 -11   15.36    0.74
  -1  -1  11   15.80    0.51
  -1  -1  11   15.69    0.54
   0  -1  11  144.44    3.99
   0  -1  11  149.38    4.00
   1  -1  11   21.01    0.67
   2  -1  11    0.23    0.16
   3  -1  11   27.67    0.86
   4  -1  11    9.29    0.43
   5  -1  11    6.77    0.39
   7   0 -11   11.45    0.51
  -7   0  11   11.12    0.55
   6   0 -11    1.39    0.22
  -6   0  11    0.67    0.23
   5   0 -11   29.57    0.93
  -5   0  11   30.35    0.95
   4   0 -11    2.75    0.23
  -4   0  11    3.28    0.26
   3   0 -11    4.44    0.34
  -3   0  11    4.34    0.34
   2   0 -11   -0.13    0.18
  -2   0  11    0.21    0.11
  -2   0  11    0.12    0.16
  -1   0  11    3.12    0.22
  -1   0  11    3.35    0.27
   0   0  11   14.98    0.51
   0   0  11   15.08    0.49
   1   0  11    2.84    0.22
   1   0  11    3.40    0.25
   2   0  11    3.16    0.21
   3   0  11    2.88    0.22
   4   0  11    1.39    0.19
   5   0  11    3.82    0.26
   6   0  11   31.23    0.97
   7  -1 -11    6.23    0.42
  -7   1  11    6.08    0.45
   6  -1 -11    0.57    0.20
  -6   1  11    0.65    0.23
   5  -1 -11   -0.22    0.18
  -5   1  11    0.10    0.20
   4  -1 -11    2.36    0.22
  -4   1  11    2.80    0.25
   3  -1 -11   64.03    1.80
  -3   1  11   62.56    1.80
   2  -1 -11    1.68    0.21
  -2   1  11    1.48    0.13
  -2   1  11    1.54    0.19
   1  -1 -11    3.06    0.27
  -1   1  11    3.81    0.22
  -1   1  11    3.88    0.28
   0   1  11    5.72    0.29
   0   1  11    5.33    0.27
   1   1  11    5.57    0.27
   1   1  11    5.46    0.27
   2   1  11   21.92    0.68
   3   1  11   23.02    0.72
   4   1  11    0.72    0.17
   5   1  11    8.31    0.39
   6   1  11   27.00    0.85
   7   1  11    0.30    0.19
   7  -2 -11   23.40    0.80
  -7   2  11   23.10    0.82
   6  -2 -11    0.13    0.19
  -6   2  11   -0.11    0.21
   5  -2 -11    5.50    0.36
  -5   2  11    5.10    0.37
   4  -2 -11   14.60    0.54
  -4   2  11   14.31    0.55
   3  -2 -11    0.67    0.18
  -3   2  11    0.43    0.18
   2  -2 -11   24.16    0.78
  -2   2  11   23.72    0.74
  -2   2  11   23.16    0.69
   1  -2 -11   81.73    2.32
  -1   2  11   82.21    2.25
  -1   2  11   82.72    2.28
   0   2  11    4.70    0.27
   0   2  11    4.28    0.24
   1   2  11   44.67    1.25
   1   2  11   42.71    1.24
   2   2  11    3.29    0.24
   2   2  11    3.29    0.22
   3   2  11   27.31    0.82
   5   2  11    0.21    0.16
   6   2  11   16.03    0.57
   7   2  11    0.58    0.19
   7  -3 -11   12.70    0.54
  -7   3  11   11.46    0.56
   6  -3 -11   58.85    1.70
  -6   3  11   58.56    1.71
   5  -3 -11    9.01    0.42
  -5   3  11    8.47    0.43
   4  -3 -11    0.03    0.16
  -4   3  11    0.11    0.17
   3  -3 -11    0.79    0.18
  -3   3  11    1.07    0.19
   2  -3 -11   38.43    1.13
  -2   3  11   36.92    1.07
  -2   3  11   38.95    1.12
   1  -3 -11   45.86    1.39
  -1   3  11   48.46    1.36
  -1   3  11   47.91    1.32
   0   3  11    0.05    0.11
   0   3  11    0.24    0.13
   1   3  11   32.81    0.93
   1   3  11   30.38    0.92
   2   3  11   18.64    0.60
   2   3  11   19.11    0.59
   3   3  11    0.33    0.14
   3   3  11    0.51    0.13
   4   3  11   22.43    0.70
   5   3  11   67.91    1.90
   6   3  11   14.15    0.52
   7   3  11   77.27    2.17
   8   3  11   22.20    0.74
   7  -4 -11   12.42    0.54
  -7   4  11   11.15    0.55
   6  -4 -11   32.62    1.03
  -6   4  11   33.32    1.05
   5  -4 -11    1.37    0.20
  -5   4  11    1.04    0.22
   4  -4 -11    0.21    0.17
  -4   4  11    0.30    0.19
   3  -4 -11    9.66    0.42
  -3   4  11    9.89    0.43
   2  -4 -11    5.22    0.32
  -2   4  11    5.63    0.33
   1  -4 -11    4.41    0.34
  -1   4  11    4.17    0.22
  -1   4  11    4.72    0.28
   0  -4 -11  120.84    3.37
   0   4  11  122.56    3.30
   0   4  11  121.16    3.33
   1   4  11   91.10    2.48
   1   4  11   88.23    2.46
   2   4  11   18.38    0.59
   2   4  11   18.39    0.58
   3   4  11   47.59    1.33
   3   4  11   46.00    1.33
   4   4  11    0.64    0.15
   4   4  11    0.51    0.13
   5   4  11   16.46    0.56
   6   4  11    0.24    0.15
   7   4  11    1.98    0.21
   8   4  11   10.42    0.46
   6  -5 -11    2.26    0.24
  -6   5  11    2.43    0.27
   5  -5 -11   19.80    0.68
  -5   5  11   19.76    0.70
   4  -5 -11   37.64    1.12
  -4   5  11   37.26    1.14
   3  -5 -11    0.07    0.16
  -3   5  11    0.35    0.17
   2  -5 -11    9.18    0.41
  -2   5  11    9.38    0.41
   1  -5 -11    5.78    0.34
  -1   5  11    5.36    0.31
   0  -5 -11   24.48    0.78
   0   5  11   23.67    0.71
   0   5  11   23.98    0.75
   1   5  11    0.20    0.14
   1   5  11    0.17    0.11
   2   5  11    1.39    0.16
   2   5  11    1.50    0.16
   3   5  11    3.52    0.25
   3   5  11    3.81    0.25
   4   5  11    4.61    0.26
   4   5  11    4.76    0.27
   5   5  11    0.79    0.16
   6   5  11   24.89    0.78
   7   5  11   18.82    0.64
   8   5  11   15.59    0.57
   6  -6 -11    0.49    0.21
  -6   6  11    0.59    0.24
   5  -6 -11   19.70    0.68
  -5   6  11   19.90    0.71
   4  -6 -11    0.42    0.18
  -4   6  11    0.34    0.20
   3  -6 -11   34.50    1.04
  -3   6  11   34.86    1.06
   2  -6 -11    8.37    0.37
  -2   6  11    8.08    0.39
   1  -6 -11    1.63    0.19
  -1   6  11    2.12    0.20
   0  -6 -11   23.04    0.75
   0   6  11   23.55    0.74
  -1  -6 -11   -0.05    0.17
   1   6  11    0.14    0.12
   1   6  11    0.01    0.14
   2   6  11   54.83    1.52
   2   6  11   53.46    1.54
   3   6  11    0.68    0.16
   3   6  11    0.73    0.14
   4   6  11    4.84    0.28
   4   6  11    4.65    0.27
   5   6  11    6.97    0.34
   5   6  11    7.08    0.33
   6   6  11   28.11    0.86
   7   6  11    1.17    0.19
   8   6  11    0.35    0.18
   5  -7 -11    6.90    0.40
  -5   7  11    7.05    0.43
   4  -7 -11    7.49    0.40
  -4   7  11    7.20    0.43
   3  -7 -11   10.09    0.43
  -3   7  11    9.82    0.46
   2  -7 -11    2.22    0.20
  -2   7  11    2.12    0.22
   1  -7 -11   11.83    0.46
  -1   7  11   12.02    0.48
   0  -7 -11    1.66    0.19
   0   7  11    1.62    0.19
  -1  -7 -11   51.08    1.48
   1   7  11   51.34    1.47
   2   7  11    5.06    0.31
   3   7  11   10.29    0.42
   3   7  11   10.71    0.40
   4   7  11    0.35    0.15
   4   7  11    0.18    0.14
   5   7  11    7.20    0.35
   5   7  11    6.93    0.34
   6   7  11   44.15    1.26
   6   7  11   42.42    1.27
   7   7  11    2.58    0.22
   8   7  11    0.54    0.18
   4  -8 -11    4.30    0.34
  -4   8  11    4.45    0.31
   3  -8 -11    8.15    0.40
  -3   8  11    8.40    0.43
   2  -8 -11    6.23    0.34
  -2   8  11    5.62    0.37
   1  -8 -11   40.70    1.21
  -1   8  11   42.38    1.24
   0  -8 -11    9.61    0.40
   0   8  11   10.24    0.44
  -1  -8 -11   34.17    1.03
   1   8  11   34.98    1.05
  -2  -8 -11   64.60    1.86
   2   8  11   67.01    1.87
   3   8  11    5.13    0.33
   4   8  11    0.10    0.16
   5   8  11   17.03    0.60
   5   8  11   17.19    0.57
   6   8  11    4.98    0.34
   6   8  11    5.31    0.32
   7   8  11   15.46    0.60
   7   8  11   17.34    0.58
   8   8  11   43.93    1.28
   4  -9 -11    3.10    0.25
   3  -9 -11   10.12    0.45
  -3   9  11   11.28    0.50
   2  -9 -11    0.44    0.17
  -2   9  11    0.20    0.20
   1  -9 -11    3.33    0.22
  -1   9  11    3.32    0.26
   0  -9 -11   40.42    1.20
   0   9  11   42.14    1.23
  -1  -9 -11   15.41    0.55
   1   9  11   18.01    0.61
  -2  -9 -11   19.60    0.65
   2   9  11   20.35    0.68
  -3  -9 -11   37.57    1.14
   3   9  11   39.77    1.16
   4   9  11    4.70    0.33
   5   9  11    0.33    0.19
   6   9  11    0.30    0.18
   7   9  11    9.05    0.45
  -2  10  11   13.84    0.56
  -1  10  11    4.15    0.30
   0  10  11   11.28    0.50
   1  10  11    4.33    0.35
   2  10  11    3.14    0.25
   3  10  11   18.55    0.66
   4  10  11    0.95    0.21
   5  10  11   10.96    0.49
   6  10  11    3.97    0.29
   7  10  11    2.75    0.27
   8  10  11    2.21    0.27
  -1  11  11    1.18    0.24
   0  11  11   19.90    0.72
   1  11  11    1.37    0.24
   2  11  11    4.36    0.30
   3  11  11    0.85    0.22
   4  11  11    4.75    0.32
   5  11  11   11.83    0.51
   6  11  11    0.20    0.21
   7  11  11    0.22    0.22
   1  12  11    4.80    0.33
   2  12  11   10.21    0.50
   3  12  11    0.21    0.22
   4  12  11    4.85    0.39
   5  12  11    0.02    0.22
   6  12  11   31.42    1.02
  -4  -4  12    0.21    0.23
  -3  -4  12    8.88    0.46
  -1  -4  12   25.32    0.82
   0  -4  12    0.27    0.20
   1  -4  12    5.04    0.32
  -6  -3  12   25.20    0.89
  -5  -3  12    6.44    0.44
   4   3 -12    0.11    0.19
  -4  -3  12   -0.11    0.22
   3   3 -12   20.21    0.72
  -3  -3  12   22.24    0.74
   2   3 -12    8.01    0.44
  -2  -3  12    7.93    0.47
  -1  -3  12    5.06    0.33
   0  -3  12   48.68    1.41
   1  -3  12   34.37    1.06
   2  -3  12    5.95    0.41
   6   2 -12    0.55    0.21
  -6  -2  12    0.22    0.25
   5   2 -12   24.51    0.83
  -5  -2  12   26.15    0.88
   4   2 -12   40.75    1.24
  -4  -2  12   41.58    1.25
   3   2 -12    1.89    0.23
  -3  -2  12    1.34    0.23
   2   2 -12    6.72    0.42
  -2  -2  12    6.11    0.33
  -2  -2  12    6.13    0.38
  -1  -2  12    8.23    0.38
   0  -2  12   12.74    0.49
   1  -2  12    8.44    0.41
   2  -2  12    2.25    0.23
   3  -2  12   10.15    0.48
   4  -2  12    0.14    0.21
   7   1 -12    3.18    0.29
  -7  -1  12    3.05    0.33
   6   1 -12   -0.22    0.20
  -6  -1  12    0.03    0.24
   5   1 -12    1.15    0.22
  -5  -1  12    1.16    0.25
   4   1 -12   16.43    0.63
  -4  -1  12   17.25    0.64
   3   1 -12    1.10    0.22
  -3  -1  12    1.44    0.23
   2   1 -12    3.62    0.29
  -2  -1  12    4.03    0.27
  -2  -1  12    4.61    0.26
  -1  -1  12    2.42    0.21
  -1  -1  12    2.08    0.18
   0  -1  12    0.94    0.16
   1  -1  12    2.01    0.20
   2  -1  12   28.01    0.87
   3  -1  12    1.44    0.21
   4  -1  12    2.55    0.24
   5  -1  12   13.56    0.56
   7   0 -12   31.20    1.02
  -7   0  12   32.41    1.06
   6   0 -12    1.92    0.25
  -6   0  12    1.75    0.27
   5   0 -12    7.60    0.42
  -5   0  12    7.33    0.46
   4   0 -12    4.73    0.38
  -4   0  12    5.19    0.38
   3   0 -12    1.83    0.24
  -3   0  12    2.03    0.24
   2   0 -12    0.21    0.21
  -2   0  12    0.22    0.18
  -2   0  12    0.12    0.13
   1   0 -12   20.43    0.75
  -1   0  12   20.31    0.64
  -1   0  12   20.51    0.67
   0   0  12    2.04    0.19
   0   0  12    2.09    0.18
   1   0  12   20.31    0.65
   2   0  12   43.77    1.27
   3   0  12    0.71    0.18
   4   0  12    1.68    0.21
   5   0  12    0.26    0.20
   7  -1 -12    0.65    0.23
  -7   1  12    0.68    0.26
   6  -1 -12   23.85    0.80
  -6   1  12   22.88    0.83
   5  -1 -12   23.92    0.80
  -5   1  12   22.95    0.80
   4  -1 -12    3.49    0.27
  -4   1  12    4.10    0.29
   3  -1 -12   67.09    1.88
  -3   1  12   63.45    1.86
   2  -1 -12    0.04    0.20
  -2   1  12    0.09    0.12
  -2   1  12    0.34    0.17
   1  -1 -12   19.38    0.73
  -1   1  12   19.79    0.62
  -1   1  12   20.58    0.66
   0   1  12    1.29    0.16
   0   1  12    1.28    0.17
   1   1  12   13.68    0.49
   1   1  12   13.93    0.47
   2   1  12   20.40    0.66
   3   1  12    1.59    0.19
   4   1  12    3.28    0.24
   5   1  12    9.11    0.42
   6   1  12    1.07    0.20
   7  -2 -12    0.77    0.24
  -7   2  12    0.64    0.25
   6  -2 -12   47.51    1.42
  -6   2  12   47.18    1.43
   5  -2 -12   18.42    0.67
  -5   2  12   18.90    0.68
   4  -2 -12    6.28    0.38
  -4   2  12    6.52    0.39
   3  -2 -12   43.09    1.28
  -3   2  12   42.10    1.26
   2  -2 -12   10.31    0.50
  -2   2  12   10.18    0.36
  -2   2  12   10.37    0.43
   1  -2 -12    2.98    0.28
  -1   2  12    3.06    0.23
  -1   2  12    3.45    0.23
   0   2  12   27.47    0.84
   0   2  12   27.44    0.82
   1   2  12   55.26    1.55
   1   2  12   54.12    1.54
   2   2  12   28.25    0.85
   2   2  12   27.78    0.84
   3   2  12  104.16    2.86
   4   2  12   39.94    1.17
   5   2  12   -0.11    0.16
   6   2  12    1.82    0.22
   7   2  12    0.64    0.20
   6  -3 -12   -0.22    0.21
  -6   3  12    0.07    0.22
   5  -3 -12    5.03    0.40
  -5   3  12    5.22    0.38
   4  -3 -12   70.93    2.01
  -4   3  12   70.66    2.01
   3  -3 -12   18.00    0.66
  -3   3  12   18.42    0.64
   2  -3 -12   35.50    1.07
  -2   3  12   32.86    0.98
  -2   3  12   34.47    1.04
   1  -3 -12   60.58    1.80
  -1   3  12   62.29    1.71
  -1   3  12   62.26    1.75
   0   3  12    8.62    0.34
   0   3  12    8.93    0.38
   1   3  12    7.06    0.33
   1   3  12    7.04    0.32
   2   3  12    1.94    0.17
   2   3  12    1.68    0.17
   3   3  12   36.56    1.07
   4   3  12    9.73    0.41
   5   3  12    2.66    0.22
   6   3  12   17.01    0.60
   7   3  12    4.29    0.28
   6  -4 -12    2.22    0.25
  -6   4  12    1.77    0.26
   5  -4 -12    1.21    0.23
  -5   4  12    1.57    0.24
   4  -4 -12   42.02    1.25
  -4   4  12   41.58    1.26
   3  -4 -12    0.28    0.18
  -3   4  12    0.25    0.18
   2  -4 -12    0.33    0.19
  -2   4  12    0.74    0.18
   1  -4 -12    8.35    0.45
  -1   4  12    7.75    0.31
  -1   4  12    8.08    0.38
   0  -4 -12    5.18    0.41
   0   4  12    6.29    0.28
   0   4  12    6.87    0.33
   1   4  12    0.01    0.13
   1   4  12    0.12    0.14
   2   4  12   20.02    0.63
   2   4  12   19.25    0.62
   3   4  12   11.54    0.42
   3   4  12   11.09    0.43
   4   4  12   34.97    1.04
   5   4  12   47.12    1.36
   6   4  12    4.49    0.32
   7   4  12    0.08    0.18
   6  -5 -12    2.07    0.26
  -6   5  12    2.28    0.28
   5  -5 -12   15.86    0.61
  -5   5  12   15.51    0.61
   4  -5 -12   17.04    0.63
  -4   5  12   16.87    0.63
   3  -5 -12    3.09    0.25
  -3   5  12    3.10    0.25
   2  -5 -12    1.66    0.21
  -2   5  12    1.97    0.22
   1  -5 -12    0.32    0.19
  -1   5  12    0.36    0.17
   0  -5 -12   17.69    0.67
   0   5  12   19.03    0.63
   0   5  12   18.58    0.58
   1   5  12   -0.05    0.15
   1   5  12    0.10    0.13
   2   5  12   40.73    1.18
   2   5  12   41.45    1.20
   3   5  12    1.84    0.18
   3   5  12    2.08    0.19
   4   5  12    0.36    0.14
   4   5  12    0.31    0.16
   5   5  12   14.16    0.51
   6   5  12    4.20    0.31
   7   5  12    9.23    0.44
   8   5  12    0.99    0.21
   5  -6 -12    3.72    0.28
  -5   6  12    3.61    0.31
   4  -6 -12    6.79    0.41
  -4   6  12    6.74    0.41
   3  -6 -12   26.70    0.84
  -3   6  12   26.10    0.86
   2  -6 -12   27.55    0.86
  -2   6  12   27.20    0.87
   1  -6 -12    6.75    0.39
  -1   6  12    6.58    0.37
   0  -6 -12    0.31    0.20
   0   6  12    0.04    0.16
  -1  -6 -12    4.88    0.38
   1   6  12    4.97    0.26
   1   6  12    4.49    0.32
   2   6  12   54.31    1.52
   2   6  12   53.40    1.54
   3   6  12    2.85    0.22
   3   6  12    2.96    0.21
   4   6  12    5.45    0.31
   4   6  12    5.60    0.31
   5   6  12    0.18    0.16
   5   6  12    0.29    0.15
   6   6  12    1.65    0.20
   7   6  12   -0.01    0.18
   8   6  12   13.20    0.53
   5  -7 -12   17.55    0.66
  -5   7  12   17.97    0.69
   4  -7 -12    3.29    0.26
  -4   7  12    3.17    0.28
   3  -7 -12   68.79    2.00
  -3   7  12   72.31    2.02
   2  -7 -12   25.09    0.80
  -2   7  12   24.61    0.82
   1  -7 -12    2.05    0.21
  -1   7  12    2.02    0.22
   0  -7 -12   20.48    0.70
   0   7  12   20.35    0.68
  -1  -7 -12    1.77    0.22
   1   7  12    1.00    0.19
   2   7  12    4.37    0.31
   2   7  12    4.85    0.27
   3   7  12   69.57    1.98
   3   7  12   71.30    1.96
   4   7  12   46.11    1.30
   4   7  12   44.15    1.31
   5   7  12    3.48    0.24
   5   7  12    3.95    0.30
   6   7  12   24.27    0.77
   7   7  12    2.35    0.23
   8   7  12   10.00    0.45
   4  -8 -12   24.01    0.81
  -4   8  12   24.63    0.83
   3  -8 -12    4.20    0.35
  -3   8  12    4.35    0.31
   2  -8 -12   28.88    0.91
  -2   8  12   29.79    0.94
   1  -8 -12   49.76    1.47
  -1   8  12   52.45    1.50
   0  -8 -12    4.73    0.33
   0   8  12    5.32    0.37
  -1  -8 -12    0.22    0.18
   1   8  12    0.33    0.18
  -2  -8 -12    4.78    0.36
   2   8  12    4.56    0.33
   3   8  12   34.03    1.04
   4   8  12   16.69    0.59
   4   8  12   16.63    0.57
   5   8  12    0.24    0.16
   5   8  12    0.00    0.17
   6   8  12    2.87    0.24
   6   8  12    3.32    0.24
   7   8  12    0.24    0.18
   8   8  12    0.13    0.19
   3  -9 -12    4.10    0.28
  -3   9  12    3.78    0.30
   2  -9 -12    4.86    0.35
  -2   9  12    5.49    0.39
   1  -9 -12   22.48    0.76
  -1   9  12   25.32    0.81
   0  -9 -12    2.13    0.21
   0   9  12    2.17    0.25
  -1  -9 -12    2.65    0.22
   1   9  12    2.79    0.25
  -2  -9 -12    2.08    0.22
   2   9  12    2.02    0.23
  -3  -9 -12    0.67    0.20
   3   9  12    0.55    0.19
   4   9  12    4.12    0.28
   5   9  12   58.61    1.69
   6   9  12   11.12    0.48
   7   9  12    9.46    0.45
  -2  10  12    1.00    0.24
   1 -10 -12    0.35    0.25
  -1  10  12    0.69    0.22
   0  10  12   19.99    0.72
   1  10  12   19.38    0.69
   2  10  12    2.21    0.24
   3  10  12    2.94    0.26
   4  10  12   -0.12    0.19
   5  10  12   22.67    0.77
   6  10  12    3.57    0.28
   7  10  12    1.85    0.25
   0  11  12    5.16    0.41
   1  11  12    0.13    0.22
   2  11  12   23.57    0.81
   3  11  12    4.32    0.31
   4  11  12   13.55    0.58
   5  11  12    3.09    0.28
   6  11  12    0.66    0.23
   2  12  12    4.54    0.34
   3  12  12    4.68    0.34
   4  12  12    6.25    0.45
   5  12  12    0.01    0.23
  -4  -3  13   11.91    0.56
  -3  -3  13   -0.17    0.21
  -1  -3  13   13.29    0.52
   0  -3  13    0.92    0.21
   5   2 -13    0.33    0.22
  -5  -2  13    0.10    0.25
   4   2 -13   11.35    0.54
  -4  -2  13   12.91    0.56
   3   2 -13    1.52    0.25
  -3  -2  13    1.33    0.25
   2   2 -13   10.36    0.52
  -2  -2  13   10.43    0.48
   1   2 -13    1.50    0.26
  -1  -2  13    1.74    0.20
   0  -2  13   11.61    0.48
   1  -2  13    6.36    0.39
   2  -2  13    5.28    0.37
   6   1 -13    2.43    0.28
   5   1 -13    2.34    0.27
  -5  -1  13    2.22    0.29
   4   1 -13    1.49    0.24
  -4  -1  13    1.69    0.26
   3   1 -13   28.65    0.95
  -3  -1  13   29.10    0.93
   2   1 -13   14.45    0.62
  -2  -1  13   14.61    0.57
   1   1 -13    0.28    0.23
  -1  -1  13    0.27    0.16
  -1  -1  13    0.19    0.19
   0  -1  13    0.81    0.18
   1  -1  13    0.06    0.17
   2  -1  13   18.48    0.64
   3  -1  13    0.51    0.20
   6   0 -13    0.04    0.22
  -6   0  13   -0.19    0.25
   5   0 -13   16.05    0.63
  -5   0  13   15.89    0.67
   4   0 -13    1.83    0.25
  -4   0  13    1.45    0.25
   3   0 -13   14.79    0.63
  -3   0  13   15.37    0.59
   2   0 -13   40.27    1.27
  -2   0  13   41.48    1.22
   1   0 -13    0.50    0.24
  -1   0  13    0.51    0.18
  -1   0  13    0.55    0.16
   0   0  13   12.95    0.48
   1   0  13   14.65    0.53
   2   0  13    0.15    0.17
   3   0  13   19.20    0.67
   4   0  13   37.29    1.13
   6  -1 -13    0.80    0.25
  -6   1  13    0.74    0.26
   5  -1 -13   -0.09    0.22
  -5   1  13    0.21    0.23
   4  -1 -13   30.01    0.98
  -4   1  13   30.41    0.98
   3  -1 -13    3.55    0.31
  -3   1  13    4.03    0.29
   2  -1 -13   34.20    1.13
  -2   1  13   36.71    1.08
   1  -1 -13   82.99    2.42
  -1   1  13   85.80    2.36
  -1   1  13   84.82    2.34
   0   1  13   17.56    0.61
   0   1  13   18.17    0.59
   1   1  13    1.04    0.18
   2   1  13    5.53    0.33
   3   1  13    1.91    0.21
   4   1  13   23.63    0.77
   5   1  13   -0.11    0.18
   6  -2 -13   16.17    0.66
  -6   2  13   16.06    0.67
   5  -2 -13    8.58    0.49
  -5   2  13    8.34    0.49
   4  -2 -13    3.35    0.28
  -4   2  13    3.19    0.27
   3  -2 -13    1.59    0.25
  -3   2  13    1.56    0.22
   2  -2 -13    0.26    0.23
  -2   2  13    0.53    0.19
   1  -2 -13   48.97    1.55
  -1   2  13   53.32    1.49
  -1   2  13   52.59    1.46
   0   2  13    3.51    0.24
   0   2  13    3.64    0.27
   1   2  13    0.17    0.15
   1   2  13   -0.06    0.14
   2   2  13   28.03    0.86
   3   2  13    0.27    0.17
   4   2  13   20.31    0.68
   5   2  13   30.70    0.95
   6   2  13   15.59    0.58
   6  -3 -13    3.58    0.31
  -6   3  13    3.66    0.32
   5  -3 -13    0.29    0.23
  -5   3  13    0.19    0.23
   4  -3 -13   19.39    0.72
  -4   3  13   19.61    0.71
   3  -3 -13    0.83    0.22
  -3   3  13    0.75    0.21
   2  -3 -13    8.50    0.48
  -2   3  13    9.46    0.43
   1  -3 -13    0.08    0.24
  -1   3  13    0.59    0.14
  -1   3  13    0.58    0.18
   0  -3 -13   29.56    1.07
   0   3  13   34.44    0.98
   0   3  13   32.52    0.96
   1   3  13   29.92    0.91
   1   3  13   31.13    0.93
   2   3  13    0.61    0.15
   2   3  13    0.79    0.16
   3   3  13    0.91    0.17
   4   3  13    0.44    0.18
   5   3  13   14.44    0.55
   6   3  13    3.76    0.27
   5  -4 -13    1.03    0.24
  -5   4  13    1.08    0.24
   4  -4 -13    8.16    0.46
  -4   4  13    7.60    0.43
   3  -4 -13    2.38    0.26
  -3   4  13    2.41    0.25
   2  -4 -13   21.70    0.77
  -2   4  13   21.84    0.73
   1  -4 -13   -0.17    0.23
  -1   4  13    0.43    0.18
  -1   4  13    0.45    0.14
   0  -4 -13   14.19    0.64
   0   4  13   15.86    0.56
   0   4  13   15.81    0.52
   1   4  13   17.60    0.61
   1   4  13   17.83    0.58
   2   4  13   27.37    0.83
   2   4  13   26.58    0.83
   3   4  13    0.34    0.16
   3   4  13   -0.13    0.16
   4   4  13    0.00    0.16
   5   4  13   18.73    0.64
   6   4  13    1.94    0.22
   7   4  13    3.58    0.27
   5  -5 -13    0.97    0.24
  -5   5  13    1.21    0.25
   4  -5 -13    0.20    0.21
  -4   5  13   -0.18    0.20
   3  -5 -13   20.30    0.71
  -3   5  13   19.87    0.70
   2  -5 -13   64.16    1.86
  -2   5  13   64.63    1.84
   1  -5 -13    6.26    0.43
  -1   5  13    6.30    0.29
  -1   5  13    6.61    0.37
   0  -5 -13   12.86    0.60
   0   5  13   15.25    0.53
   0   5  13   13.65    0.48
   1   5  13   18.10    0.61
   1   5  13   17.50    0.59
   2   5  13    3.08    0.22
   2   5  13    3.63    0.24
   3   5  13    2.45    0.21
   3   5  13    2.40    0.21
   4   5  13   26.31    0.82
   5   5  13    4.55    0.34
   6   5  13   21.56    0.73
   7   5  13   17.01    0.61
   5  -6 -13   -0.26    0.21
  -5   6  13    0.15    0.23
   4  -6 -13   13.02    0.57
  -4   6  13   13.85    0.58
   3  -6 -13    0.14    0.20
  -3   6  13    0.26    0.21
   2  -6 -13    4.73    0.38
  -2   6  13    3.32    0.26
   1  -6 -13   62.00    1.79
  -1   6  13   60.58    1.76
   0  -6 -13   20.88    0.76
   0   6  13   20.91    0.70
  -1  -6 -13   17.82    0.73
   1   6  13   20.22    0.66
   1   6  13   20.37    0.63
   2   6  13   32.95    0.98
   2   6  13   33.39    1.01
   3   6  13    0.27    0.17
   3   6  13    0.12    0.15
   4   6  13   15.06    0.55
   4   6  13   15.58    0.55
   5   6  13    2.10    0.21
   6   6  13   14.38    0.54
   7   6  13   16.64    0.61
   4  -7 -13    3.14    0.28
  -4   7  13    3.14    0.29
   3  -7 -13   -0.07    0.20
  -3   7  13    0.04    0.20
   2  -7 -13   -0.27    0.18
  -2   7  13   -0.12    0.19
   1  -7 -13   46.22    1.36
  -1   7  13   45.25    1.35
   0  -7 -13   28.01    0.91
   0   7  13   27.48    0.88
  -1  -7 -13    1.64    0.26
   1   7  13    1.96    0.22
   2   7  13   16.46    0.60
   2   7  13   16.40    0.56
   3   7  13    4.00    0.30
   3   7  13    4.40    0.32
   4   7  13    0.93    0.19
   4   7  13    0.58    0.18
   5   7  13   36.31    1.12
   5   7  13   38.79    1.12
   6   7  13   14.26    0.55
   7   7  13   15.47    0.58
   3  -8 -13    0.04    0.21
  -3   8  13   -0.17    0.21
   2  -8 -13    1.12    0.21
  -2   8  13    1.12    0.23
   1  -8 -13    4.27    0.36
  -1   8  13    4.45    0.31
   0  -8 -13    6.27    0.40
   0   8  13    7.03    0.40
  -1  -8 -13   41.63    1.26
   1   8  13   40.98    1.24
  -2  -8 -13    3.28    0.29
   2   8  13    3.59    0.27
   3   8  13   36.40    1.11
   4   8  13   11.00    0.44
   4   8  13   10.18    0.46
   5   8  13    6.86    0.38
   5   8  13    7.28    0.39
   6   8  13    1.37    0.21
   7   8  13    0.54    0.21
   2  -9 -13   -0.04    0.19
  -2   9  13    0.11    0.22
   1  -9 -13    0.11    0.19
  -1   9  13    0.10    0.20
   0  -9 -13    5.48    0.37
   0   9  13    5.47    0.40
  -1  -9 -13   30.76    0.97
   1   9  13   31.30    0.99
  -2  -9 -13    3.07    0.27
   2   9  13    3.11    0.27
  -3  -9 -13    0.72    0.23
   3   9  13    0.77    0.21
   4   9  13    0.59    0.20
   5   9  13   17.00    0.63
   6   9  13    0.94    0.21
   7   9  13    3.89    0.27
   1 -10 -13    2.31    0.23
  -1  10  13    2.31    0.27
   0 -10 -13   17.92    0.65
   0  10  13   19.42    0.69
  -1 -10 -13   19.58    0.69
   1  10  13   21.72    0.74
  -2 -10 -13    0.50    0.21
   2  10  13    0.29    0.21
   3  10  13    2.81    0.27
   4  10  13    1.70    0.25
   5  10  13    1.16    0.24
   6  10  13    1.52    0.24
   1  11  13    4.02    0.32
   2  11  13   26.78    0.90
   3  11  13    8.26    0.47
   4  11  13    1.18    0.25
   5  11  13    1.65    0.26
   2   2 -14   17.51    0.69
   1   2 -14    0.64    0.25
   4   1 -14   20.94    0.78
  -4  -1  14   21.15    0.79
   3   1 -14    9.02    0.53
  -3  -1  14   10.30    0.50
   2   1 -14    0.35    0.24
  -2  -1  14    0.06    0.21
   1   1 -14   34.47    1.09
  -1  -1  14   32.15    1.02
   0  -1  14   29.02    0.91
   1  -1  14    2.10    0.23
   2  -1  14   29.05    0.92
   5   0 -14   27.72    0.95
   4   0 -14    6.90    0.47
  -4   0  14    7.19    0.45
   3   0 -14    1.88    0.28
  -3   0  14    1.61    0.25
   2   0 -14    1.92    0.29
  -2   0  14    2.56    0.25
   1   0 -14   10.08    0.56
  -1   0  14    9.83    0.42
  -1   0  14   10.04    0.46
   0   0  14   12.58    0.49
   1   0  14    1.81    0.22
   2   0  14   21.25    0.72
   3   0  14    5.11    0.37
   5  -1 -14   17.10    0.70
  -5   1  14   16.89    0.69
   4  -1 -14    3.76    0.33
  -4   1  14    4.01    0.31
   3  -1 -14    0.08    0.25
  -3   1  14    0.05    0.21
   2  -1 -14   16.14    0.69
  -2   1  14   15.82    0.60
   1  -1 -14   -0.19    0.25
  -1   1  14    0.17    0.16
  -1   1  14    0.00    0.18
   0   1  14    2.75    0.24
   0   1  14    2.75    0.22
   1   1  14   57.61    1.64
   2   1  14    7.37    0.39
   3   1  14   12.44    0.51
   4   1  14   35.35    1.08
   5  -2 -14    1.10    0.27
  -5   2  14    1.40    0.27
   4  -2 -14   27.63    0.94
  -4   2  14   27.90    0.92
   3  -2 -14    3.80    0.34
  -3   2  14    4.22    0.30
   2  -2 -14   -0.09    0.25
  -2   2  14    0.29    0.20
   1  -2 -14    5.99    0.51
  -1   2  14    6.40    0.33
  -1   2  14    6.51    0.38
   0   2  14    2.51    0.21
   0   2  14    2.62    0.22
   1   2  14   24.37    0.77
   2   2  14    0.76    0.18
   3   2  14    0.66    0.19
   4   2  14    1.90    0.22
   5   2  14    0.65    0.19
   5  -3 -14   -0.09    0.24
  -5   3  14    0.08    0.23
   4  -3 -14   12.23    0.59
  -4   3  14   11.66    0.55
   3  -3 -14    2.54    0.29
  -3   3  14    1.78    0.24
   2  -3 -14   11.74    0.60
  -2   3  14   11.74    0.51
   1  -3 -14   -0.11    0.25
  -1   3  14    0.36    0.18
  -1   3  14    0.40    0.15
   0  -3 -14    7.19    0.52
   0   3  14    7.73    0.36
   0   3  14    7.72    0.39
   1   3  14   17.97    0.61
   1   3  14   18.20    0.62
   2   3  14   -0.02    0.16
   3   3  14    2.18    0.22
   4   3  14    2.35    0.23
   5   3  14   10.25    0.47
   5  -4 -14    6.71    0.50
  -5   4  14    8.09    0.47
   4  -4 -14   18.44    0.71
  -4   4  14   18.03    0.69
   3  -4 -14    8.56    0.52
  -3   4  14    8.48    0.45
   2  -4 -14    2.40    0.30
  -2   4  14    1.98    0.23
   1  -4 -14    6.60    0.50
  -1   4  14    7.62    0.39
  -1   4  14    7.33    0.34
   0  -4 -14   16.21    0.76
   0   4  14   20.00    0.63
   0   4  14   19.88    0.66
   1   4  14    2.65    0.21
   1   4  14    2.27    0.22
   2   4  14   43.56    1.29
   2   4  14   45.25    1.30
   3   4  14   29.56    0.91
   4   4  14    1.12    0.20
   5   4  14    2.91    0.25
   6   4  14    0.30    0.20
   4  -5 -14    4.51    0.33
  -4   5  14    4.42    0.32
   3  -5 -14    9.83    0.53
  -3   5  14    9.86    0.49
   2  -5 -14   25.74    0.89
  -2   5  14   25.16    0.84
   1  -5 -14    0.87    0.27
  -1   5  14    1.03    0.16
  -1   5  14    1.10    0.21
   0  -5 -14    7.91    0.53
   0   5  14   10.13    0.44
   0   5  14    9.59    0.39
  -1  -5 -14    0.83    0.28
   1   5  14    1.29    0.18
   1   5  14    1.31    0.20
   2   5  14   54.42    1.58
   2   5  14   54.93    1.56
   3   5  14   19.25    0.65
   3   5  14   19.13    0.65
   4   5  14    0.02    0.18
   5   5  14    8.01    0.41
   6   5  14    5.05    0.38
   4  -6 -14    5.58    0.45
  -4   6  14    5.13    0.41
   3  -6 -14    6.99    0.45
  -3   6  14    7.13    0.43
   2  -6 -14    7.42    0.46
  -2   6  14    7.95    0.44
   1  -6 -14    0.10    0.24
  -1   6  14    0.51    0.20
   0  -6 -14   -0.01    0.25
   0   6  14    0.46    0.16
   0   6  14    0.28    0.19
  -1  -6 -14   25.27    0.96
   1   6  14   27.94    0.84
   1   6  14   28.73    0.88
   2   6  14   13.25    0.52
   2   6  14   12.35    0.48
   3   6  14   15.18    0.54
   3   6  14   15.02    0.56
   4   6  14   64.09    1.82
   5   6  14   10.10    0.46
   6   6  14    0.61    0.20
   3  -7 -14    4.58    0.33
  -3   7  14    5.15    0.41
   2  -7 -14    1.75    0.25
  -2   7  14    1.72    0.24
   1  -7 -14   29.92    1.00
  -1   7  14   31.13    0.97
   0  -7 -14    3.01    0.30
   0   7  14    2.97    0.26
  -1  -7 -14    6.06    0.47
   1   7  14    6.19    0.38
  -2  -7 -14    0.72    0.27
   2   7  14    1.11    0.18
   2   7  14    1.21    0.21
   3   7  14    5.74    0.36
   3   7  14    5.94    0.37
   4   7  14   16.03    0.59
   4   7  14   16.13    0.59
   5   7  14   -0.02    0.18
   6   7  14    1.33    0.21
   2  -8 -14    1.20    0.24
  -2   8  14    1.25    0.24
   1  -8 -14   -0.07    0.21
  -1   8  14   -0.12    0.21
   0  -8 -14    1.15    0.25
   0   8  14    1.05    0.23
  -1  -8 -14   23.11    0.84
   1   8  14   23.89    0.79
  -2  -8 -14    4.53    0.35
   2   8  14    5.32    0.37
   3   8  14    1.04    0.22
   4   8  14    1.20    0.21
   4   8  14    1.27    0.20
   5   8  14   12.71    0.51
   5   8  14   13.16    0.53
   6   8  14    6.48    0.40
   1  -9 -14    3.94    0.30
  -1   9  14    3.74    0.30
   0  -9 -14    0.01    0.20
   0   9  14   -0.18    0.21
  -1  -9 -14    4.42    0.32
   1   9  14    4.20    0.32
  -2  -9 -14   20.74    0.77
   2   9  14   20.95    0.74
  -3  -9 -14    3.86    0.33
   3   9  14    4.33    0.30
   4   9  14    3.23    0.27
   5   9  14    7.60    0.43
   6   9  14    4.13    0.37
   6   9  14    3.42    0.27
   0 -10 -14   -0.12    0.19
   0  10  14    0.36    0.23
  -1 -10 -14    1.02    0.22
   1  10  14    1.18    0.25
  -2 -10 -14   14.91    0.61
   2  10  14   15.78    0.62
  -3 -10 -14   38.01    1.21
   3  10  14   40.38    1.21
  -4 -10 -14    0.71    0.32
   4  10  14    1.16    0.24
   5  10  14    6.12    0.43
   2   0 -15    0.10    0.26
  -2   0  15   -0.23    0.21
   1   0 -15   18.26    0.75
   0   0  15   15.58    0.58
   1   0  15    3.09    0.26
   3  -1 -15   14.33    0.70
  -3   1  15   16.36    0.63
   2  -1 -15    0.13    0.27
  -2   1  15    0.23    0.21
   1  -1 -15    1.87    0.32
  -1   1  15    1.42    0.23
   0  -1 -15    0.90    0.28
   0   1  15    0.78    0.19
   1   1  15    1.95    0.22
   2   1  15    1.67    0.22
   4  -2 -15   17.26    0.72
   3  -2 -15    9.45    0.58
  -3   2  15    9.36    0.49
   2  -2 -15    4.57    0.39
  -2   2  15    5.76    0.40
   1  -2 -15    0.17    0.29
  -1   2  15    0.25    0.19
   0  -2 -15    3.75    0.37
   0   2  15    3.36    0.26
   0   2  15    3.34    0.25
   1   2  15    5.07    0.35
   2   2  15    2.63    0.24
   3   2  15   22.65    0.75
   4  -3 -15    2.42    0.32
  -4   3  15    2.45    0.28
   3  -3 -15    2.59    0.33
  -3   3  15    2.72    0.28
   2  -3 -15   45.72    1.50
  -2   3  15   49.90    1.43
   1  -3 -15    4.28    0.39
  -1   3  15    4.66    0.36
   0  -3 -15    1.00    0.31
   0   3  15    1.15    0.19
   0   3  15    1.04    0.20
   1   3  15    9.46    0.43
   1   3  15    9.64    0.52
   2   3  15    9.20    0.44
   3   3  15   17.05    0.62
   4   3  15    6.13    0.39
   3  -4 -15    4.55    0.37
  -3   4  15    5.35    0.40
   2  -4 -15   43.97    1.43
  -2   4  15   46.93    1.36
   1  -4 -15   12.39    0.68
  -1   4  15   15.00    0.57
   0  -4 -15    8.07    0.57
   0   4  15    8.97    0.44
   0   4  15    8.18    0.40
   1   4  15    5.89    0.37
   1   4  15    6.03    0.36
   2   4  15    4.64    0.33
   3   4  15    4.79    0.34
   4   4  15   34.95    1.07
   3  -5 -15   12.40    0.61
  -3   5  15   12.57    0.56
   2  -5 -15    0.43    0.27
  -2   5  15    0.60    0.21
   1  -5 -15   18.59    0.81
  -1   5  15   21.46    0.72
   0  -5 -15   40.51    1.38
   0   5  15   42.39    1.25
   0   5  15   45.61    1.29
  -1  -5 -15    0.38    0.29
   1   5  15    0.18    0.18
   1   5  15    0.05    0.18
   2   5  15    4.32    0.34
   2   5  15    3.97    0.27
   3   5  15    3.13    0.25
   4   5  15   20.01    0.68
   5   5  15   11.92    0.51
   3  -6 -15    3.30    0.33
  -3   6  15    3.40    0.31
   2  -6 -15   -0.06    0.25
  -2   6  15    0.04    0.21
   1  -6 -15   10.05    0.58
  -1   6  15   10.72    0.50
   0  -6 -15   16.47    0.76
   0   6  15   17.11    0.59
   0   6  15   18.60    0.65
  -1  -6 -15    0.35    0.28
   1   6  15    0.22    0.19
   1   6  15   -0.01    0.17
   2   6  15    0.14    0.19
   2   6  15   -0.04    0.18
   3   6  15    0.43    0.19
   3   6  15    0.14    0.18
   4   6  15    1.25    0.21
   5   6  15    2.69    0.24
   2  -7 -15    0.41    0.25
  -2   7  15    0.41    0.22
   1  -7 -15    3.42    0.33
  -1   7  15    3.44    0.29
   0  -7 -15    0.97    0.29
   0   7  15    1.48    0.23
  -1  -7 -15   10.49    0.62
   1   7  15   10.83    0.50
  -2  -7 -15    0.34    0.29
   2   7  15    0.37    0.18
   2   7  15    0.56    0.21
   3   7  15    1.98    0.24
   3   7  15    1.59    0.22
   4   7  15    0.37    0.20
   4   7  15    0.55    0.23
   5   7  15    1.83    0.23
   1  -8 -15    2.93    0.31
  -1   8  15    3.29    0.30
   0  -8 -15    4.13    0.35
   0   8  15    4.11    0.31
  -1  -8 -15   15.21    0.70
   1   8  15   16.52    0.63
  -2  -8 -15    0.83    0.28
   2   8  15    1.09    0.24
   3   8  15   12.59    0.53
   3   8  15   12.09    0.50
   4   8  15    4.91    0.30
   4   8  15    5.18    0.38
   5   8  15   14.61    0.58
   0  -9 -15    1.35    0.27
   0   9  15    1.73    0.26
  -1  -9 -15   16.42    0.70
   1   9  15   16.99    0.67
  -2  -9 -15    1.79    0.31
   2   9  15    1.17    0.25
  -3  -9 -15    0.06    0.27
   3   9  15   -0.04    0.21
   4   9  15   11.69    0.53
   1  -2 -16   13.42    0.71
   0  -2 -16    1.79    0.33
   0   2  16    1.95    0.22
   1  -3 -16    2.20    0.37
  -1   3  16    2.92    0.26
   0  -3 -16   27.50    0.96
   0   3  16   24.22    0.82
   0   3  16   22.91    0.79
   1   3  16    7.72    0.41
   2   3  16    7.62    0.42
   2  -4 -16   11.54    0.66
   1  -4 -16   -0.17    0.29
  -1   4  16    0.02    0.21
   0  -4 -16   17.28    0.79
   0   4  16   15.87    0.60
   0   4  16   16.82    0.63
  -1  -4 -16    1.30    0.32
   1   4  16    1.04    0.21
   1   4  16    0.96    0.21
   2   4  16    5.03    0.31
   1  -5 -16   -0.19    0.30
  -1   5  16    0.04    0.21
   0  -5 -16    8.35    0.62
   0   5  16   10.02    0.47
   0   5  16    8.85    0.42
  -1  -5 -16    1.30    0.32
   1   5  16    0.93    0.21
   1   5  16    1.07    0.22
   2   5  16    6.80    0.40
   3   5  16    0.85    0.21
   1  -6 -16    0.19    0.30
  -1   6  16    0.24    0.22
   0  -6 -16    1.85    0.35
   0   6  16    2.34    0.26
   0   6  16    2.15    0.23
  -1  -6 -16   10.68    0.65
   1   6  16   10.73    0.47
   1   6  16   10.88    0.51
  -2  -6 -16   10.73    0.61
   2   6  16    8.77    0.46
   2   6  16    8.07    0.44
   3   6  16    1.54    0.23
   0  -7 -16    2.32    0.35
   0   7  16    3.21    0.29
  -1  -7 -16   22.99    0.94
   1   7  16   24.85    0.83
  -2  -7 -16   26.17    0.98
   2   7  16   25.32    0.83
   2   7  16   25.76    0.86
   3   7  16   -0.08    0.20
   3   7  16    0.26    0.21
  -1  -8 -16    0.62    0.31
  -2  -8 -16    4.60    0.41
   2   8  16    5.78    0.43
   0   0   0    0.00    0.00
;
_shelx_hkl_checksum              12153
loop_
_space_group_symop_operation_xyz
'x, y, z'
'-x, -y, -z'
loop_
_atom_site_label
_atom_site_type_symbol
_atom_site_fract_x
_atom_site_fract_y
_atom_site_fract_z
_atom_site_U_iso_or_equiv
_atom_site_adp_type
_atom_site_occupancy
_atom_site_site_symmetry_order
_atom_site_calc_flag
_atom_site_refinement_flags_posn
_atom_site_refinement_flags_adp
Br1 Br 0.03706(2) 0.60280(2) 0.23356(2) 0.01785(5) Uani 1 1 d . .
Br2 Br 1.11773(2) 0.16660(2) 0.10926(2) 0.01999(5) Uani 1 1 d . .
Br3 Br 0.33160(2) 0.99583(2) -0.09143(2) 0.01732(5) Uani 1 1 d . .
Br4 Br 0.97247(2) 0.20808(2) 0.54966(2) 0.02322(5) Uani 1 1 d . .
O1 O 0.64815(15) 0.46010(13) 0.40910(10) 0.0139(2) Uani 1 1 d . .
O2 O 0.63683(16) 0.71536(14) 0.33805(11) 0.0183(3) Uani 1 1 d . .
O3 O 0.40827(15) 0.38671(13) 0.30114(10) 0.0133(2) Uani 1 1 d . .
C6 C 0.2330(2) 0.64030(19) 0.17194(15) 0.0130(3) Uani 1 1 d . .
O7 O 0.43843(16) 0.13760(14) 0.33778(12) 0.0205(3) Uani 1 1 d . .
C8 C 0.6923(2) 0.5736(2) 0.43156(15) 0.0164(3) Uani 1 1 d . .
H8A H 0.6426 0.5849 0.5018 0.020 Uiso 1 1 calc R U
H8B H 0.8137 0.5382 0.4455 0.020 Uiso 1 1 calc R U
C9 C 0.9087(2) 0.27627(19) 0.38831(15) 0.0152(3) Uani 1 1 d . .
C10 C 0.9688(2) 0.25747(19) 0.20339(16) 0.0152(3) Uani 1 1 d . .
C12 C 0.5357(2) 0.55826(18) 0.17011(14) 0.0118(3) Uani 1 1 d . .
C13 C 0.3588(2) 0.80682(18) 0.03569(14) 0.0136(3) Uani 1 1 d . .
C14 C 0.7051(2) 0.43988(18) 0.22167(15) 0.0125(3) Uani 1 1 d . .
C15 C 0.5189(2) 0.69801(19) 0.07864(15) 0.0137(3) Uani 1 1 d . .
H15 H 0.6138 0.7182 0.0467 0.016 Uiso 1 1 calc R U
C18 C 1.0179(2) 0.20730(19) 0.32107(16) 0.0159(3) Uani 1 1 d . .
H18 H 1.1210 0.1297 0.3540 0.019 Uiso 1 1 calc R U
C20 C 0.3914(2) 0.52747(18) 0.21503(14) 0.0121(3) Uani 1 1 d . .
C21 C 0.6126(2) 0.0627(2) 0.38100(17) 0.0203(4) Uani 1 1 d . .
H21A H 0.6817 0.0676 0.3161 0.030 Uiso 1 1 calc R U
H21B H 0.6336 -0.0429 0.4307 0.030 Uiso 1 1 calc R U
H21C H 0.6391 0.1131 0.4252 0.030 Uiso 1 1 calc R U
C22 C 0.7543(2) 0.39401(18) 0.34012(15) 0.0127(3) Uani 1 1 d . .
C23 C 0.8142(2) 0.37211(19) 0.15261(15) 0.0147(3) Uani 1 1 d . .
H23 H 0.7837 0.4033 0.0734 0.018 Uiso 1 1 calc R U
C24 C 0.2150(2) 0.78123(18) 0.08322(15) 0.0139(3) Uani 1 1 d . .
H24 H 0.1090 0.8569 0.0562 0.017 Uiso 1 1 calc R U
C26 C 0.4043(2) 0.28027(19) 0.24994(16) 0.0173(3) Uani 1 1 d . .
H26A H 0.2941 0.3149 0.2103 0.021 Uiso 1 1 calc R U
H26B H 0.4875 0.2756 0.1927 0.021 Uiso 1 1 calc R U
C1 C 0.4581(2) 0.7935(2) 0.33263(17) 0.0197(4) Uani 1 1 d . .
H1A H 0.4004 0.7353 0.3178 0.029 Uiso 1 1 calc R U
H1B H 0.4262 0.8935 0.2705 0.029 Uiso 1 1 calc R U
H1C H 0.4285 0.8038 0.4060 0.029 Uiso 1 1 calc R U
loop_
_atom_site_aniso_label
_atom_site_aniso_U_11
_atom_site_aniso_U_22
_atom_site_aniso_U_33
_atom_site_aniso_U_23
_atom_site_aniso_U_13
_atom_site_aniso_U_12
Br1 0.01100(8) 0.01823(8) 0.02211(9) -0.00508(7) 0.00244(6) -0.00587(6)
Br2 0.01254(9) 0.02531(9) 0.02602(10) -0.01786(8) 0.00226(7) -0.00264(7)
Br3 0.02075(9) 0.01165(8) 0.01489(8) -0.00170(6) 0.00096(6) -0.00419(6)
Br4 0.01717(9) 0.02682(10) 0.01511(9) -0.00420(7) -0.00325(7) 0.00058(7)
O1 0.0124(6) 0.0153(5) 0.0150(6) -0.0071(5) 0.0031(4) -0.0048(4)
O2 0.0166(6) 0.0172(6) 0.0216(6) -0.0072(5) 0.0050(5) -0.0075(5)
O3 0.0154(6) 0.0107(5) 0.0128(5) -0.0027(4) 0.0002(4) -0.0054(4)
C6 0.0101(8) 0.0157(7) 0.0158(8) -0.0077(6) 0.0016(6) -0.0058(6)
O7 0.0164(6) 0.0120(6) 0.0286(7) -0.0027(5) -0.0029(5) -0.0049(5)
C8 0.0167(8) 0.0184(8) 0.0160(8) -0.0085(7) 0.0010(6) -0.0064(7)
C9 0.0148(8) 0.0160(8) 0.0142(8) -0.0047(6) -0.0008(6) -0.0057(6)
C10 0.0121(8) 0.0147(7) 0.0215(8) -0.0105(7) 0.0040(6) -0.0044(6)
C12 0.0106(7) 0.0122(7) 0.0135(7) -0.0072(6) 0.0000(6) -0.0028(6)
C13 0.0175(8) 0.0104(7) 0.0123(7) -0.0036(6) 0.0001(6) -0.0050(6)
C14 0.0100(7) 0.0105(7) 0.0164(8) -0.0046(6) 0.0000(6) -0.0035(6)
C15 0.0128(8) 0.0147(7) 0.0145(8) -0.0066(6) 0.0026(6) -0.0052(6)
C18 0.0106(8) 0.0139(7) 0.0220(9) -0.0073(7) -0.0001(6) -0.0024(6)
C20 0.0122(8) 0.0121(7) 0.0123(7) -0.0047(6) 0.0001(6) -0.0046(6)
C21 0.0164(9) 0.0170(8) 0.0222(9) -0.0056(7) -0.0030(7) -0.0015(7)
C22 0.0109(8) 0.0128(7) 0.0162(8) -0.0068(6) 0.0031(6) -0.0054(6)
C23 0.0129(8) 0.0169(8) 0.0160(8) -0.0077(7) 0.0009(6) -0.0057(6)
C24 0.0129(8) 0.0119(7) 0.0161(8) -0.0065(6) -0.0019(6) -0.0020(6)
C26 0.0197(9) 0.0119(7) 0.0202(9) -0.0046(7) -0.0028(7) -0.0063(6)
C1 0.0189(9) 0.0148(8) 0.0234(9) -0.0078(7) 0.0029(7) -0.0036(7)
loop_
_atom_type_symbol
_atom_type_description
_atom_type_scat_dispersion_real
_atom_type_scat_dispersion_imag
_atom_type_scat_source
C C 0.0033 0.0016 'International Tables Vol C Tables 4.2.6.8 and 6.1.1.4'
H H 0.0000 0.0000 'International Tables Vol C Tables 4.2.6.8 and 6.1.1.4'
O O 0.0106 0.0060 'International Tables Vol C Tables 4.2.6.8 and 6.1.1.4'
Br Br -0.2901 2.4595 'International Tables Vol C Tables 4.2.6.8 and 6.1.1.4'
loop_
_geom_angle_atom_site_label_1
_geom_angle_atom_site_label_2
_geom_angle_atom_site_label_3
_geom_angle
C22 O1 C8 114.68(13)
C8 O2 C1 112.09(13)
C20 O3 C26 110.75(12)
C24 C6 C20 121.24(15)
C24 C6 Br1 118.60(12)
C20 C6 Br1 120.16(12)
C26 O7 C21 113.04(14)
O2 C8 O1 111.74(14)
C18 C9 C22 121.83(16)
C18 C9 Br4 118.66(13)
C22 C9 Br4 119.51(13)
C18 C10 C23 121.95(16)
C18 C10 Br2 118.67(13)
C23 C10 Br2 119.38(13)
C15 C12 C20 119.74(15)
C15 C12 C14 121.23(15)
C20 C12 C14 119.03(14)
C24 C13 C15 121.64(15)
C24 C13 Br3 118.06(12)
C15 C13 Br3 120.29(13)
C23 C14 C22 119.61(15)
C23 C14 C12 120.20(15)
C22 C14 C12 120.18(15)
C13 C15 C12 119.31(15)
C9 C18 C10 117.98(16)
O3 C20 C6 120.98(15)
O3 C20 C12 119.56(14)
C6 C20 C12 119.45(15)
O1 C22 C9 120.56(15)
O1 C22 C14 120.20(15)
C9 C22 C14 119.18(15)
C10 C23 C14 119.39(16)
C13 C24 C6 118.49(15)
O7 C26 O3 108.83(14)
loop_
_geom_bond_atom_site_label_1
_geom_bond_atom_site_label_2
_geom_bond_distance
Br1 C6 1.8900(16)
Br2 C10 1.8983(17)
Br3 C13 1.8973(16)
Br4 C9 1.8920(17)
O1 C22 1.377(2)
O1 C8 1.448(2)
O2 C8 1.390(2)
O2 C1 1.437(2)
O3 C20 1.3742(19)
O3 C26 1.452(2)
C6 C24 1.386(2)
C6 C20 1.393(2)
O7 C26 1.372(2)
O7 C21 1.435(2)
C9 C18 1.387(2)
C9 C22 1.395(2)
C10 C18 1.384(3)
C10 C23 1.392(2)
C12 C15 1.394(2)
C12 C20 1.402(2)
C12 C14 1.493(2)
C13 C24 1.388(2)
C13 C15 1.390(2)
C14 C23 1.397(2)
C14 C22 1.401(2)
