#------------------------------------------------------------------------------
#$Date: 2016-03-04 06:04:45 +0200 (Fri, 04 Mar 2016) $
#$Revision: 177259 $
#$URL: svn://www.crystallography.net/cod/cif/4/03/19/4031922.cif $
#------------------------------------------------------------------------------
#
# This file is available in the Crystallography Open Database (COD),
# http://www.crystallography.net/
#
# All data on this site have been placed in the public domain by the
# contributors.
#
data_4031922
loop_
_publ_author_name
'Aradi, Kl\'ara'
'Bombicz, Petra'
'Nov\'ak, Zolt\'an'
_publ_contact_author
;
 Petra Bombicz
 Institute of Organic Chemistry 
 Research Centre for Natural Sciences
 Hungarian Academy of Sciences
 H-1519 Budapest, POB 206.
;
_publ_section_title
;
 Modular Copper-Catalyzed Synthesis of Chromeno[4,3-b]quinolines with the
 Utilization of Diaryliodonium Salts.
;
_journal_issue                   3
_journal_name_full               'The Journal of organic chemistry'
_journal_page_first              920
_journal_page_last               931
_journal_paper_doi               10.1021/acs.joc.5b02490
_journal_volume                  81
_journal_year                    2016
_chemical_formula_moiety         'C22 H15 N O'
_chemical_formula_sum            'C22 H15 N O'
_chemical_formula_weight         309.35
_chemical_melting_point          432
_chemical_name_systematic        7-phenyl-6H-chromeno[4,3-b]quinoline
_space_group_crystal_system      triclinic
_space_group_IT_number           2
_space_group_name_Hall           '-P 1'
_space_group_name_H-M_alt        'P -1'
_symmetry_space_group_name_Hall  '-P 1'
_symmetry_space_group_name_H-M   'P -1'
_atom_sites_solution_hydrogens   difmap
_atom_sites_solution_primary     difmap
_atom_sites_solution_secondary   difmap
_audit_creation_method           SHELXL-2014/7
_cell_angle_alpha                70.251(3)
_cell_angle_beta                 89.805(2)
_cell_angle_gamma                87.300(2)
_cell_formula_units_Z            2
_cell_length_a                   5.7757(5)
_cell_length_b                   11.9628(12)
_cell_length_c                   11.9927(12)
_cell_measurement_reflns_used    13451
_cell_measurement_temperature    292(2)
_cell_measurement_theta_max      27.43
_cell_measurement_theta_min      3.45
_cell_volume                     778.95(13)
_computing_cell_refinement       'CrystalClear (Rigaku/MSC Inc., 2005)'
_computing_data_collection       'CrystalClear (Rigaku/MSC Inc., 2005)'
_computing_data_reduction        'CrystalClear (Rigaku/MSC Inc., 2005)'
_computing_molecular_graphics    'Spek, A.L. (2003). J.Appl.Cryst. 36,7-13.'
_computing_structure_refinement  'SHELXL-2014/7 (Sheldrick, 2014)'
_computing_structure_solution    'SHELXS-2014/7 (Sheldrick, 2014)'
_diffrn_ambient_temperature      292(2)
_diffrn_detector_area_resol_mean 10.0000
_diffrn_measured_fraction_theta_full 0.999
_diffrn_measured_fraction_theta_max 0.996
_diffrn_measurement_device       RAXIS-RAPID
_diffrn_measurement_method       dtprofit.ref
_diffrn_radiation_source         'Sealed Tube'
_diffrn_radiation_type           MoK\a
_diffrn_radiation_wavelength     0.71075
_diffrn_reflns_av_R_equivalents  0.0349
_diffrn_reflns_av_unetI/netI     0.0238
_diffrn_reflns_laue_measured_fraction_full 0.999
_diffrn_reflns_laue_measured_fraction_max 0.996
_diffrn_reflns_limit_h_max       7
_diffrn_reflns_limit_h_min       -7
_diffrn_reflns_limit_k_max       15
_diffrn_reflns_limit_k_min       -15
_diffrn_reflns_limit_l_max       15
_diffrn_reflns_limit_l_min       -15
_diffrn_reflns_number            24463
_diffrn_reflns_point_group_measured_fraction_full 0.999
_diffrn_reflns_point_group_measured_fraction_max 0.996
_diffrn_reflns_theta_full        25.242
_diffrn_reflns_theta_max         27.430
_diffrn_reflns_theta_min         3.449
_exptl_absorpt_coefficient_mu    0.081
_exptl_absorpt_correction_T_max  0.9891
_exptl_absorpt_correction_T_min  0.9684
_exptl_absorpt_correction_type   numerical
_exptl_absorpt_process_details
;
 T.Higashi, Numerical Absorption Correction, NUMABS, 2002

;
_exptl_crystal_colour            colourless
_exptl_crystal_density_diffrn    1.319
_exptl_crystal_description       chunk
_exptl_crystal_F_000             324
_exptl_crystal_size_max          0.500
_exptl_crystal_size_mid          0.300
_exptl_crystal_size_min          0.100
_refine_diff_density_max         0.281
_refine_diff_density_min         -0.187
_refine_diff_density_rms         0.053
_refine_ls_extinction_method     none
_refine_ls_goodness_of_fit_ref   1.157
_refine_ls_hydrogen_treatment    constr
_refine_ls_matrix_type           full
_refine_ls_number_parameters     217
_refine_ls_number_reflns         3552
_refine_ls_number_restraints     0
_refine_ls_restrained_S_all      1.157
_refine_ls_R_factor_all          0.0837
_refine_ls_R_factor_gt           0.0549
_refine_ls_shift/su_max          0.000
_refine_ls_shift/su_mean         0.000
_refine_ls_structure_factor_coef Fsqd
_refine_ls_weighting_details
'w=1/[\s^2^(Fo^2^)+(0.1099P)^2^] where P=(Fo^2^+2Fc^2^)/3'
_refine_ls_weighting_scheme      calc
_refine_ls_wR_factor_gt          0.1539
_refine_ls_wR_factor_ref         0.1962
_reflns_Friedel_coverage         0.000
_reflns_number_gt                2231
_reflns_number_total             3552
_reflns_threshold_expression     'I > 2\s(I)'
_cod_data_source_file            jo5b02490_si_002.cif
_cod_data_source_block           header
_cod_depositor_comments
;
The following automatic conversions were performed:

'_exptl_absorpt_correction_type' value 'Numerical' changed to
'numerical' according to
/usr/data/users/saulius/crontab/automatic-downloads/current/ACS/lib/dictionaries/cif_core.dic
dictionary named 'cif_core.dic' version 2.4.2 from 2011-04-26.

Automatic conversion script
Id: cif_fix_values 4268 2015-11-12 08:31:59Z antanas 
;
_cod_database_code               4031922
_shelx_shelxl_version_number     2014/7
_shelx_space_group_comment
;
The symmetry employed for this shelxl refinement is uniquely defined
by the following loop, which should always be used as a source of
symmetry information in preference to the above space-group names.
They are only intended as comments.
;
_shelx_estimated_absorpt_t_min   0.961
_shelx_estimated_absorpt_t_max   0.992
_shelx_res_file
;

    F:\Petra\Aradi\AK309\ref2.res created by SHELXL-2014/7

TITL AK30 13-May-2015,13:20:      P-1
CELL 0.71075 5.7757 11.9628 11.9927 70.251 89.805 87.300
ZERR 2.0000 0.0005 0.0012 0.0012 0.003 0.002 0.002
LATT 1
SFAC C H N O
UNIT 44 30 2 2
MERG 2
FMAP 2
GRID
PLAN 25
TEMP 19
SIZE 0.5 0.3 0.1
L.S. 6
ACTA
WGHT    0.109900
FVAR       0.26724
C1    1    0.692834    0.291364    0.423375    11.00000    0.07074    0.06608 =
         0.04240   -0.01838    0.00438    0.00184
AFIX  43
H1    2    0.810929    0.247729    0.474334    11.00000   -1.20000
AFIX   0
C2    1    0.518151    0.348109    0.465704    11.00000    0.08463    0.07768 =
         0.05258   -0.02490    0.01566    0.00134
AFIX  43
H2    2    0.520651    0.344158    0.544483    11.00000   -1.20000
AFIX   0
C3    1    0.338982    0.410986    0.390927    11.00000    0.07054    0.06758 =
         0.06590   -0.02102    0.02468    0.00091
AFIX  43
H3    2    0.219667    0.447577    0.420315    11.00000   -1.20000
AFIX   0
C4    1    0.335957    0.419799    0.273406    11.00000    0.05646    0.06099 =
         0.05712   -0.01634    0.00928    0.00136
AFIX  43
H4    2    0.215225    0.461844    0.223393    11.00000   -1.20000
AFIX   0
O5    4    0.503882    0.374877    0.112933    11.00000    0.05462    0.07463 =
         0.04723   -0.02237   -0.00146    0.00993
C6    1    0.721806    0.367255    0.058543    11.00000    0.05757    0.06710 =
         0.04772   -0.01726    0.00214    0.01060
AFIX  23
H6A   2    0.796896    0.441783    0.042858    11.00000   -1.20000
H6B   2    0.694071    0.356873   -0.017007    11.00000   -1.20000
AFIX   0
C7    1    1.047771    0.212842    0.082370    11.00000    0.04809    0.04755 =
         0.03886   -0.01530    0.00063   -0.00548
C8    1    1.396058    0.071771    0.119696    11.00000    0.05498    0.05622 =
         0.05372   -0.01959    0.00241    0.00025
AFIX  43
H8    2    1.414957    0.087637    0.038848    11.00000   -1.20000
AFIX   0
C9    1    1.549055   -0.005358    0.197716    11.00000    0.05559    0.06017 =
         0.07071   -0.02209   -0.00056    0.00750
AFIX  43
H9    2    1.672965   -0.040370    0.169771    11.00000   -1.20000
AFIX   0
C10   1    1.520674   -0.032272    0.320076    11.00000    0.06504    0.06039 =
         0.06097   -0.01579   -0.01449    0.00949
AFIX  43
H10   2    1.625665   -0.085318    0.372749    11.00000   -1.20000
AFIX   0
C11   1    1.341099    0.018506    0.362269    11.00000    0.06724    0.06069 =
         0.05145   -0.01897   -0.01208    0.00615
AFIX  43
H11   2    1.321952   -0.001682    0.443618    11.00000   -1.20000
AFIX   0
N12   3    1.012986    0.155152    0.331474    11.00000    0.05917    0.05252 =
         0.04284   -0.01687   -0.00401    0.00140
C13   1    1.056806    0.242073   -0.049695    11.00000    0.04607    0.04818 =
         0.04257   -0.01623    0.00038    0.00105
C14   1    0.921981    0.182894   -0.104129    11.00000    0.06433    0.06942 =
         0.04692   -0.02074    0.00756   -0.01908
AFIX  43
H14   2    0.829570    0.123118   -0.058541    11.00000   -1.20000
AFIX   0
C15   1    0.923003    0.211801   -0.226497    11.00000    0.06906    0.08555 =
         0.04928   -0.03069    0.00060   -0.01691
AFIX  43
H15   2    0.830131    0.171995   -0.262457    11.00000   -1.20000
AFIX   0
C16   1    1.060198    0.298613   -0.294151    11.00000    0.06740    0.07565 =
         0.04140   -0.01856    0.00323   -0.00077
AFIX  43
H16   2    1.061337    0.317641   -0.376020    11.00000   -1.20000
AFIX   0
C17   1    1.195973    0.357490   -0.241029    11.00000    0.07723    0.07244 =
         0.04637   -0.01540    0.01342   -0.02133
AFIX  43
H17   2    1.289193    0.416681   -0.286947    11.00000   -1.20000
AFIX   0
C18   1    1.194810    0.329147   -0.119267    11.00000    0.06286    0.06575 =
         0.04961   -0.02238    0.00420   -0.01617
AFIX  43
H18   2    1.288176    0.369268   -0.083877    11.00000   -1.20000
AFIX   0
C4A   1    0.515417    0.365117    0.230660    11.00000    0.05288    0.04994 =
         0.04598   -0.01689    0.00616   -0.00565
C6A   1    0.883226    0.267511    0.131818    11.00000    0.04861    0.04885 =
         0.04056   -0.01644   -0.00021   -0.00157
C7A   1    1.208201    0.128342    0.159776    11.00000    0.04845    0.04620 =
         0.04524   -0.01713   -0.00082   -0.00399
C11A  1    1.182640    0.101956    0.283504    11.00000    0.05321    0.04889 =
         0.04198   -0.01600   -0.00366   -0.00151
C12A  1    0.873591    0.236493    0.256942    11.00000    0.04894    0.04829 =
         0.04018   -0.01620    0.00063   -0.00338
C12B  1    0.693864    0.298869    0.304817    11.00000    0.05290    0.04784 =
         0.04440   -0.01738    0.00523   -0.00400
HKLF 4

REM  AK30 13-May-2015,13:20:          New: P-1
REM R1 =  0.0549 for    2231 Fo > 4sig(Fo)  and  0.0837 for all    3552 data
REM    217 parameters refined using      0 restraints

END

WGHT      0.1099      0.0000

REM Highest difference peak  0.281,  deepest hole -0.187,  1-sigma level  0.053
Q1    1   0.7663  0.2689  0.2825  11.00000  0.05    0.22
Q2    1   1.4008  0.0908 -0.0034  11.00000  0.05    0.20
Q3    1   1.2455  0.1407  0.1964  11.00000  0.05    0.20
Q4    1   0.7123  0.3376  0.1968  11.00000  0.05    0.20
Q5    1   1.7049 -0.0626  0.1440  11.00000  0.05    0.19
Q6    1   0.9899  0.1369  0.4531  11.00000  0.05    0.19
Q7    1   0.8423  0.1779  0.4424  11.00000  0.05    0.18
Q8    1   0.3962  0.4918  0.0782  11.00000  0.05    0.18
Q9    1   0.5477  0.4906  0.0416  11.00000  0.05    0.17
Q10   1   1.2884  0.0353  0.0009  11.00000  0.05    0.17
Q11   1   1.0152  0.2625 -0.0571  11.00000  0.05    0.17
Q12   1   1.2868 -0.0071  0.4790  11.00000  0.05    0.16
Q13   1   0.9596  0.3417 -0.1219  11.00000  0.05    0.16
Q14   1   0.3232  0.3155  0.4413  11.00000  0.05    0.16
Q15   1   0.6139  0.2605  0.2360  11.00000  0.05    0.15
Q16   1   1.0109  0.2019  0.2137  11.00000  0.05    0.15
Q17   1   0.8695  0.2166  0.3721  11.00000  0.05    0.15
Q18   1   1.3573  0.0578  0.2423  11.00000  0.05    0.15
Q19   1   0.8319  0.1837  0.5047  11.00000  0.05    0.15
Q20   1   1.7139 -0.0576  0.0676  11.00000  0.05    0.15
Q21   1   1.0014  0.2252 -0.3994  11.00000  0.05    0.15
Q22   1   0.7510  0.1842  0.3210  11.00000  0.05    0.15
Q23   1   1.0615  0.1990 -0.0220  11.00000  0.05    0.15
Q24   1   0.8709  0.3009  0.0171  11.00000  0.05    0.14
Q25   1   0.8944  0.2416  0.5127  11.00000  0.05    0.14
;
_shelx_res_checksum              5553
_shelx_hkl_file
;
   0   0   2  193.19    3.10
   0   0   2  196.69    3.17
   0   0   2  191.70    3.09
   0   0   2  189.63    3.17
   0   0  -2  170.80    2.92
   0   0  -2  192.19    3.11
   0   0  -2  191.99    3.12
   0   0  -2  192.05    3.10
   0   0   3    2.33    0.14
   0   0   3    2.17    0.20
   0   0   3    2.26    0.14
   0   0   3    2.11    0.20
   0   0  -3    2.30    0.13
   0   0  -3    2.23    0.14
   0   0  -3    2.24    0.14
   0   0  -3    2.37    0.13
   0   0   4   11.74    0.28
   0   0   4   11.76    0.28
   0   0   4   11.62    0.28
   0   0   4   11.26    0.29
   0   0  -4   11.35    0.28
   0   0  -4   11.65    0.29
   0   0  -4   11.49    0.28
   0   0  -4   11.48    0.37
   0   0   5   87.10    1.56
   0   0   5   88.05    1.55
   0   0   5   87.30    1.58
   0   0   5   88.95    1.59
   0   0  -5   86.11    1.54
   0   0  -5   86.80    1.66
   0   0  -5   87.04    1.68
   0   0  -5   87.17    1.70
   0   0   6   31.37    0.77
   0   0   6   30.78    0.66
   0   0   6   31.19    0.64
   0   0   6   30.32    0.73
   0   0  -6   30.41    0.66
   0   0  -6   30.54    0.64
   0   0  -6   29.61    0.62
   0   0  -6   30.37    0.64
   0   0   7    1.21    0.15
   0   0   7    1.31    0.16
   0   0   7    1.31    0.16
   0   0   7    1.42    0.25
   0   0  -7    1.28    0.15
   0   0  -7    1.21    0.16
   0   0  -7    1.33    0.17
   0   0  -7    1.19    0.15
   0   0   8    1.22    0.26
   0   0   8    1.24    0.18
   0   0   8    1.24    0.17
   0   0   8    1.40    0.26
   0   0  -8    1.32    0.18
   0   0  -8    1.21    0.17
   0   0  -8    0.70    0.26
   0   0   9    2.37    0.22
   0   0   9    2.53    0.35
   0   0   9    2.47    0.24
   0   0   9    2.26    0.22
   0   0  -9    2.32    0.35
   0   0  -9    2.34    0.24
   0   0  -9    2.19    0.23
   0   0  -9    2.56    0.23
   0   0  10    0.02    0.13
   0   0  10    0.01    0.21
   0   0  10    0.10    0.12
   0   0  10    0.07    0.12
   0   0 -10    0.03    0.13
   0   0 -10    0.02    0.13
   0   0 -10   -0.01    0.21
   0   0 -10    0.01    0.13
   0   0  11    1.22    0.25
   0   0  11    1.29    0.24
   0   0  11    0.52    0.37
   0   0  11    0.77    0.35
   0   0 -11    1.18    0.24
   0   0 -11    1.37    0.24
   0   0 -11    1.21    0.38
   0   0 -11    1.10    0.26
   0   0  12    0.01    0.15
   0   0  12    0.06    0.14
   0   0  12    0.01    0.14
   0   0 -12   -0.01    0.15
   0   0 -12    0.00    0.16
   0   0 -12    0.00    0.15
   0   0 -12    0.07    0.23
   0   0  13   -0.01    0.13
   0   0  13    0.01    0.14
   0   0  13   -0.00    0.12
   0   0  13    0.09    0.14
   0   0 -13    0.03    0.21
   0   0 -13    0.02    0.21
   0   0 -13   -0.08    0.13
   0   0 -13    0.00    0.15
   0   0  14    0.04    0.19
   0   0  14   -0.03    0.28
   0   0  14    0.16    0.19
   0   0 -14   -0.00    0.28
   0   0 -14    0.00    0.20
   0   0 -14   -0.05    0.19
   0   0 -14   -0.00    0.18
   0   0 -14    0.01    0.18
   0   1 -14   -0.00    0.20
   0   1 -14    0.00    0.20
   0   1 -14    0.00    0.21
   0   1 -14    0.07    0.17
   0  -1  14   -0.00    0.17
   0  -1  14    0.00    0.17
   0  -1  14    0.11    0.20
   0  -1  14    0.02    0.18
   0   1 -13   -0.00    0.25
   0   1 -13    0.14    0.23
   0   1 -13   -0.03    0.23
   0   1 -13   -0.02    0.24
   0  -1  13   -0.02    0.15
   0  -1  13   -0.02    0.14
   0  -1  13   -0.06    0.25
   0  -1  13    0.00    0.14
   0   1 -12    0.04    0.16
   0   1 -12    0.12    0.17
   0   1 -12    0.00    0.18
   0   1 -12   -0.02    0.17
   0  -1  12    0.23    0.18
   0  -1  12   -0.02    0.16
   0  -1  12   -0.00    0.17
   0  -1  12    0.02    0.16
   0   1 -11    0.10    0.24
   0   1 -11    0.01    0.15
   0   1 -11   -0.03    0.15
   0   1 -11   -0.00    0.16
   0  -1  11    0.08    0.14
   0  -1  11    0.15    0.15
   0  -1  11    0.02    0.15
   0  -1  11    0.06    0.16
   0   1 -10    0.21    0.27
   0   1 -10    0.16    0.26
   0   1 -10    0.06    0.16
   0   1 -10    0.20    0.26
   0  -1  10    0.24    0.16
   0  -1  10    0.15    0.26
   0  -1  10    0.29    0.27
   0  -1  10    0.14    0.15
   0   1  -9    0.11    0.15
   0   1  -9    0.22    0.15
   0   1  -9    0.12    0.14
   0   1  -9    0.02    0.23
   0  -1   9    0.12    0.14
   0  -1   9    0.17    0.14
   0  -1   9    0.19    0.14
   0  -1   9    0.20    0.15
   0   1  -8    0.82    0.16
   0   1  -8    0.87    0.18
   0   1  -8    1.03    0.17
   0   1  -8    0.92    0.17
   0  -1   8    0.83    0.16
   0  -1   8    0.97    0.17
   0  -1   8    0.56    0.26
   0  -1   8    0.91    0.17
   0   1  -7    0.83    0.15
   0   1  -7    0.63    0.23
   0   1  -7    0.88    0.22
   0   1  -7    0.74    0.15
   0  -1   7    0.81    0.15
   0  -1   7    0.84    0.14
   0  -1   7    0.82    0.15
   0  -1   7    0.76    0.15
   0   1  -6    1.78    0.24
   0   1  -6    1.79    0.24
   0   1  -6    1.73    0.16
   0   1  -6    1.59    0.16
   0  -1   6    1.75    0.15
   0  -1   6    1.65    0.16
   0  -1   6    1.79    0.15
   0   1  -5    0.56    0.12
   0   1  -5    0.79    0.18
   0   1  -5    0.75    0.19
   0   1  -5    0.67    0.12
   0  -1   5    0.66    0.19
   0  -1   5    0.68    0.18
   0  -1   5    0.72    0.12
   0  -1   5    0.65    0.18
   0   1  -4   17.43    0.48
   0   1  -4   16.91    0.38
   0   1  -4   16.94    0.38
   0   1  -4   16.66    0.47
   0  -1   4   17.14    0.45
   0  -1   4   16.82    0.46
   0  -1   4   17.77    0.38
   0  -1   4   16.84    0.48
   0   1  -3   35.54    0.64
   0   1  -3   35.14    0.63
   0   1  -3   35.52    0.64
   0   1  -3   35.68    0.64
   0  -1   3   36.61    0.73
   0  -1   3   35.23    0.64
   0  -1   3   36.33    0.73
   0  -1   3   36.42    0.72
   0   1  -2   45.42    0.74
   0   1  -2   44.02    0.72
   0   1  -2   45.83    0.74
   0   1  -2   45.51    0.74
   0  -1   2   45.37    0.72
   0  -1   2   45.62    0.75
   0  -1   2   45.06    0.72
   0  -1   2   45.24    0.72
   0   1   2    3.80    0.12
   0   1   2    3.88    0.12
   0   1   2    3.89    0.12
   0   1   2    4.08    0.18
   0  -1  -2    3.92    0.18
   0  -1  -2    3.79    0.12
   0  -1  -2    3.87    0.18
   0  -1  -2    3.91    0.12
   0   1   3   11.92    0.27
   0   1   3   11.53    0.25
   0   1   3   12.40    0.36
   0   1   3   11.61    0.25
   0  -1  -3   11.93    0.26
   0  -1  -3   11.80    0.27
   0  -1  -3   11.89    0.28
   0  -1  -3   12.75    0.36
   0   1   4   18.36    0.38
   0   1   4   18.17    0.36
   0   1   4   18.75    0.38
   0   1   4   16.67    0.46
   0  -1  -4   18.84    0.40
   0  -1  -4   19.09    0.39
   0  -1  -4   18.62    0.38
   0  -1  -4   18.42    0.39
   0   1   5    1.47    0.20
   0   1   5    1.45    0.22
   0   1   5    1.49    0.14
   0   1   5    1.44    0.21
   0  -1  -5    1.61    0.14
   0  -1  -5    1.28    0.13
   0  -1  -5    1.36    0.13
   0  -1  -5    1.41    0.14
   0   1   6  117.97    2.29
   0   1   6  117.68    2.27
   0   1   6  117.92    2.26
   0   1   6  117.82    2.18
   0  -1  -6  117.03    2.18
   0  -1  -6  117.29    2.16
   0  -1  -6  116.87    2.16
   0  -1  -6  119.99    2.36
   0   1   7    1.84    0.23
   0   1   7    1.75    0.17
   0   1   7    1.80    0.24
   0   1   7    1.69    0.16
   0  -1  -7    1.78    0.16
   0  -1  -7    1.68    0.25
   0  -1  -7    1.69    0.26
   0  -1  -7    1.80    0.18
   0   1   8    4.91    0.25
   0   1   8    4.46    0.38
   0   1   8    4.73    0.23
   0   1   8    4.60    0.24
   0  -1  -8    4.79    0.25
   0  -1  -8    4.71    0.25
   0  -1  -8    4.81    0.38
   0  -1  -8    5.02    0.25
   0   1   9    0.01    0.14
   0   1   9    0.07    0.12
   0   1   9    0.13    0.13
   0   1   9    0.14    0.12
   0  -1  -9    0.09    0.20
   0  -1  -9    0.21    0.20
   0  -1  -9    0.21    0.20
   0  -1  -9    0.13    0.14
   0   1  10    0.13    0.23
   0   1  10    0.15    0.22
   0   1  10    0.15    0.13
   0   1  10    0.07    0.14
   0  -1 -10    0.06    0.14
   0  -1 -10    0.12    0.23
   0  -1 -10    0.09    0.14
   0  -1 -10    0.03    0.14
   0   1  11    3.56    0.45
   0   1  11    3.46    0.31
   0   1  11    3.02    0.31
   0  -1 -11    3.07    0.46
   0  -1 -11    3.20    0.31
   0  -1 -11    3.19    0.30
   0  -1 -11    2.99    0.46
   0   1  12    0.03    0.11
   0   1  12    0.01    0.11
   0   1  12    0.01    0.18
   0  -1 -12   -0.04    0.18
   0  -1 -12   -0.00    0.11
   0  -1 -12   -0.04    0.11
   0  -1 -12    0.04    0.11
   0  -1 -12   -0.01    0.12
   0   1  13    0.00    0.14
   0   1  13   -0.02    0.21
   0   1  13    0.04    0.14
   0  -1 -13    0.01    0.13
   0  -1 -13   -0.03    0.21
   0  -1 -13    0.02    0.22
   0  -1 -13   -0.05    0.22
   0  -1 -13   -0.00    0.15
   0   1  14    0.02    0.17
   0   1  14    0.01    0.25
   0  -1 -14    0.00    0.27
   0  -1 -14    0.02    0.17
   0  -1 -14    0.00    0.16
   0  -1 -14    0.00    0.16
   0  -1 -14   -0.00    0.25
   0   2 -13    0.05    0.16
   0   2 -13    0.00    0.18
   0   2 -13    0.02    0.17
   0   2 -13   -0.00    0.17
   0  -2  13    0.04    0.25
   0  -2  13    0.05    0.27
   0  -2  13   -0.00    0.17
   0  -2  13   -0.03    0.16
   0   2 -12    0.00    0.18
   0   2 -12   -0.00    0.18
   0   2 -12    0.08    0.27
   0   2 -12    0.00    0.18
   0  -2  12    0.00    0.17
   0  -2  12   -0.01    0.27
   0  -2  12   -0.01    0.26
   0  -2  12    0.21    0.18
   0   2 -11    0.04    0.16
   0   2 -11    0.00    0.16
   0   2 -11    0.07    0.15
   0   2 -11   -0.00    0.26
   0  -2  11    0.00    0.24
   0  -2  11    0.10    0.16
   0  -2  11   -0.01    0.15
   0  -2  11    0.00    0.15
   0   2 -10   -0.03    0.23
   0   2 -10    0.12    0.24
   0   2 -10    0.10    0.15
   0   2 -10   -0.07    0.24
   0  -2  10    0.01    0.14
   0  -2  10    0.00    0.23
   0  -2  10    0.10    0.22
   0  -2  10    0.12    0.16
   0   2  -9    0.06    0.21
   0   2  -9    0.05    0.14
   0   2  -9   -0.04    0.13
   0   2  -9    0.08    0.21
   0  -2   9    0.06    0.12
   0  -2   9    0.10    0.13
   0  -2   9    0.03    0.21
   0  -2   9    0.08    0.22
   0   2  -8    1.92    0.21
   0   2  -8    1.87    0.21
   0   2  -8    1.84    0.22
   0   2  -8    1.88    0.21
   0  -2   8    1.84    0.21
   0  -2   8    1.68    0.21
   0  -2   8    1.60    0.20
   0  -2   8    1.70    0.22
   0   2  -7   -0.03    0.09
   0   2  -7   -0.09    0.09
   0   2  -7   -0.04    0.09
   0   2  -7   -0.03    0.10
   0  -2   7   -0.01    0.10
   0  -2   7   -0.01    0.14
   0  -2   7    0.05    0.14
   0  -2   7    0.15    0.13
   0   2  -6    5.98    0.25
   0   2  -6    5.83    0.25
   0   2  -6    6.02    0.36
   0   2  -6    5.74    0.25
   0  -2   6    5.76    0.24
   0  -2   6    5.71    0.24
   0  -2   6    5.72    0.26
   0  -2   6    5.72    0.24
   0   2  -5   -0.05    0.11
   0   2  -5   -0.02    0.11
   0   2  -5   -0.00    0.07
   0   2  -5   -0.01    0.07
   0  -2   5   -0.00    0.07
   0  -2   5    0.05    0.08
   0  -2   5   -0.06    0.07
   0  -2   5   -0.01    0.07
   0   2  -4    0.02    0.06
   0   2  -4    0.03    0.07
   0   2  -4   -0.03    0.06
   0   2  -4   -0.01    0.06
   0  -2   4   -0.01    0.06
   0  -2   4   -0.04    0.06
   0  -2   4    0.00    0.06
   0  -2   4   -0.02    0.11
   0   2  -3    8.47    0.33
   0   2  -3    8.76    0.32
   0   2  -3    8.96    0.24
   0   2  -3    8.48    0.33
   0  -2   3    8.23    0.32
   0  -2   3    8.12    0.31
   0  -2   3    8.66    0.23
   0  -2   3    8.85    0.25
   0   2  -2    1.75    0.18
   0   2  -2    1.82    0.13
   0   2  -2    1.82    0.13
   0   2  -2    1.91    0.13
   0  -2   2    2.02    0.12
   0  -2   2    2.03    0.19
   0  -2   2    1.86    0.20
   0  -2   2    1.76    0.19
   0   2  -1   35.31    0.59
   0   2  -1   35.12    0.58
   0   2  -1   35.00    0.65
   0   2  -1   35.40    0.56
   0  -2   1   36.81    0.69
   0  -2   1   34.18    0.56
   0  -2   1   34.40    0.60
   0  -2   1   33.82    0.56
   0   2   0  151.46    2.50
   0   2   0  153.03    2.39
   0   2   0  149.29    2.36
   0  -2   0  148.14    2.43
   0  -2   0  148.03    2.35
   0  -2   0  155.48    2.40
   0  -2   0  155.03    2.36
   0   2   1   25.60    0.39
   0   2   1   24.84    0.35
   0   2   1   26.46    0.41
   0   2   1   25.67    0.41
   0  -2  -1   26.51    0.41
   0  -2  -1   25.24    0.43
   0  -2  -1   25.89    0.41
   0  -2  -1   25.89    0.37
   0   2   2    4.88    0.14
   0   2   2    5.41    0.22
   0   2   2    4.83    0.13
   0   2   2    5.02    0.15
   0  -2  -2    5.02    0.14
   0  -2  -2    5.23    0.22
   0  -2  -2    4.99    0.15
   0  -2  -2    4.76    0.13
   0   2   3   48.78    0.81
   0   2   3   47.33    0.77
   0   2   3   49.09    0.82
   0   2   3   48.30    0.80
   0  -2  -3   48.53    0.80
   0  -2  -3   48.58    0.81
   0  -2  -3   48.69    0.79
   0  -2  -3   49.30    0.90
   0   2   4   22.47    0.53
   0   2   4   21.85    0.43
   0   2   4   21.77    0.42
   0  -2  -4   21.52    0.42
   0  -2  -4   21.75    0.43
   0  -2  -4   21.88    0.42
   0  -2  -4   21.94    0.42
   0  -2  -4   21.65    0.43
   0   2   5  123.33    2.28
   0   2   5  124.74    2.20
   0   2   5  126.77    2.24
   0  -2  -5  122.82    2.31
   0  -2  -5  125.13    2.34
   0  -2  -5  124.18    2.31
   0  -2  -5  124.79    2.21
   0  -2  -5  125.31    2.22
   0   2   6   42.54    0.94
   0   2   6   42.85    0.94
   0   2   6   43.47    0.84
   0  -2  -6   43.07    0.84
   0  -2  -6   43.76    0.96
   0  -2  -6   42.44    0.84
   0  -2  -6   42.36    0.84
   0  -2  -6   42.75    0.83
   0   2   7    9.36    0.31
   0   2   7    9.31    0.41
   0   2   7    9.53    0.30
   0  -2  -7    9.08    0.30
   0  -2  -7    9.24    0.30
   0  -2  -7    9.63    0.40
   0  -2  -7    9.64    0.32
   0  -2  -7    9.57    0.30
   0   2   8    1.77    0.18
   0   2   8    1.81    0.18
   0   2   8    1.79    0.18
   0  -2  -8    1.73    0.17
   0  -2  -8    1.87    0.29
   0  -2  -8    1.82    0.27
   0  -2  -8    1.74    0.26
   0  -2  -8    1.75    0.27
   0   2   9    1.69    0.20
   0   2   9    1.55    0.20
   0   2   9    1.63    0.20
   0  -2  -9    1.82    0.19
   0  -2  -9    1.49    0.20
   0  -2  -9    1.37    0.19
   0  -2  -9    1.46    0.20
   0  -2  -9    1.79    0.30
   0   2  10    0.68    0.19
   0   2  10    0.59    0.29
   0   2  10    0.63    0.18
   0  -2 -10    0.63    0.19
   0  -2 -10    0.64    0.18
   0  -2 -10    0.77    0.19
   0  -2 -10    0.75    0.28
   0  -2 -10    0.59    0.20
   0   2  11    8.62    0.58
   0   2  11    6.65    0.40
   0   2  11    6.63    0.57
   0  -2 -11    6.71    0.38
   0  -2 -11    6.83    0.40
   0  -2 -11    6.60    0.57
   0  -2 -11    6.48    0.57
   0  -2 -11    9.14    0.58
   0   2  12   -0.00    0.33
   0   2  12    0.70    0.21
   0   2  12    0.34    0.33
   0  -2 -12   -0.02    0.21
   0  -2 -12   -0.02    0.20
   0  -2 -12    0.74    0.20
   0  -2 -12    0.50    0.33
   0  -2 -12   -0.02    0.21
   0   2  13    0.33    0.18
   0   2  13   -0.01    0.18
   0   2  13    0.00    0.17
   0  -2 -13   -0.05    0.19
   0  -2 -13   -0.00    0.28
   0  -2 -13    0.00    0.17
   0  -2 -13    0.12    0.18
   0  -2 -13   -0.02    0.28
   0   2  14    0.01    0.23
   0   2  14    0.06    0.15
   0   2  14   -0.02    0.15
   0  -2 -14   -0.00    0.16
   0  -2 -14   -0.00    0.14
   0  -2 -14   -0.01    0.15
   0  -2 -14   -0.01    0.22
   0  -2 -14   -0.00    0.15
   0   2  15   -0.01    0.17
   0   2  15    0.03    0.25
   0   2  15    0.01    0.17
   0  -2 -15    0.00    0.19
   0  -2 -15   -0.01    0.28
   0  -2 -15   -0.00    0.27
   0  -2 -15    0.02    0.28
   0  -2 -15    0.02    0.17
   0   3 -13    0.01    0.24
   0   3 -13    0.02    0.24
   0   3 -13    0.46    0.33
   0   3 -13   -0.00    0.25
   0  -3  13    0.01    0.33
   0  -3  13    0.49    0.24
   0  -3  13   -0.05    0.22
   0  -3  13   -0.02    0.33
   0   3 -12   -0.00    0.58
   0   3 -12    2.92    0.37
   0   3 -12    2.55    0.36
   0   3 -12    2.67    0.37
   0  -3  12    2.65    0.38
   0  -3  12    2.83    0.36
   0  -3  12    2.27    0.35
   0  -3  12    2.67    0.35
   0   3 -11    0.02    0.18
   0   3 -11    0.00    0.29
   0   3 -11    0.12    0.27
   0   3 -11   -0.01    0.18
   0  -3  11   -0.00    0.26
   0  -3  11    0.33    0.19
   0  -3  11   -0.00    0.27
   0  -3  11    0.02    0.17
   0   3 -10    0.00    0.15
   0   3 -10   -0.01    0.15
   0   3 -10    0.02    0.16
   0   3 -10    0.01    0.16
   0  -3  10    0.16    0.14
   0  -3  10    0.12    0.15
   0  -3  10   -0.01    0.25
   0  -3  10    0.05    0.15
   0   3  -9    2.11    0.26
   0   3  -9    1.80    0.40
   0   3  -9    2.04    0.40
   0   3  -9    1.91    0.27
   0  -3   9    1.99    0.25
   0  -3   9    1.75    0.41
   0  -3   9    2.02    0.25
   0  -3   9    1.97    0.25
   0   3  -8    1.03    0.21
   0   3  -8    1.07    0.32
   0   3  -8    0.91    0.31
   0   3  -8    1.03    0.30
   0  -3   8    0.55    0.30
   0  -3   8    1.02    0.30
   0  -3   8    1.01    0.29
   0  -3   8    0.97    0.33
   0   3  -7    0.05    0.17
   0   3  -7    0.00    0.10
   0   3  -7   -0.04    0.10
   0   3  -7   -0.03    0.17
   0  -3   7    0.10    0.17
   0  -3   7    0.06    0.10
   0  -3   7    0.01    0.10
   0  -3   7    0.09    0.10
   0   3  -6    0.06    0.08
   0   3  -6   -0.07    0.08
   0   3  -6    0.01    0.08
   0   3  -6   -0.02    0.08
   0  -3   6    0.04    0.08
   0  -3   6   -0.02    0.08
   0  -3   6   -0.02    0.13
   0  -3   6   -0.04    0.08
   0   3  -5    0.03    0.09
   0   3  -5    0.06    0.09
   0   3  -5    0.14    0.09
   0   3  -5    0.13    0.09
   0  -3   5    0.05    0.10
   0  -3   5    0.07    0.09
   0  -3   5    0.05    0.09
   0  -3   5    0.08    0.09
   0   3  -4    3.20    0.27
   0   3  -4    3.04    0.25
   0   3  -4    3.16    0.18
   0   3  -4    3.28    0.27
   0  -3   4    3.22    0.17
   0  -3   4    2.92    0.16
   0  -3   4    2.99    0.18
   0  -3   4    3.12    0.17
   0   3  -3    0.31    0.09
   0   3  -3    0.34    0.16
   0   3  -3    0.33    0.10
   0   3  -3    0.27    0.16
   0  -3   3    0.29    0.10
   0  -3   3    0.33    0.10
   0  -3   3    0.33    0.08
   0  -3   3    0.28    0.10
   0   3  -2    3.18    0.15
   0   3  -2    2.93    0.16
   0   3  -2    2.82    0.20
   0   3  -2    2.91    0.16
   0  -3   2    3.02    0.16
   0  -3   2    3.16    0.13
   0  -3   2    3.16    0.15
   0  -3   2    3.05    0.15
   0   3  -1   13.49    0.31
   0   3  -1   13.34    0.27
   0   3  -1   13.94    0.38
   0   3  -1   13.56    0.31
   0  -3   1   13.46    0.30
   0  -3   1   13.79    0.34
   0  -3   1   13.41    0.30
   0  -3   1   13.41    0.30
   0   3   0  203.74    3.55
   0   3   0  216.53    3.68
   0   3   0  201.41    3.51
   0  -3   0  212.50    3.57
   0  -3   0  204.12    3.62
   0  -3   0  201.25    3.48
   0  -3   0  219.62    3.60
   0   3   1  116.69    1.88
   0   3   1  117.11    2.01
   0   3   1  118.77    1.97
   0   3   1  121.28    1.90
   0  -3  -1  117.20    1.95
   0  -3  -1  117.80    1.95
   0  -3  -1  116.92    2.02
   0  -3  -1  123.57    1.96
   0   3   2   16.01    0.28
   0   3   2   16.04    0.38
   0   3   2   15.47    0.32
   0   3   2   16.02    0.40
   0  -3  -2   15.87    0.30
   0  -3  -2   15.24    0.40
   0  -3  -2   16.55    0.41
   0  -3  -2   15.57    0.28
   0   3   3   14.12    0.28
   0   3   3   13.97    0.39
   0   3   3   13.72    0.31
   0   3   3   13.51    0.29
   0  -3  -3   13.97    0.37
   0  -3  -3   13.76    0.31
   0  -3  -3   13.11    0.27
   0  -3  -3   14.24    0.39
   0   3   4    6.81    0.20
   0   3   4    6.77    0.29
   0   3   4    6.77    0.29
   0   3   4    6.78    0.29
   0  -3  -4    7.05    0.28
   0  -3  -4    6.39    0.29
   0  -3  -4    6.81    0.28
   0  -3  -4    6.81    0.29
   0   3   5    2.83    0.15
   0   3   5    2.99    0.24
   0   3   5    2.77    0.16
   0   3   5    2.85    0.16
   0  -3  -5    3.05    0.16
   0  -3  -5    2.85    0.17
   0  -3  -5    2.76    0.16
   0  -3  -5    2.90    0.16
   0   3   6    3.55    0.26
   0   3   6    3.64    0.27
   0   3   6    3.47    0.19
   0  -3  -6    3.66    0.19
   0  -3  -6    3.62    0.19
   0  -3  -6    3.40    0.18
   0  -3  -6    3.49    0.26
   0  -3  -6    3.88    0.26
   0   3   7    4.03    0.20
   0   3   7    4.15    0.21
   0   3   7    4.13    0.21
   0  -3  -7    3.94    0.21
   0  -3  -7    4.27    0.21
   0  -3  -7    4.15    0.20
   0  -3  -7    4.02    0.21
   0  -3  -7    4.03    0.20
   0   3   8    0.03    0.11
   0   3   8    0.20    0.11
   0   3   8    0.09    0.16
   0  -3  -8    0.12    0.10
   0  -3  -8    0.08    0.18
   0  -3  -8    0.12    0.11
   0  -3  -8    0.08    0.16
   0  -3  -8    0.12    0.11
   0   3   9    0.09    0.12
   0   3   9    0.17    0.19
   0   3   9    0.13    0.12
   0  -3  -9    0.06    0.18
   0  -3  -9    0.11    0.12
   0  -3  -9    0.17    0.12
   0  -3  -9    0.11    0.13
   0  -3  -9    0.06    0.12
   0   3  10    1.07    0.20
   0   3  10    0.96    0.32
   0   3  10    1.12    0.30
   0  -3 -10    0.92    0.21
   0  -3 -10    0.83    0.31
   0  -3 -10    1.01    0.19
   0  -3 -10    0.89    0.19
   0  -3 -10    0.88    0.30
   0   3  11    6.24    0.37
   0   3  11    6.57    0.37
   0   3  11    6.35    0.52
   0  -3 -11    6.32    0.37
   0  -3 -11    6.22    0.35
   0  -3 -11    6.13    0.56
   0  -3 -11    6.12    0.36
   0   3  12    4.32    0.36
   0   3  12    4.43    0.53
   0  -3 -12    4.80    0.35
   0  -3 -12    4.31    0.34
   0  -3 -12    4.28    0.36
   0  -3 -12    4.22    0.36
   0   3  13    0.91    0.24
   0   3  13    0.90    0.22
   0   3  13    1.02    0.34
   0  -3 -13    0.01    0.23
   0  -3 -13   -0.01    0.22
   0  -3 -13   -0.03    0.37
   0  -3 -13   -0.01    0.37
   0  -3 -13   -0.01    0.36
   0   3  14    0.00    0.18
   0   3  14    0.23    0.17
   0   3  14    0.07    0.17
   0  -3 -14   -0.00    0.18
   0  -3 -14   -0.00    0.17
   0  -3 -14    0.00    0.18
   0  -3 -14    0.01    0.18
   0  -3 -14   -0.07    0.17
   0   3  15   -0.04    0.17
   0   3  15   -0.27    0.19
   0   3  15   -0.00    0.20
   0  -3 -15    0.00    0.31
   0  -3 -15   -0.00    0.19
   0  -3 -15    0.04    0.31
   0  -3 -15    0.01    0.20
   0  -3 -15    0.09    0.20
   0   4 -12   -0.07    0.17
   0   4 -12    0.00    0.26
   0   4 -12   -0.03    0.16
   0   4 -12    0.01    0.17
   0  -4  12    0.01    0.25
   0  -4  12   -0.01    0.24
   0  -4  12   -0.01    0.24
   0  -4  12    0.06    0.17
   0   4 -11    0.35    0.21
   0   4 -11    0.00    0.21
   0   4 -11    0.00    0.22
   0   4 -11    0.59    0.20
   0  -4  11    0.39    0.34
   0  -4  11   -0.02    0.20
   0  -4  11    0.00    0.21
   0  -4  11    0.01    0.20
   0   4 -10    0.00    0.20
   0   4 -10    0.72    0.31
   0   4 -10    0.82    0.21
   0   4 -10   -0.01    0.21
   0  -4  10    0.02    0.19
   0  -4  10    0.00    0.20
   0  -4  10    0.61    0.30
   0   4  -9   -0.05    0.23
   0   4  -9    0.01    0.14
   0   4  -9   -0.02    0.14
   0   4  -9   -0.06    0.13
   0  -4   9   -0.00    0.21
   0  -4   9   -0.07    0.21
   0  -4   9   -0.00    0.13
   0   4  -8    2.00    0.25
   0   4  -8    1.98    0.27
   0   4  -8    1.90    0.27
   0   4  -8    1.72    0.25
   0  -4   8    1.90    0.25
   0  -4   8    1.69    0.24
   0  -4   8    1.55    0.41
   0  -4   8    1.63    0.24
   0   4  -7    0.38    0.17
   0   4  -7    0.21    0.16
   0   4  -7    0.27    0.17
   0   4  -7    0.34    0.16
   0  -4   7    0.41    0.24
   0  -4   7    0.34    0.16
   0  -4   7    0.30    0.16
   0   4  -6    0.02    0.15
   0   4  -6    0.06    0.09
   0   4  -6   -0.03    0.10
   0   4  -6   -0.03    0.10
   0  -4   6    0.01    0.10
   0  -4   6    0.03    0.10
   0  -4   6    0.06    0.10
   0  -4   6    0.03    0.10
   0   4  -5    5.18    0.35
   0   4  -5    4.93    0.36
   0   4  -5    4.99    0.34
   0   4  -5    4.72    0.34
   0  -4   5    5.09    0.24
   0  -4   5    5.13    0.24
   0  -4   5    4.90    0.25
   0  -4   5    5.16    0.22
   0   4  -4    2.72    0.26
   0   4  -4    2.64    0.17
   0   4  -4    2.86    0.18
   0   4  -4    2.67    0.18
   0  -4   4    2.59    0.28
   0  -4   4    2.36    0.16
   0  -4   4    2.69    0.17
   0  -4   4    2.90    0.18
   0   4  -3   10.96    0.30
   0   4  -3   10.91    0.31
   0   4  -3   10.73    0.38
   0   4  -3   11.05    0.32
   0  -4   3   11.00    0.36
   0  -4   3   10.65    0.31
   0  -4   3   10.88    0.30
   0  -4   3   11.08    0.40
   0   4  -2    5.99    0.20
   0   4  -2    5.90    0.21
   0   4  -2    6.12    0.22
   0   4  -2    6.19    0.23
   0  -4   2    6.14    0.30
   0  -4   2    6.31    0.30
   0  -4   2    6.34    0.31
   0  -4   2    6.14    0.19
   0   4  -1    8.26    0.25
   0   4  -1    7.71    0.20
   0   4  -1    8.27    0.23
   0  -4   1    8.27    0.33
   0  -4   1    8.11    0.24
   0  -4   1    8.08    0.20
   0  -4   1    8.37    0.32
   0  -4   1    6.52    0.22
   0   4   0   13.30    0.29
   0   4   0   13.75    0.40
   0   4   0   13.57    0.33
   0  -4   0   13.94    0.31
   0  -4   0   13.50    0.32
   0  -4   0   13.44    0.26
   0  -4   0   13.33    0.31
   0  -4   0   13.92    0.31
   0   4   1    0.05    0.05
   0   4   1    0.01    0.06
   0   4   1    0.00    0.06
   0   4   1    0.01    0.06
   0  -4  -1    0.04    0.06
   0  -4  -1   -0.03    0.05
   0  -4  -1    0.01    0.06
   0  -4  -1    0.01    0.06
   0   4   2   12.05    0.28
   0   4   2   11.98    0.27
   0   4   2   12.08    0.29
   0   4   2   11.87    0.23
   0  -4  -2   12.18    0.24
   0  -4  -2   11.99    0.28
   0  -4  -2   11.85    0.29
   0  -4  -2   12.06    0.34
   0   4   3    0.07    0.07
   0   4   3    0.12    0.09
   0   4   3    0.13    0.08
   0   4   3    0.09    0.08
   0  -4  -3    0.13    0.08
   0  -4  -3    0.05    0.11
   0  -4  -3    0.07    0.08
   0  -4  -3    0.07    0.10
   0   4   4   15.03    0.34
   0   4   4   14.76    0.41
   0   4   4   15.24    0.45
   0   4   4   14.67    0.31
   0  -4  -4   15.00    0.33
   0  -4  -4   14.75    0.44
   0  -4  -4   15.13    0.34
   0  -4  -4   14.86    0.32
   0   4   5    2.33    0.23
   0   4   5    2.34    0.14
   0   4   5    2.35    0.23
   0   4   5    2.30    0.23
   0  -4  -5    2.49    0.22
   0  -4  -5    2.31    0.23
   0  -4  -5    2.29    0.23
   0  -4  -5    2.42    0.22
   0   4   6    4.78    0.20
   0   4   6    4.89    0.20
   0   4   6    4.76    0.21
   0   4   6    4.89    0.21
   0  -4  -6    4.90    0.21
   0  -4  -6    4.98    0.22
   0  -4  -6    4.74    0.20
   0  -4  -6    4.91    0.21
   0   4   7    0.83    0.20
   0   4   7    0.76    0.20
   0   4   7    0.82    0.21
   0  -4  -7    0.85    0.20
   0  -4  -7    0.83    0.14
   0  -4  -7    0.76    0.14
   0  -4  -7    0.83    0.21
   0  -4  -7    0.69    0.21
   0   4   8    1.36    0.25
   0   4   8    1.40    0.17
   0   4   8    1.27    0.16
   0  -4  -8    1.53    0.17
   0  -4  -8    1.25    0.16
   0  -4  -8    1.36    0.25
   0  -4  -8    0.38    0.26
   0  -4  -8    1.36    0.16
   0   4   9    1.37    0.29
   0   4   9    1.28    0.19
   0   4   9    1.52    0.18
   0  -4  -9    1.49    0.18
   0  -4  -9    1.06    0.30
   0  -4  -9    1.42    0.30
   0  -4  -9    0.97    0.29
   0  -4  -9    1.59    0.19
   0   4  10    1.38    0.20
   0   4  10    1.57    0.32
   0   4  10    1.27    0.22
   0  -4 -10    1.42    0.21
   0  -4 -10    1.16    0.32
   0  -4 -10    1.42    0.23
   0  -4 -10    1.42    0.33
   0  -4 -10    1.43    0.31
   0   4  11    0.60    0.21
   0   4  11    0.61    0.19
   0  -4 -11    0.70    0.20
   0  -4 -11    0.59    0.19
   0  -4 -11    0.54    0.21
   0  -4 -11    0.36    0.20
   0   4  12    0.01    0.14
   0   4  12    0.00    0.13
   0  -4 -12    0.01    0.13
   0  -4 -12    0.07    0.13
   0  -4 -12    0.00    0.22
   0  -4 -12   -0.01    0.14
   0   4  13    0.19    0.27
   0   4  13    0.08    0.16
   0  -4 -13    0.09    0.17
   0  -4 -13    0.01    0.27
   0  -4 -13    0.00    0.18
   0  -4 -13   -0.02    0.28
   0   4  14    0.36    0.23
   0   4  14    0.70    0.34
   0  -4 -14   -0.00    0.22
   0  -4 -14    0.00    0.35
   0  -4 -14    0.38    0.22
   0  -4 -14    0.05    0.22
   0  -4 -14   -0.02    0.23
   0   4  15    0.30    0.19
   0   4  15    0.32    0.34
   0   4  15    0.02    0.35
   0  -4 -15    0.00    0.22
   0  -4 -15   -0.04    0.22
   0  -4 -15    0.00    0.22
   0  -4 -15    0.05    0.21
   0  -4 -15    0.00    0.21
   0   5 -12    2.40    0.36
   0   5 -12    2.71    0.42
   0   5 -12    2.90    0.42
   0   5 -12    2.69    0.42
   0  -5  12    2.75    0.37
   0  -5  12    2.47    0.36
   0  -5  12   -0.04    0.58
   0   5 -11    0.80    0.25
   0   5 -11    0.80    0.27
   0   5 -11    0.01    0.27
   0   5 -11    0.95    0.26
   0  -5  11    0.00    0.40
   0  -5  11   -0.00    0.24
   0  -5  11    0.13    0.43
   0  -5  11    0.02    0.39
   0   5 -10    0.33    0.20
   0   5 -10    0.18    0.19
   0   5 -10    0.00    0.21
   0   5 -10    0.36    0.19
   0  -5  10    0.25    0.33
   0  -5  10   -0.00    0.19
   0  -5  10    0.00    0.18
   0  -5  10   -0.02    0.19
   0   5  -9    1.17    0.40
   0   5  -9    1.61    0.27
   0   5  -9   -0.00    0.28
   0   5  -9    1.23    0.26
   0  -5   9    1.37    0.38
   0  -5   9    1.22    0.25
   0  -5   9    1.10    0.26
   0  -5   9    1.47    0.43
   0   5  -8    2.54    0.30
   0   5  -8    2.12    0.30
   0   5  -8    2.07    0.28
   0   5  -8    2.38    0.28
   0  -5   8    2.49    0.26
   0  -5   8    2.09    0.45
   0  -5   8    2.09    0.28
   0  -5   8    2.11    0.28
   0   5  -7   58.91    1.44
   0   5  -7   60.34    1.48
   0   5  -7   60.26    1.48
   0   5  -7   58.93    1.39
   0  -5   7   59.89    1.65
   0  -5   7   60.01    1.64
   0  -5   7   59.88    1.69
   0  -5   7   60.48    1.42
   0   5  -6   11.25    0.44
   0   5  -6   11.03    0.42
   0   5  -6   11.40    0.43
   0   5  -6   11.06    0.41
   0  -5   6   11.39    0.56
   0  -5   6   11.46    0.53
   0  -5   6   11.26    0.44
   0   5  -5    2.28    0.28
   0   5  -5    2.03    0.21
   0   5  -5    2.27    0.20
   0   5  -5    2.25    0.31
   0  -5   5    2.01    0.30
   0  -5   5    2.16    0.30
   0  -5   5    2.14    0.27
   0  -5   5    2.01    0.21
   0   5  -4    0.71    0.13
   0   5  -4    0.73    0.15
   0   5  -4    0.90    0.15
   0   5  -4    0.84    0.14
   0  -5   4    0.75    0.14
   0  -5   4    0.73    0.14
   0  -5   4    0.73    0.18
   0  -5   4    0.79    0.16
   0   5  -3   -0.01    0.08
   0   5  -3    0.04    0.12
   0   5  -3    0.02    0.09
   0   5  -3    0.01    0.07
   0  -5   3    0.02    0.07
   0  -5   3    0.03    0.08
   0  -5   3   -0.05    0.13
   0  -5   3    0.11    0.08
   0   5  -2    0.55    0.11
   0   5  -2    0.29    0.14
   0   5  -2    0.30    0.11
   0   5  -2    0.43    0.11
   0  -5   2    0.36    0.14
   0  -5   2    0.41    0.11
   0  -5   2    0.46    0.11
   0  -5   2    0.44    0.12
   0   5  -1    6.30    0.23
   0   5  -1    5.87    0.29
   0   5  -1    6.13    0.22
   0   5  -1    5.89    0.18
   0  -5   1    5.96    0.18
   0  -5   1    6.41    0.31
   0  -5   1    6.33    0.23
   0  -5   1    6.24    0.22
   0   5   0   18.07    0.47
   0   5   0   18.37    0.40
   0   5   0   19.24    0.53
   0  -5   0   19.17    0.52
   0  -5   0   18.94    0.35
   0  -5   0   18.63    0.41
   0  -5   0   18.74    0.42
   0  -5   0   18.59    0.42
   0   5   1    5.35    0.20
   0   5   1    5.16    0.18
   0   5   1    5.27    0.14
   0   5   1    5.48    0.20
   0  -5  -1    5.32    0.20
   0  -5  -1    5.65    0.21
   0  -5  -1    5.49    0.18
   0  -5  -1    5.37    0.21
   0   5   2    2.79    0.14
   0   5   2    2.96    0.16
   0   5   2    2.98    0.17
   0   5   2    2.85    0.11
   0  -5  -2    3.28    0.12
   0  -5  -2    3.22    0.16
   0  -5  -2    2.92    0.17
   0  -5  -2    2.91    0.14
   0   5   3    0.12    0.08
   0   5   3    0.04    0.13
   0   5   3    0.00    0.11
   0   5   3    0.06    0.06
   0  -5  -3    0.13    0.08
   0  -5  -3    0.13    0.13
   0  -5  -3    0.08    0.11
   0  -5  -3    0.05    0.06
   0   5   4    3.43    0.16
   0   5   4    3.22    0.21
   0   5   4    3.36    0.17
   0   5   4    3.46    0.18
   0  -5  -4    3.32    0.16
   0  -5  -4    3.54    0.18
   0  -5  -4    3.39    0.21
   0  -5  -4    3.34    0.17
   0   5   5    4.17    0.28
   0   5   5    4.60    0.18
   0   5   5    4.39    0.19
   0   5   5    4.41    0.20
   0  -5  -5    4.42    0.27
   0  -5  -5    4.31    0.20
   0  -5  -5    4.26    0.18
   0  -5  -5    4.38    0.28
   0   5   6    1.87    0.16
   0   5   6    1.68    0.15
   0   5   6    1.66    0.24
   0   5   6    1.81    0.21
   0  -5  -6    1.71    0.14
   0  -5  -6    1.81    0.16
   0  -5  -6    1.81    0.14
   0  -5  -6    1.53    0.24
   0   5   7    0.20    0.11
   0   5   7    0.15    0.10
   0   5   7    0.11    0.11
   0   5   7    0.17    0.11
   0  -5  -7    0.19    0.10
   0  -5  -7    0.16    0.11
   0  -5  -7    0.24    0.11
   0  -5  -7    0.14    0.10
   0   5   8    0.09    0.11
   0   5   8    0.07    0.11
   0   5   8    0.12    0.17
   0  -5  -8    0.20    0.11
   0  -5  -8    0.14    0.17
   0  -5  -8    0.11    0.11
   0  -5  -8    0.02    0.11
   0  -5  -8    0.12    0.17
   0   5   9   -0.07    0.18
   0   5   9    0.14    0.11
   0   5   9    0.07    0.11
   0  -5  -9    0.01    0.11
   0  -5  -9    0.05    0.11
   0  -5  -9   -0.02    0.11
   0  -5  -9    0.08    0.11
   0  -5  -9    0.08    0.12
   0   5  10    0.04    0.12
   0   5  10    0.05    0.12
   0   5  10    0.00    0.12
   0  -5 -10    0.05    0.11
   0  -5 -10    0.03    0.12
   0  -5 -10    0.02    0.19
   0  -5 -10    0.03    0.12
   0  -5 -10   -0.00    0.12
   0   5  11    0.02    0.13
   0   5  11   -0.01    0.20
   0   5  11    0.03    0.13
   0  -5 -11   -0.01    0.15
   0  -5 -11    0.09    0.21
   0  -5 -11    0.02    0.13
   0  -5 -11    0.04    0.12
   0  -5 -11    0.06    0.13
   0   5  12    0.64    0.20
   0   5  12    0.70    0.20
   0  -5 -12   -0.02    0.19
   0  -5 -12    0.50    0.31
   0  -5 -12    0.00    0.21
   0  -5 -12    0.02    0.20
   0  -5 -12    0.52    0.19
   0   5  13   -0.04    0.28
   0   5  13    0.36    0.18
   0  -5 -13   -0.00    0.30
   0  -5 -13   -0.02    0.19
   0  -5 -13    0.10    0.18
   0   5  14    0.94    0.25
   0   5  14    0.74    0.26
   0  -5 -14   -0.02    0.26
   0  -5 -14   -0.00    0.27
   0  -5 -14    0.98    0.25
   0   5  15    0.13    0.23
   0   5  15    0.24    0.23
   0  -5 -15    0.00    0.35
   0  -5 -15    0.27    0.22
   0  -5 -15   -0.00    0.22
   0  -5 -15   -0.02    0.23
   0   6 -11    0.03    0.32
   0   6 -11    0.09    0.33
   0   6 -11   -0.02    0.22
   0   6 -11    0.06    0.21
   0  -6  11   -0.01    0.18
   0  -6  11    0.09    0.22
   0  -6  11    0.15    0.18
   0  -6  11   -0.00    0.18
   0   6 -10    0.29    0.38
   0   6 -10    0.00    0.38
   0   6 -10    0.54    0.23
   0   6 -10    0.02    0.23
   0  -6  10    0.19    0.25
   0  -6  10    0.50    0.21
   0  -6  10    0.02    0.35
   0  -6  10   -0.00    0.36
   0   6  -9    4.02    0.40
   0   6  -9    4.12    0.58
   0   6  -9    3.90    0.37
   0   6  -9    4.49    0.38
   0  -6   9    4.09    0.38
   0  -6   9    3.90    0.37
   0  -6   9    4.15    0.38
   0   6  -8    3.66    0.52
   0   6  -8    3.77    0.35
   0   6  -8    4.10    0.37
   0   6  -8    3.81    0.38
   0  -6   8    4.29    0.35
   0  -6   8    4.23    0.36
   0  -6   8    3.66    0.32
   0  -6   8    4.40    0.55
   0   6  -7    8.65    0.63
   0   6  -7    8.78    0.43
   0   6  -7    8.61    0.47
   0   6  -7    8.55    0.48
   0  -6   7    8.87    0.42
   0  -6   7    8.95    0.46
   0  -6   7    8.65    0.45
   0  -6   7    8.97    0.68
   0   6  -6    5.58    0.37
   0   6  -6    5.30    0.33
   0   6  -6    5.93    0.36
   0   6  -6    5.65    0.37
   0  -6   6    5.77    0.35
   0  -6   6    5.79    0.37
   0  -6   6    5.48    0.35
   0  -6   6    5.64    0.31
   0   6  -5    1.71    0.21
   0   6  -5    1.43    0.20
   0   6  -5    1.48    0.22
   0   6  -5    1.60    0.19
   0  -6   5    1.68    0.22
   0  -6   5    1.36    0.20
   0  -6   5    1.40    0.18
   0  -6   5    1.35    0.20
   0   6  -4    0.01    0.12
   0   6  -4    0.11    0.17
   0   6  -4    0.18    0.10
   0   6  -4    0.04    0.12
   0  -6   4    0.04    0.12
   0  -6   4    0.05    0.11
   0  -6   4    0.08    0.09
   0  -6   4    0.20    0.11
   0   6  -3    2.32    0.17
   0   6  -3    2.54    0.20
   0   6  -3    2.32    0.18
   0   6  -3    2.43    0.20
   0  -6   3    2.59    0.29
   0  -6   3    2.66    0.31
   0  -6   3    2.64    0.29
   0  -6   3    2.47    0.16
   0   6  -2    1.95    0.17
   0   6  -2    2.12    0.17
   0   6  -2    2.26    0.19
   0   6  -2    2.10    0.21
   0  -6   2    2.03    0.18
   0  -6   2    2.10    0.18
   0  -6   2    2.23    0.18
   0  -6   2    2.20    0.21
   0   6  -1   13.65    0.36
   0   6  -1   14.12    0.51
   0   6  -1   14.26    0.37
   0  -6   1   14.22    0.49
   0  -6   1   14.50    0.50
   0  -6   1   14.00    0.40
   0  -6   1   14.02    0.48
   0  -6   1   13.70    0.31
   0   6   0    0.90    0.12
   0   6   0    0.93    0.12
   0   6   0    0.92    0.13
   0  -6   0    0.92    0.13
   0  -6   0    0.72    0.14
   0  -6   0    0.80    0.09
   0  -6   0    0.64    0.20
   0  -6   0    0.93    0.20
   0   6   1    0.67    0.12
   0   6   1    0.76    0.18
   0   6   1    0.56    0.11
   0  -6  -1    0.58    0.12
   0  -6  -1    0.62    0.18
   0  -6  -1    0.52    0.08
   0  -6  -1    0.64    0.12
   0  -6  -1    0.53    0.10
   0   6   2    8.46    0.24
   0   6   2    8.46    0.21
   0   6   2    9.13    0.37
   0   6   2    8.57    0.28
   0  -6  -2    8.44    0.21
   0  -6  -2    9.06    0.37
   0  -6  -2    8.54    0.27
   0  -6  -2    9.00    0.33
   0   6   3   21.26    0.41
   0   6   3   20.69    0.49
   0   6   3   20.74    0.54
   0   6   3   22.17    0.58
   0  -6  -3   20.87    0.48
   0  -6  -3   20.28    0.40
   0  -6  -3   20.79    0.45
   0  -6  -3   22.03    0.59
   0   6   4   11.29    0.34
   0   6   4   11.42    0.30
   0   6   4   11.88    0.34
   0   6   4   11.97    0.33
   0  -6  -4   11.82    0.31
   0  -6  -4   11.70    0.35
   0  -6  -4   11.84    0.34
   0  -6  -4   12.12    0.34
   0   6   5    1.95    0.13
   0   6   5    1.96    0.16
   0   6   5    1.82    0.14
   0   6   5    2.17    0.25
   0  -6  -5    1.80    0.13
   0  -6  -5    1.85    0.22
   0  -6  -5    1.98    0.16
   0  -6  -5    1.92    0.25
   0   6   6    5.92    0.22
   0   6   6    5.86    0.25
   0   6   6    6.19    0.25
   0  -6  -6    5.79    0.24
   0  -6  -6    5.73    0.23
   0  -6  -6    5.50    0.22
   0  -6  -6    5.82    0.25
   0   6   7    0.00    0.09
   0   6   7    0.04    0.09
   0   6   7   -0.02    0.08
   0   6   7    0.02    0.08
   0  -6  -7   -0.01    0.09
   0  -6  -7    0.04    0.08
   0  -6  -7    0.01    0.08
   0  -6  -7    0.07    0.09
   0   6   8    0.30    0.14
   0   6   8    0.27    0.14
   0   6   8    0.33    0.13
   0   6   8    0.24    0.19
   0  -6  -8    0.22    0.12
   0  -6  -8    0.23    0.13
   0  -6  -8    0.32    0.14
   0  -6  -8    0.30    0.13
   0   6   9    6.82    0.31
   0   6   9    7.26    0.45
   0   6   9    7.41    0.46
   0  -6  -9    7.10    0.45
   0  -6  -9    7.26    0.46
   0  -6  -9    7.35    0.34
   0  -6  -9    6.80    0.33
   0  -6  -9    6.67    0.32
   0   6  10    6.59    0.50
   0   6  10    6.58    0.34
   0   6  10    6.43    0.33
   0  -6 -10    6.44    0.34
   0  -6 -10    6.37    0.36
   0  -6 -10    6.39    0.34
   0  -6 -10    6.40    0.35
   0  -6 -10    6.73    0.34
   0   6  11    0.35    0.19
   0   6  11    0.32    0.19
   0   6  11    0.46    0.19
   0  -6 -11    0.55    0.19
   0  -6 -11    0.36    0.31
   0  -6 -11    0.44    0.20
   0  -6 -11    0.49    0.19
   0  -6 -11    0.26    0.19
   0   6  12    0.01    0.18
   0   6  12   -0.01    0.18
   0   6  12    0.03    0.12
   0  -6 -12    0.03    0.18
   0  -6 -12   -0.05    0.11
   0  -6 -12    0.03    0.12
   0  -6 -12    0.00    0.12
   0  -6 -12    0.00    0.13
   0   6  13    0.96    0.33
   0   6  13    0.94    0.35
   0   6  13    0.92    0.22
   0  -6 -13    0.02    0.23
   0  -6 -13    0.83    0.34
   0  -6 -13    0.03    0.22
   0  -6 -13   -0.00    0.23
   0  -6 -13   -0.00    0.35
   0   6  14   -0.02    0.33
   0  -6 -14    0.11    0.33
   0  -6 -14    0.00    0.35
   0  -6 -14   -0.01    0.34
   0   6  15    0.04    0.19
   0   6  15    0.05    0.17
   0  -6 -15    0.00    0.18
   0  -6 -15   -0.01    0.19
   0  -6 -15   -0.03    0.18
   0  -6 -15    0.14    0.29
   0   7 -10    0.14    0.36
   0   7 -10    0.01    0.24
   0   7 -10    0.01    0.38
   0  -7  10    0.00    0.23
   0  -7  10    0.31    0.26
   0  -7  10    0.54    0.21
   0  -7  10    0.01    0.23
   0   7  -9    0.63    0.25
   0   7  -9   -0.01    0.25
   0  -7   9   -0.00    0.40
   0  -7   9    0.66    0.27
   0  -7   9    0.94    0.35
   0  -7   9    0.59    0.38
   0   7  -8    2.38    0.34
   0   7  -8    1.98    0.31
   0   7  -8    2.43    0.34
   0   7  -8    2.05    0.31
   0  -7   8   -0.00    0.49
   0  -7   8    2.48    0.48
   0  -7   8    2.29    0.28
   0  -7   8    2.30    0.34
   0   7  -7   11.95    0.56
   0   7  -7   12.12    0.57
   0   7  -7   11.90    0.53
   0   7  -7   11.61    0.52
   0  -7   7   12.33    0.78
   0  -7   7   11.68    0.50
   0  -7   7   11.74    0.54
   0  -7   7   11.68    0.53
   0   7  -6   21.23    0.68
   0   7  -6   22.43    0.91
   0   7  -6   22.69    0.75
   0   7  -6   22.08    0.76
   0  -7   6   21.38    0.71
   0  -7   6   21.26    0.71
   0  -7   6   21.69    0.72
   0  -7   6   21.19    0.64
   0   7  -5    1.14    0.33
   0   7  -5    1.32    0.23
   0   7  -5    1.39    0.20
   0   7  -5    1.32    0.36
   0  -7   5    1.36    0.22
   0  -7   5    1.34    0.18
   0  -7   5    1.36    0.23
   0  -7   5    1.36    0.23
   0   7  -4    3.03    0.32
   0   7  -4    2.95    0.36
   0   7  -4    3.37    0.26
   0   7  -4    3.12    0.27
   0  -7   4    2.87    0.25
   0  -7   4    2.69    0.37
   0  -7   4    2.91    0.20
   0  -7   4    2.92    0.26
   0   7  -3    6.70    0.30
   0   7  -3    6.56    0.36
   0   7  -3    6.91    0.30
   0   7  -3    6.88    0.33
   0  -7   3    6.84    0.44
   0  -7   3    7.03    0.32
   0  -7   3    6.80    0.43
   0  -7   3    6.76    0.26
   0   7  -2   20.12    0.65
   0   7  -2   19.67    0.51
   0   7  -2   19.96    0.56
   0  -7   2   20.13    0.56
   0  -7   2   19.47    0.53
   0  -7   2   19.43    0.56
   0  -7   2   19.98    0.54
   0   7  -1   68.92    1.39
   0   7  -1   70.75    1.55
   0   7  -1   71.04    1.50
   0  -7   1   70.67    1.47
   0  -7   1   66.91    1.53
   0  -7   1   69.37    1.32
   0  -7   1   68.65    1.41
   0  -7   1   66.95    1.54
   0   7   0    0.16    0.11
   0   7   0    0.12    0.10
   0   7   0    0.13    0.10
   0  -7   0    0.11    0.11
   0  -7   0    0.12    0.11
   0  -7   0    0.13    0.07
   0  -7   0    0.14    0.11
   0  -7   0    0.17    0.11
   0   7   1    0.01    0.09
   0   7   1    0.06    0.08
   0   7   1    0.08    0.08
   0   7   1   -0.02    0.08
   0  -7  -1    0.09    0.09
   0  -7  -1    0.09    0.09
   0  -7  -1    0.01    0.06
   0  -7  -1    0.08    0.09
   0   7   2    1.00    0.14
   0   7   2    0.90    0.12
   0   7   2    0.47    0.21
   0   7   2    0.97    0.21
   0  -7  -2    0.81    0.18
   0  -7  -2    0.84    0.22
   0  -7  -2    0.81    0.09
   0  -7  -2    1.11    0.22
   0   7   3    6.93    0.24
   0   7   3    6.91    0.20
   0   7   3    6.91    0.27
   0   7   3    6.80    0.26
   0  -7  -3    6.89    0.27
   0  -7  -3    7.00    0.33
   0  -7  -3    6.77    0.26
   0  -7  -3    6.78    0.26
   0   7   4    5.50    0.22
   0   7   4    5.45    0.26
   0   7   4    5.42    0.24
   0   7   4    5.51    0.25
   0  -7  -4    5.67    0.22
   0  -7  -4    5.74    0.24
   0  -7  -4    5.45    0.25
   0  -7  -4    5.48    0.24
   0   7   5    0.85    0.22
   0   7   5    0.69    0.17
   0   7   5    0.79    0.13
   0   7   5    0.72    0.14
   0  -7  -5    0.83    0.13
   0  -7  -5    0.79    0.14
   0  -7  -5    0.89    0.22
   0  -7  -5    0.70    0.17
   0   7   6    0.80    0.15
   0   7   6    0.17    0.21
   0   7   6    0.82    0.12
   0   7   6    0.72    0.15
   0  -7  -6    0.81    0.21
   0  -7  -6    0.90    0.15
   0  -7  -6    0.72    0.15
   0  -7  -6    0.82    0.12
   0   7   7   -0.02    0.09
   0   7   7    0.04    0.09
   0   7   7    0.02    0.08
   0   7   7   -0.01    0.07
   0  -7  -7    0.07    0.12
   0  -7  -7   -0.02    0.08
   0  -7  -7    0.06    0.09
   0  -7  -7   -0.02    0.09
   0   7   8    3.33    0.24
   0   7   8    3.59    0.36
   0   7   8    3.50    0.22
   0   7   8    3.64    0.25
   0  -7  -8    3.47    0.34
   0  -7  -8    3.31    0.25
   0  -7  -8    3.53    0.36
   0  -7  -8    3.49    0.33
   0   7   9    3.22    0.27
   0   7   9    3.10    0.38
   0   7   9    3.52    0.27
   0   7   9    3.32    0.36
   0  -7  -9    3.43    0.25
   0  -7  -9    3.37    0.28
   0  -7  -9    3.33    0.37
   0  -7  -9    3.25    0.27
   0   7  10    1.81    0.23
   0   7  10    1.77    0.25
   0   7  10    1.29    0.37
   0  -7 -10    1.59    0.24
   0  -7 -10    1.74    0.23
   0  -7 -10    1.96    0.25
   0  -7 -10    1.63    0.24
   0  -7 -10    1.61    0.24
   0   7  11    1.93    0.41
   0   7  11    1.75    0.39
   0   7  11    2.24    0.28
   0  -7 -11    2.10    0.26
   0  -7 -11    1.99    0.28
   0  -7 -11    2.27    0.27
   0  -7 -11    2.08    0.27
   0  -7 -11    2.16    0.28
   0   7  12    0.58    0.33
   0   7  12    0.56    0.30
   0   7  12    0.55    0.20
   0  -7 -12    0.97    0.33
   0  -7 -12    0.01    0.21
   0  -7 -12    0.57    0.19
   0  -7 -12   -0.01    0.20
   0  -7 -12   -0.01    0.21
   0   7  13    0.34    0.29
   0   7  13    0.05    0.28
   0   7  13    0.15    0.18
   0  -7 -13   -0.00    0.20
   0  -7 -13    0.14    0.28
   0  -7 -13    0.00    0.19
   0  -7 -13    0.01    0.20
   0  -7 -13    0.50    0.29
   0   7  14    0.66    0.24
   0   7  14    0.77    0.36
   0   7  14    0.47    0.25
   0  -7 -14    0.76    0.24
   0  -7 -14    0.19    0.37
   0  -7 -14    0.01    0.24
   0  -7 -14    0.01    0.25
   0  -7 -14    0.00    0.25
   0   7  15    0.26    0.35
   0   7  15    0.22    0.41
   0   7  15    0.26    0.25
   0  -7 -15    0.09    0.36
   0  -7 -15   -0.01    0.38
   0  -7 -15    0.32    0.24
   0  -7 -15   -0.00    0.42
   0  -7 -15   -0.02    0.37
   0   8  -9    0.03    0.18
   0   8  -9    0.04    0.18
   0  -8   9    0.06    0.18
   0  -8   9    0.00    0.19
   0  -8   9    0.21    0.25
   0  -8   9   -0.05    0.20
   0   8  -8    0.20    0.20
   0   8  -8    0.04    0.21
   0  -8   8   -0.00    0.22
   0  -8   8    0.34    0.22
   0  -8   8    0.23    0.18
   0  -8   8    0.35    0.21
   0   8  -7    1.40    0.27
   0   8  -7    1.46    0.29
   0   8  -7    1.52    0.30
   0   8  -7    1.44    0.28
   0  -8   7    1.44    0.45
   0  -8   7    1.50    0.25
   0   8  -6    0.42    0.20
   0   8  -6    0.36    0.29
   0   8  -6    0.48    0.23
   0   8  -6    0.45    0.22
   0  -8   6    0.35    0.17
   0  -8   6    0.32    0.33
   0  -8   6    0.43    0.22
   0  -8   6    0.37    0.34
   0   8  -5    0.05    0.18
   0   8  -5   -0.04    0.20
   0   8  -5   -0.03    0.10
   0   8  -5    0.02    0.13
   0  -8   5    0.02    0.19
   0  -8   5    0.09    0.19
   0  -8   5   -0.00    0.10
   0  -8   5   -0.08    0.13
   0   8  -4   -0.06    0.13
   0   8  -4    0.03    0.11
   0   8  -4    0.01    0.10
   0   8  -4    0.12    0.16
   0  -8   4    0.14    0.10
   0  -8   4   -0.03    0.11
   0  -8   4   -0.02    0.17
   0  -8   4    0.04    0.17
   0  -8   4   -0.08    0.08
   0   8  -3    0.12    0.14
   0   8  -3    0.14    0.20
   0   8  -3    0.16    0.12
   0   8  -3    0.04    0.11
   0  -8   3    0.02    0.21
   0  -8   3    0.11    0.10
   0  -8   3    0.10    0.14
   0  -8   3    0.05    0.14
   0   8  -2    3.31    0.39
   0   8  -2    2.92    0.23
   0   8  -2    3.11    0.34
   0  -8   2    2.82    0.25
   0  -8   2    3.19    0.26
   0  -8   2    3.05    0.25
   0  -8   2    3.14    0.26
   0  -8   2    3.49    0.38
   0   8  -1    6.16    0.28
   0   8  -1    6.35    0.45
   0   8  -1    6.25    0.39
   0  -8   1    6.37    0.30
   0  -8   1    6.25    0.43
   0  -8   1    6.16    0.30
   0  -8   1    6.21    0.23
   0  -8   1    6.15    0.22
   0   8   0    6.02    0.29
   0   8   0    5.75    0.25
   0   8   0    6.24    0.27
   0  -8   0    5.97    0.28
   0  -8   0    5.94    0.28
   0  -8   0    5.75    0.21
   0  -8   0    5.60    0.19
   0  -8   0    5.90    0.28
   0   8   1    0.50    0.13
   0   8   1    0.58    0.20
   0   8   1    0.47    0.15
   0  -8  -1    0.51    0.09
   0  -8  -1    0.56    0.14
   0  -8  -1    0.65    0.14
   0  -8  -1    0.45    0.09
   0  -8  -1    0.47    0.14
   0   8   2    1.40    0.28
   0   8   2    1.54    0.15
   0   8   2    1.42    0.17
   0  -8  -2    1.34    0.17
   0  -8  -2    1.46    0.11
   0  -8  -2    1.45    0.27
   0  -8  -2    1.34    0.11
   0  -8  -2    1.34    0.22
   0   8   3    7.37    0.27
   0   8   3    7.13    0.30
   0   8   3    6.89    0.21
   0   8   3    7.56    0.29
   0  -8  -3    7.10    0.22
   0  -8  -3    7.27    0.30
   0  -8  -3    7.08    0.30
   0  -8  -3    7.03    0.26
   0   8   4    5.85    0.20
   0   8   4    6.41    0.41
   0   8   4    6.29    0.36
   0   8   4    6.35    0.28
   0  -8  -4    6.18    0.21
   0  -8  -4    6.50    0.41
   0  -8  -4    6.14    0.25
   0  -8  -4    6.12    0.28
   0   8   5   19.76    0.46
   0   8   5   19.78    0.55
   0   8   5   19.91    0.53
   0   8   5   19.74    0.50
   0  -8  -5   20.51    0.62
   0  -8  -5   20.10    0.54
   0  -8  -5   20.10    0.55
   0  -8  -5   19.27    0.44
   0   8   6    1.44    0.29
   0   8   6    1.55    0.17
   0   8   6    1.72    0.29
   0   8   6    1.59    0.22
   0  -8  -6    1.88    0.30
   0  -8  -6    1.51    0.21
   0  -8  -6    1.65    0.16
   0  -8  -6    1.66    0.29
   0   8   7    0.97    0.18
   0   8   7    1.17    0.16
   0   8   7    1.20    0.14
   0   8   7    1.03    0.28
   0  -8  -7    0.83    0.23
   0  -8  -7    1.01    0.18
   0  -8  -7    1.07    0.28
   0  -8  -7    0.97    0.17
   0   8   8    0.01    0.10
   0   8   8   -0.02    0.10
   0   8   8    0.12    0.14
   0   8   8   -0.07    0.14
   0  -8  -8    0.10    0.10
   0  -8  -8    0.01    0.10
   0  -8  -8   -0.02    0.08
   0  -8  -8   -0.02    0.09
   0   8   9    4.38    0.41
   0   8   9    4.27    0.31
   0   8   9    4.46    0.32
   0   8   9    3.75    0.43
   0  -8  -9    4.37    0.32
   0  -8  -9    4.17    0.27
   0  -8  -9    4.49    0.29
   0  -8  -9    4.03    0.31
   0   8  10   23.61    0.94
   0   8  10   23.34    0.70
   0   8  10   23.70    0.74
   0   8  10   23.33    0.70
   0  -8 -10   23.02    0.95
   0  -8 -10   23.30    0.76
   0  -8 -10   23.53    0.70
   0  -8 -10   23.96    0.90
   0   8  11    0.02    0.11
   0   8  11   -0.02    0.11
   0   8  11   -0.12    0.10
   0  -8 -11    0.02    0.11
   0  -8 -11    0.08    0.11
   0  -8 -11    0.04    0.11
   0  -8 -11   -0.05    0.16
   0  -8 -11    0.00    0.11
   0   8  12   -0.01    0.29
   0   8  12    0.28    0.26
   0   8  12    0.27    0.27
   0  -8 -12    0.03    0.18
   0  -8 -12   -0.00    0.17
   0  -8 -12    0.19    0.29
   0  -8 -12    0.20    0.17
   0  -8 -12    0.28    0.18
   0   8  13    0.24    0.25
   0   8  13   -0.08    0.14
   0   8  13    0.06    0.23
   0  -8 -13   -0.07    0.16
   0  -8 -13   -0.01    0.15
   0  -8 -13    0.13    0.15
   0  -8 -13    0.00    0.15
   0  -8 -13   -0.01    0.23
   0   8  14    0.26    0.22
   0   8  14    0.35    0.20
   0  -8 -14   -0.08    0.31
   0  -8 -14    0.08    0.22
   0  -8 -14    0.00    0.33
   0  -8 -14    0.00    0.21
   0  -8 -14   -0.01    0.21
   0   8  15    0.82    0.27
   0   8  15    0.68    0.31
   0   8  15    0.85    0.31
   0  -8 -15    0.90    0.30
   0  -8 -15   -0.00    0.31
   0  -8 -15   -0.01    0.28
   0  -8 -15    0.56    0.28
   0  -8 -15   -0.03    0.29
   0   9  -8    0.28    0.26
   0   9  -8    0.33    0.24
   0   9  -8    0.04    0.23
   0  -9   8    0.70    0.25
   0  -9   8    0.35    0.27
   0  -9   8   -0.00    0.25
   0  -9   8    0.37    0.21
   0   9  -7    0.37    0.22
   0   9  -7    0.00    0.20
   0  -9   7    0.39    0.25
   0  -9   7    0.40    0.23
   0  -9   7    0.51    0.36
   0  -9   7    0.21    0.20
   0   9  -6    0.03    0.17
   0   9  -6    0.14    0.20
   0   9  -6    0.11    0.25
   0   9  -6   -0.02    0.18
   0  -9   6   -0.10    0.19
   0  -9   6    0.06    0.19
   0  -9   6    0.99    0.29
   0  -9   6    0.11    0.15
   0   9  -5    0.05    0.20
   0   9  -5    0.03    0.11
   0   9  -5   -0.03    0.12
   0   9  -5    0.05    0.14
   0  -9   5   -0.09    0.16
   0  -9   5   -0.02    0.20
   0  -9   5    0.02    0.13
   0  -9   5    0.07    0.20
   0   9  -4    0.44    0.29
   0   9  -4    0.27    0.20
   0   9  -4    0.39    0.28
   0   9  -4    0.08    0.15
   0  -9   4    0.39    0.30
   0  -9   4    0.43    0.19
   0  -9   4    0.48    0.22
   0  -9   4    0.32    0.30
   0   9  -3    0.13    0.14
   0   9  -3    0.14    0.14
   0   9  -3    0.10    0.26
   0  -9   3    0.06    0.24
   0  -9   3    0.14    0.24
   0  -9   3    0.22    0.25
   0  -9   3    0.03    0.11
   0  -9   3    0.15    0.16
   0   9  -2    0.31    0.15
   0   9  -2    0.32    0.16
   0   9  -2    0.37    0.19
   0  -9   2    0.43    0.18
   0  -9   2    0.35    0.18
   0  -9   2    0.43    0.12
   0  -9   2    0.47    0.18
   0  -9   2    0.49    0.17
   0   9  -1    0.51    0.16
   0   9  -1    0.55    0.18
   0   9  -1    0.49    0.16
   0  -9   1    0.54    0.18
   0  -9   1    0.58    0.17
   0  -9   1    0.57    0.11
   0  -9   1    0.53    0.18
   0  -9   1    0.60    0.18
   0   9   0    0.70    0.19
   0   9   0    0.02    0.25
   0   9   0    0.64    0.15
   0  -9   0    0.68    0.18
   0  -9   0    0.72    0.18
   0  -9   0    0.72    0.12
   0  -9   0    0.60    0.17
   0  -9   0    0.77    0.16
   0   9   1    0.02    0.10
   0   9   1    0.03    0.13
   0   9   1   -0.03    0.09
   0  -9  -1    0.02    0.10
   0  -9  -1   -0.02    0.06
   0  -9  -1   -0.01    0.10
   0  -9  -1    0.07    0.10
   0  -9  -1    0.05    0.06
   0   9   2    5.39    0.43
   0   9   2    5.05    0.25
   0   9   2    5.26    0.28
   0  -9  -2    5.42    0.42
   0  -9  -2    4.90    0.20
   0  -9  -2    5.31    0.28
   0  -9  -2    5.13    0.19
   0   9   3    0.89    0.18
   0   9   3    0.88    0.17
   0   9   3    0.76    0.27
   0   9   3    0.76    0.23
   0  -9  -3    1.04    0.11
   0  -9  -3    0.84    0.18
   0  -9  -3    0.79    0.28
   0  -9  -3    0.82    0.15
   0   9   4   12.82    0.43
   0   9   4   13.56    0.46
   0   9   4   13.28    0.41
   0   9   4   13.04    0.43
   0  -9  -4   13.69    0.46
   0  -9  -4   12.89    0.34
   0  -9  -4   13.09    0.44
   0  -9  -4   13.04    0.41
   0   9   5    5.48    0.29
   0   9   5    5.70    0.37
   0   9   5    5.98    0.44
   0   9   5    5.24    0.22
   0  -9  -5    5.51    0.30
   0  -9  -5    5.48    0.31
   0  -9  -5    5.37    0.44
   0  -9  -5    5.53    0.26
   0   9   6    0.41    0.11
   0   9   6    0.31    0.16
   0   9   6    0.39    0.14
   0   9   6    0.33    0.16
   0  -9  -6    0.38    0.16
   0  -9  -6    0.41    0.16
   0  -9  -6    0.40    0.22
   0  -9  -6    0.33    0.11
   0   9   7    0.47    0.17
   0   9   7    0.51    0.18
   0   9   7    0.53    0.12
   0   9   7    0.02    0.23
   0  -9  -7    0.39    0.15
   0  -9  -7    0.50    0.17
   0  -9  -7    0.49    0.18
   0  -9  -7    0.49    0.13
   0   9   8    3.32    0.23
   0   9   8    3.06    0.25
   0   9   8    3.23    0.29
   0   9   8    3.17    0.43
   0  -9  -8    3.27    0.43
   0  -9  -8    3.43    0.29
   0  -9  -8    3.20    0.26
   0  -9  -8    3.20    0.23
   0   9   9   11.87    0.47
   0   9   9   11.65    0.50
   0   9   9   11.81    0.69
   0   9   9   11.77    0.44
   0  -9  -9   11.55    0.59
   0  -9  -9   11.37    0.63
   0  -9  -9   12.48    0.51
   0   9  10    0.57    0.38
   0   9  10    0.61    0.39
   0   9  10    0.93    0.21
   0   9  10    0.65    0.22
   0  -9 -10    0.41    0.39
   0  -9 -10    0.58    0.23
   0  -9 -10    0.83    0.21
   0  -9 -10    0.51    0.39
   0   9  11    2.63    0.29
   0   9  11    2.61    0.29
   0   9  11    2.95    0.33
   0  -9 -11   -0.01    0.48
   0  -9 -11    2.71    0.29
   0  -9 -11    2.26    0.32
   0  -9 -11    2.82    0.30
   0   9  12   -0.01    0.23
   0   9  12    0.05    0.14
   0   9  12    0.01    0.20
   0  -9 -12   -0.02    0.23
   0  -9 -12    0.01    0.14
   0  -9 -12    0.02    0.23
   0  -9 -12   -0.00    0.13
   0  -9 -12    0.01    0.23
   0   9  13    0.22    0.19
   0   9  13    0.01    0.20
   0   9  13   -0.02    0.18
   0  -9 -13    0.01    0.29
   0  -9 -13   -0.02    0.31
   0  -9 -13    0.30    0.20
   0  -9 -13    0.00    0.30
   0  -9 -13    0.34    0.31
   0   9  14   -0.01    0.18
   0   9  14   -0.01    0.17
   0   9  14    0.08    0.17
   0  -9 -14   -0.01    0.18
   0  -9 -14    0.04    0.18
   0  -9 -14   -0.00    0.18
   0  -9 -14    0.08    0.18
   0  -9 -14    0.07    0.18
   0  10  -7    0.04    0.21
   0  10  -7   -0.05    0.19
   0  10  -7    0.07    0.21
   0 -10   7    0.21    0.19
   0 -10   7    0.39    0.22
   0 -10   7    0.18    0.23
   0  10  -6   -0.13    0.21
   0  10  -6   -0.01    0.14
   0  10  -6   -0.03    0.16
   0  10  -6    0.09    0.12
   0 -10   6   -0.12    0.23
   0 -10   6   -0.15    0.23
   0 -10   6    0.18    0.15
   0 -10   6   -0.05    0.18
   0  10  -5    0.14    0.20
   0  10  -5   -0.00    0.26
   0  10  -5    0.03    0.17
   0 -10   5    0.35    0.28
   0 -10   5   -0.17    0.29
   0 -10   5    0.31    0.19
   0 -10   5    0.05    0.21
   0 -10   5    0.01    0.13
   0  10  -4    0.22    0.27
   0  10  -4    0.12    0.25
   0  10  -4    0.34    0.30
   0 -10   4    0.14    0.28
   0 -10   4   -0.09    0.28
   0 -10   4   -0.09    0.28
   0 -10   4    0.12    0.19
   0 -10   4    0.12    0.20
   0  10  -3   -0.01    0.15
   0  10  -3    0.25    0.18
   0  10  -3    0.25    0.25
   0 -10   3   -0.05    0.26
   0 -10   3    0.18    0.18
   0 -10   3    0.16    0.18
   0 -10   3    0.10    0.17
   0 -10   3    0.05    0.27
   0  10  -2    3.31    0.28
   0  10  -2    3.38    0.42
   0  10  -2    3.15    0.32
   0 -10   2    3.06    0.22
   0 -10   2    3.06    0.30
   0 -10   2    3.16    0.46
   0 -10   2    3.59    0.46
   0 -10   2    3.03    0.30
   0  10  -1    1.01    0.30
   0  10  -1    1.09    0.36
   0  10  -1    0.86    0.20
   0 -10   1    0.98    0.21
   0 -10   1    1.21    0.15
   0 -10   1    0.96    0.22
   0 -10   1    0.85    0.22
   0 -10   1    1.13    0.35
   0  10   0    0.03    0.16
   0  10   0    0.04    0.19
   0  10   0    0.07    0.10
   0 -10   0   -0.00    0.07
   0 -10   0    0.02    0.12
   0 -10   0   -0.03    0.11
   0 -10   0    0.10    0.18
   0 -10   0   -0.04    0.11
   0  10   1    0.07    0.12
   0  10   1   -0.01    0.11
   0  10   1    0.16    0.21
   0 -10  -1    0.04    0.13
   0 -10  -1    0.02    0.13
   0 -10  -1   -0.01    0.12
   0 -10  -1    0.12    0.20
   0 -10  -1    0.12    0.13
   0  10   2    0.51    0.15
   0  10   2    0.39    0.17
   0  10   2    0.41    0.29
   0 -10  -2    0.55    0.12
   0 -10  -2    0.50    0.28
   0 -10  -2    0.47    0.17
   0 -10  -2    0.51    0.28
   0 -10  -2    0.53    0.11
   0  10   3    2.95    0.33
   0  10   3    2.80    0.27
   0  10   3    3.12    0.26
   0 -10  -3    3.10    0.27
   0 -10  -3    3.16    0.18
   0 -10  -3    2.78    0.22
   0 -10  -3    2.98    0.17
   0 -10  -3    3.02    0.27
   0  10   4    0.02    0.13
   0  10   4   -0.01    0.10
   0  10   4    0.03    0.08
   0  10   4    0.01    0.13
   0 -10  -4    0.01    0.13
   0 -10  -4    0.21    0.10
   0 -10  -4    0.08    0.13
   0 -10  -4    0.03    0.12
   0  10   5    0.02    0.13
   0  10   5    0.10    0.09
   0  10   5    0.10    0.12
   0  10   5    0.06    0.14
   0 -10  -5    0.13    0.14
   0 -10  -5    0.07    0.12
   0 -10  -5    0.13    0.14
   0 -10  -5    0.13    0.09
   0  10   6    2.08    0.24
   0  10   6    1.91    0.21
   0  10   6    1.95    0.25
   0  10   6    1.86    0.38
   0 -10  -6    1.98    0.39
   0 -10  -6    2.27    0.25
   0 -10  -6    1.90    0.24
   0 -10  -6    1.90    0.21
   0  10   7    1.62    0.24
   0  10   7    1.76    0.24
   0  10   7    1.58    0.18
   0  10   7    1.55    0.20
   0 -10  -7    1.59    0.17
   0 -10  -7    1.73    0.24
   0 -10  -7    1.54    0.38
   0 -10  -7    1.94    0.32
   0  10   8    4.23    0.32
   0  10   8    3.85    0.28
   0  10   8    3.78    0.25
   0  10   8    3.94    0.32
   0 -10  -8    3.74    0.25
   0 -10  -8    4.10    0.33
   0 -10  -8    4.16    0.42
   0 -10  -8    3.64    0.33
   0  10   9    0.82    0.33
   0  10   9    0.84    0.25
   0  10   9    0.82    0.24
   0  10   9    1.04    0.19
   0 -10  -9    0.89    0.25
   0 -10  -9    0.90    0.21
   0 -10  -9    0.88    0.19
   0 -10  -9    0.69    0.23
   0  10  10   33.77    1.27
   0  10  10   32.28    1.12
   0  10  10   32.78    1.03
   0  10  10   33.01    1.17
   0 -10 -10   32.23    1.02
   0 -10 -10   32.73    0.97
   0 -10 -10   31.78    0.92
   0 -10 -10   33.52    1.28
   0  10  11    4.22    0.39
   0  10  11    4.08    0.34
   0  10  11    4.18    0.39
   0  10  11    4.11    0.52
   0 -10 -11    4.23    0.33
   0 -10 -11    4.33    0.51
   0 -10 -11    4.32    0.39
   0 -10 -11    4.04    0.39
   0  10  12   -0.00    0.45
   0  10  12    1.61    0.40
   0  10  12    1.64    0.40
   0 -10 -12    0.04    0.38
   0 -10 -12   -0.00    0.28
   0 -10 -12    1.60    0.28
   0 -10 -12    1.58    0.45
   0 -10 -12    1.63    0.27
   0  10  13    0.01    0.22
   0  10  13    0.45    0.22
   0  10  13   -0.00    0.24
   0 -10 -13    0.64    0.34
   0 -10 -13    0.33    0.24
   0 -10 -13    0.40    0.21
   0 -10 -13    0.44    0.23
   0 -10 -13    0.01    0.24
   0  10  14    0.05    0.20
   0  10  14    0.01    0.23
   0  10  14   -0.06    0.21
   0 -10 -14    0.07    0.20
   0 -10 -14    0.28    0.20
   0 -10 -14    0.14    0.20
   0 -10 -14   -0.00    0.20
   0 -10 -14   -0.00    0.32
   0  11  -6   -0.00    0.23
   0  11  -6   -0.01    0.39
   0  11  -6    0.39    0.33
   0 -11   6    0.19    0.29
   0 -11   6    0.02    0.25
   0 -11   6    0.21    0.33
   0 -11   6    0.08    0.33
   0 -11   6    0.44    0.36
   0  11  -5    0.05    0.22
   0  11  -5    0.00    0.29
   0  11  -5    0.60    0.30
   0 -11   5    0.04    0.16
   0 -11   5    0.25    0.21
   0 -11   5    0.12    0.33
   0 -11   5    0.02    0.15
   0 -11   5    0.11    0.32
   0  11  -4   -0.01    0.18
   0  11  -4    0.47    0.28
   0  11  -4    0.15    0.21
   0 -11   4    0.28    0.20
   0 -11   4    0.12    0.22
   0 -11   4    0.11    0.15
   0 -11   4    0.07    0.21
   0 -11   4    0.20    0.32
   0  11  -3    0.06    0.17
   0  11  -3   -0.01    0.15
   0  11  -3   -0.01    0.15
   0 -11   3    0.01    0.12
   0 -11   3    0.35    0.17
   0 -11   3    0.04    0.11
   0 -11   3    0.02    0.26
   0 -11   3   -0.06    0.16
   0  11  -2    0.32    0.27
   0  11  -2    0.04    0.28
   0  11  -2    0.38    0.21
   0 -11   2    0.22    0.13
   0 -11   2    0.12    0.20
   0 -11   2    0.20    0.30
   0 -11   2    0.18    0.21
   0 -11   2    0.36    0.20
   0  11  -1    0.24    0.20
   0  11  -1    0.26    0.16
   0  11  -1    0.01    0.26
   0 -11   1    0.22    0.29
   0 -11   1    0.20    0.11
   0 -11   1    0.19    0.19
   0 -11   1    0.16    0.29
   0 -11   1    0.16    0.19
   0  11   0    0.22    0.26
   0  11   0    0.29    0.16
   0  11   0    0.26    0.19
   0 -11   0    0.22    0.18
   0 -11   0    0.21    0.29
   0 -11   0    0.23    0.17
   0 -11   0    0.19    0.29
   0 -11   0    0.27    0.11
   0  11   1    0.27    0.21
   0  11   1    0.54    0.18
   0  11   1    0.41    0.16
   0 -11  -1    0.37    0.18
   0 -11  -1    0.33    0.20
   0 -11  -1    0.32    0.30
   0 -11  -1    0.35    0.20
   0 -11  -1    0.36    0.11
   0  11   2    0.36    0.16
   0  11   2    0.35    0.19
   0  11   2    0.36    0.15
   0 -11  -2    0.23    0.18
   0 -11  -2    0.20    0.16
   0 -11  -2    0.24    0.18
   0 -11  -2    0.21    0.12
   0 -11  -2    0.22    0.18
   0  11   3    7.16    0.37
   0  11   3    7.58    0.39
   0  11   3    7.62    0.41
   0  11   3    7.39    0.48
   0 -11  -3    7.18    0.40
   0 -11  -3    6.93    0.28
   0 -11  -3    7.67    0.41
   0 -11  -3    7.18    0.27
   0  11   4    0.15    0.16
   0  11   4    0.14    0.13
   0  11   4    0.08    0.16
   0  11   4    0.07    0.09
   0 -11  -4    0.13    0.16
   0 -11  -4    0.15    0.14
   0 -11  -4    0.03    0.17
   0 -11  -4    0.29    0.13
   0  11   5    0.18    0.12
   0  11   5    0.09    0.15
   0  11   5    0.00    0.14
   0  11   5    0.07    0.14
   0 -11  -5    0.02    0.15
   0 -11  -5    0.07    0.09
   0 -11  -5    0.02    0.12
   0 -11  -5    0.07    0.15
   0  11   6    1.24    0.23
   0  11   6    1.38    0.30
   0  11   6    1.42    0.17
   0  11   6    1.13    0.25
   0 -11  -6    1.32    0.25
   0 -11  -6    1.30    0.24
   0 -11  -6    1.55    0.21
   0 -11  -6    1.04    0.23
   0  11   7   -0.00    0.15
   0  11   7    0.05    0.15
   0  11   7    0.13    0.15
   0  11   7    0.17    0.19
   0 -11  -7   -0.01    0.15
   0 -11  -7    0.05    0.15
   0 -11  -7    0.07    0.13
   0 -11  -7    0.01    0.16
   0  11   8    0.09    0.15
   0  11   8    0.09    0.25
   0  11   8    0.10    0.17
   0  11   8    0.03    0.13
   0 -11  -8    0.07    0.14
   0 -11  -8    0.04    0.17
   0 -11  -8    0.00    0.15
   0 -11  -8    0.01    0.16
   0  11   9    3.53    0.40
   0  11   9    3.36    0.30
   0  11   9    3.85    0.54
   0  11   9    4.02    0.36
   0 -11  -9    3.61    0.27
   0 -11  -9    3.43    0.53
   0 -11  -9    3.61    0.32
   0 -11  -9    3.89    0.38
   0  11  10   -0.00    0.41
   0  11  10    0.63    0.31
   0  11  10    0.85    0.22
   0  11  10    0.95    0.40
   0 -11 -10    0.64    0.31
   0 -11 -10    0.63    0.22
   0 -11 -10    0.01    0.41
   0 -11 -10    0.69    0.39
   0  11  11   -0.00    0.15
   0  11  11    0.03    0.12
   0  11  11    0.06    0.13
   0  11  11   -0.07    0.23
   0 -11 -11   -0.07    0.20
   0 -11 -11   -0.04    0.23
   0 -11 -11   -0.01    0.15
   0 -11 -11    0.03    0.18
   0  11  12    1.10    0.26
   0  11  12   -0.00    0.41
   0  11  12   -0.01    0.35
   0 -11 -12    0.02    0.41
   0 -11 -12    1.27    0.24
   0 -11 -12   -0.02    0.27
   0 -11 -12    0.05    0.22
   0  11  13    0.04    0.18
   0  11  13    0.00    0.22
   0  11  13   -0.04    0.18
   0 -11 -13    0.16    0.17
   0 -11 -13    0.34    0.28
   0 -11 -13    0.08    0.19
   0 -11 -13    0.02    0.20
   0 -11 -13   -0.01    0.21
   0  11  14    0.01    0.27
   0  11  14    0.00    0.16
   0  11  14    0.00    0.19
   0 -11 -14   -0.02    0.16
   0 -11 -14   -0.01    0.17
   0 -11 -14    0.21    0.26
   0 -11 -14    0.01    0.17
   0  12  -5    0.07    0.40
   0  12  -5   -0.00    0.35
   0  12  -5    0.11    0.22
   0 -12   5    0.22    0.22
   0 -12   5    0.04    0.22
   0 -12   5    0.15    0.18
   0 -12   5    0.00    0.38
   0 -12   5    0.22    0.17
   0  12  -4    0.09    0.23
   0  12  -4    0.33    0.19
   0  12  -4   -0.00    0.20
   0 -12   4   -0.02    0.23
   0 -12   4    0.22    0.22
   0 -12   4    0.01    0.16
   0 -12   4    0.26    0.22
   0 -12   4    0.28    0.22
   0  12  -3   -0.07    0.17
   0  12  -3    0.13    0.19
   0  12  -3    0.00    0.17
   0 -12   3    0.00    0.12
   0 -12   3    0.23    0.19
   0 -12   3    0.03    0.19
   0 -12   3    0.21    0.19
   0 -12   3    0.01    0.13
   0  12  -2    0.15    0.15
   0  12  -2   -0.01    0.19
   0  12  -2    0.01    0.15
   0 -12   2    0.02    0.12
   0 -12   2    0.27    0.18
   0 -12   2    0.00    0.10
   0 -12   2    0.00    0.17
   0 -12   2    0.01    0.18
   0  12  -1    0.00    0.15
   0  12  -1    0.06    0.28
   0  12  -1    0.00    0.15
   0 -12   1    0.10    0.11
   0 -12   1    0.05    0.17
   0 -12   1    0.01    0.10
   0 -12   1    0.11    0.17
   0 -12   1    0.34    0.27
   0  12   0    0.01    0.16
   0  12   0   -0.07    0.14
   0  12   0    0.16    0.21
   0 -12   0    0.03    0.16
   0 -12   0    0.07    0.16
   0 -12   0    0.05    0.15
   0 -12   0    0.08    0.16
   0 -12   0    0.03    0.09
   0  12   1    0.09    0.16
   0  12   1   -0.01    0.13
   0  12   1    0.02    0.19
   0 -12  -1   -0.00    0.13
   0 -12  -1    0.02    0.15
   0 -12  -1    0.02    0.15
   0 -12  -1    0.08    0.14
   0 -12  -1    0.01    0.09
   0  12   2   -0.01    0.15
   0  12   2   -0.01    0.21
   0 -12  -2    0.05    0.08
   0 -12  -2   -0.02    0.15
   0 -12  -2    0.02    0.15
   0 -12  -2    0.06    0.14
   0 -12  -2    0.01    0.15
   0  12   3    0.07    0.22
   0  12   3    0.02    0.16
   0 -12  -3   -0.00    0.09
   0 -12  -3    0.08    0.09
   0 -12  -3    0.04    0.15
   0 -12  -3    0.09    0.15
   0 -12  -3   -0.02    0.15
   0  12   4   -0.03    0.10
   0  12   4    0.01    0.12
   0 -12  -4    0.03    0.12
   0 -12  -4    0.01    0.11
   0 -12  -4   -0.02    0.10
   0 -12  -4   -0.00    0.12
   0  12   5    0.08    0.09
   0  12   5    0.00    0.15
   0  12   5    0.06    0.12
   0 -12  -5    0.15    0.13
   0 -12  -5   -0.01    0.09
   0 -12  -5    0.00    0.15
   0  12   6   -0.04    0.11
   0  12   6   -0.00    0.14
   0  12   6   -0.02    0.09
   0 -12  -6    0.05    0.08
   0 -12  -6    0.00    0.11
   0 -12  -6    0.13    0.14
   0 -12  -6    0.03    0.14
   0  12   7    0.09    0.11
   0  12   7    0.00    0.17
   0  12   7   -0.01    0.22
   0  12   7    0.06    0.16
   0 -12  -7    0.15    0.17
   0 -12  -7    0.07    0.14
   0 -12  -7    0.08    0.17
   0 -12  -7    0.10    0.16
   0  12   8    0.25    0.20
   0  12   8    0.30    0.26
   0  12   8    0.23    0.14
   0  12   8    0.00    0.20
   0 -12  -8    0.36    0.20
   0 -12  -8    0.30    0.17
   0 -12  -8    0.13    0.21
   0 -12  -8   -0.01    0.21
   0  12   9    1.07    0.26
   0  12   9    0.88    0.19
   0  12   9    0.00    0.25
   0 -12  -9    1.12    0.26
   0 -12  -9   -0.01    0.26
   0 -12  -9    0.55    0.29
   0 -12  -9    0.96    0.23
   0  12  10   -0.04    0.14
   0  12  10    0.05    0.25
   0  12  10    0.05    0.19
   0  12  10   -0.00    0.29
   0 -12 -10    0.41    0.17
   0 -12 -10   -0.01    0.30
   0 -12 -10   -0.01    0.22
   0 -12 -10   -0.00    0.18
   0  12  11   -0.03    0.13
   0  12  11   -0.02    0.16
   0  12  11   -0.10    0.22
   0  12  11    0.01    0.17
   0 -12 -11    0.00    0.16
   0 -12 -11    0.00    0.12
   0 -12 -11    0.02    0.22
   0 -12 -11   -0.02    0.17
   0  12  12    0.09    0.29
   0  12  12    0.01    0.35
   0  12  12    0.04    0.27
   0  12  12    0.19    0.22
   0 -12 -12   -0.01    0.35
   0 -12 -12    0.01    0.21
   0 -12 -12   -0.01    0.17
   0 -12 -12    0.29    0.19
   0  12  13   -0.05    0.29
   0  12  13   -0.01    0.20
   0  12  13   -0.05    0.17
   0 -12 -13    0.25    0.29
   0 -12 -13    0.01    0.18
   0 -12 -13    0.06    0.18
   0 -12 -13    0.03    0.19
   0 -12 -13    0.07    0.16
   0  13  -3    0.00    0.22
   0  13  -3    0.52    0.23
   0  13  -3    0.28    0.26
   0 -13   3    0.42    0.23
   0 -13   3   -0.00    0.15
   0 -13   3    0.49    0.25
   0 -13   3    0.26    0.23
   0 -13   3    0.01    0.26
   0  13  -2    1.65    0.28
   0  13  -2    1.78    0.50
   0  13  -2    0.00    0.40
   0 -13   2    0.02    0.20
   0 -13   2    0.01    0.31
   0 -13   2    1.78    0.30
   0 -13   2    1.32    0.31
   0 -13   2    1.81    0.46
   0  13  -1    0.04    0.16
   0  13  -1   -0.00    0.15
   0  13  -1    0.19    0.19
   0 -13   1    0.14    0.18
   0 -13   1    0.10    0.19
   0 -13   1   -0.00    0.11
   0 -13   1    0.03    0.19
   0 -13   1   -0.10    0.19
   0  13   0    0.26    0.24
   0  13   0   -0.04    0.18
   0  13   0   -0.00    0.14
   0 -13   0    0.06    0.17
   0 -13   0    0.00    0.10
   0 -13   0    0.04    0.11
   0 -13   0    0.10    0.17
   0 -13   0    0.00    0.28
   0  13   1    0.60    0.38
   0  13   1    0.62    0.20
   0  13   1   -0.00    0.18
   0 -13  -1    0.00    0.36
   0 -13  -1    0.33    0.22
   0 -13  -1   -0.00    0.13
   0 -13  -1    0.29    0.22
   0 -13  -1    0.44    0.14
   0  13   2    2.05    0.27
   0  13   2    1.99    0.35
   0  13   2    2.24    0.30
   0 -13  -2    2.04    0.19
   0 -13  -2    2.20    0.32
   0 -13  -2    0.02    0.34
   0 -13  -2    2.46    0.33
   0  13   3    4.25    0.32
   0  13   3    4.05    0.35
   0  13   3    4.59    0.41
   0 -13  -3    4.01    0.39
   0 -13  -3    4.16    0.33
   0 -13  -3    3.98    0.26
   0 -13  -3    4.31    0.40
   0  13   4    0.00    0.18
   0  13   4    0.20    0.17
   0  13   4    0.15    0.15
   0  13   4   -0.00    0.19
   0 -13  -4    0.16    0.10
   0 -13  -4    0.00    0.19
   0 -13  -4    0.00    0.18
   0  13   5    0.01    0.15
   0  13   5   -0.03    0.12
   0 -13  -5    0.00    0.15
   0 -13  -5   -0.01    0.10
   0 -13  -5    0.13    0.12
   0 -13  -5   -0.10    0.08
   0  13   6    0.13    0.15
   0  13   6    0.06    0.17
   0  13   6    0.00    0.19
   0 -13  -6    0.19    0.16
   0 -13  -6    0.10    0.17
   0 -13  -6    0.03    0.18
   0  13   7    0.01    0.17
   0  13   7   -0.00    0.27
   0  13   7    0.07    0.11
   0  13   7    0.05    0.14
   0 -13  -7    0.12    0.17
   0 -13  -7    0.08    0.14
   0 -13  -7   -0.01    0.28
   0 -13  -7   -0.01    0.16
   0  13   8    1.14    0.28
   0  13   8    0.00    0.27
   0  13   8    0.87    0.19
   0  13   8    0.93    0.22
   0 -13  -8    0.81    0.27
   0 -13  -8   -0.01    0.27
   0 -13  -8    1.15    0.27
   0 -13  -8    0.98    0.24
   0  13   9    0.27    0.18
   0  13   9   -0.05    0.22
   0  13   9    0.26    0.15
   0  13   9   -0.00    0.22
   0 -13  -9    0.17    0.23
   0 -13  -9    0.06    0.18
   0 -13  -9    0.01    0.22
   0 -13  -9    0.29    0.21
   0  13  10   -0.00    0.41
   0  13  10    0.86    0.22
   0  13  10    0.43    0.26
   0  13  10    0.44    0.20
   0 -13 -10    0.39    0.19
   0 -13 -10    0.56    0.24
   0 -13 -10    0.01    0.42
   0 -13 -10    0.78    0.26
   0  13  11    0.05    0.17
   0  13  11    0.29    0.18
   0  13  11    0.32    0.35
   0  13  11   -0.00    0.22
   0 -13 -11   -0.01    0.33
   0 -13 -11    0.39    0.31
   0 -13 -11    0.03    0.16
   0 -13 -11   -0.01    0.22
   0  13  12    0.02    0.16
   0  13  12    0.01    0.24
   0  13  12    0.07    0.30
   0  13  12   -0.02    0.32
   0 -13 -12    0.01    0.14
   0 -13 -12   -0.01    0.29
   0 -13 -12    0.05    0.17
   0 -13 -12    0.01    0.31
   0  14  -1    0.00    0.19
   0  14  -1    0.11    0.20
   0  14  -1    0.28    0.37
   0 -14   1   -0.00    0.20
   0 -14   1    0.08    0.33
   0 -14   1    0.10    0.14
   0 -14   1    0.43    0.32
   0 -14   1   -0.04    0.34
   0  14   0    0.74    0.23
   0  14   0    0.00    0.35
   0  14   0    0.55    0.28
   0 -14   0    0.28    0.42
   0 -14   0    0.00    0.26
   0 -14   0    0.34    0.27
   0 -14   0    0.47    0.17
   0 -14   0    0.00    0.23
   0  14   1    0.16    0.21
   0  14   1   -0.00    0.17
   0  14   1    0.24    0.18
   0 -14  -1   -0.00    0.17
   0 -14  -1    0.10    0.20
   0 -14  -1   -0.00    0.20
   0 -14  -1    0.10    0.20
   0 -14  -1   -0.07    0.20
   0  14   2   -0.01    0.32
   0  14   2    0.00    0.16
   0  14   2    0.20    0.17
   0 -14  -2    0.06    0.19
   0 -14  -2    0.05    0.19
   0 -14  -2    0.14    0.20
   0 -14  -2    0.01    0.31
   0 -14  -2   -0.00    0.11
   0  14   3   -0.00    0.13
   0  14   3   -0.05    0.15
   0  14   3   -0.00    0.17
   0 -14  -3    0.07    0.09
   0 -14  -3   -0.03    0.17
   0 -14  -3   -0.00    0.10
   0 -14  -3    0.04    0.17
   0 -14  -3   -0.02    0.17
   0  14   4   -0.00    0.24
   0  14   4    0.00    0.18
   0  14   4    0.49    0.20
   0 -14  -4   -0.00    0.23
   0 -14  -4    0.38    0.13
   0 -14  -4    0.01    0.23
   0 -14  -4    0.23    0.22
   0 -14  -4    0.00    0.22
   0  14   5    0.04    0.16
   0  14   5    0.17    0.14
   0  14   5    0.00    0.17
   0  14   5   -0.00    0.18
   0 -14  -5    0.01    0.18
   0 -14  -5   -0.01    0.18
   0 -14  -5    0.06    0.15
   0 -14  -5   -0.01    0.11
   0  14   6   -0.02    0.18
   0  14   6    0.00    0.18
   0  14   6    0.17    0.14
   0 -14  -6    0.03    0.18
   0 -14  -6    0.02    0.19
   0 -14  -6   -0.01    0.16
   0 -14  -6    0.01    0.12
   0  14   7   -0.00    0.17
   0  14   7   -0.03    0.14
   0  14   7    0.06    0.17
   0  14   7    0.00    0.27
   0 -14  -7   -0.01    0.28
   0 -14  -7   -0.03    0.16
   0 -14  -7    0.07    0.17
   0 -14  -7    0.07    0.14
   0  14   8   -0.00    0.24
   0  14   8    0.23    0.25
   0  14   8    0.37    0.39
   0  14   8    0.49    0.20
   0 -14  -8   -0.01    0.24
   0 -14  -8    0.29    0.37
   0 -14  -8    0.55    0.20
   0 -14  -8    0.00    0.25
   0  14   9    0.00    0.24
   0  14   9    0.16    0.38
   0  14   9    0.31    0.20
   0  14   9    0.29    0.17
   0 -14  -9   -0.03    0.25
   0 -14  -9    0.26    0.36
   0 -14  -9    0.44    0.21
   0 -14  -9    0.01    0.25
   0  14  10   -0.00    0.26
   0  14  10    0.25    0.17
   0  14  10    0.39    0.40
   0  14  10    0.22    0.20
   0 -14 -10    0.30    0.37
   0 -14 -10    0.16    0.17
   0 -14 -10   -0.01    0.23
   0 -14 -10    0.36    0.22
   0  15   2    0.54    0.36
   0  15   2    0.00    0.35
   0  15   2    0.06    0.30
   0 -15  -2    0.17    0.38
   0 -15  -2    0.00    0.22
   0 -15  -2    0.44    0.26
   0 -15  -2   -0.03    0.28
   0 -15  -2    0.40    0.24
   0  15   3    3.98    0.40
   0 -15  -3    5.45    0.68
   0 -15  -3    3.62    0.30
   0 -15  -3    6.37    0.74
   0 -15  -3    3.65    0.40
   0  15   4    3.17    0.36
   0 -15  -4    2.46    0.27
   0 -15  -4    2.21    0.34
   0 -15  -4    3.27    0.44
   0 -15  -4    4.83    0.44
   0  15   5   -0.00    0.23
   0  15   5    0.29    0.18
   0 -15  -5    0.15    0.23
   0 -15  -5    0.16    0.19
   0 -15  -5    0.01    0.22
   0 -15  -5   -0.04    0.23
   0 -15  -5    0.00    0.23
   0  15   6    0.02    0.24
   0  15   6    0.00    0.23
   0  15   6    0.27    0.18
   0 -15  -6    0.14    0.19
   0 -15  -6   -0.00    0.14
   0 -15  -6    0.44    0.23
   0 -15  -6   -0.01    0.21
   0  15   7   -0.00    0.16
   0  15   7    0.01    0.16
   0  15   7    0.05    0.13
   0 -15  -7    0.02    0.15
   0 -15  -7    0.00    0.11
   0 -15  -7   -0.16    0.16
   0 -15  -7    0.01    0.14
   0  15   8   -0.00    0.46
   0  15   8    0.52    0.45
   0  15   8    0.75    0.23
   0  15   8    0.22    0.28
   0 -15  -8    0.78    0.25
   0 -15  -8   -0.02    0.27
   0 -15  -8    0.30    0.43
   0 -15  -8    0.06    0.43
   1 -15  -7    0.06    0.19
   1 -15  -7    0.01    0.20
  -1  15   7    0.00    0.19
  -1  15   7    0.01    0.19
   1 -15  -6    0.20    0.22
   1 -15  -6   -0.02    0.20
  -1  15   6    0.00    0.20
   1 -15  -5    0.05    0.18
   1 -15  -5   -0.02    0.18
  -1  15   5    0.04    0.18
   1 -15  -4   -0.00    0.27
   1 -15  -4    0.44    0.27
  -1  15   4    0.00    0.27
  -1  15   4    0.95    0.26
   1 -15  -3    0.00    0.35
   1 -15  -3    0.08    0.22
  -1  15   3    0.41    0.23
  -1  15   3   -0.00    0.23
  -1  15   3   -0.00    0.24
   1 -14 -10    0.01    0.35
   1 -14 -10    0.00    0.21
   1 -14 -10    0.02    0.33
   1 -14 -10    0.35    0.24
  -1  14  10    0.00    0.36
  -1  14  10    0.16    0.23
  -1  14  10    0.15    0.21
  -1  14  10    0.05    0.36
   1 -14  -9   -0.00    0.15
   1 -14  -9   -0.00    0.25
   1 -14  -9    0.93    0.28
   1 -14  -9    0.85    0.25
  -1  14   9    0.15    0.23
  -1  14   9    0.00    0.25
  -1  14   9    0.66    0.26
  -1  14   9    0.56    0.36
   1 -14  -8   -0.01    0.19
   1 -14  -8   -0.16    0.20
   1 -14  -8    0.00    0.09
   1 -14  -8    0.31    0.17
  -1  14   8    0.00    0.18
  -1  14   8    0.07    0.19
  -1  14   8   -0.08    0.27
  -1  14   8    0.04    0.10
   1 -14  -7   -0.01    0.10
   1 -14  -7    0.88    0.21
   1 -14  -7    0.00    0.10
  -1  14   7    0.02    0.20
   1 -14  -6    0.38    0.18
   1 -14  -6    0.00    0.08
   1 -14  -6    0.00    0.08
  -1  14   6   -0.00    0.18
   1 -14  -5    0.01    0.06
   1 -14  -5   -0.02    0.14
   1 -14  -5   -0.00    0.06
  -1  14   5    0.00    0.14
   1 -14  -4    0.01    0.18
   1 -14  -4   -0.10    0.18
   1 -14  -3    0.81    0.29
   1 -14  -3    0.02    0.30
  -1  14   3    1.57    0.28
   1 -14  -2   -0.01    0.28
   1 -14  -2    0.91    0.27
   1 -14  -2    0.88    0.28
  -1  14   2    0.01    0.29
  -1  14   2    0.02    0.29
  -1  14   2    1.37    0.26
   1 -14  -1    0.04    0.18
   1 -14  -1   -0.08    0.18
   1 -14  -1   -0.00    0.20
  -1  14   1    0.01    0.18
  -1  14   1    0.13    0.17
  -1  14   1    0.08    0.20
   1 -14   0    0.55    0.26
   1 -14   0   -0.01    0.44
   1 -14   0    0.41    0.26
  -1  14   0   -0.01    0.42
  -1  14   0    0.93    0.44
  -1  14   0    0.02    0.26
  -1  13  12    0.16    0.27
   1 -13 -11   -0.00    0.15
   1 -13 -11   -0.01    0.15
   1 -13 -11   -0.03    0.10
   1 -13 -11   -0.00    0.16
  -1  13  11    0.00    0.11
  -1  13  11    0.10    0.16
  -1  13  11   -0.00    0.15
  -1  13  11    0.05    0.24
   1 -13 -10    0.01    0.32
   1 -13 -10   -0.00    0.19
   1 -13 -10    0.14    0.20
   1 -13 -10   -0.01    0.30
  -1  13  10    0.00    0.31
  -1  13  10    0.05    0.19
  -1  13  10    0.12    0.13
   1 -13  -9    0.01    0.18
   1 -13  -9   -0.01    0.17
   1 -13  -9    0.17    0.18
   1 -13  -9    0.01    0.11
  -1  13   9    0.05    0.10
  -1  13   9    0.12    0.26
  -1  13   9   -0.00    0.17
  -1  13   9    0.08    0.18
   1 -13  -8    2.06    0.19
   1 -13  -8    2.18    0.33
   1 -13  -8    2.20    0.33
   1 -13  -8    2.36    0.32
  -1  13   8    2.19    0.32
  -1  13   8    1.42    0.46
  -1  13   8    1.91    0.29
  -1  13   8    2.23    0.33
   1 -13  -7   -0.02    0.15
   1 -13  -7    0.01    0.08
   1 -13  -7    0.02    0.16
   1 -13  -7    0.17    0.16
  -1  13   7    0.05    0.08
  -1  13   7    0.00    0.16
  -1  13   7    0.04    0.24
  -1  13   7    0.00    0.16
   1 -13  -6    0.09    0.14
   1 -13  -6    0.00    0.06
   1 -13  -6    0.00    0.07
  -1  13   6    0.01    0.15
   1 -13  -5    0.01    0.10
   1 -13  -5    0.01    0.15
   1 -13  -4    0.60    0.13
   1 -13  -4   -0.00    0.14
   1 -13  -4   -0.01    0.24
  -1  13   4    0.02    0.24
   1 -13  -3   11.38    0.32
   1 -13  -3   14.06    0.85
   1 -13  -3   11.60    0.41
  -1  13   3   13.23    0.60
   1 -13  -2    0.41    0.09
   1 -13  -2    1.38    0.40
   1 -13  -2    0.34    0.14
   1 -13  -2    0.13    0.41
  -1  13   2    0.00    0.25
  -1  13   2    0.49    0.24
   1 -13  -1    4.51    0.20
   1 -13  -1    5.05    0.60
   1 -13  -1    4.33    0.27
   1 -13  -1    5.15    0.44
   1 -13  -1    5.38    0.62
  -1  13   1    5.03    0.43
  -1  13   1    5.16    0.41
  -1  13   1    5.51    0.44
   1 -13   0    0.84    0.34
   1 -13   0   -0.00    0.14
   1 -13   0    0.58    0.33
   1 -13   0    0.01    0.22
   1 -13   0    0.01    0.09
  -1  13   0    0.75    0.23
  -1  13   0    0.73    0.21
  -1  13   0    0.01    0.21
   1 -13   1    0.15    0.29
   1 -13   1    0.32    0.19
   1 -13   1    0.36    0.29
   1 -13   1    0.00    0.13
   1 -13   1   -0.00    0.08
  -1  13  -1   -0.05    0.30
  -1  13  -1   -0.00    0.29
  -1  13  -1    0.09    0.19
   1 -13   2    0.48    0.37
   1 -13   2    0.37    0.26
   1 -13   2    0.23    0.37
  -1  13  -2    0.01    0.37
  -1  13  -2    0.17    0.26
  -1  13  -2    0.33    0.26
   1 -13   3    0.30    0.33
   1 -13   3    0.01    0.24
   1 -13   3    0.28    0.33
  -1  13  -3    0.00    0.34
  -1  13  -3    0.05    0.23
  -1  13  -3    0.08    0.23
   1 -12 -13   -0.04    0.20
  -1  12  13    0.01    0.24
  -1  12  13   -0.01    0.21
  -1  12  13   -0.15    0.33
   1 -12 -12    0.02    0.31
   1 -12 -12    0.01    0.34
   1 -12 -12    0.05    0.20
   1 -12 -12    0.22    0.16
  -1  12  12   -0.00    0.16
  -1  12  12    0.11    0.33
  -1  12  12    0.02    0.21
  -1  12  12   -0.00    0.32
   1 -12 -11   -0.02    0.20
   1 -12 -11    0.18    0.14
   1 -12 -11    0.02    0.20
   1 -12 -11    0.00    0.21
  -1  12  11    0.01    0.22
  -1  12  11    0.25    0.31
  -1  12  11   -0.01    0.21
  -1  12  11    0.28    0.20
   1 -12 -10    0.02    0.22
   1 -12 -10    0.59    0.33
   1 -12 -10    0.00    0.32
   1 -12 -10   -0.00    0.34
  -1  12  10    0.49    0.33
  -1  12  10   -0.00    0.22
  -1  12  10    0.48    0.20
  -1  12  10   -0.00    0.32
   1 -12  -9   -0.01    0.14
   1 -12  -9   -0.01    0.09
   1 -12  -9   -0.11    0.23
   1 -12  -9    0.01    0.15
  -1  12   9   -0.08    0.14
  -1  12   9   -0.00    0.14
  -1  12   9   -0.00    0.14
  -1  12   9    0.11    0.24
   1 -12  -8    0.00    0.10
   1 -12  -8    0.01    0.17
   1 -12  -8    0.35    0.27
   1 -12  -8   -0.01    0.18
  -1  12   8    0.32    0.15
  -1  12   8   -0.00    0.17
  -1  12   8    0.19    0.17
  -1  12   8    0.19    0.27
   1 -12  -7   -0.01    0.07
   1 -12  -7   -0.01    0.14
   1 -12  -7    0.02    0.13
   1 -12  -7   -0.06    0.22
  -1  12   7    0.05    0.13
  -1  12   7    0.02    0.07
  -1  12   7    0.11    0.13
  -1  12   7    0.01    0.22
   1 -12  -6   -0.01    0.06
   1 -12  -6    0.03    0.12
   1 -12  -6    0.06    0.19
   1 -12  -6   -0.06    0.12
  -1  12   6    0.00    0.20
  -1  12   6   -0.04    0.12
  -1  12   6    0.00    0.06
   1 -12  -5    0.24    0.15
   1 -12  -5    0.00    0.07
   1 -12  -5   -0.00    0.07
   1 -12  -5    0.27    0.15
   1 -12  -5   -0.00    0.15
  -1  12   5    0.22    0.15
  -1  12   5    0.00    0.24
   1 -12  -4    1.68    0.28
   1 -12  -4    1.71    0.17
   1 -12  -4    1.85    0.28
   1 -12  -4    1.58    0.13
   1 -12  -4    1.90    0.26
  -1  12   4   -0.00    0.28
  -1  12   4    1.77    0.27
   1 -12  -3    1.57    0.12
   1 -12  -3    1.58    0.11
   1 -12  -3    1.58    0.27
   1 -12  -3    2.00    0.28
   1 -12  -3    1.27    0.28
  -1  12   3    2.04    0.29
  -1  12   3    0.01    0.28
   1 -12  -2    6.17    0.22
   1 -12  -2    7.03    0.42
   1 -12  -2    6.83    0.43
   1 -12  -2    6.77    0.43
   1 -12  -2    6.22    0.21
  -1  12   2    6.96    0.43
  -1  12   2    6.98    0.43
   1 -12  -1   -0.00    0.09
   1 -12  -1    0.00    0.15
   1 -12  -1    0.00    0.06
   1 -12  -1   -0.01    0.25
   1 -12  -1    0.17    0.15
  -1  12   1    0.42    0.25
  -1  12   1    0.02    0.27
  -1  12   1    0.08    0.16
   1 -12   0    0.16    0.19
   1 -12   0    0.30    0.13
   1 -12   0    0.00    0.12
   1 -12   0    0.31    0.19
   1 -12   0    0.01    0.30
  -1  12   0    0.31    0.19
  -1  12   0    0.00    0.19
  -1  12   0    0.24    0.32
   1 -12   1    0.72    0.25
   1 -12   1    1.17    0.25
   1 -12   1    0.01    0.18
   1 -12   1    1.01    0.12
   1 -12   1    0.84    0.25
  -1  12  -1    0.87    0.26
  -1  12  -1    0.01    0.25
  -1  12  -1    1.12    0.26
   1 -12   2   -0.01    0.14
   1 -12   2    0.00    0.09
   1 -12   2   -0.10    0.19
   1 -12   2    0.12    0.18
   1 -12   2    0.33    0.18
  -1  12  -2    0.01    0.18
  -1  12  -2    0.20    0.19
  -1  12  -2    0.33    0.18
   1 -12   3    1.67    0.26
   1 -12   3    0.01    0.15
   1 -12   3    0.92    0.26
   1 -12   3    1.44    0.40
   1 -12   3    0.00    0.21
  -1  12  -3    0.71    0.39
  -1  12  -3    0.02    0.26
  -1  12  -3    1.14    0.42
   1 -12   4   -0.00    0.16
   1 -12   4    0.01    0.15
   1 -12   4    0.08    0.17
   1 -12   4    0.11    0.18
   1 -12   4   -0.19    0.17
  -1  12  -4   -0.01    0.17
  -1  12  -4   -0.05    0.18
  -1  12  -4   -0.09    0.19
   1 -11 -13    0.04    0.15
   1 -11 -13    0.09    0.12
   1 -11 -13   -0.00    0.23
   1 -11 -13   -0.13    0.15
   1 -11 -13   -0.00    0.23
  -1  11  13   -0.04    0.20
  -1  11  13   -0.02    0.16
  -1  11  13    0.01    0.15
   1 -11 -12   -0.01    0.40
   1 -11 -12    0.82    0.21
   1 -11 -12    0.00    0.43
   1 -11 -12    0.76    0.26
   1 -11 -12    0.01    0.26
  -1  11  12   -0.00    0.42
  -1  11  12    0.76    0.21
  -1  11  12    0.90    0.27
   1 -11 -11    0.08    0.29
   1 -11 -11   -0.00    0.31
   1 -11 -11    1.38    0.33
   1 -11 -11    2.22    0.30
  -1  11  11    2.25    0.29
  -1  11  11    0.00    0.29
  -1  11  11    1.66    0.33
  -1  11  11    1.71    0.30
   1 -11 -10    0.75    0.17
   1 -11 -10   -0.02    0.24
   1 -11 -10    0.02    0.37
   1 -11 -10    0.00    0.39
  -1  11  10    0.88    0.24
  -1  11  10    0.90    0.23
  -1  11  10    0.01    0.38
  -1  11  10    0.96    0.18
   1 -11  -9    0.91    0.25
   1 -11  -9    1.41    0.26
   1 -11  -9    1.29    0.27
   1 -11  -9    1.27    0.17
  -1  11   9    1.17    0.25
  -1  11   9    1.33    0.26
  -1  11   9    1.20    0.17
  -1  11   9    1.48    0.26
   1 -11  -8   -0.03    0.15
   1 -11  -8    0.05    0.09
   1 -11  -8   -0.02    0.15
   1 -11  -8    0.06    0.15
  -1  11   8    0.04    0.14
  -1  11   8    0.07    0.09
  -1  11   8    0.10    0.15
  -1  11   8   -0.01    0.14
   1 -11  -7    0.02    0.12
   1 -11  -7   -0.01    0.14
   1 -11  -7    0.07    0.14
   1 -11  -7   -0.02    0.14
  -1  11   7    0.16    0.14
  -1  11   7    0.01    0.12
  -1  11   7    0.01    0.14
  -1  11   7    0.13    0.14
   1 -11  -6    0.13    0.15
   1 -11  -6   -0.02    0.23
   1 -11  -6   -0.01    0.14
   1 -11  -6    0.09    0.07
  -1  11   6    0.01    0.14
  -1  11   6    0.09    0.14
  -1  11   6    0.08    0.12
  -1  11   6    0.01    0.23
   1 -11  -5    0.79    0.21
   1 -11  -5    0.82    0.33
   1 -11  -5    0.83    0.10
   1 -11  -5    0.84    0.21
  -1  11   5    0.84    0.15
  -1  11   5    0.61    0.33
  -1  11   5    0.87    0.21
  -1  11   5    0.63    0.33
   1 -11  -4    0.06    0.13
   1 -11  -4    0.01    0.08
   1 -11  -4    0.18    0.13
   1 -11  -4    0.01    0.09
   1 -11  -4    0.05    0.13
  -1  11   4   -0.04    0.13
  -1  11   4    0.01    0.21
  -1  11   4    0.04    0.14
   1 -11  -3    0.39    0.19
   1 -11  -3    0.41    0.20
   1 -11  -3    0.52    0.20
   1 -11  -3    0.60    0.11
   1 -11  -3    0.48    0.08
  -1  11   3    0.50    0.19
  -1  11   3    0.43    0.20
  -1  11   3    0.44    0.19
   1 -11  -2    2.86    0.41
   1 -11  -2    2.59    0.29
   1 -11  -2    2.61    0.13
   1 -11  -2    2.63    0.13
   1 -11  -2    2.59    0.42
  -1  11   2    2.86    0.29
  -1  11   2    2.80    0.28
  -1  11   2    3.23    0.46
   1 -11  -1    0.46    0.31
   1 -11  -1    0.60    0.31
   1 -11  -1    0.39    0.12
   1 -11  -1    0.51    0.21
  -1  11   1    0.57    0.21
  -1  11   1    0.51    0.20
  -1  11   1    0.43    0.34
   1 -11   0    1.76    0.12
   1 -11   0    1.94    0.13
   1 -11   0    1.82    0.26
   1 -11   0    2.13    0.27
   1 -11   0    1.81    0.26
  -1  11   0    1.75    0.27
  -1  11   0    1.56    0.27
  -1  11   0    1.91    0.28
   1 -11   1    0.32    0.16
   1 -11   1   -0.00    0.08
   1 -11   1    0.29    0.25
   1 -11   1    0.15    0.16
   1 -11   1    0.01    0.07
  -1  11  -1    0.22    0.26
  -1  11  -1    0.19    0.16
  -1  11  -1    0.23    0.25
   1 -11   2    0.00    0.17
   1 -11   2    1.09    0.33
   1 -11   2   -0.00    0.16
   1 -11   2    0.65    0.22
   1 -11   2    0.79    0.21
  -1  11  -2    0.83    0.22
  -1  11  -2    1.14    0.23
  -1  11  -2   -0.01    0.22
   1 -11   3    0.01    0.21
   1 -11   3    1.14    0.25
   1 -11   3    1.40    0.25
   1 -11   3    0.01    0.22
   1 -11   3    1.61    0.26
  -1  11  -3    1.06    0.26
  -1  11  -3    1.13    0.27
  -1  11  -3   -0.00    0.26
   1 -11   4    0.57    0.21
   1 -11   4    0.31    0.21
   1 -11   4    0.00    0.21
   1 -11   4    0.33    0.34
   1 -11   4    0.00    0.19
  -1  11  -4    0.01    0.22
  -1  11  -4    0.12    0.35
  -1  11  -4    0.54    0.35
   1 -11   5    0.06    0.19
   1 -11   5    0.40    0.19
   1 -11   5    0.22    0.20
   1 -11   5    0.00    0.12
   1 -11   5   -0.00    0.12
  -1  11  -5    0.03    0.20
  -1  11  -5    0.17    0.21
  -1  11  -5   -0.01    0.20
   1 -11   6   -0.01    0.17
   1 -11   6    0.71    0.46
   1 -11   6    1.42    0.27
   1 -11   6    0.01    0.18
   1 -11   6    0.69    0.26
  -1  11  -6   -0.02    0.43
  -1  11  -6    0.86    0.45
  -1  11  -6    0.64    0.30
   1 -10 -14   -0.01    0.23
   1 -10 -14   -0.00    0.18
   1 -10 -14    0.03    0.17
   1 -10 -14    0.04    0.16
   1 -10 -14   -0.07    0.16
  -1  10  14    0.00    0.18
  -1  10  14    0.05    0.17
  -1  10  14    0.03    0.15
   1 -10 -13    0.00    0.17
   1 -10 -13    0.01    0.17
   1 -10 -13   -0.04    0.17
   1 -10 -13    0.03    0.17
   1 -10 -13    0.10    0.14
  -1  10  13   -0.02    0.18
  -1  10  13    0.16    0.27
  -1  10  13   -0.00    0.15
   1 -10 -12    1.52    0.33
   1 -10 -12    1.21    0.26
   1 -10 -12    0.01    0.41
   1 -10 -12    0.03    0.27
   1 -10 -12    1.03    0.42
  -1  10  12    0.01    0.42
  -1  10  12    0.72    0.41
  -1  10  12    0.97    0.34
   1 -10 -11   -0.05    0.18
   1 -10 -11    0.11    0.18
   1 -10 -11   -0.02    0.28
   1 -10 -11    0.12    0.14
  -1  10  11    0.01    0.18
  -1  10  11    0.17    0.28
  -1  10  11    0.13    0.18
  -1  10  11    0.12    0.14
   1 -10 -10    0.41    0.31
   1 -10 -10    0.04    0.31
   1 -10 -10    0.20    0.30
   1 -10 -10    0.21    0.14
  -1  10  10    0.21    0.31
  -1  10  10    0.40    0.31
  -1  10  10    0.32    0.30
  -1  10  10    0.32    0.23
   1 -10  -9    2.34    0.28
   1 -10  -9    2.46    0.30
   1 -10  -9    1.77    0.42
   1 -10  -9    2.15    0.29
  -1  10   9    1.97    0.42
  -1  10   9    2.21    0.29
  -1  10   9    2.28    0.30
   1 -10  -8    0.90    0.21
   1 -10  -8    0.77    0.22
   1 -10  -8    0.79    0.21
   1 -10  -8    0.39    0.21
  -1  10   8    0.69    0.33
  -1  10   8    0.63    0.21
  -1  10   8    0.89    0.21
  -1  10   8    0.79    0.21
   1 -10  -7    0.12    0.15
   1 -10  -7    0.06    0.15
   1 -10  -7    0.08    0.13
   1 -10  -7    0.20    0.15
  -1  10   7    0.18    0.09
  -1  10   7    0.14    0.15
  -1  10   7    0.01    0.15
  -1  10   7    0.09    0.15
   1 -10  -6    0.43    0.16
   1 -10  -6    0.90    0.19
   1 -10  -6    0.87    0.19
   1 -10  -6    0.71    0.19
  -1  10   6    0.64    0.16
  -1  10   6    0.62    0.19
  -1  10   6    0.66    0.19
  -1  10   6    0.62    0.19
   1 -10  -5    0.43    0.17
   1 -10  -5    0.38    0.17
   1 -10  -5    0.41    0.17
   1 -10  -5    0.31    0.08
  -1  10   5    0.34    0.16
  -1  10   5    0.42    0.17
  -1  10   5    0.37    0.17
  -1  10   5    0.33    0.13
   1 -10  -4    0.38    0.16
   1 -10  -4    0.50    0.16
   1 -10  -4    0.34    0.26
   1 -10  -4    0.25    0.11
  -1  10   4    0.31    0.26
  -1  10   4    0.35    0.26
  -1  10   4    0.33    0.07
  -1  10   4    0.37    0.16
   1 -10  -3    0.84    0.19
   1 -10  -3    0.68    0.29
   1 -10  -3    0.87    0.29
   1 -10  -3    0.27    0.13
   1 -10  -3    0.85    0.11
  -1  10   3    0.87    0.29
  -1  10   3    0.90    0.19
  -1  10   3    0.70    0.19
   1 -10  -2    0.10    0.14
   1 -10  -2    0.14    0.15
   1 -10  -2    0.15    0.14
   1 -10  -2    0.11    0.09
   1 -10  -2    0.17    0.06
  -1  10   2    0.24    0.15
  -1  10   2    0.08    0.15
  -1  10   2    0.14    0.16
   1 -10  -1    0.07    0.10
   1 -10  -1    0.01    0.06
   1 -10  -1   -0.01    0.10
   1 -10  -1    0.06    0.10
   1 -10  -1   -0.04    0.07
  -1  10   1    0.07    0.11
  -1  10   1   -0.05    0.11
  -1  10   1    0.01    0.11
   1 -10   0    3.01    0.27
   1 -10   0    2.93    0.40
   1 -10   0    2.80    0.19
   1 -10   0    2.97    0.27
   1 -10   0    2.60    0.13
  -1  10   0    3.08    0.28
  -1  10   0    3.02    0.28
  -1  10   0    3.07    0.29
   1 -10   1    0.35    0.18
   1 -10   1    0.48    0.27
   1 -10   1    0.28    0.08
   1 -10   1    0.57    0.27
   1 -10   1    0.29    0.08
  -1  10  -1    0.33    0.18
  -1  10  -1    0.30    0.18
  -1  10  -1    0.34    0.29
   1 -10   2    0.78    0.21
   1 -10   2    0.76    0.21
   1 -10   2    0.86    0.11
   1 -10   2   -0.01    0.17
   1 -10   2    0.74    0.21
  -1  10  -2    0.67    0.22
  -1  10  -2    0.78    0.34
  -1  10  -2    0.75    0.21
   1 -10   3    0.01    0.21
   1 -10   3    0.06    0.13
   1 -10   3   -0.01    0.11
   1 -10   3    0.03    0.13
   1 -10   3   -0.00    0.07
  -1  10  -3   -0.00    0.21
  -1  10  -3    0.06    0.21
  -1  10  -3    0.03    0.21
   1 -10   4    0.32    0.19
   1 -10   4    0.00    0.13
   1 -10   4    0.51    0.19
   1 -10   4    0.57    0.20
   1 -10   4   -0.00    0.18
  -1  10  -4    0.01    0.33
  -1  10  -4    0.40    0.21
  -1  10  -4    0.51    0.21
   1 -10   5    0.94    0.22
   1 -10   5    0.82    0.23
   1 -10   5    0.70    0.22
   1 -10   5    0.01    0.15
  -1  10  -5    0.77    0.24
  -1  10  -5   -0.03    0.36
  -1  10  -5   -0.01    0.16
  -1  10  -5    0.52    0.37
   1 -10   6    0.67    0.25
   1 -10   6    0.81    0.26
   1 -10   6    0.51    0.25
   1 -10   6    0.01    0.28
  -1  10  -6    0.44    0.27
  -1  10  -6    0.44    0.27
  -1  10  -6    0.51    0.18
  -1  10  -6   -0.01    0.41
   1 -10   7   -0.02    0.16
  -1  10  -7    0.29    0.25
  -1  10  -7    0.06    0.22
  -1  10  -7    0.10    0.21
   1  -9 -14    0.60    0.27
   1  -9 -14    0.03    0.27
   1  -9 -14    0.62    0.23
   1  -9 -14    0.48    0.40
   1  -9 -14    0.51    0.39
  -1   9  14    0.02    0.27
  -1   9  14    0.76    0.26
  -1   9  14    0.01    0.24
   1  -9 -13    0.03    0.21
   1  -9 -13    0.24    0.20
   1  -9 -13    0.05    0.21
   1  -9 -13    0.29    0.18
   1  -9 -13    0.11    0.20
  -1   9  13    0.01    0.18
  -1   9  13    0.01    0.20
  -1   9  13    0.15    0.21
   1  -9 -12    0.09    0.25
   1  -9 -12    0.12    0.30
   1  -9 -12    0.15    0.18
   1  -9 -12    0.03    0.19
   1  -9 -12    0.03    0.30
  -1   9  12    0.17    0.25
  -1   9  12    0.20    0.19
  -1   9  12   -0.01    0.30
   1  -9 -11    2.17    0.29
   1  -9 -11    2.19    0.31
   1  -9 -11    1.85    0.26
   1  -9 -11    2.11    0.30
  -1   9  11    2.09    0.25
  -1   9  11    2.06    0.31
  -1   9  11    2.08    0.30
   1  -9 -10    1.19    0.31
   1  -9 -10    1.36    0.41
   1  -9 -10    1.29    0.41
   1  -9 -10    1.43    0.26
  -1   9  10    1.40    0.21
  -1   9  10    1.79    0.26
  -1   9  10    0.55    0.41
  -1   9  10    1.32    0.26
   1  -9  -9    0.81    0.23
   1  -9  -9    0.95    0.23
   1  -9  -9    0.84    0.25
   1  -9  -9    0.87    0.23
  -1   9   9    0.86    0.22
  -1   9   9    0.96    0.16
  -1   9   9    0.99    0.23
  -1   9   9    0.75    0.22
   1  -9  -8   -0.01    0.12
   1  -9  -8   -0.04    0.12
   1  -9  -8    0.03    0.08
   1  -9  -8   -0.10    0.12
  -1   9   8    0.09    0.12
  -1   9   8    0.01    0.08
  -1   9   8    0.03    0.12
  -1   9   8    0.13    0.12
   1  -9  -7    0.13    0.09
   1  -9  -7    0.06    0.14
   1  -9  -7    0.15    0.14
   1  -9  -7    0.02    0.14
  -1   9   7    0.05    0.14
  -1   9   7    0.24    0.09
  -1   9   7    0.11    0.14
  -1   9   7    0.12    0.14
   1  -9  -6    0.12    0.20
   1  -9  -6    0.13    0.13
   1  -9  -6    0.12    0.07
   1  -9  -6    0.21    0.13
  -1   9   6    0.15    0.21
  -1   9   6    0.07    0.20
  -1   9   6    0.03    0.13
  -1   9   6    0.06    0.12
   1  -9  -5    4.95    0.28
   1  -9  -5    4.61    0.22
   1  -9  -5    4.72    0.28
   1  -9  -5    5.05    0.28
  -1   9   5    4.57    0.28
  -1   9   5    4.72    0.22
  -1   9   5    4.79    0.29
  -1   9   5    4.89    0.29
   1  -9  -4    0.62    0.25
   1  -9  -4    0.80    0.17
   1  -9  -4    0.64    0.16
   1  -9  -4    0.58    0.07
  -1   9   4    0.63    0.16
  -1   9   4    0.73    0.08
  -1   9   4    0.58    0.16
  -1   9   4    0.79    0.26
   1  -9  -3    0.46    0.23
   1  -9  -3    0.34    0.06
   1  -9  -3    0.45    0.15
   1  -9  -3    0.47    0.15
   1  -9  -3    0.43    0.07
  -1   9   3    0.39    0.15
  -1   9   3    0.52    0.15
  -1   9   3    0.43    0.15
   1  -9  -2    0.04    0.12
   1  -9  -2    0.10    0.07
   1  -9  -2    0.08    0.12
   1  -9  -2    0.12    0.05
   1  -9  -2    0.11    0.12
  -1   9   2    0.08    0.12
  -1   9   2    0.04    0.12
  -1   9   2    0.16    0.12
   1  -9  -1    0.00    0.04
   1  -9  -1    0.03    0.15
   1  -9  -1    0.05    0.06
   1  -9  -1    0.01    0.15
   1  -9  -1    0.04    0.16
  -1   9   1   -0.04    0.17
  -1   9   1   -0.12    0.16
  -1   9   1    0.03    0.10
   1  -9   0    0.32    0.10
   1  -9   0    0.29    0.24
   1  -9   0    0.31    0.07
   1  -9   0    0.33    0.15
   1  -9   0    0.32    0.15
  -1   9   0    0.45    0.25
  -1   9   0    0.46    0.17
  -1   9   0    0.45    0.24
   1  -9   1    1.22    0.15
   1  -9   1    1.23    0.20
   1  -9   1    1.18    0.21
   1  -9   1    1.37    0.15
   1  -9   1    1.20    0.31
  -1   9  -1    1.23    0.34
  -1   9  -1    1.47    0.22
  -1   9  -1    1.23    0.32
   1  -9   2    0.18    0.23
   1  -9   2    0.05    0.23
   1  -9   2    0.20    0.12
   1  -9   2    0.18    0.24
   1  -9   2    0.15    0.08
  -1   9  -2    0.22    0.25
  -1   9  -2    0.04    0.24
  -1   9  -2    0.22    0.26
   1  -9   3    0.59    0.19
   1  -9   3    0.52    0.19
   1  -9   3    0.50    0.11
   1  -9   3    0.45    0.19
   1  -9   3    0.56    0.11
  -1   9  -3    0.51    0.20
  -1   9  -3    0.65    0.31
  -1   9  -3    0.44    0.20
   1  -9   4    0.02    0.07
   1  -9   4   -0.02    0.11
   1  -9   4   -0.01    0.11
   1  -9   4    0.01    0.11
  -1   9  -4   -0.03    0.12
  -1   9  -4    0.02    0.19
  -1   9  -4    0.02    0.07
  -1   9  -4   -0.08    0.12
   1  -9   5    0.33    0.21
   1  -9   5    0.41    0.14
   1  -9   5    0.79    0.33
   1  -9   5    0.49    0.21
  -1   9  -5    0.59    0.23
  -1   9  -5    0.01    0.36
  -1   9  -5    0.43    0.23
  -1   9  -5    0.60    0.35
   1  -9   6    1.25    0.26
   1  -9   6    1.45    0.27
   1  -9   6    0.72    0.30
   1  -9   6    0.94    0.26
  -1   9  -6    1.04    0.28
  -1   9  -6    1.02    0.20
  -1   9  -6    0.04    0.43
  -1   9  -6    1.16    0.28
   1  -9   7    0.14    0.19
   1  -9   7   -0.00    0.18
   1  -9   7    0.06    0.18
   1  -9   7    0.11    0.14
  -1   9  -7   -0.06    0.23
  -1   9  -7    0.05    0.19
  -1   9  -7    0.12    0.19
  -1   9  -7    0.00    0.20
   1  -9   8   -0.01    0.24
   1  -9   8    0.20    0.16
  -1   9  -8    0.03    0.21
  -1   9  -8    0.02    0.17
  -1   9  -8    0.04    0.22
   1  -8 -15    5.99    0.75
   1  -8 -15    5.66    0.53
   1  -8 -15    4.65    0.47
   1  -8 -15    5.12    0.48
   1  -8 -15    5.17    0.48
  -1   8  15    5.35    0.53
  -1   8  15    4.50    0.49
  -1   8  15    4.62    0.45
   1  -8 -14    1.49    0.29
   1  -8 -14    1.53    0.31
   1  -8 -14    1.49    0.33
   1  -8 -14    1.38    0.30
   1  -8 -14    1.26    0.33
  -1   8  14    0.01    0.29
  -1   8  14    1.57    0.33
   1  -8 -13    0.02    0.23
   1  -8 -13   -0.04    0.15
   1  -8 -13    0.11    0.22
   1  -8 -13   -0.22    0.21
   1  -8 -13    0.08    0.15
  -1   8  13    0.11    0.22
  -1   8  13    0.01    0.13
  -1   8  13   -0.00    0.15
   1  -8 -12    0.06    0.50
   1  -8 -12    3.10    0.29
   1  -8 -12    3.17    0.48
   1  -8 -12    2.91    0.33
   1  -8 -12    2.88    0.32
  -1   8  12    2.88    0.50
  -1   8  12    2.97    0.43
  -1   8  12   -0.01    0.48
   1  -8 -11    0.03    0.16
   1  -8 -11    0.07    0.17
   1  -8 -11    0.17    0.22
   1  -8 -11    0.05    0.16
   1  -8 -11    0.00    0.16
  -1   8  11    0.06    0.17
  -1   8  11    0.20    0.16
  -1   8  11    0.12    0.22
   1  -8 -10   20.88    0.63
   1  -8 -10   19.81    0.68
   1  -8 -10   19.75    0.68
   1  -8 -10   20.22    0.68
   1  -8 -10   19.92    0.67
  -1   8  10   19.70    0.61
  -1   8  10   20.28    0.69
  -1   8  10   20.26    0.89
   1  -8  -9   23.14    0.63
   1  -8  -9   24.96    0.75
   1  -8  -9   24.66    0.74
   1  -8  -9   24.92    0.75
  -1   8   9   24.72    0.96
  -1   8   9   24.39    0.74
  -1   8   9   24.19    0.79
  -1   8   9   23.67    0.74
   1  -8  -8    8.56    0.38
   1  -8  -8    8.70    0.53
   1  -8  -8    8.74    0.42
   1  -8  -8    8.93    0.38
  -1   8   8    8.63    0.31
  -1   8   8    8.77    0.53
  -1   8   8    8.98    0.56
  -1   8   8    8.52    0.37
   1  -8  -7    0.30    0.16
   1  -8  -7    0.32    0.24
   1  -8  -7    0.34    0.24
   1  -8  -7    0.32    0.15
  -1   8   7    0.40    0.10
  -1   8   7    0.28    0.23
  -1   8   7    0.35    0.15
  -1   8   7    0.31    0.23
   1  -8  -6   -0.02    0.10
   1  -8  -6    0.00    0.17
   1  -8  -6    0.04    0.10
   1  -8  -6   -0.04    0.10
  -1   8   6    0.07    0.11
  -1   8   6    0.13    0.11
  -1   8   6    0.07    0.10
  -1   8   6    0.08    0.11
   1  -8  -5    0.13    0.06
   1  -8  -5    0.13    0.11
   1  -8  -5    0.08    0.12
   1  -8  -5    0.13    0.18
  -1   8   5    0.15    0.11
  -1   8   5    0.15    0.09
  -1   8   5    0.12    0.19
  -1   8   5    0.08    0.18
   1  -8  -4    1.18    0.16
   1  -8  -4    1.07    0.12
   1  -8  -4    1.20    0.16
   1  -8  -4    1.15    0.16
  -1   8   4    1.16    0.16
  -1   8   4    1.10    0.16
  -1   8   4    1.17    0.17
  -1   8   4    1.02    0.08
   1  -8  -3    5.86    0.27
   1  -8  -3    6.04    0.38
   1  -8  -3    5.84    0.19
   1  -8  -3    5.86    0.27
  -1   8   3    5.79    0.19
  -1   8   3    5.90    0.38
  -1   8   3    6.09    0.27
  -1   8   3    6.13    0.27
   1  -8  -2    3.17    0.21
   1  -8  -2    3.09    0.21
   1  -8  -2    3.05    0.13
   1  -8  -2    2.99    0.14
   1  -8  -2    3.13    0.31
  -1   8   2    3.12    0.22
  -1   8   2    3.02    0.31
  -1   8   2    3.05    0.22
   1  -8  -1    5.82    0.15
   1  -8  -1    5.70    0.26
   1  -8  -1    5.97    0.19
   1  -8  -1    5.91    0.38
   1  -8  -1    5.92    0.27
  -1   8   1    6.24    0.41
  -1   8   1    6.20    0.39
  -1   8   1    6.29    0.30
   1  -8   0    2.19    0.14
   1  -8   0    2.42    0.29
   1  -8   0    2.20    0.30
   1  -8   0    2.35    0.20
   1  -8   0    2.28    0.14
  -1   8   0    2.54    0.32
  -1   8   0    2.35    0.21
  -1   8   0    2.32    0.21
   1  -8   1    0.01    0.08
   1  -8   1    0.03    0.08
   1  -8   1   -0.00    0.06
   1  -8   1   -0.01    0.08
   1  -8   1   -0.01    0.04
  -1   8  -1   -0.08    0.09
  -1   8  -1    0.05    0.09
  -1   8  -1    0.02    0.08
   1  -8   2    3.74    0.36
   1  -8   2    3.35    0.20
   1  -8   2    3.59    0.25
   1  -8   2    3.35    0.15
   1  -8   2    3.21    0.37
  -1   8  -2    3.41    0.26
  -1   8  -2    3.63    0.26
  -1   8  -2    3.27    0.26
   1  -8   3    1.63    0.21
   1  -8   3    1.56    0.22
   1  -8   3    1.50    0.13
   1  -8   3    1.87    0.22
  -1   8  -3    1.61    0.23
  -1   8  -3    1.58    0.23
  -1   8  -3    1.50    0.14
  -1   8  -3    1.59    0.23
   1  -8   4    0.42    0.18
   1  -8   4    0.36    0.18
   1  -8   4    0.39    0.18
   1  -8   4    0.44    0.12
  -1   8  -4    0.62    0.30
  -1   8  -4    0.41    0.19
  -1   8  -4    0.42    0.12
  -1   8  -4    0.55    0.30
   1  -8   5    1.83    0.25
   1  -8   5    1.74    0.18
   1  -8   5    1.81    0.26
   1  -8   5    1.91    0.26
  -1   8  -5    1.90    0.27
  -1   8  -5    2.03    0.26
  -1   8  -5    1.82    0.42
  -1   8  -5    1.71    0.20
   1  -8   6    1.09    0.23
   1  -8   6    0.13    0.27
   1  -8   6    1.01    0.23
   1  -8   6    0.86    0.26
  -1   8  -6    1.06    0.24
  -1   8  -6    0.95    0.39
  -1   8  -6    0.84    0.29
  -1   8  -6    1.03    0.24
   1  -8   7    0.09    0.10
   1  -8   7   -0.11    0.12
   1  -8   7   -0.08    0.15
   1  -8   7   -0.01    0.13
  -1   8  -7    0.04    0.17
  -1   8  -7   -0.01    0.13
  -1   8  -7   -0.11    0.13
  -1   8  -7    0.10    0.13
   1  -8   8    0.52    0.21
   1  -8   8    0.00    0.26
   1  -8   8    1.21    0.31
   1  -8   8    0.80    0.25
  -1   8  -8    0.89    0.26
  -1   8  -8    0.91    0.28
  -1   8  -8    0.94    0.27
  -1   8  -8    0.63    0.23
   1  -8   9    0.09    0.19
   1  -8   9   -0.01    0.13
  -1   8  -9    0.02    0.15
  -1   8  -9   -0.02    0.17
   1  -7 -15    0.54    0.28
   1  -7 -15    0.66    0.29
   1  -7 -15    0.43    0.26
   1  -7 -15    0.00    0.30
   1  -7 -15    0.39    0.28
  -1   7  15    0.31    0.28
  -1   7  15    0.87    0.30
  -1   7  15    0.04    0.41
   1  -7 -14    0.00    0.32
   1  -7 -14    0.10    0.22
   1  -7 -14    0.12    0.22
   1  -7 -14    0.24    0.22
   1  -7 -14    0.28    0.21
  -1   7  14    0.01    0.31
  -1   7  14    0.25    0.22
  -1   7  14    0.04    0.22
   1  -7 -13    0.07    0.19
   1  -7 -13    0.00    0.17
   1  -7 -13    0.10    0.19
   1  -7 -13    0.07    0.18
   1  -7 -13    0.25    0.19
  -1   7  13    0.02    0.26
  -1   7  13    0.11    0.19
  -1   7  13    0.07    0.18
   1  -7 -12    0.01    0.34
   1  -7 -12    0.30    0.33
   1  -7 -12    0.35    0.30
   1  -7 -12    0.29    0.33
   1  -7 -12    0.48    0.34
  -1   7  12    0.39    0.30
  -1   7  12    0.54    0.34
  -1   7  12    0.52    0.22
   1  -7 -11    3.23    0.46
   1  -7 -11    2.86    0.31
   1  -7 -11    2.88    0.28
   1  -7 -11    2.87    0.44
   1  -7 -11    3.13    0.31
  -1   7  11    3.19    0.31
  -1   7  11    3.20    0.41
  -1   7  11    2.89    0.47
   1  -7 -10   15.28    0.56
   1  -7 -10   15.11    0.80
   1  -7 -10   14.91    0.56
   1  -7 -10   15.62    0.53
   1  -7 -10   15.44    0.57
  -1   7  10   15.57    0.79
  -1   7  10   14.86    0.66
  -1   7  10   15.90    0.58
   1  -7  -9   29.46    1.03
   1  -7  -9   30.17    0.76
   1  -7  -9   30.62    0.83
   1  -7  -9   29.12    0.80
  -1   7   9   28.76    0.73
  -1   7   9   29.70    0.80
  -1   7   9   29.75    0.83
   1  -7  -8    8.00    0.50
   1  -7  -8    8.59    0.51
   1  -7  -8    8.50    0.31
   1  -7  -8    8.40    0.35
  -1   7   8    8.54    0.49
  -1   7   8    8.33    0.41
  -1   7   8    8.24    0.50
  -1   7   8    8.50    0.36
   1  -7  -7    2.56    0.16
   1  -7  -7    2.36    0.21
   1  -7  -7    2.51    0.21
   1  -7  -7    2.50    0.21
  -1   7   7    2.68    0.21
  -1   7   7    2.66    0.22
  -1   7   7    2.24    0.20
  -1   7   7    2.32    0.16
   1  -7  -6    4.46    0.18
   1  -7  -6    4.61    0.24
   1  -7  -6    4.43    0.24
   1  -7  -6    4.90    0.36
  -1   7   6    4.60    0.35
  -1   7   6    4.49    0.24
  -1   7   6    4.54    0.24
  -1   7   6    4.72    0.24
   1  -7  -5    3.15    0.20
   1  -7  -5    3.13    0.13
   1  -7  -5    3.33    0.21
   1  -7  -5    3.38    0.30
  -1   7   5    3.28    0.30
  -1   7   5    3.29    0.20
  -1   7   5    3.17    0.21
  -1   7   5    3.23    0.13
   1  -7  -4   13.05    0.38
   1  -7  -4   12.68    0.36
   1  -7  -4   12.34    0.30
   1  -7  -4   13.17    0.48
  -1   7   4   12.64    0.35
  -1   7   4   12.58    0.38
  -1   7   4   12.61    0.49
  -1   7   4   12.59    0.30
   1  -7  -3    8.88    0.31
   1  -7  -3    8.98    0.30
   1  -7  -3    8.62    0.22
   1  -7  -3    8.43    0.29
  -1   7   3    8.58    0.29
  -1   7   3    8.67    0.29
  -1   7   3    8.60    0.18
  -1   7   3    8.88    0.42
   1  -7  -2    1.77    0.23
   1  -7  -2    1.69    0.15
   1  -7  -2    1.42    0.10
   1  -7  -2    1.60    0.24
   1  -7  -2    1.52    0.10
  -1   7   2    1.66    0.16
  -1   7   2    1.45    0.16
  -1   7   2    1.66    0.23
   1  -7  -1    1.49    0.10
   1  -7  -1    1.70    0.23
   1  -7  -1    1.68    0.16
   1  -7  -1    1.61    0.15
   1  -7  -1    1.58    0.10
  -1   7   1    1.69    0.17
  -1   7   1    1.75    0.24
   1  -7   0    0.01    0.03
   1  -7   0    0.02    0.08
   1  -7   0   -0.00    0.08
   1  -7   0    0.03    0.08
   1  -7   0    0.02    0.03
  -1   7   0    0.07    0.09
  -1   7   0    0.04    0.08
  -1   7   0   -0.00    0.09
   1  -7   1   -0.02    0.14
   1  -7   1    0.07    0.09
   1  -7   1   -0.02    0.09
   1  -7   1    0.05    0.07
   1  -7   1    0.05    0.04
  -1   7  -1   -0.02    0.16
  -1   7  -1    0.07    0.16
  -1   7  -1    0.05    0.15
   1  -7   2    0.36    0.21
   1  -7   2    0.41    0.14
   1  -7   2    0.42    0.08
   1  -7   2    0.33    0.20
  -1   7  -2    0.45    0.23
  -1   7  -2    0.42    0.14
  -1   7  -2    0.39    0.08
  -1   7  -2    0.33    0.14
   1  -7   3    0.01    0.11
   1  -7   3    0.07    0.11
   1  -7   3    0.14    0.11
   1  -7   3    0.05    0.07
  -1   7  -3    0.11    0.12
  -1   7  -3    0.01    0.12
  -1   7  -3    0.22    0.19
  -1   7  -3    0.08    0.11
   1  -7   4    0.61    0.11
   1  -7   4    0.50    0.16
   1  -7   4    0.02    0.19
   1  -7   4    0.45    0.16
  -1   7  -4    0.41    0.26
  -1   7  -4    0.45    0.17
  -1   7  -4    0.53    0.17
  -1   7  -4    0.51    0.17
  -1   7  -4    0.45    0.18
   1  -7   5    2.57    0.25
   1  -7   5    2.44    0.19
   1  -7   5    2.73    0.25
   1  -7   5    2.88    0.30
  -1   7  -5    2.30    0.26
  -1   7  -5    2.47    0.26
  -1   7  -5    2.54    0.20
  -1   7  -5    2.50    0.41
   1  -7   6    0.86    0.21
   1  -7   6    0.69    0.21
   1  -7   6    0.90    0.40
  -1   7  -6    0.99    0.36
  -1   7  -6    0.91    0.27
  -1   7  -6    0.86    0.35
  -1   7  -6    0.97    0.34
   1  -7   7    1.18    0.27
   1  -7   7    0.94    0.24
   1  -7   7    1.03    0.20
   1  -7   7    0.99    0.24
  -1   7  -7    1.03    0.21
  -1   7  -7    1.16    0.40
  -1   7  -7    1.14    0.25
  -1   7  -7    1.10    0.25
   1  -7   8    0.52    0.20
   1  -7   8    0.00    0.21
   1  -7   8    0.24    0.24
   1  -7   8    0.31    0.17
  -1   7  -8    0.36    0.19
  -1   7  -8    0.37    0.22
  -1   7  -8    0.51    0.23
  -1   7  -8    0.35    0.22
   1  -7   9    0.04    0.11
   1  -7   9    0.00    0.12
   1  -7   9   -0.00    0.13
   1  -7   9    0.09    0.15
  -1   7  -9   -0.09    0.13
  -1   7  -9    0.09    0.14
  -1   7  -9   -0.12    0.14
  -1   7  -9   -0.02    0.12
   1  -7  10    0.55    0.29
   1  -7  10    0.39    0.22
  -1   7 -10    0.46    0.25
  -1   7 -10    0.04    0.25
   1  -6 -15   -0.01    0.50
   1  -6 -15    0.62    0.50
  -1   6  15    0.94    0.29
  -1   6  15    0.65    0.30
   1  -6 -14    0.47    0.23
   1  -6 -14    0.34    0.36
   1  -6 -14    0.34    0.23
   1  -6 -14   -0.00    0.23
   1  -6 -14   -0.04    0.23
  -1   6  14    0.18    0.23
  -1   6  14    0.34    0.37
  -1   6  14    0.70    0.34
   1  -6 -13   -0.00    0.31
   1  -6 -13   -0.00    0.21
   1  -6 -13    0.18    0.20
   1  -6 -13    0.05    0.33
   1  -6 -13    0.46    0.20
  -1   6  13    0.33    0.21
  -1   6  13    0.27    0.21
  -1   6  13   -0.02    0.29
   1  -6 -12    0.51    0.22
   1  -6 -12    0.61    0.36
   1  -6 -12    0.72    0.36
   1  -6 -12    0.79    0.22
   1  -6 -12    0.74    0.23
  -1   6  12    0.70    0.36
  -1   6  12    0.72    0.32
  -1   6  12    0.72    0.23
   1  -6 -11    1.32    0.36
   1  -6 -11    1.03    0.35
   1  -6 -11    0.94    0.36
   1  -6 -11    1.15    0.24
   1  -6 -11    0.82    0.37
  -1   6  11    1.26    0.24
  -1   6  11    1.01    0.33
  -1   6  11    1.37    0.25
   1  -6 -10   13.34    0.71
   1  -6 -10   13.25    0.49
   1  -6 -10   13.28    0.47
   1  -6 -10   13.41    0.51
   1  -6 -10   12.81    0.70
  -1   6  10   12.82    0.60
  -1   6  10   13.41    0.52
  -1   6  10   13.04    0.50
   1  -6  -9   34.87    1.07
   1  -6  -9   35.28    0.85
   1  -6  -9   34.11    1.08
   1  -6  -9   34.50    0.86
   1  -6  -9   34.11    1.06
  -1   6   9   34.53    0.99
  -1   6   9   34.86    1.05
  -1   6   9   34.51    0.90
   1  -6  -8    3.10    0.30
   1  -6  -8    2.98    0.35
   1  -6  -8    3.13    0.23
   1  -6  -8    2.96    0.23
  -1   6   8    3.27    0.23
  -1   6   8    2.87    0.24
  -1   6   8    2.91    0.19
   1  -6  -7   -0.07    0.07
   1  -6  -7   -0.05    0.09
   1  -6  -7   -0.03    0.10
   1  -6  -7   -0.00    0.09
  -1   6   7   -0.03    0.09
  -1   6   7    0.03    0.09
  -1   6   7   -0.07    0.09
  -1   6   7    0.07    0.11
   1  -6  -6    1.58    0.16
   1  -6  -6    1.61    0.16
   1  -6  -6    1.46    0.12
   1  -6  -6    1.64    0.16
  -1   6   6    1.36    0.17
  -1   6   6    1.42    0.15
  -1   6   6    1.49    0.16
  -1   6   6    1.46    0.16
   1  -6  -5    6.19    0.18
   1  -6  -5    6.39    0.25
   1  -6  -5    6.05    0.24
   1  -6  -5    6.39    0.24
  -1   6   5    6.60    0.26
  -1   6   5    6.15    0.18
  -1   6   5    6.22    0.24
  -1   6   5    6.46    0.24
   1  -6  -4   61.21    1.17
   1  -6  -4   60.11    1.18
   1  -6  -4   58.56    1.04
   1  -6  -4   61.19    1.29
  -1   6   4   60.45    1.29
  -1   6   4   59.45    1.18
  -1   6   4   60.62    1.17
  -1   6   4   60.42    1.00
   1  -6  -3   24.93    0.64
   1  -6  -3   24.10    0.43
   1  -6  -3   24.43    0.65
   1  -6  -3   23.79    0.63
  -1   6   3   23.75    0.55
  -1   6   3   24.06    0.43
  -1   6   3   23.68    0.63
  -1   6   3   24.55    0.62
   1  -6  -2   12.14    0.45
   1  -6  -2   12.97    0.43
   1  -6  -2   13.00    0.42
   1  -6  -2   12.86    0.24
  -1   6   2   12.79    0.42
  -1   6   2   12.92    0.36
  -1   6   2   12.77    0.24
  -1   6   2   12.86    0.43
   1  -6  -1    5.18    0.20
   1  -6  -1    5.24    0.14
   1  -6  -1    5.16    0.11
   1  -6  -1    5.74    0.32
   1  -6  -1    5.20    0.20
  -1   6   1    5.12    0.21
  -1   6   1    5.27    0.20
  -1   6   1    5.29    0.23
   1  -6   0    1.50    0.14
   1  -6   0    1.57    0.07
   1  -6   0    1.58    0.14
   1  -6   0    1.52    0.09
   1  -6   0    1.68    0.21
  -1   6   0    1.67    0.24
  -1   6   0    1.64    0.25
  -1   6   0    1.67    0.22
   1  -6   1    3.91    0.19
   1  -6   1    3.91    0.20
   1  -6   1    3.68    0.19
   1  -6   1    3.74    0.15
  -1   6  -1    3.89    0.21
  -1   6  -1    3.93    0.20
  -1   6  -1    4.02    0.22
   1  -6   2    4.53    0.14
   1  -6   2    4.89    0.32
   1  -6   2    4.94    0.31
  -1   6  -2    4.76    0.24
  -1   6  -2    4.65    0.21
  -1   6  -2    4.71    0.33
  -1   6  -2    4.78    0.24
   1  -6   3    0.12    0.10
   1  -6   3    0.03    0.12
   1  -6   3    0.14    0.10
   1  -6   3    0.09    0.10
  -1   6  -3    0.09    0.07
  -1   6  -3    0.11    0.16
  -1   6  -3    0.15    0.10
  -1   6  -3    0.05    0.11
  -1   6  -3    0.06    0.11
   1  -6   4    1.48    0.18
   1  -6   4    1.64    0.22
   1  -6   4    1.61    0.18
   1  -6   4    1.46    0.13
  -1   6  -4    1.67    0.28
  -1   6  -4    1.53    0.14
  -1   6  -4    1.49    0.30
   1  -6   5    0.05    0.09
   1  -6   5    0.16    0.13
   1  -6   5    0.04    0.18
   1  -6   5    0.12    0.18
  -1   6  -5    0.06    0.20
  -1   6  -5    0.07    0.12
  -1   6  -5   -0.04    0.12
   1  -6   6    1.25    0.31
   1  -6   6    1.03    0.23
   1  -6   6    1.01    0.31
   1  -6   6    1.11    0.26
  -1   6  -6    1.10    0.35
  -1   6  -6    0.96    0.32
  -1   6  -6    0.95    0.33
  -1   6  -6    0.96    0.17
   1  -6   7    1.33    0.35
   1  -6   7    1.26    0.19
   1  -6   7    1.23    0.36
   1  -6   7    0.95    0.42
  -1   6  -7    1.04    0.20
  -1   6  -7    0.63    0.38
  -1   6  -7    1.18    0.24
  -1   6  -7    1.10    0.24
   1  -6   8    2.99    0.27
   1  -6   8    3.08    0.36
   1  -6   8    2.82    0.30
   1  -6   8    2.93    0.30
  -1   6  -8    3.14    0.51
  -1   6  -8    2.63    0.33
  -1   6  -8    2.64    0.32
  -1   6  -8    3.14    0.29
   1  -6   9   -0.00    0.17
   1  -6   9   -0.00    0.16
   1  -6   9    0.13    0.23
   1  -6   9    0.09    0.20
  -1   6  -9    0.27    0.17
  -1   6  -9    0.11    0.17
  -1   6  -9    0.00    0.18
  -1   6  -9   -0.06    0.16
   1  -6  10    0.02    0.17
   1  -6  10    0.14    0.16
   1  -6  10    0.08    0.21
   1  -6  10   -0.00    0.17
  -1   6 -10    0.01    0.19
  -1   6 -10    0.09    0.17
  -1   6 -10    0.03    0.18
  -1   6 -10   -0.03    0.19
   1  -6  11   -0.00    0.30
   1  -6  11    0.23    0.29
   1  -6  11   -0.00    0.31
   1  -6  11    0.04    0.24
  -1   6 -11    0.05    0.20
  -1   6 -11    0.01    0.22
  -1   6 -11    0.16    0.22
  -1   6 -11    0.09    0.20
   1  -5 -15    0.10    0.23
   1  -5 -15   -0.00    0.22
  -1   5  15    0.27    0.21
  -1   5  15    0.02    0.21
   1  -5 -14   -0.03    0.15
   1  -5 -14   -0.02    0.25
   1  -5 -14    0.00    0.25
  -1   5  14   -0.00    0.15
  -1   5  14    0.01    0.16
   1  -5 -13   -0.00    0.20
   1  -5 -13    0.24    0.31
   1  -5 -13    0.24    0.20
   1  -5 -13    0.01    0.31
   1  -5 -13    0.16    0.19
  -1   5  13    0.20    0.32
  -1   5  13    0.24    0.18
   1  -5 -12    0.61    0.22
   1  -5 -12    0.37    0.33
   1  -5 -12    0.61    0.21
   1  -5 -12    0.53    0.22
  -1   5  12    0.32    0.32
  -1   5  12    0.44    0.22
   1  -5 -11    0.13    0.24
   1  -5 -11    0.14    0.25
   1  -5 -11    0.21    0.16
   1  -5 -11    0.13    0.16
   1  -5 -11   -0.04    0.25
  -1   5  11    0.13    0.16
  -1   5  11    0.09    0.24
  -1   5  11    0.08    0.23
   1  -5 -10    0.56    0.29
   1  -5 -10    0.59    0.19
   1  -5 -10    0.66    0.19
   1  -5 -10    0.66    0.19
   1  -5 -10    0.67    0.19
  -1   5  10    0.81    0.21
  -1   5  10    0.68    0.28
  -1   5  10    0.74    0.19
   1  -5  -9    2.28    0.35
   1  -5  -9    2.37    0.22
   1  -5  -9    2.15    0.22
   1  -5  -9    2.07    0.23
   1  -5  -9    2.37    0.22
  -1   5   9    2.13    0.32
  -1   5   9    2.06    0.24
  -1   5   9    2.31    0.22
   1  -5  -8    0.27    0.13
   1  -5  -8    0.25    0.13
   1  -5  -8    0.28    0.19
   1  -5  -8    0.24    0.13
   1  -5  -8    0.27    0.20
  -1   5   8    0.13    0.17
  -1   5   8    0.35    0.20
  -1   5   8    0.34    0.13
   1  -5  -7    6.64    0.25
   1  -5  -7    6.49    0.36
   1  -5  -7    6.65    0.38
   1  -5  -7    6.52    0.26
  -1   5   7    6.62    0.26
  -1   5   7    6.37    0.23
  -1   5   7    6.29    0.27
   1  -5  -6    0.01    0.13
   1  -5  -6   -0.02    0.08
   1  -5  -6    0.02    0.06
   1  -5  -6    0.03    0.08
  -1   5   6    0.01    0.09
  -1   5   6    0.01    0.07
  -1   5   6   -0.01    0.12
  -1   5   6    0.05    0.08
   1  -5  -5    8.40    0.34
   1  -5  -5    8.47    0.28
   1  -5  -5    8.14    0.21
   1  -5  -5    8.20    0.26
  -1   5   5    8.24    0.27
  -1   5   5    8.20    0.25
  -1   5   5    8.08    0.34
  -1   5   5    8.43    0.27
   1  -5  -4    5.23    0.31
   1  -5  -4    4.62    0.14
   1  -5  -4    4.76    0.27
   1  -5  -4    4.93    0.20
  -1   5   4    4.81    0.14
  -1   5   4    4.86    0.19
  -1   5   4    4.75    0.19
  -1   5   4    4.63    0.21
   1  -5  -3   36.83    0.72
   1  -5  -3   36.13    0.78
   1  -5  -3   38.03    0.72
   1  -5  -3   36.37    0.60
  -1   5   3   36.40    0.72
  -1   5   3   37.13    0.80
  -1   5   3   36.78    0.56
  -1   5   3   37.62    0.72
   1  -5  -2    1.06    0.07
   1  -5  -2    1.02    0.18
   1  -5  -2    1.11    0.20
   1  -5  -2    1.08    0.11
  -1   5   2    0.96    0.06
  -1   5   2    1.08    0.11
  -1   5   2    1.03    0.20
  -1   5   2    1.00    0.17
   1  -5  -1    1.51    0.06
   1  -5  -1    1.40    0.07
   1  -5  -1    1.70    0.21
   1  -5  -1    1.47    0.13
   1  -5  -1    1.44    0.19
  -1   5   1    1.37    0.12
  -1   5   1    1.40    0.14
  -1   5   1    1.29    0.19
   1  -5   0    7.81    0.23
   1  -5   0    7.94    0.32
   1  -5   0    8.03    0.16
   1  -5   0    7.76    0.16
   1  -5   0    7.77    0.31
  -1   5   0    8.07    0.27
  -1   5   0    8.01    0.27
  -1   5   0    7.57    0.24
   1  -5   1    1.82    0.14
   1  -5   1    1.96    0.14
   1  -5   1    1.80    0.14
   1  -5   1    1.75    0.07
  -1   5  -1    2.10    0.24
  -1   5  -1    1.80    0.08
  -1   5  -1    1.88    0.17
  -1   5  -1    2.00    0.15
   1  -5   2  108.44    1.82
   1  -5   2  108.42    2.02
   1  -5   2  107.75    2.01
  -1   5  -2  108.82    2.09
  -1   5  -2  107.61    2.06
  -1   5  -2  112.94    2.25
  -1   5  -2  109.19    1.98
   1  -5   3    0.00    0.08
   1  -5   3   -0.03    0.07
   1  -5   3   -0.00    0.11
   1  -5   3    0.03    0.05
  -1   5  -3   -0.02    0.07
  -1   5  -3    0.01    0.07
  -1   5  -3   -0.02    0.08
  -1   5  -3    0.08    0.11
   1  -5   4    1.24    0.15
   1  -5   4    1.35    0.15
   1  -5   4    1.38    0.18
   1  -5   4    1.33    0.18
  -1   5  -4    1.36    0.19
  -1   5  -4    1.63    0.26
  -1   5  -4    1.34    0.25
  -1   5  -4    1.46    0.24
   1  -5   5    1.56    0.19
   1  -5   5    1.82    0.19
   1  -5   5    1.86    0.23
   1  -5   5    1.90    0.35
  -1   5  -5    1.93    0.19
  -1   5  -5    1.77    0.16
  -1   5  -5    1.70    0.20
  -1   5  -5    2.02    0.20
   1  -5   6    5.93    0.35
   1  -5   6    5.74    0.30
   1  -5   6    5.58    0.29
   1  -5   6    5.47    0.26
  -1   5  -6    5.26    0.27
  -1   5  -6    5.67    0.44
  -1   5  -6    5.64    0.32
  -1   5  -6    5.66    0.31
   1  -5   7    6.23    0.45
   1  -5   7    6.14    0.35
   1  -5   7    6.74    0.60
   1  -5   7    6.33    0.34
  -1   5  -7    6.49    0.37
  -1   5  -7    6.27    0.35
  -1   5  -7    6.23    0.32
  -1   5  -7    6.36    0.38
   1  -5   8    3.47    0.27
   1  -5   8    3.01    0.52
   1  -5   8    3.29    0.30
   1  -5   8    3.22    0.31
  -1   5  -8    3.07    0.31
  -1   5  -8    3.34    0.31
  -1   5  -8    3.07    0.48
  -1   5  -8    3.49    0.29
   1  -5   9    0.20    0.28
   1  -5   9    0.46    0.22
   1  -5   9    0.26    0.31
   1  -5   9    0.22    0.31
  -1   5  -9    0.01    0.20
  -1   5  -9    0.32    0.19
  -1   5  -9    0.39    0.32
  -1   5  -9    0.41    0.20
   1  -5  10   -0.00    0.18
   1  -5  10    0.01    0.17
   1  -5  10    0.13    0.16
   1  -5  10    0.18    0.21
  -1   5 -10    0.12    0.19
  -1   5 -10    0.00    0.19
  -1   5 -10    0.11    0.18
  -1   5 -10    0.15    0.20
   1  -5  11   -0.27    0.19
   1  -5  11   -0.00    0.12
   1  -5  11    0.07    0.15
   1  -5  11   -0.00    0.13
  -1   5 -11   -0.02    0.13
  -1   5 -11    0.06    0.13
  -1   5 -11    0.02    0.13
  -1   5 -11    0.02    0.13
   1  -4 -15    0.02    0.21
   1  -4 -15    0.14    0.22
   1  -4 -15    0.42    0.23
   1  -4 -15    0.00    0.23
   1  -4 -15   -0.01    0.23
  -1   4  15    0.19    0.23
  -1   4  15    0.25    0.36
  -1   4  15   -0.01    0.23
   1  -4 -14    0.25    0.20
   1  -4 -14    0.00    0.32
   1  -4 -14    0.00    0.21
  -1   4  14    0.00    0.21
  -1   4  14    0.15    0.20
   1  -4 -13    0.04    0.14
   1  -4 -13   -0.03    0.14
   1  -4 -13   -0.01    0.14
   1  -4 -13    0.00    0.23
  -1   4  13    0.00    0.24
  -1   4  13    0.04    0.14
   1  -4 -12    4.72    0.36
   1  -4 -12    4.64    0.35
   1  -4 -12    4.51    0.36
   1  -4 -12    4.69    0.35
  -1   4  12    4.65    0.35
  -1   4  12    4.83    0.37
   1  -4 -11    0.60    0.19
   1  -4 -11    0.44    0.30
   1  -4 -11    0.47    0.19
   1  -4 -11    0.45    0.31
  -1   4  11    0.44    0.20
  -1   4  11    0.42    0.30
  -1   4  11    0.54    0.29
   1  -4 -10    0.44    0.17
   1  -4 -10    0.50    0.18
   1  -4 -10    0.50    0.18
   1  -4 -10    0.62    0.17
   1  -4 -10    0.53    0.27
  -1   4  10    0.53    0.27
  -1   4  10    0.56    0.27
  -1   4  10    0.42    0.18
   1  -4  -9    3.64    0.25
   1  -4  -9    3.51    0.25
   1  -4  -9    3.50    0.24
   1  -4  -9    3.66    0.25
   1  -4  -9    3.51    0.36
  -1   4   9    3.75    0.26
  -1   4   9    3.48    0.24
  -1   4   9    3.74    0.36
   1  -4  -8    0.89    0.15
   1  -4  -8    0.75    0.24
   1  -4  -8    0.77    0.15
   1  -4  -8    0.79    0.15
   1  -4  -8    0.88    0.15
  -1   4   8    0.87    0.15
  -1   4   8    0.78    0.15
  -1   4   8    0.76    0.16
   1  -4  -7    0.49    0.12
   1  -4  -7    0.57    0.19
   1  -4  -7    0.51    0.12
   1  -4  -7    0.51    0.13
   1  -4  -7    0.56    0.13
  -1   4   7    0.47    0.13
  -1   4   7    0.53    0.19
  -1   4   7    0.58    0.12
   1  -4  -6   12.80    0.33
   1  -4  -6   12.09    0.33
   1  -4  -6   12.23    0.34
   1  -4  -6   12.25    0.33
   1  -4  -6   12.10    0.32
  -1   4   6   12.70    0.40
  -1   4   6   12.12    0.33
  -1   4   6   12.45    0.46
   1  -4  -5    7.77    0.25
   1  -4  -5    7.45    0.24
   1  -4  -5    7.72    0.29
   1  -4  -5    7.49    0.23
  -1   4   5    7.52    0.21
  -1   4   5    7.05    0.23
  -1   4   5    7.46    0.25
  -1   4   5    7.40    0.23
   1  -4  -4   11.90    0.29
   1  -4  -4   11.74    0.29
   1  -4  -4   12.13    0.31
   1  -4  -4   11.80    0.24
  -1   4   4   11.99    0.29
  -1   4   4   11.61    0.24
  -1   4   4   12.49    0.32
  -1   4   4   11.95    0.29
   1  -4  -3    7.39    0.23
   1  -4  -3    7.45    0.21
   1  -4  -3    7.17    0.19
   1  -4  -3    6.93    0.20
  -1   4   3    7.15    0.14
  -1   4   3    7.06    0.20
  -1   4   3    7.21    0.23
  -1   4   3    7.08    0.20
   1  -4  -2    1.42    0.11
   1  -4  -2    1.46    0.07
   1  -4  -2    1.33    0.11
   1  -4  -2    1.63    0.13
  -1   4   2    1.20    0.10
  -1   4   2    1.39    0.13
  -1   4   2    1.37    0.07
  -1   4   2    1.37    0.11
   1  -4  -1   42.52    0.56
   1  -4  -1   43.51    0.75
   1  -4  -1   42.01    0.77
   1  -4  -1   41.76    0.55
   1  -4  -1   43.41    0.75
  -1   4   1   43.25    0.90
  -1   4   1   43.30    0.76
  -1   4   1   42.06    0.73
   1  -4   0   33.56    0.47
   1  -4   0   32.48    0.45
   1  -4   0   32.94    0.59
   1  -4   0   32.60    0.59
   1  -4   0   32.42    0.62
   1  -4   0   32.91    0.59
  -1   4   0   32.34    0.60
  -1   4   0   33.39    0.65
   1  -4   1   91.54    1.60
   1  -4   1   90.52    1.42
   1  -4   1   90.87    1.59
   1  -4   1   91.94    1.60
  -1   4  -1   91.95    1.67
  -1   4  -1   91.86    1.70
  -1   4  -1   93.86    1.70
  -1   4  -1   93.01    1.44
   1  -4   2    6.09    0.15
   1  -4   2    6.48    0.21
   1  -4   2    6.01    0.20
   1  -4   2    6.44    0.25
  -1   4  -2    6.10    0.21
  -1   4  -2    6.07    0.23
  -1   4  -2    6.13    0.29
  -1   4  -2    5.90    0.30
   1  -4   3   41.06    0.85
   1  -4   3   41.09    0.80
   1  -4   3   41.36    0.80
   1  -4   3   41.51    0.79
  -1   4  -3   41.24    0.81
  -1   4  -3   41.34    0.82
  -1   4  -3   42.01    0.96
  -1   4  -3   41.85    0.82
   1  -4   4    1.44    0.22
   1  -4   4    1.71    0.18
   1  -4   4    1.72    0.12
   1  -4   4    1.69    0.15
  -1   4  -4    1.68    0.15
  -1   4  -4    1.91    0.17
  -1   4  -4    1.57    0.13
  -1   4  -4    1.81    0.15
   1  -4   5    9.68    0.42
   1  -4   5    9.58    0.43
   1  -4   5    9.42    0.29
   1  -4   5    9.71    0.49
  -1   4  -5    9.60    0.44
  -1   4  -5    9.41    0.34
  -1   4  -5    9.62    0.44
  -1   4  -5    9.63    0.39
   1  -4   6   17.96    0.63
   1  -4   6   18.11    0.64
   1  -4   6   18.40    0.59
   1  -4   6   18.19    0.55
  -1   4  -6   17.55    0.52
  -1   4  -6   17.98    0.52
  -1   4  -6   17.99    0.53
  -1   4  -6   18.29    0.61
   1  -4   7    0.47    0.26
   1  -4   7    0.36    0.27
   1  -4   7    0.46    0.19
   1  -4   7    0.44    0.15
  -1   4  -7    0.49    0.25
  -1   4  -7    0.45    0.18
  -1   4  -7    0.46    0.17
  -1   4  -7    0.39    0.19
   1  -4   8   28.96    0.80
   1  -4   8   29.27    0.78
   1  -4   8   28.88    0.81
   1  -4   8   29.15    1.10
  -1   4  -8   29.56    0.84
  -1   4  -8   29.55    0.85
  -1   4  -8   29.61    1.01
  -1   4  -8   27.78    0.83
   1  -4   9   -0.08    0.33
   1  -4   9    0.31    0.19
   1  -4   9    0.36    0.18
   1  -4   9    0.45    0.18
  -1   4  -9    0.35    0.21
  -1   4  -9    0.36    0.20
  -1   4  -9    0.24    0.20
  -1   4  -9    0.32    0.19
   1  -4  10    0.11    0.16
   1  -4  10    0.00    0.28
   1  -4  10    0.02    0.27
   1  -4  10   -0.01    0.30
  -1   4 -10    0.01    0.18
  -1   4 -10    0.27    0.18
  -1   4 -10    0.00    0.29
  -1   4 -10    0.22    0.18
   1  -4  11    0.01    0.17
   1  -4  11    0.26    0.25
   1  -4  11   -0.00    0.18
   1  -4  11    0.07    0.31
  -1   4 -11    0.13    0.18
  -1   4 -11   -0.00    0.18
  -1   4 -11    0.01    0.18
  -1   4 -11    0.06    0.17
   1  -4  12    0.49    0.27
   1  -4  12   -0.03    0.23
   1  -4  12   -0.04    0.24
   1  -4  12    0.71    0.23
  -1   4 -12    0.00    0.25
  -1   4 -12    0.38    0.39
  -1   4 -12    0.00    0.26
  -1   4 -12    0.49    0.25
   1  -3 -15   -0.02    0.19
   1  -3 -15   -0.02    0.19
   1  -3 -15    0.00    0.17
   1  -3 -15    0.02    0.20
   1  -3 -15    0.00    0.20
  -1   3  15   -0.08    0.20
  -1   3  15   -0.01    0.32
  -1   3  15    0.31    0.20
   1  -3 -14   -0.03    0.25
   1  -3 -14   -0.00    0.27
   1  -3 -14   -0.00    0.16
   1  -3 -14    0.13    0.16
   1  -3 -14   -0.01    0.26
  -1   3  14    0.12    0.16
  -1   3  14   -0.14    0.16
  -1   3  14    0.00    0.17
   1  -3 -13   -0.10    0.16
   1  -3 -13   -0.09    0.16
   1  -3 -13    0.00    0.17
   1  -3 -13    0.02    0.16
  -1   3  13    0.08    0.25
  -1   3  13    0.00    0.16
   1  -3 -12    0.01    0.22
   1  -3 -12    0.90    0.22
   1  -3 -12    0.00    0.36
   1  -3 -12    0.65    0.22
  -1   3  12   -0.01    0.35
  -1   3  12    0.91    0.22
   1  -3 -11    0.22    0.26
   1  -3 -11    0.15    0.17
   1  -3 -11    0.11    0.16
   1  -3 -11    0.12    0.16
   1  -3 -11    0.22    0.26
  -1   3  11    0.21    0.17
  -1   3  11    0.20    0.17
  -1   3  11    0.16    0.16
   1  -3 -10    0.80    0.19
   1  -3 -10    0.71    0.20
   1  -3 -10    0.68    0.19
   1  -3 -10    0.71    0.19
   1  -3 -10    0.79    0.19
  -1   3  10    0.76    0.29
  -1   3  10    0.73    0.18
  -1   3  10    0.66    0.20
   1  -3  -9    0.11    0.13
   1  -3  -9    0.17    0.13
   1  -3  -9    0.14    0.13
   1  -3  -9    0.19    0.21
   1  -3  -9    0.17    0.13
  -1   3   9    0.24    0.13
  -1   3   9    0.22    0.14
  -1   3   9    0.13    0.13
   1  -3  -8    1.85    0.27
   1  -3  -8    1.94    0.27
   1  -3  -8    2.04    0.19
   1  -3  -8    2.15    0.28
   1  -3  -8    1.87    0.19
  -1   3   8    2.12    0.19
  -1   3   8    1.89    0.18
  -1   3   8    1.99    0.27
   1  -3  -7    5.14    0.22
   1  -3  -7    5.35    0.23
   1  -3  -7    5.53    0.33
   1  -3  -7    5.45    0.23
   1  -3  -7    5.64    0.33
  -1   3   7    5.05    0.22
  -1   3   7    5.23    0.24
  -1   3   7    5.42    0.23
   1  -3  -6    1.22    0.20
   1  -3  -6    1.20    0.13
   1  -3  -6    1.22    0.13
   1  -3  -6    0.27    0.20
   1  -3  -6    1.02    0.13
  -1   3   6    1.18    0.14
  -1   3   6    1.10    0.13
  -1   3   6    1.25    0.13
   1  -3  -5    1.37    0.12
   1  -3  -5    1.45    0.13
   1  -3  -5    1.43    0.12
   1  -3  -5    1.33    0.12
   1  -3  -5    1.25    0.12
  -1   3   5    1.02    0.21
  -1   3   5    1.39    0.11
  -1   3   5    1.42    0.12
   1  -3  -4    2.87    0.16
   1  -3  -4    2.83    0.14
   1  -3  -4    2.81    0.21
   1  -3  -4    2.79    0.19
  -1   3   4    2.78    0.21
  -1   3   4    2.74    0.12
  -1   3   4    2.74    0.14
  -1   3   4    2.80    0.24
   1  -3  -3   11.34    0.26
   1  -3  -3   11.99    0.23
   1  -3  -3   11.76    0.28
   1  -3  -3   11.87    0.26
  -1   3   3   11.24    0.28
  -1   3   3   11.92    0.33
  -1   3   3   11.26    0.25
  -1   3   3   11.36    0.21
   1  -3  -2   35.41    0.59
   1  -3  -2   34.42    0.61
   1  -3  -2   34.33    0.51
   1  -3  -2   35.65    0.66
  -1   3   2   32.97    0.48
  -1   3   2   35.27    0.59
  -1   3   2   34.66    0.63
  -1   3   2   35.23    0.64
   1  -3  -1  138.74    2.26
   1  -3  -1  123.82    1.71
   1  -3  -1  142.15    2.50
   1  -3  -1  143.54    2.39
  -1   3   1  139.79    2.33
  -1   3   1  136.24    2.34
  -1   3   1  138.58    2.27
   1  -3   0   14.05    0.27
   1  -3   0   13.86    0.27
   1  -3   0   13.63    0.31
   1  -3   0   13.92    0.18
   1  -3   0   13.94    0.34
  -1   3   0   13.55    0.27
  -1   3   0   14.05    0.32
   1  -3   1    6.12    0.14
   1  -3   1    6.54    0.24
   1  -3   1    6.34    0.24
  -1   3  -1    6.22    0.17
  -1   3  -1    6.21    0.29
  -1   3  -1    6.68    0.22
  -1   3  -1    6.41    0.15
  -1   3  -1    6.35    0.24
   1  -3   2   26.96    0.44
   1  -3   2   26.97    0.55
   1  -3   2   28.00    0.52
   1  -3   2   27.85    0.51
  -1   3  -2   27.76    0.52
  -1   3  -2   27.77    0.56
  -1   3  -2   28.10    0.46
  -1   3  -2   27.59    0.52
   1  -3   3    6.18    0.20
   1  -3   3    6.23    0.23
   1  -3   3    6.03    0.20
   1  -3   3    6.20    0.24
  -1   3  -3    5.84    0.22
  -1   3  -3    6.17    0.29
  -1   3  -3    5.92    0.17
  -1   3  -3    5.79    0.28
   1  -3   4    6.16    0.21
   1  -3   4    6.12    0.22
   1  -3   4    6.40    0.20
   1  -3   4    6.15    0.25
  -1   3  -4    6.06    0.22
  -1   3  -4    6.26    0.22
  -1   3  -4    6.17    0.20
  -1   3  -4    6.14    0.34
   1  -3   5    5.47    0.32
   1  -3   5    5.76    0.30
   1  -3   5    5.51    0.36
   1  -3   5    5.65    0.32
  -1   3  -5    5.58    0.23
  -1   3  -5    5.92    0.24
  -1   3  -5    5.55    0.35
  -1   3  -5    5.74    0.22
   1  -3   6    1.42    0.19
   1  -3   6    1.20    0.15
   1  -3   6    1.49    0.25
   1  -3   6    1.44    0.25
  -1   3  -6    1.31    0.16
  -1   3  -6    1.35    0.17
  -1   3  -6    1.47    0.18
  -1   3  -6    1.45    0.17
   1  -3   7   59.08    1.26
   1  -3   7   58.97    1.35
   1  -3   7   58.52    1.28
   1  -3   7   58.87    1.27
  -1   3  -7   56.96    1.44
  -1   3  -7   59.00    1.48
  -1   3  -7   58.37    1.28
  -1   3  -7   58.48    1.29
   1  -3   8   12.22    0.45
   1  -3   8   12.13    0.46
   1  -3   8   12.43    0.69
   1  -3   8   12.73    0.45
  -1   3  -8   12.79    0.63
  -1   3  -8   12.21    0.66
  -1   3  -8   12.68    0.67
  -1   3  -8   12.68    0.66
   1  -3   9   17.40    0.79
   1  -3   9   17.17    0.83
   1  -3   9   17.26    0.77
   1  -3   9   17.55    0.58
  -1   3  -9   17.40    0.81
  -1   3  -9   16.92    0.61
  -1   3  -9   17.23    0.60
  -1   3  -9   17.21    0.62
   1  -3  10    0.69    0.35
   1  -3  10    0.91    0.31
   1  -3  10    0.64    0.20
   1  -3  10    0.63    0.20
  -1   3 -10   -0.01    0.21
  -1   3 -10    0.00    0.21
  -1   3 -10    0.57    0.22
  -1   3 -10    0.52    0.21
   1  -3  11   -0.03    0.14
   1  -3  11    0.03    0.15
   1  -3  11    0.00    0.14
   1  -3  11    0.07    0.16
  -1   3 -11    0.11    0.15
  -1   3 -11   -0.02    0.15
  -1   3 -11   -0.00    0.24
  -1   3 -11   -0.01    0.15
   1  -3  12   -0.06    0.27
   1  -3  12    0.02    0.43
   1  -3  12    0.04    0.44
   1  -3  12    1.84    0.31
  -1   3 -12    0.01    0.29
  -1   3 -12    0.06    0.30
  -1   3 -12    2.04    0.46
  -1   3 -12    2.20    0.29
   1  -3  13    0.27    0.23
   1  -3  13    0.01    0.19
   1  -3  13   -0.00    0.20
   1  -3  13   -0.02    0.19
  -1   3 -13    0.01    0.22
  -1   3 -13    0.01    0.22
  -1   3 -13   -0.02    0.23
  -1   3 -13    0.27    0.22
   1  -2 -15    0.00    0.39
   1  -2 -15    0.03    0.23
   1  -2 -15    0.00    0.22
   1  -2 -15    0.37    0.23
   1  -2 -15    0.01    0.22
  -1   2  15    0.36    0.25
  -1   2  15    0.02    0.25
  -1   2  15    0.32    0.40
   1  -2 -14   -0.01    0.20
   1  -2 -14   -0.01    0.21
   1  -2 -14   -0.00    0.22
   1  -2 -14    0.20    0.21
  -1   2  14    0.27    0.23
  -1   2  14    0.36    0.21
  -1   2  14   -0.01    0.21
   1  -2 -13    0.50    0.21
   1  -2 -13   -0.01    0.21
   1  -2 -13    0.49    0.21
   1  -2 -13    0.00    0.35
   1  -2 -13   -0.00    0.20
  -1   2  13    0.45    0.21
  -1   2  13    0.01    0.20
  -1   2  13    0.00    0.22
   1  -2 -12    0.91    0.23
   1  -2 -12    1.18    0.23
   1  -2 -12   -0.01    0.24
   1  -2 -12    0.01    0.23
   1  -2 -12    0.94    0.35
  -1   2  12    1.04    0.36
  -1   2  12    1.22    0.36
  -1   2  12    0.00    0.37
   1  -2 -11    0.06    0.15
   1  -2 -11    0.00    0.15
   1  -2 -11    0.16    0.15
   1  -2 -11    0.17    0.16
   1  -2 -11    0.14    0.16
  -1   2  11    0.00    0.16
  -1   2  11    0.02    0.16
  -1   2  11    0.13    0.15
   1  -2 -10    0.18    0.15
   1  -2 -10    0.10    0.25
   1  -2 -10    0.10    0.15
   1  -2 -10    0.18    0.15
   1  -2 -10    0.14    0.15
  -1   2  10    0.17    0.16
  -1   2  10    0.17    0.15
  -1   2  10    0.22    0.15
   1  -2  -9    0.30    0.23
   1  -2  -9    0.36    0.15
   1  -2  -9    0.32    0.15
   1  -2  -9    0.36    0.16
   1  -2  -9    0.40    0.23
  -1   2   9    0.33    0.15
  -1   2   9    0.31    0.23
  -1   2   9    0.41    0.15
   1  -2  -8    0.20    0.12
   1  -2  -8    0.18    0.12
   1  -2  -8    0.17    0.12
   1  -2  -8    0.17    0.12
   1  -2  -8    0.20    0.12
  -1   2   8    0.30    0.12
  -1   2   8    0.22    0.12
  -1   2   8    0.19    0.12
   1  -2  -7    1.05    0.15
   1  -2  -7    1.06    0.14
   1  -2  -7    1.17    0.14
   1  -2  -7    1.05    0.14
   1  -2  -7    1.02    0.14
  -1   2   7    1.17    0.22
  -1   2   7    1.10    0.14
  -1   2   7    1.10    0.15
   1  -2  -6   17.61    0.50
   1  -2  -6   17.93    0.51
   1  -2  -6   17.49    0.40
   1  -2  -6   17.20    0.51
   1  -2  -6   17.54    0.42
  -1   2   6   17.32    0.41
  -1   2   6   17.64    0.41
  -1   2   6   17.41    0.43
   1  -2  -5    5.17    0.28
   1  -2  -5    5.18    0.20
   1  -2  -5    5.02    0.28
   1  -2  -5    5.21    0.26
   1  -2  -5    5.17    0.27
  -1   2   5    5.31    0.27
  -1   2   5    5.04    0.20
  -1   2   5    5.30    0.19
   1  -2  -4   -0.00    0.06
   1  -2  -4    0.05    0.06
   1  -2  -4    0.03    0.06
   1  -2  -4   -0.03    0.06
   1  -2  -4    0.01    0.10
  -1   2   4    0.01    0.11
  -1   2   4    0.08    0.09
  -1   2   4    0.02    0.09
   1  -2  -3    3.37    0.14
   1  -2  -3    3.52    0.13
   1  -2  -3    3.40    0.12
   1  -2  -3    3.32    0.15
  -1   2   3    3.40    0.18
  -1   2   3    3.38    0.15
  -1   2   3    3.49    0.13
  -1   2   3    3.29    0.13
   1  -2  -2   73.48    1.20
   1  -2  -2   75.85    1.16
   1  -2  -2   74.89    1.22
   1  -2  -2   74.24    1.09
  -1   2   2   74.02    1.07
  -1   2   2   73.89    1.22
  -1   2   2   74.81    1.22
  -1   2   2   75.83    1.16
   1  -2  -1   39.15    0.65
   1  -2  -1   39.98    0.59
   1  -2  -1   43.72    0.54
   1  -2  -1   40.26    0.59
  -1   2   1   40.24    0.65
  -1   2   1   39.50    0.58
  -1   2   1   39.46    0.67
  -1   2   1   44.07    0.54
   1  -2   0  344.46    6.00
   1  -2   0  345.13    6.03
   1  -2   0  342.68    5.90
   1  -2   0  330.79    5.96
  -1   2   0  335.32    5.32
  -1   2   0  346.93    6.01
  -1   2   0  330.44    6.00
   1  -2   1    1.13    0.12
   1  -2   1    1.07    0.08
   1  -2   1    1.04    0.08
  -1   2  -1    1.01    0.08
  -1   2  -1    1.02    0.08
  -1   2  -1    1.00    0.08
  -1   2  -1    0.99    0.11
  -1   2  -1    1.10    0.12
   1  -2   2   57.89    1.03
   1  -2   2   58.02    0.94
   1  -2   2   58.27    1.01
   1  -2   2   58.04    1.01
  -1   2  -2   57.53    1.09
  -1   2  -2   57.26    0.89
  -1   2  -2   57.86    0.95
  -1   2  -2   57.58    0.95
   1  -2   3   11.94    0.34
   1  -2   3   11.76    0.34
   1  -2   3   11.34    0.30
   1  -2   3   11.67    0.25
  -1   2  -3   11.44    0.35
  -1   2  -3   11.51    0.35
  -1   2  -3   11.48    0.39
  -1   2  -3   11.34    0.32
   1  -2   4    1.90    0.19
   1  -2   4    1.75    0.20
   1  -2   4    1.90    0.12
   1  -2   4    1.84    0.15
  -1   2  -4    1.78    0.14
  -1   2  -4    1.76    0.15
  -1   2  -4    1.79    0.13
  -1   2  -4    1.90    0.13
   1  -2   5    3.20    0.25
   1  -2   5    3.07    0.16
   1  -2   5    3.10    0.19
   1  -2   5    3.02    0.25
  -1   2  -5    3.09    0.25
  -1   2  -5    3.16    0.25
  -1   2  -5    3.11    0.17
  -1   2  -5    2.96    0.19
   1  -2   6    8.47    0.38
   1  -2   6    8.43    0.31
   1  -2   6    8.73    0.39
   1  -2   6    8.55    0.38
  -1   2  -6    8.47    0.29
  -1   2  -6    9.00    0.42
  -1   2  -6    8.51    0.29
  -1   2  -6    8.12    0.38
   1  -2   7    9.48    0.33
   1  -2   7    9.51    0.34
   1  -2   7    9.67    0.34
   1  -2   7    9.36    0.37
  -1   2  -7    9.68    0.35
  -1   2  -7    9.58    0.34
  -1   2  -7    9.57    0.35
  -1   2  -7    9.40    0.36
   1  -2   8   19.70    0.57
   1  -2   8   19.94    0.63
   1  -2   8   20.32    0.58
   1  -2   8   20.10    0.57
  -1   2  -8   19.89    0.58
  -1   2  -8   20.64    0.61
  -1   2  -8   20.37    0.59
  -1   2  -8   20.21    0.59
   1  -2   9    5.70    0.37
   1  -2   9    5.60    0.48
   1  -2   9    5.51    0.33
   1  -2   9    5.53    0.33
  -1   2  -9    6.12    0.51
  -1   2  -9    5.72    0.51
  -1   2  -9    5.54    0.34
  -1   2  -9    5.50    0.50
   1  -2  10    0.15    0.19
   1  -2  10    0.26    0.18
   1  -2  10    0.26    0.17
   1  -2  10    0.24    0.18
  -1   2 -10    0.30    0.29
  -1   2 -10    0.26    0.28
  -1   2 -10    0.22    0.28
  -1   2 -10    0.15    0.19
   1  -2  11    0.00    0.11
   1  -2  11    0.01    0.17
   1  -2  11   -0.01    0.17
   1  -2  11   -0.00    0.12
  -1   2 -11   -0.01    0.11
  -1   2 -11    0.01    0.11
  -1   2 -11    0.00    0.18
  -1   2 -11   -0.00    0.12
   1  -2  12    0.05    0.15
   1  -2  12   -0.01    0.23
   1  -2  12    0.01    0.14
   1  -2  12   -0.00    0.16
  -1   2 -12    0.00    0.15
  -1   2 -12   -0.03    0.16
  -1   2 -12    0.13    0.25
  -1   2 -12    0.00    0.16
   1  -2  13    0.02    0.27
   1  -2  13   -0.00    0.27
   1  -2  13    0.00    0.18
   1  -2  13   -0.00    0.28
  -1   2 -13    0.01    0.29
  -1   2 -13    0.08    0.29
  -1   2 -13   -0.00    0.20
   1  -1 -14   -0.01    0.18
   1  -1 -14    0.01    0.18
   1  -1 -14   -0.00    0.31
   1  -1 -14    0.09    0.18
   1  -1 -14    0.11    0.18
  -1   1  14    0.01    0.19
  -1   1  14    0.00    0.19
   1  -1 -13    0.58    0.34
   1  -1 -13    0.01    0.23
   1  -1 -13    0.00    0.24
   1  -1 -13   -0.01    0.22
   1  -1 -13    0.45    0.22
  -1   1  13    0.79    0.24
  -1   1  13    0.64    0.23
  -1   1  13   -0.01    0.23
   1  -1 -12   -0.00    0.18
   1  -1 -12    0.16    0.17
   1  -1 -12    0.16    0.27
   1  -1 -12    0.00    0.17
   1  -1 -12   -0.03    0.17
  -1   1  12    0.01    0.27
  -1   1  12    0.21    0.17
  -1   1  12    0.00    0.28
   1  -1 -11    6.61    0.58
   1  -1 -11    6.25    0.39
   1  -1 -11    6.31    0.38
   1  -1 -11    6.28    0.38
  -1   1  11    6.32    0.36
  -1   1  11    6.08    0.37
  -1   1  11    6.66    0.56
  -1   1  11    6.31    0.40
   1  -1 -10    1.59    0.24
   1  -1 -10    1.24    0.35
   1  -1 -10    1.61    0.22
   1  -1 -10    1.32    0.35
  -1   1  10    1.48    0.21
  -1   1  10    1.31    0.22
  -1   1  10    1.16    0.23
  -1   1  10    1.33    0.22
   1  -1  -9    0.12    0.14
   1  -1  -9    0.14    0.13
   1  -1  -9    0.06    0.13
   1  -1  -9    0.13    0.13
  -1   1   9    0.21    0.13
  -1   1   9    0.11    0.13
  -1   1   9    0.12    0.21
  -1   1   9    0.14    0.12
   1  -1  -8    1.34    0.26
   1  -1  -8    1.23    0.17
   1  -1  -8    1.18    0.26
   1  -1  -8    1.24    0.18
  -1   1   8    1.39    0.18
  -1   1   8    1.20    0.25
  -1   1   8    1.26    0.25
  -1   1   8    1.37    0.18
   1  -1  -7    1.37    0.16
   1  -1  -7    1.42    0.16
   1  -1  -7    1.55    0.16
   1  -1  -7    1.31    0.17
  -1   1   7    1.31    0.16
  -1   1   7    1.33    0.15
  -1   1   7    1.39    0.15
  -1   1   7    1.75    0.25
   1  -1  -6   15.76    0.51
   1  -1  -6   15.50    0.39
   1  -1  -6   15.19    0.47
   1  -1  -6   15.34    0.48
  -1   1   6   15.15    0.49
  -1   1   6   15.00    0.38
  -1   1   6   15.28    0.37
  -1   1   6   15.38    0.38
   1  -1  -5    3.89    0.27
   1  -1  -5    3.61    0.16
   1  -1  -5    3.75    0.26
   1  -1  -5    3.54    0.17
  -1   1   5    3.55    0.18
  -1   1   5    3.73    0.16
  -1   1   5    3.67    0.27
  -1   1   5    3.56    0.17
   1  -1  -4    2.75    0.14
   1  -1  -4    2.78    0.14
   1  -1  -4    2.87    0.15
   1  -1  -4    2.83    0.15
  -1   1   4    2.98    0.20
  -1   1   4    2.82    0.13
  -1   1   4    2.82    0.15
  -1   1   4    2.98    0.22
   1  -1  -3   11.13    0.26
   1  -1  -3   11.10    0.34
   1  -1  -3   10.98    0.24
   1  -1  -3   10.95    0.24
  -1   1   3   10.93    0.23
  -1   1   3   11.07    0.27
  -1   1   3   10.79    0.23
  -1   1   3   11.26    0.33
   1  -1  -2   36.22    0.60
   1  -1  -2   36.00    0.61
   1  -1  -2   36.63    0.55
   1  -1  -2   36.27    0.57
   1  -1  -2   36.06    0.58
  -1   1   2   36.74    0.61
  -1   1   2   35.91    0.59
  -1   1   2   36.19    0.55
   1  -1  -1  248.39    4.03
   1  -1  -1  246.93    3.94
   1  -1  -1  230.01    3.85
   1  -1  -1  251.01    3.99
  -1   1   1  237.34    4.06
  -1   1   1  245.83    3.87
  -1   1   1  242.66    3.83
  -1   1   1  236.01    3.80
   1  -1   0   12.70    0.23
   1  -1   0   12.97    0.16
   1  -1   0   12.99    0.18
   1  -1   0   12.86    0.16
   1  -1   0   13.37    0.19
  -1   1   0   12.94    0.19
  -1   1   0   12.94    0.24
  -1   1   0   12.84    0.18
   1  -1   1  127.01    1.86
   1  -1   1  124.71    1.84
   1  -1   1  112.31    1.85
   1  -1   1  125.82    1.85
  -1   1  -1  119.07    1.81
  -1   1  -1  125.22    1.90
  -1   1  -1  111.16    1.90
  -1   1  -1  122.32    1.87
   1  -1   2   53.14    0.81
   1  -1   2   52.84    0.87
   1  -1   2   53.02    0.88
   1  -1   2   52.44    0.89
  -1   1  -2   52.54    0.82
  -1   1  -2   52.62    0.88
  -1   1  -2   52.52    0.96
  -1   1  -2   52.81    0.83
   1  -1   3   26.41    0.51
   1  -1   3   27.15    0.55
   1  -1   3   27.45    0.48
   1  -1   3   27.05    0.54
  -1   1  -3   26.42    0.50
  -1   1  -3   26.64    0.48
  -1   1  -3   26.84    0.48
  -1   1  -3   26.42    0.47
   1  -1   4    5.32    0.25
   1  -1   4    5.17    0.26
   1  -1   4    5.55    0.30
   1  -1   4    5.44    0.26
  -1   1  -4    5.39    0.26
  -1   1  -4    5.67    0.20
  -1   1  -4    5.41    0.25
  -1   1  -4    5.61    0.21
   1  -1   5   32.20    0.63
   1  -1   5   32.12    0.62
   1  -1   5   32.75    0.67
   1  -1   5   33.44    0.74
  -1   1  -5   34.38    0.78
  -1   1  -5   33.16    0.79
  -1   1  -5   32.34    0.74
  -1   1  -5   32.05    0.74
   1  -1   6   -0.02    0.06
   1  -1   6    0.02    0.06
   1  -1   6    0.05    0.07
   1  -1   6    0.02    0.10
  -1   1  -6   -0.08    0.06
  -1   1  -6   -0.02    0.10
  -1   1  -6    0.03    0.06
  -1   1  -6    0.03    0.10
   1  -1   7    2.59    0.32
   1  -1   7    2.60    0.19
   1  -1   7    2.78    0.29
   1  -1   7    2.57    0.19
  -1   1  -7    2.61    0.19
  -1   1  -7    2.71    0.30
  -1   1  -7    2.45    0.19
  -1   1  -7    2.68    0.21
   1  -1   8    4.86    0.27
   1  -1   8    4.91    0.29
   1  -1   8    4.86    0.26
   1  -1   8    4.67    0.27
  -1   1  -8    4.94    0.27
  -1   1  -8    4.63    0.28
  -1   1  -8    4.85    0.28
  -1   1  -8    4.83    0.27
   1  -1   9    1.84    0.23
   1  -1   9    1.79    0.25
   1  -1   9    1.85    0.22
   1  -1   9    1.95    0.23
  -1   1  -9    1.82    0.36
  -1   1  -9    1.44    0.36
  -1   1  -9    2.06    0.23
  -1   1  -9    1.88    0.23
   1  -1  10    0.79    0.23
   1  -1  10    0.81    0.20
   1  -1  10    0.89    0.20
   1  -1  10    0.80    0.21
  -1   1 -10    0.67    0.21
  -1   1 -10    0.87    0.32
  -1   1 -10    0.76    0.21
  -1   1 -10    0.76    0.33
   1  -1  11    0.49    0.29
   1  -1  11   -0.01    0.20
   1  -1  11    0.42    0.18
   1  -1  11    0.45    0.19
  -1   1 -11   -0.01    0.18
  -1   1 -11   -0.01    0.18
  -1   1 -11   -0.01    0.30
  -1   1 -11    0.44    0.30
   1  -1  12   -0.01    0.13
   1  -1  12   -0.01    0.14
   1  -1  12    0.01    0.20
   1  -1  12    0.01    0.19
  -1   1 -12    0.01    0.14
  -1   1 -12    0.01    0.13
  -1   1 -12    0.00    0.14
  -1   1 -12    0.01    0.13
   1  -1  13   -0.01    0.33
  -1   1 -13   -0.01    0.32
  -1   1 -13    0.02    0.32
  -1   1 -13    0.29    0.32
  -1   1 -13    0.00    0.33
   1  -1  14   -0.01    0.28
   1  -1  14    0.01    0.20
   1  -1  14    0.34    0.29
  -1   1 -14    0.03    0.21
  -1   1 -14    0.00    0.21
  -1   1 -14   -0.00    0.21
  -1   1 -14   -0.00    0.22
  -1   1 -14   -0.01    0.19
   1   0 -14    0.01    0.27
   1   0 -14    0.96    0.28
   1   0 -14   -0.00    0.32
   1   0 -14   -0.01    0.28
   1   0 -14    1.24    0.29
  -1   0  14    1.03    0.47
  -1   0  14    0.03    0.46
  -1   0  14    1.23    0.30
   1   0 -13    0.00    0.21
   1   0 -13   -0.00    0.23
   1   0 -13    0.08    0.32
   1   0 -13    0.28    0.21
  -1   0  13    0.01    0.20
  -1   0  13    0.13    0.21
  -1   0  13    0.26    0.20
  -1   0  13    0.20    0.21
   1   0 -12   -0.00    0.55
   1   0 -12    2.89    0.33
   1   0 -12    3.14    0.33
   1   0 -12    3.25    0.34
  -1   0  12    3.45    0.53
  -1   0  12    3.01    0.32
  -1   0  12    2.86    0.31
  -1   0  12    3.13    0.51
   1   0 -11   -0.00    0.17
   1   0 -11   -0.01    0.16
   1   0 -11    0.07    0.25
   1   0 -11    0.15    0.16
  -1   0  11    0.05    0.17
  -1   0  11    0.04    0.24
  -1   0  11    0.07    0.25
  -1   0  11    0.14    0.16
   1   0 -10    6.79    0.53
   1   0 -10    6.34    0.36
   1   0 -10    6.80    0.54
   1   0 -10    6.90    0.40
  -1   0  10    6.77    0.55
  -1   0  10    6.82    0.35
  -1   0  10    6.84    0.36
  -1   0  10    7.29    0.55
   1   0  -9    0.68    0.17
   1   0  -9    0.55    0.18
   1   0  -9    0.69    0.19
   1   0  -9    0.64    0.18
  -1   0   9    0.48    0.26
  -1   0   9    0.70    0.18
  -1   0   9    0.56    0.18
  -1   0   9    0.51    0.26
   1   0  -8    0.28    0.13
   1   0  -8    0.27    0.14
   1   0  -8    0.26    0.13
   1   0  -8    0.27    0.13
  -1   0   8    0.15    0.21
  -1   0   8    0.28    0.13
  -1   0   8    0.21    0.12
  -1   0   8    0.22    0.13
   1   0  -7    1.76    0.25
   1   0  -7    1.86    0.25
   1   0  -7    1.52    0.18
   1   0  -7    1.67    0.25
  -1   0   7    1.65    0.17
  -1   0   7    1.62    0.16
  -1   0   7    1.51    0.17
  -1   0   7    1.51    0.16
   1   0  -6    0.11    0.09
   1   0  -6    0.07    0.10
   1   0  -6    0.10    0.09
   1   0  -6    0.07    0.15
  -1   0   6    0.13    0.10
  -1   0   6    0.06    0.14
  -1   0   6    0.13    0.14
  -1   0   6    0.19    0.10
   1   0  -5   44.80    0.87
   1   0  -5   44.74    0.85
   1   0  -5   44.91    0.84
   1   0  -5   45.21    0.94
  -1   0   5   44.35    0.83
  -1   0   5   44.87    0.83
  -1   0   5   44.68    0.85
  -1   0   5   45.55    0.96
   1   0  -4   -0.01    0.06
   1   0  -4   -0.01    0.06
   1   0  -4   -0.02    0.06
   1   0  -4    0.04    0.06
  -1   0   4    0.00    0.09
  -1   0   4    0.03    0.06
  -1   0   4    0.04    0.09
  -1   0   4    0.04    0.09
   1   0  -3   14.53    0.39
   1   0  -3   14.13    0.30
   1   0  -3   14.11    0.30
   1   0  -3   14.11    0.32
  -1   0   3   14.13    0.29
  -1   0   3   14.32    0.31
  -1   0   3   14.06    0.28
  -1   0   3   14.10    0.31
   1   0  -2   22.44    0.37
   1   0  -2   22.56    0.37
   1   0  -2   22.22    0.37
   1   0  -2   22.82    0.50
  -1   0   2   22.55    0.42
  -1   0   2   22.92    0.46
  -1   0   2   22.56    0.42
  -1   0   2   22.47    0.48
   1   0  -1   36.99    0.52
   1   0  -1   36.90    0.49
   1   0  -1   36.74    0.57
   1   0  -1   36.76    0.49
  -1   0   1   37.19    0.57
  -1   0   1   36.46    0.48
  -1   0   1   36.61    0.55
  -1   0   1   36.49    0.48
   1   0   0    0.31    0.07
  -1   0   0    0.24    0.01
  -1   0   0    0.24    0.01
  -1   0   0    0.25    0.03
  -1   0   0    0.28    0.01
  -1   0   0    0.31    0.06
   1   0   1   68.28    0.89
   1   0   1   64.20    0.99
   1   0   1   68.12    0.89
   1   0   1   62.04    0.91
  -1   0  -1   62.17    0.92
  -1   0  -1   65.30    0.86
  -1   0  -1   59.22    0.85
  -1   0  -1   65.03    0.86
   1   0   2    0.14    0.05
   1   0   2    0.17    0.05
   1   0   2    0.20    0.06
   1   0   2    0.14    0.06
  -1   0  -2    0.16    0.05
  -1   0  -2    0.18    0.10
  -1   0  -2    0.17    0.05
  -1   0  -2    0.14    0.06
   1   0   3   18.45    0.35
   1   0   3   19.04    0.35
   1   0   3   19.01    0.34
   1   0   3   18.76    0.38
  -1   0  -3   18.76    0.42
  -1   0  -3   18.76    0.45
  -1   0  -3   18.82    0.42
  -1   0  -3   18.75    0.37
   1   0   4    8.04    0.23
   1   0   4    8.17    0.22
   1   0   4    8.04    0.21
   1   0   4    8.05    0.23
  -1   0  -4    7.72    0.21
  -1   0  -4    8.08    0.32
  -1   0  -4    7.75    0.22
  -1   0  -4    7.84    0.21
   1   0   5    0.69    0.10
   1   0   5    0.56    0.17
   1   0   5    0.57    0.18
   1   0   5    0.54    0.10
  -1   0  -5    0.57    0.11
  -1   0  -5    0.50    0.17
  -1   0  -5    0.63    0.10
  -1   0  -5    0.49    0.10
   1   0   6    4.46    0.21
   1   0   6    4.27    0.20
   1   0   6    4.38    0.29
   1   0   6    4.17    0.19
  -1   0  -6    4.50    0.20
  -1   0  -6    4.86    0.30
  -1   0  -6    4.29    0.30
  -1   0  -6    4.43    0.20
   1   0   7    0.37    0.17
   1   0   7    0.39    0.19
   1   0   7    0.24    0.18
   1   0   7    0.35    0.19
  -1   0  -7    0.30    0.12
  -1   0  -7    0.29    0.13
  -1   0  -7    0.29    0.12
  -1   0  -7    0.22    0.12
   1   0   8    0.40    0.14
   1   0   8    0.51    0.24
   1   0   8    0.55    0.14
   1   0   8    0.71    0.25
  -1   0  -8    0.45    0.22
  -1   0  -8    0.47    0.23
  -1   0  -8    0.66    0.15
  -1   0  -8    0.50    0.16
   1   0   9    3.08    0.24
   1   0   9    3.03    0.24
   1   0   9    3.34    0.38
   1   0   9    3.19    0.26
  -1   0  -9    3.10    0.25
  -1   0  -9    3.34    0.39
  -1   0  -9    2.94    0.25
  -1   0  -9    3.25    0.25
   1   0  10    0.83    0.21
   1   0  10    0.84    0.22
   1   0  10    0.86    0.30
   1   0  10    0.80    0.29
  -1   0 -10    0.83    0.20
  -1   0 -10    0.80    0.21
  -1   0 -10    0.75    0.21
  -1   0 -10    0.77    0.22
   1   0  11    0.64    0.20
   1   0  11    0.71    0.20
   1   0  11    0.49    0.21
   1   0  11    0.00    0.22
  -1   0 -11    0.60    0.22
  -1   0 -11    0.72    0.21
  -1   0 -11    0.69    0.35
  -1   0 -11    0.56    0.33
   1   0  12   -0.01    0.11
   1   0  12    0.02    0.12
   1   0  12   -0.04    0.12
   1   0  12    0.01    0.20
  -1   0 -12    0.02    0.12
  -1   0 -12    0.01    0.13
  -1   0 -12   -0.01    0.12
  -1   0 -12    0.03    0.12
   1   0  13    0.00    0.14
   1   0  13   -0.03    0.14
   1   0  13    0.00    0.21
  -1   0 -13   -0.01    0.22
  -1   0 -13    0.00    0.23
  -1   0 -13    0.05    0.14
  -1   0 -13   -0.00    0.13
  -1   0 -13   -0.02    0.21
   1   0  14   -0.01    0.15
   1   0  14    0.01    0.16
   1   0  14    0.00    0.16
  -1   0 -14    0.00    0.15
  -1   0 -14   -0.00    0.16
  -1   0 -14   -0.05    0.26
  -1   0 -14   -0.01    0.16
  -1   0 -14    0.00    0.17
   1   1 -14    0.00    0.20
   1   1 -14    0.05    0.18
   1   1 -14    0.02    0.17
   1   1 -14    0.01    0.18
  -1  -1  14   -0.01    0.19
  -1  -1  14    0.06    0.18
  -1  -1  14   -0.02    0.17
  -1  -1  14   -0.01    0.18
   1   1 -13    0.26    0.29
   1   1 -13   -0.00    0.33
   1   1 -13   -0.06    0.30
   1   1 -13    0.15    0.29
  -1  -1  13    0.01    0.29
  -1  -1  13   -0.03    0.30
  -1  -1  13    0.08    0.20
  -1  -1  13   -0.09    0.28
   1   1 -12    0.02    0.22
   1   1 -12    0.00    0.24
   1   1 -12    0.69    0.22
   1   1 -12    0.53    0.22
  -1  -1  12    0.55    0.21
  -1  -1  12   -0.01    0.22
  -1  -1  12    0.01    0.22
  -1  -1  12    0.53    0.35
   1   1 -11    6.91    0.42
   1   1 -11    6.77    0.45
   1   1 -11    6.81    0.42
   1   1 -11    6.66    0.41
  -1  -1  11    7.09    0.62
  -1  -1  11    7.13    0.57
  -1  -1  11    6.62    0.59
  -1  -1  11    6.51    0.42
   1   1 -10    0.41    0.30
   1   1 -10    0.48    0.19
   1   1 -10    0.37    0.20
   1   1 -10    0.47    0.22
  -1  -1  10    0.46    0.19
  -1  -1  10    0.46    0.20
  -1  -1  10    0.31    0.32
  -1  -1  10    0.40    0.18
   1   1  -9    2.51    0.36
   1   1  -9    1.96    0.23
   1   1  -9    2.28    0.26
   1   1  -9    2.01    0.36
  -1  -1   9    2.19    0.24
  -1  -1   9    1.95    0.36
  -1  -1   9    1.87    0.24
  -1  -1   9    2.16    0.34
   1   1  -8    0.13    0.14
   1   1  -8    0.06    0.12
   1   1  -8    0.16    0.13
   1   1  -8    0.13    0.13
  -1  -1   8    0.17    0.13
  -1  -1   8    0.15    0.13
  -1  -1   8    0.12    0.13
  -1  -1   8    0.19    0.12
   1   1  -7    2.62    0.20
   1   1  -7    2.60    0.29
   1   1  -7    2.48    0.21
   1   1  -7    2.50    0.20
  -1  -1   7    2.34    0.28
  -1  -1   7    2.59    0.21
  -1  -1   7    2.12    0.29
  -1  -1   7    2.53    0.20
   1   1  -6   17.49    0.44
   1   1  -6   17.94    0.45
   1   1  -6   18.17    0.48
   1   1  -6   18.10    0.45
  -1  -1   6   17.49    0.44
  -1  -1   6   17.60    0.43
  -1  -1   6   18.41    0.46
  -1  -1   6   17.95    0.45
   1   1  -5   31.47    0.64
   1   1  -5   32.11    0.64
   1   1  -5   31.75    0.68
   1   1  -5   30.79    0.63
  -1  -1   5   31.43    0.63
  -1  -1   5   31.42    0.63
  -1  -1   5   30.97    0.65
  -1  -1   5   32.44    0.76
   1   1  -4   32.67    0.78
   1   1  -4   36.67    0.69
   1   1  -4   37.44    0.68
   1   1  -4   36.67    0.69
  -1  -1   4   37.57    0.78
  -1  -1   4   37.39    0.78
  -1  -1   4   36.98    0.71
  -1  -1   4   36.11    0.67
   1   1  -3    0.25    0.08
   1   1  -3    0.31    0.08
   1   1  -3    0.30    0.08
   1   1  -3    0.31    0.15
  -1  -1   3    0.28    0.08
  -1  -1   3    0.21    0.08
  -1  -1   3    0.23    0.15
  -1  -1   3    0.21    0.12
   1   1  -2   27.07    0.47
   1   1  -2   26.89    0.47
   1   1  -2   26.99    0.44
   1   1  -2   26.29    0.50
  -1  -1   2   26.94    0.46
  -1  -1   2   26.47    0.45
  -1  -1   2   26.64    0.44
  -1  -1   2   26.17    0.49
   1   1  -1    2.07    0.14
   1   1  -1    1.92    0.12
   1   1  -1    2.15    0.14
   1   1  -1    2.10    0.07
  -1  -1   1    2.09    0.09
  -1  -1   1    1.99    0.07
  -1  -1   1    2.05    0.12
  -1  -1   1    2.01    0.09
   1   1   0   11.05    0.21
   1   1   0   10.83    0.22
  -1  -1   0   10.44    0.12
  -1  -1   0   10.27    0.16
  -1  -1   0   10.59    0.20
  -1  -1   0   10.80    0.29
  -1  -1   0   10.33    0.16
   1   1   1    5.01    0.10
   1   1   1    5.01    0.14
   1   1   1    4.96    0.14
   1   1   1    5.05    0.10
  -1  -1  -1    4.99    0.14
  -1  -1  -1    5.12    0.15
  -1  -1  -1    4.96    0.10
  -1  -1  -1    4.99    0.09
   1   1   2   12.08    0.25
   1   1   2   11.81    0.26
   1   1   2   11.79    0.21
   1   1   2   11.81    0.21
  -1  -1  -2   11.91    0.22
  -1  -1  -2   11.62    0.20
  -1  -1  -2   12.07    0.34
  -1  -1  -2   11.88    0.21
   1   1   3    2.70    0.12
   1   1   3    2.54    0.14
   1   1   3    2.68    0.19
  -1  -1  -3    2.43    0.11
  -1  -1  -3    2.56    0.21
  -1  -1  -3    2.38    0.18
  -1  -1  -3    2.59    0.12
  -1  -1  -3    2.69    0.12
   1   1   4    0.85    0.16
   1   1   4    0.75    0.11
   1   1   4    0.65    0.09
  -1  -1  -4    0.76    0.09
  -1  -1  -4    0.75    0.09
  -1  -1  -4    0.69    0.10
  -1  -1  -4    0.67    0.09
  -1  -1  -4    0.68    0.17
   1   1   5    6.90    0.21
   1   1   5    6.79    0.22
   1   1   5    6.89    0.31
   1   1   5    6.82    0.21
  -1  -1  -5    6.56    0.29
  -1  -1  -5    6.75    0.22
  -1  -1  -5    6.59    0.21
  -1  -1  -5    6.84    0.23
   1   1   6    6.28    0.22
   1   1   6    6.15    0.21
   1   1   6    6.27    0.23
  -1  -1  -6    6.23    0.31
  -1  -1  -6    6.19    0.32
  -1  -1  -6    6.14    0.24
  -1  -1  -6    6.04    0.22
   1   1   7    1.83    0.16
   1   1   7    1.91    0.17
   1   1   7    1.65    0.17
   1   1   7    1.69    0.15
  -1  -1  -7    1.68    0.18
  -1  -1  -7    1.69    0.16
  -1  -1  -7    1.81    0.17
  -1  -1  -7    1.76    0.16
   1   1   8    0.22    0.12
   1   1   8    0.23    0.13
   1   1   8    0.30    0.12
   1   1   8    0.25    0.13
  -1  -1  -8    0.25    0.13
  -1  -1  -8    0.24    0.12
  -1  -1  -8    0.21    0.14
  -1  -1  -8    0.35    0.13
   1   1   9    0.62    0.16
   1   1   9    0.55    0.26
   1   1   9    0.55    0.23
  -1  -1  -9    0.49    0.24
  -1  -1  -9    0.55    0.25
  -1  -1  -9    0.53    0.16
  -1  -1  -9    0.69    0.27
  -1  -1  -9    0.08    0.15
   1   1  10    0.18    0.16
   1   1  10    0.10    0.16
   1   1  10    0.30    0.24
  -1  -1 -10    0.21    0.16
  -1  -1 -10    0.23    0.16
  -1  -1 -10    0.18    0.15
  -1  -1 -10    0.16    0.24
  -1  -1 -10    0.23    0.16
   1   1  11    2.31    0.27
   1   1  11    2.44    0.28
  -1  -1 -11    2.58    0.41
  -1  -1 -11    2.20    0.28
  -1  -1 -11    2.27    0.27
  -1  -1 -11    2.27    0.29
  -1  -1 -11    1.81    0.42
   1   1  12   -0.00    0.12
   1   1  12    0.03    0.11
   1   1  12   -0.00    0.11
  -1  -1 -12   -0.00    0.11
  -1  -1 -12    0.02    0.11
  -1  -1 -12   -0.08    0.11
  -1  -1 -12    0.02    0.12
  -1  -1 -12    0.01    0.11
   1   1  13   -0.05    0.11
   1   1  13   -0.02    0.18
   1   1  13    0.00    0.12
  -1  -1 -13   -0.01    0.18
  -1  -1 -13    0.02    0.12
  -1  -1 -13    0.01    0.17
  -1  -1 -13    0.05    0.11
  -1  -1 -13   -0.00    0.17
   1   1  14    0.01    0.15
   1   1  14    0.04    0.14
  -1  -1 -14   -0.01    0.15
  -1  -1 -14    0.01    0.15
  -1  -1 -14   -0.00    0.16
  -1  -1 -14   -0.00    0.14
  -1  -1 -14   -0.03    0.15
   1   2 -13    0.03    0.31
   1   2 -13    0.00    0.22
   1   2 -13    0.05    0.31
   1   2 -13   -0.13    0.20
  -1  -2  13   -0.07    0.20
  -1  -2  13   -0.14    0.19
  -1  -2  13    0.02    0.20
  -1  -2  13   -0.13    0.22
   1   2 -12   -0.07    0.15
   1   2 -12    0.06    0.23
   1   2 -12   -0.06    0.15
   1   2 -12   -0.00    0.16
  -1  -2  12    0.06    0.15
  -1  -2  12    0.00    0.15
  -1  -2  12    0.01    0.23
  -1  -2  12    0.00    0.22
   1   2 -11    0.33    0.22
   1   2 -11    0.38    0.21
   1   2 -11    0.67    0.22
   1   2 -11    0.00    0.23
  -1  -2  11    0.00    0.21
  -1  -2  11   -0.00    0.22
  -1  -2  11    0.57    0.22
  -1  -2  11    0.58    0.21
   1   2 -10    0.47    0.20
   1   2 -10    0.42    0.20
   1   2 -10    0.37    0.19
   1   2 -10    0.40    0.22
  -1  -2  10    0.30    0.20
  -1  -2  10    0.38    0.19
  -1  -2  10    0.32    0.20
   1   2  -9    1.75    0.39
   1   2  -9    1.63    0.23
   1   2  -9    1.51    0.24
   1   2  -9    1.63    0.24
  -1  -2   9    1.61    0.23
  -1  -2   9    1.62    0.24
  -1  -2   9    1.62    0.23
  -1  -2   9    1.57    0.24
   1   2  -8    7.91    0.50
   1   2  -8    7.73    0.53
   1   2  -8    7.52    0.34
   1   2  -8    7.97    0.51
  -1  -2   8    7.52    0.33
  -1  -2   8    7.81    0.36
  -1  -2   8    7.76    0.34
  -1  -2   8    7.59    0.33
   1   2  -7    0.21    0.18
   1   2  -7    0.12    0.20
   1   2  -7    0.21    0.20
   1   2  -7    0.20    0.21
  -1  -2   7    0.11    0.12
  -1  -2   7    0.21    0.19
  -1  -2   7    0.19    0.20
  -1  -2   7    0.27    0.19
   1   2  -6   30.31    0.81
   1   2  -6   30.46    0.81
   1   2  -6   30.12    0.71
   1   2  -6   29.77    0.65
  -1  -2   6   29.84    0.66
  -1  -2   6   29.66    0.66
  -1  -2   6   29.78    0.79
  -1  -2   6   28.36    0.79
   1   2  -5   18.91    0.46
   1   2  -5   18.61    0.52
   1   2  -5   18.81    0.45
   1   2  -5   18.44    0.47
  -1  -2   5   19.59    0.57
  -1  -2   5   18.40    0.44
  -1  -2   5   18.70    0.55
  -1  -2   5   18.63    0.44
   1   2  -4   35.99    0.71
   1   2  -4   35.80    0.67
   1   2  -4   35.98    0.71
   1   2  -4   35.71    0.73
  -1  -2   4   36.31    0.70
  -1  -2   4   35.75    0.71
  -1  -2   4   36.57    0.79
  -1  -2   4   35.85    0.70
   1   2  -3    0.89    0.11
   1   2  -3    0.84    0.11
   1   2  -3    0.87    0.20
   1   2  -3    0.80    0.15
  -1  -2   3    0.83    0.15
  -1  -2   3    0.89    0.17
  -1  -2   3    0.83    0.17
  -1  -2   3    0.82    0.12
   1   2  -2   23.83    0.41
   1   2  -2   23.76    0.46
   1   2  -2   23.71    0.49
   1   2  -2   23.53    0.54
  -1  -2   2   24.65    0.54
  -1  -2   2   24.45    0.54
  -1  -2   2   24.36    0.57
  -1  -2   2   23.72    0.42
   1   2  -1  141.67    2.19
   1   2  -1  127.51    2.11
   1   2  -1  127.13    2.10
   1   2  -1  123.46    2.23
  -1  -2   1  127.58    2.09
  -1  -2   1  127.69    2.09
  -1  -2   1  132.06    2.07
  -1  -2   1  125.97    2.14
   1   2   0  589.88   11.34
   1   2   0  569.10   10.35
   1   2   0  571.75   11.09
  -1  -2   0  579.07   11.06
  -1  -2   0  596.19   11.43
  -1  -2   0  574.88   11.20
  -1  -2   0  576.70   11.03
  -1  -2   0  595.20   10.84
   1   2   1 1056.62   22.36
   1   2   1 1063.22   22.50
   1   2   1 1027.76   21.92
   1   2   1  989.84   19.97
  -1  -2  -1 1053.89   21.24
  -1  -2  -1 1060.22   22.43
  -1  -2  -1 1042.36   22.13
  -1  -2  -1 1042.84   22.30
   1   2   2  130.76    2.18
   1   2   2  144.21    2.14
   1   2   2  124.42    2.02
   1   2   2  125.07    2.09
  -1  -2  -2  127.03    2.14
  -1  -2  -2  126.05    2.05
  -1  -2  -2  130.92    2.11
  -1  -2  -2  141.12    2.12
   1   2   3   12.79    0.24
   1   2   3   12.59    0.34
   1   2   3   13.54    0.30
   1   2   3   13.14    0.35
  -1  -2  -3   12.72    0.30
  -1  -2  -3   12.26    0.34
  -1  -2  -3   13.30    0.30
  -1  -2  -3   13.40    0.35
   1   2   4    0.01    0.05
   1   2   4   -0.00    0.06
   1   2   4   -0.06    0.10
  -1  -2  -4    0.04    0.11
  -1  -2  -4    0.06    0.06
  -1  -2  -4    0.02    0.06
  -1  -2  -4    0.02    0.06
  -1  -2  -4    0.03    0.05
   1   2   5    6.99    0.29
   1   2   5    6.94    0.32
   1   2   5    6.80    0.22
  -1  -2  -5    6.96    0.21
  -1  -2  -5    6.96    0.22
  -1  -2  -5    6.93    0.24
  -1  -2  -5    6.73    0.22
  -1  -2  -5    7.12    0.21
   1   2   6   11.11    0.30
   1   2   6   11.11    0.32
   1   2   6   11.44    0.31
  -1  -2  -6   11.19    0.30
  -1  -2  -6   11.12    0.33
  -1  -2  -6   11.49    0.40
  -1  -2  -6   11.51    0.31
  -1  -2  -6   11.58    0.41
   1   2   7    2.61    0.18
   1   2   7    2.66    0.27
   1   2   7    2.76    0.18
  -1  -2  -7    2.33    0.27
  -1  -2  -7    2.51    0.17
  -1  -2  -7    2.95    0.26
  -1  -2  -7    2.61    0.20
  -1  -2  -7    2.70    0.18
   1   2   8    2.55    0.20
   1   2   8    2.61    0.19
   1   2   8    2.47    0.20
  -1  -2  -8    2.45    0.19
  -1  -2  -8    2.68    0.31
  -1  -2  -8    2.48    0.19
  -1  -2  -8    2.27    0.20
  -1  -2  -8    2.60    0.29
   1   2   9    0.03    0.09
   1   2   9    0.06    0.14
   1   2   9    0.11    0.15
  -1  -2  -9   -0.03    0.15
  -1  -2  -9   -0.01    0.09
  -1  -2  -9   -0.03    0.09
  -1  -2  -9   -0.06    0.09
  -1  -2  -9   -0.02    0.13
   1   2  10   -0.02    0.11
   1   2  10   -0.03    0.10
   1   2  10    0.08    0.11
  -1  -2 -10    0.06    0.12
  -1  -2 -10    0.02    0.17
  -1  -2 -10    0.02    0.10
  -1  -2 -10   -0.02    0.11
  -1  -2 -10    0.01    0.11
   1   2  11    0.17    0.15
   1   2  11    0.07    0.15
   1   2  11    0.17    0.26
  -1  -2 -11   -0.01    0.16
  -1  -2 -11    0.12    0.15
  -1  -2 -11    0.12    0.15
  -1  -2 -11    0.12    0.15
  -1  -2 -11    0.09    0.15
   1   2  12    0.55    0.20
   1   2  12    0.00    0.20
   1   2  12    0.55    0.20
  -1  -2 -12    0.46    0.20
  -1  -2 -12   -0.00    0.20
  -1  -2 -12    0.47    0.19
  -1  -2 -12    0.01    0.33
  -1  -2 -12    0.02    0.20
   1   2  13   -0.01    0.13
   1   2  13    0.02    0.20
   1   2  13   -0.01    0.13
  -1  -2 -13   -0.01    0.20
  -1  -2 -13    0.02    0.21
  -1  -2 -13    0.00    0.12
  -1  -2 -13   -0.03    0.14
  -1  -2 -13    0.04    0.20
   1   2  14   -0.01    0.26
   1   2  14    0.02    0.25
   1   2  14    0.08    0.26
  -1  -2 -14   -0.00    0.16
  -1  -2 -14   -0.00    0.16
  -1  -2 -14    0.05    0.27
  -1  -2 -14   -0.01    0.16
  -1  -2 -14    0.00    0.24
   1   2  15    0.19    0.18
   1   2  15    0.01    0.20
   1   2  15    0.07    0.19
  -1  -2 -15   -0.05    0.21
  -1  -2 -15   -0.01    0.21
  -1  -2 -15   -0.02    0.32
  -1  -2 -15    0.00    0.33
  -1  -2 -15    0.01    0.22
   1   3 -13    0.11    0.29
   1   3 -13    0.00    0.30
   1   3 -13   -0.01    0.30
   1   3 -13    0.00    0.22
  -1  -3  13   -0.02    0.32
  -1  -3  13   -0.03    0.19
  -1  -3  13    0.06    0.30
  -1  -3  13    0.23    0.32
   1   3 -12   -0.01    0.17
   1   3 -12    0.11    0.17
   1   3 -12    0.01    0.17
   1   3 -12    0.00    0.19
  -1  -3  12   -0.04    0.28
  -1  -3  12   -0.01    0.17
  -1  -3  12    0.08    0.17
  -1  -3  12    0.03    0.18
   1   3 -11   -0.02    0.16
   1   3 -11   -0.01    0.16
   1   3 -11    0.00    0.28
   1   3 -11   -0.03    0.24
  -1  -3  11    0.02    0.17
  -1  -3  11    0.09    0.16
  -1  -3  11    0.01    0.15
  -1  -3  11    0.11    0.15
   1   3 -10    0.73    0.22
   1   3 -10    0.54    0.22
   1   3 -10    0.54    0.21
   1   3 -10    0.00    0.37
  -1  -3  10    0.48    0.21
  -1  -3  10    0.62    0.22
  -1  -3  10    0.47    0.22
  -1  -3  10    0.53    0.21
   1   3  -9    4.51    0.35
   1   3  -9    4.59    0.53
   1   3  -9    4.64    0.33
   1   3  -9    4.39    0.32
  -1  -3   9    4.41    0.48
  -1  -3   9    4.22    0.49
  -1  -3   9    4.51    0.32
  -1  -3   9    4.55    0.31
   1   3  -8    0.33    0.17
   1   3  -8    0.28    0.26
   1   3  -8    0.25    0.16
   1   3  -8    0.13    0.15
  -1  -3   8    0.16    0.15
  -1  -3   8    0.17    0.15
  -1  -3   8    0.22    0.17
  -1  -3   8    0.30    0.15
   1   3  -7    8.55    0.52
   1   3  -7    8.31    0.44
   1   3  -7    8.45    0.36
   1   3  -7    8.42    0.35
  -1  -3   7    8.29    0.47
  -1  -3   7    8.45    0.35
  -1  -3   7    8.57    0.48
  -1  -3   7    8.59    0.34
   1   3  -6   19.00    0.52
   1   3  -6   18.96    0.53
   1   3  -6   19.07    0.48
   1   3  -6   19.35    0.51
  -1  -3   6   18.76    0.49
  -1  -3   6   18.97    0.51
  -1  -3   6   19.30    0.50
  -1  -3   6   18.97    0.51
   1   3  -5    0.90    0.20
   1   3  -5    0.82    0.15
   1   3  -5    0.83    0.14
   1   3  -5    0.95    0.22
  -1  -3   5    0.85    0.14
  -1  -3   5    0.76    0.13
  -1  -3   5    0.87    0.14
  -1  -3   5    0.81    0.14
   1   3  -4    4.87    0.27
   1   3  -4    4.75    0.23
   1   3  -4    4.71    0.21
   1   3  -4    4.85    0.21
  -1  -3   4    4.92    0.30
  -1  -3   4    4.85    0.28
  -1  -3   4    4.76    0.21
  -1  -3   4    4.84    0.29
   1   3  -3    1.80    0.12
   1   3  -3    1.79    0.16
   1   3  -3    1.68    0.14
   1   3  -3    1.97    0.14
  -1  -3   3    2.00    0.14
  -1  -3   3    1.73    0.12
  -1  -3   3    1.82    0.15
  -1  -3   3    1.84    0.14
   1   3  -2    0.46    0.10
   1   3  -2    0.41    0.11
   1   3  -2    0.35    0.12
   1   3  -2    0.46    0.10
  -1  -3   2    0.44    0.08
  -1  -3   2    0.44    0.10
  -1  -3   2    0.48    0.10
  -1  -3   2    0.38    0.10
   1   3  -1   59.15    1.06
   1   3  -1   59.30    1.03
   1   3  -1   60.89    0.99
   1   3  -1   59.53    1.03
  -1  -3   1   61.68    0.97
  -1  -3   1   61.85    1.09
  -1  -3   1   61.27    1.04
  -1  -3   1   61.54    1.05
   1   3   0 1163.50   24.97
   1   3   0 1172.26   24.94
   1   3   0 1140.39   25.29
  -1  -3   0 1139.41   25.10
  -1  -3   0 1140.01   25.16
  -1  -3   0 1158.00   25.58
  -1  -3   0 1136.98   25.19
  -1  -3   0 1122.91   24.92
   1   3   1  306.37    5.04
   1   3   1  273.37    4.94
   1   3   1  278.25    4.95
   1   3   1  271.29    5.02
  -1  -3  -1  299.26    4.89
  -1  -3  -1  271.67    4.93
  -1  -3  -1  276.90    4.95
  -1  -3  -1  285.25    5.23
   1   3   2  534.02   10.47
   1   3   2  549.67   10.22
   1   3   2  535.64   10.46
   1   3   2  528.46   10.44
  -1  -3  -2  539.22   10.53
  -1  -3  -2  515.68   10.15
  -1  -3  -2  565.15   11.11
  -1  -3  -2  537.71   10.03
   1   3   3   34.46    0.69
   1   3   3   32.91    0.60
   1   3   3   32.34    0.56
   1   3   3   33.04    0.67
  -1  -3  -3   31.60    0.59
  -1  -3  -3   34.59    0.69
  -1  -3  -3   32.10    0.67
  -1  -3  -3   32.17    0.50
   1   3   4    2.07    0.20
   1   3   4    2.04    0.11
   1   3   4    2.06    0.13
   1   3   4    2.26    0.14
  -1  -3  -4    2.10    0.20
  -1  -3  -4    2.15    0.15
  -1  -3  -4    2.08    0.13
  -1  -3  -4    1.95    0.10
   1   3   5   19.93    0.44
   1   3   5   20.01    0.48
   1   3   5   19.94    0.43
   1   3   5   20.25    0.43
  -1  -3  -5   19.85    0.40
  -1  -3  -5   19.99    0.45
  -1  -3  -5   20.21    0.43
  -1  -3  -5   20.10    0.44
   1   3   6   10.92    0.32
   1   3   6   11.28    0.31
   1   3   6   10.98    0.38
  -1  -3  -6   11.36    0.42
  -1  -3  -6   11.31    0.41
  -1  -3  -6   11.44    0.45
  -1  -3  -6   10.95    0.29
  -1  -3  -6   11.18    0.31
   1   3   7   35.49    0.84
   1   3   7   34.42    0.73
   1   3   7   34.46    0.86
  -1  -3  -7   34.67    0.89
  -1  -3  -7   34.37    0.75
  -1  -3  -7   34.62    0.73
  -1  -3  -7   35.39    0.83
  -1  -3  -7   34.28    0.83
   1   3   8    4.48    0.23
   1   3   8    4.50    0.23
   1   3   8    4.62    0.24
  -1  -3  -8    4.70    0.24
  -1  -3  -8    4.69    0.33
  -1  -3  -8    4.59    0.37
  -1  -3  -8    4.43    0.23
  -1  -3  -8    4.61    0.24
   1   3   9    4.93    0.28
   1   3   9    4.69    0.38
   1   3   9    4.84    0.26
  -1  -3  -9    5.01    0.37
  -1  -3  -9    4.68    0.27
  -1  -3  -9    4.88    0.27
  -1  -3  -9    4.76    0.26
   1   3  10    0.25    0.16
   1   3  10    0.19    0.15
   1   3  10    0.36    0.16
  -1  -3 -10    0.16    0.24
  -1  -3 -10    0.25    0.24
  -1  -3 -10    0.21    0.24
  -1  -3 -10    0.21    0.15
  -1  -3 -10    0.28    0.16
   1   3  11    0.01    0.21
   1   3  11    0.03    0.13
   1   3  11    0.07    0.13
  -1  -3 -11   -0.06    0.15
  -1  -3 -11    0.08    0.13
  -1  -3 -11    0.00    0.13
  -1  -3 -11    0.02    0.13
  -1  -3 -11    0.04    0.13
   1   3  12    0.35    0.18
   1   3  12    0.43    0.19
   1   3  12    0.00    0.19
  -1  -3 -12    0.02    0.19
  -1  -3 -12    0.03    0.19
  -1  -3 -12    0.36    0.18
  -1  -3 -12    0.02    0.20
  -1  -3 -12    0.37    0.18
   1   3  13    0.26    0.18
   1   3  13    0.30    0.17
   1   3  13   -0.01    0.29
  -1  -3 -13    0.01    0.28
  -1  -3 -13    0.00    0.17
  -1  -3 -13   -0.01    0.29
  -1  -3 -13   -0.01    0.19
  -1  -3 -13   -0.08    0.17
   1   3  14    0.06    0.18
   1   3  14    0.16    0.17
   1   3  14   -0.02    0.18
  -1  -3 -14   -0.02    0.18
  -1  -3 -14    0.01    0.18
  -1  -3 -14   -0.01    0.17
  -1  -3 -14   -0.02    0.27
  -1  -3 -14    0.07    0.20
   1   3  15    0.27    0.27
   1   3  15    0.01    0.30
   1   3  15    0.08    0.18
  -1  -3 -15   -0.01    0.31
  -1  -3 -15    0.01    0.31
  -1  -3 -15   -0.03    0.32
  -1  -3 -15   -0.00    0.30
  -1  -3 -15   -0.07    0.19
   1   4 -12   -0.02    0.21
   1   4 -12    0.24    0.20
   1   4 -12   -0.00    0.37
   1   4 -12    0.05    0.21
  -1  -4  12    0.11    0.22
  -1  -4  12    0.02    0.22
  -1  -4  12    0.01    0.33
  -1  -4  12    0.30    0.33
   1   4 -11   -0.02    0.24
   1   4 -11    0.66    0.23
   1   4 -11    0.00    0.25
   1   4 -11    0.69    0.25
  -1  -4  11   -0.02    0.38
  -1  -4  11   -0.00    0.24
  -1  -4  11    0.63    0.24
  -1  -4  11    0.63    0.23
   1   4 -10    0.00    0.16
   1   4 -10   -0.11    0.15
   1   4 -10    0.06    0.14
   1   4 -10    0.01    0.15
  -1  -4  10    0.02    0.15
  -1  -4  10    0.00    0.14
  -1  -4  10   -0.09    0.15
  -1  -4  10   -0.06    0.14
   1   4  -9    0.11    0.18
   1   4  -9   -0.01    0.18
   1   4  -9    0.23    0.19
   1   4  -9    0.31    0.17
  -1  -4   9    0.07    0.19
  -1  -4   9    0.21    0.27
  -1  -4   9    0.29    0.27
  -1  -4   9    0.16    0.27
   1   4  -8    3.01    0.40
   1   4  -8    3.10    0.29
   1   4  -8    2.70    0.30
   1   4  -8    3.08    0.29
  -1  -4   8    2.94    0.28
  -1  -4   8    2.99    0.42
  -1  -4   8    2.76    0.43
  -1  -4   8    2.87    0.27
   1   4  -7    0.29    0.16
   1   4  -7    0.22    0.16
   1   4  -7    0.15    0.26
   1   4  -7    0.28    0.14
  -1  -4   7    0.12    0.23
  -1  -4   7    0.27    0.16
  -1  -4   7    0.29    0.15
  -1  -4   7    0.25    0.15
   1   4  -6    0.01    0.09
   1   4  -6    0.00    0.10
   1   4  -6    0.08    0.16
   1   4  -6   -0.03    0.10
  -1  -4   6   -0.02    0.09
  -1  -4   6   -0.09    0.09
  -1  -4   6    0.01    0.09
  -1  -4   6   -0.01    0.14
   1   4  -5    0.10    0.11
   1   4  -5    0.11    0.12
   1   4  -5    0.02    0.15
   1   4  -5    0.12    0.17
  -1  -4   5    0.19    0.11
  -1  -4   5    0.13    0.10
  -1  -4   5    0.04    0.10
  -1  -4   5    0.08    0.10
   1   4  -4    0.67    0.13
   1   4  -4    0.56    0.17
   1   4  -4    0.81    0.14
   1   4  -4    0.66    0.14
  -1  -4   4    0.71    0.20
  -1  -4   4    0.65    0.13
  -1  -4   4    0.68    0.13
  -1  -4   4    0.68    0.12
   1   4  -3    1.48    0.15
   1   4  -3    1.59    0.18
   1   4  -3    1.49    0.15
   1   4  -3    1.60    0.15
  -1  -4   3    1.54    0.14
  -1  -4   3    1.51    0.12
  -1  -4   3    1.37    0.14
  -1  -4   3    1.52    0.15
   1   4  -2   24.02    0.52
   1   4  -2   23.51    0.45
   1   4  -2   23.47    0.52
   1   4  -2   23.53    0.51
  -1  -4   2   24.18    0.61
  -1  -4   2   23.85    0.46
  -1  -4   2   23.69    0.50
  -1  -4   2   24.51    0.52
   1   4  -1   10.92    0.23
   1   4  -1   11.17    0.30
  -1  -4   1   11.68    0.38
  -1  -4   1   11.37    0.29
  -1  -4   1   11.24    0.29
  -1  -4   1   10.99    0.24
  -1  -4   1   11.38    0.31
  -1  -4   1   11.60    0.39
   1   4   0   26.85    0.54
   1   4   0   27.15    0.49
   1   4   0   27.42    0.50
  -1  -4   0   27.28    0.54
  -1  -4   0   27.64    0.54
  -1  -4   0   28.23    0.56
  -1  -4   0   26.39    0.53
  -1  -4   0   27.48    0.54
   1   4   1   40.89    0.63
   1   4   1   41.54    0.75
   1   4   1   42.31    0.85
   1   4   1   40.31    0.75
  -1  -4  -1   41.88    0.76
  -1  -4  -1   40.94    0.66
  -1  -4  -1   40.79    0.75
  -1  -4  -1   42.06    0.77
   1   4   2   14.63    0.30
   1   4   2   14.81    0.42
   1   4   2   15.34    0.44
   1   4   2   14.54    0.34
  -1  -4  -2   15.29    0.43
  -1  -4  -2   14.84    0.29
  -1  -4  -2   14.78    0.34
  -1  -4  -2   14.73    0.34
   1   4   3    1.29    0.12
   1   4   3    1.10    0.19
   1   4   3    1.16    0.12
   1   4   3    1.08    0.08
  -1  -4  -3    1.21    0.08
  -1  -4  -3    0.59    0.19
  -1  -4  -3    1.22    0.19
  -1  -4  -3    1.34    0.12
   1   4   4    8.97    0.26
   1   4   4    8.55    0.26
   1   4   4    8.98    0.26
   1   4   4    8.81    0.25
  -1  -4  -4    8.92    0.26
  -1  -4  -4    8.63    0.25
  -1  -4  -4    8.74    0.26
  -1  -4  -4    8.98    0.26
   1   4   5    3.15    0.21
   1   4   5    3.34    0.27
   1   4   5    3.62    0.18
   1   4   5    3.30    0.17
  -1  -4  -5    3.21    0.14
  -1  -4  -5    3.23    0.17
  -1  -4  -5    3.28    0.17
  -1  -4  -5    3.22    0.17
   1   4   6  106.93    2.02
   1   4   6  106.22    2.00
   1   4   6  106.14    1.92
   1   4   6  107.85    2.03
  -1  -4  -6  107.66    2.05
  -1  -4  -6  107.99    2.05
  -1  -4  -6  105.60    1.99
  -1  -4  -6  106.33    1.95
   1   4   7    8.23    0.29
   1   4   7    8.38    0.28
   1   4   7    8.32    0.42
  -1  -4  -7    8.15    0.26
  -1  -4  -7    8.15    0.29
  -1  -4  -7    8.25    0.29
  -1  -4  -7    8.34    0.30
  -1  -4  -7    8.39    0.42
   1   4   8   11.24    0.46
   1   4   8   10.78    0.36
   1   4   8   10.55    0.47
  -1  -4  -8   10.23    0.35
  -1  -4  -8   10.54    0.37
  -1  -4  -8   11.25    0.48
  -1  -4  -8   10.32    0.33
  -1  -4  -8   10.57    0.36
   1   4   9    2.92    0.22
   1   4   9    2.77    0.23
   1   4   9    2.80    0.23
  -1  -4  -9    2.72    0.25
  -1  -4  -9    2.79    0.23
  -1  -4  -9    2.87    0.23
  -1  -4  -9    2.79    0.21
  -1  -4  -9    3.08    0.23
   1   4  10    1.01    0.32
   1   4  10    0.99    0.20
   1   4  10    0.95    0.20
  -1  -4 -10    1.12    0.20
  -1  -4 -10    1.05    0.21
  -1  -4 -10    1.02    0.20
  -1  -4 -10    0.96    0.19
   1   4  11    0.67    0.20
   1   4  11    0.76    0.32
   1   4  11    0.80    0.32
  -1  -4 -11    0.67    0.20
  -1  -4 -11    0.61    0.19
  -1  -4 -11    0.68    0.20
  -1  -4 -11    0.59    0.20
  -1  -4 -11    0.55    0.22
   1   4  12    0.02    0.22
   1   4  12    0.00    0.14
   1   4  12    0.11    0.14
  -1  -4 -12   -0.02    0.15
  -1  -4 -12   -0.04    0.14
  -1  -4 -12    0.03    0.14
  -1  -4 -12    0.08    0.13
  -1  -4 -12   -0.03    0.14
   1   4  13    0.00    0.34
   1   4  13    0.77    0.21
   1   4  13    1.07    0.34
  -1  -4 -13   -0.00    0.23
  -1  -4 -13   -0.00    0.21
  -1  -4 -13    0.07    0.20
   1   4  14    0.14    0.17
   1   4  14    0.17    0.26
   1   4  14   -0.00    0.17
  -1  -4 -14   -0.02    0.17
  -1  -4 -14   -0.04    0.18
  -1  -4 -14    0.01    0.17
  -1  -4 -14    0.01    0.17
  -1  -4 -14    0.00    0.16
   1   4  15    0.01    0.25
   1   4  15    0.33    0.21
   1   4  15    0.47    0.23
  -1  -4 -15    0.01    0.23
  -1  -4 -15   -0.06    0.24
  -1  -4 -15    0.01    0.24
  -1  -4 -15    0.07    0.33
  -1  -4 -15    0.04    0.25
   1   5 -12    1.15    0.44
   1   5 -12    1.47    0.32
   1   5 -12    0.06    0.34
   1   5 -12    0.01    0.32
  -1  -5  12    1.41    0.30
  -1  -5  12    0.02    0.30
  -1  -5  12    0.01    0.32
   1   5 -11    0.44    0.22
   1   5 -11   -0.01    0.24
   1   5 -11    0.24    0.21
   1   5 -11   -0.03    0.24
  -1  -5  11   -0.01    0.23
  -1  -5  11   -0.09    0.35
  -1  -5  11    0.46    0.22
  -1  -5  11    0.19    0.24
   1   5 -10    0.02    0.14
   1   5 -10   -0.04    0.13
   1   5 -10    0.00    0.15
   1   5 -10    0.03    0.14
  -1  -5  10   -0.01    0.13
  -1  -5  10    0.01    0.13
  -1  -5  10    0.13    0.22
  -1  -5  10   -0.10    0.13
   1   5  -9   -0.04    0.24
   1   5  -9    0.01    0.23
   1   5  -9    0.79    0.21
   1   5  -9    1.18    0.24
  -1  -5   9    0.90    0.22
  -1  -5   9    0.00    0.23
  -1  -5   9    0.94    0.35
  -1  -5   9    0.82    0.23
   1   5  -8    0.31    0.19
   1   5  -8    0.14    0.19
   1   5  -8    0.13    0.17
   1   5  -8    0.21    0.18
  -1  -5   8    0.28    0.18
  -1  -5   8    0.25    0.18
  -1  -5   8    0.32    0.28
  -1  -5   8    0.30    0.18
   1   5  -7    4.38    0.43
   1   5  -7    4.39    0.32
   1   5  -7    4.25    0.33
   1   5  -7    4.43    0.32
  -1  -5   7    4.41    0.31
  -1  -5   7    4.49    0.31
  -1  -5   7    4.20    0.45
  -1  -5   7    4.01    0.45
   1   5  -6    9.47    0.50
   1   5  -6    9.02    0.56
   1   5  -6    9.83    0.55
   1   5  -6    9.40    0.39
  -1  -5   6    9.34    0.52
  -1  -5   6    9.38    0.53
  -1  -5   6    8.77    0.51
  -1  -5   6    9.40    0.38
   1   5  -5    0.17    0.13
   1   5  -5    0.22    0.11
   1   5  -5    0.26    0.14
   1   5  -5    0.16    0.14
  -1  -5   5    0.23    0.13
  -1  -5   5    0.22    0.12
  -1  -5   5    0.28    0.20
  -1  -5   5    0.25    0.20
   1   5  -4    0.24    0.19
   1   5  -4    0.23    0.10
   1   5  -4    0.19    0.12
   1   5  -4    0.30    0.20
  -1  -5   4    0.29    0.12
  -1  -5   4    0.17    0.17
  -1  -5   4    0.28    0.12
  -1  -5   4    0.27    0.12
   1   5  -3    1.02    0.15
   1   5  -3    0.92    0.12
   1   5  -3    1.00    0.14
   1   5  -3    0.93    0.22
  -1  -5   3    1.04    0.19
  -1  -5   3    1.10    0.14
  -1  -5   3    1.06    0.14
  -1  -5   3    0.99    0.14
   1   5  -2    0.10    0.08
   1   5  -2   -0.07    0.07
   1   5  -2    0.03    0.09
   1   5  -2   -0.02    0.08
  -1  -5   2    0.07    0.07
  -1  -5   2   -0.03    0.09
  -1  -5   2    0.05    0.07
  -1  -5   2   -0.01    0.07
   1   5  -1   37.22    0.76
   1   5  -1   36.27    0.72
  -1  -5   1   35.68    0.67
  -1  -5   1   35.14    0.80
  -1  -5   1   37.17    0.76
  -1  -5   1   37.35    0.84
  -1  -5   1   37.22    0.74
  -1  -5   1   37.98    0.86
   1   5   0    2.97    0.12
   1   5   0    3.16    0.26
   1   5   0    3.05    0.12
  -1  -5   0    3.13    0.24
  -1  -5   0    3.04    0.26
  -1  -5   0    3.24    0.17
  -1  -5   0    3.25    0.17
  -1  -5   0    3.03    0.25
   1   5   1   11.98    0.30
   1   5   1   12.19    0.39
   1   5   1   12.48    0.25
   1   5   1   12.55    0.32
   1   5   1   11.82    0.31
  -1  -5  -1   12.53    0.33
  -1  -5  -1   11.90    0.31
  -1  -5  -1   12.55    0.31
   1   5   2    1.21    0.13
   1   5   2    1.23    0.12
   1   5   2    1.55    0.14
   1   5   2    1.29    0.12
  -1  -5  -2    1.21    0.08
  -1  -5  -2    1.31    0.13
  -1  -5  -2    1.28    0.12
  -1  -5  -2    1.23    0.13
   1   5   3   41.54    0.70
   1   5   3   42.13    0.91
   1   5   3   43.22    0.90
   1   5   3   42.09    0.92
  -1  -5  -3   41.65    0.69
  -1  -5  -3   43.16    0.94
  -1  -5  -3   42.94    0.92
  -1  -5  -3   44.65    0.94
   1   5   4    6.71    0.32
   1   5   4    6.70    0.32
   1   5   4    6.92    0.32
  -1  -5  -4    6.71    0.33
  -1  -5  -4    6.64    0.24
  -1  -5  -4    6.87    0.23
  -1  -5  -4    6.70    0.33
   1   5   5    0.32    0.14
   1   5   5    0.53    0.12
   1   5   5    0.50    0.12
   1   5   5    0.78    0.18
  -1  -5  -5    0.67    0.18
  -1  -5  -5    0.64    0.12
  -1  -5  -5    0.58    0.13
  -1  -5  -5    0.59    0.12
   1   5   6    3.82    0.20
   1   5   6    3.60    0.19
   1   5   6    3.46    0.16
   1   5   6    3.51    0.20
  -1  -5  -6    3.49    0.17
  -1  -5  -6    3.54    0.20
  -1  -5  -6    3.35    0.20
  -1  -5  -6    3.56    0.19
   1   5   7   19.52    0.46
   1   5   7   19.85    0.51
   1   5   7   19.60    0.50
   1   5   7   19.62    0.50
  -1  -5  -7   19.49    0.51
  -1  -5  -7   19.26    0.51
  -1  -5  -7   19.88    0.51
  -1  -5  -7   19.16    0.45
   1   5   8   12.59    0.41
   1   5   8   12.37    0.40
   1   5   8   12.01    0.36
  -1  -5  -8   12.60    0.41
  -1  -5  -8   12.14    0.39
  -1  -5  -8   12.33    0.40
  -1  -5  -8   12.70    0.40
  -1  -5  -8   12.82    0.48
   1   5   9    3.78    0.26
   1   5   9    3.79    0.23
   1   5   9    3.81    0.37
  -1  -5  -9    3.72    0.27
  -1  -5  -9    3.55    0.37
  -1  -5  -9    3.71    0.26
  -1  -5  -9    3.58    0.26
  -1  -5  -9    3.85    0.24
   1   5  10    5.14    0.30
   1   5  10    4.94    0.46
   1   5  10    5.27    0.31
  -1  -5 -10    5.43    0.32
  -1  -5 -10    5.24    0.34
  -1  -5 -10    5.32    0.29
  -1  -5 -10    5.36    0.32
  -1  -5 -10    5.10    0.32
   1   5  11    5.91    0.49
   1   5  11    5.80    0.35
   1   5  11    5.88    0.36
  -1  -5 -11    5.80    0.36
  -1  -5 -11    5.66    0.37
  -1  -5 -11    5.79    0.36
  -1  -5 -11    5.36    0.34
  -1  -5 -11    5.31    0.55
   1   5  12    3.85    0.34
   1   5  12    4.15    0.32
   1   5  12    4.02    0.34
  -1  -5 -12    3.98    0.35
  -1  -5 -12    4.18    0.34
  -1  -5 -12    4.06    0.35
  -1  -5 -12    3.94    0.34
  -1  -5 -12    4.26    0.33
   1   5  13    0.24    0.18
   1   5  13    0.04    0.17
   1   5  13    0.08    0.17
  -1  -5 -13   -0.00    0.17
  -1  -5 -13   -0.00    0.19
  -1  -5 -13    0.05    0.16
   1   5  14    1.59    0.29
   1   5  14    1.85    0.29
   1   5  14    1.19    0.44
  -1  -5 -14   -0.00    0.30
  -1  -5 -14   -0.03    0.30
  -1  -5 -14   -0.00    0.29
  -1  -5 -14    1.34    0.27
   1   5  15    0.09    0.17
   1   5  15   -0.05    0.15
   1   5  15   -0.01    0.17
  -1  -5 -15    0.03    0.16
  -1  -5 -15    0.01    0.16
  -1  -5 -15   -0.00    0.26
  -1  -5 -15   -0.01    0.17
  -1  -5 -15   -0.02    0.16
   1   6 -11    0.39    0.25
   1   6 -11    0.48    0.35
   1   6 -11   -0.00    0.26
   1   6 -11    0.01    0.25
  -1  -6  11    0.28    0.25
  -1  -6  11   -0.01    0.36
  -1  -6  11    0.15    0.24
  -1  -6  11    0.01    0.24
   1   6 -10    0.13    0.22
   1   6 -10    0.29    0.19
   1   6 -10    0.00    0.23
   1   6 -10    0.01    0.22
  -1  -6  10    0.01    0.21
  -1  -6  10    0.17    0.33
  -1  -6  10    0.32    0.20
  -1  -6  10    0.01    0.19
   1   6  -9    0.00    0.26
   1   6  -9    1.11    0.23
   1   6  -9    1.45    0.26
   1   6  -9    0.01    0.26
  -1  -6   9    1.27    0.37
  -1  -6   9    1.07    0.38
  -1  -6   9   -0.00    0.38
  -1  -6   9   -0.00    0.25
   1   6  -8   -0.02    0.22
   1   6  -8    0.51    0.23
   1   6  -8    0.68    0.20
   1   6  -8    0.00    0.22
  -1  -6   8    0.70    0.33
  -1  -6   8    0.60    0.22
  -1  -6   8    0.66    0.21
  -1  -6   8    0.66    0.21
   1   6  -7    3.75    0.32
   1   6  -7    4.43    0.34
   1   6  -7    4.35    0.35
   1   6  -7    4.11    0.34
  -1  -6   7    4.43    0.33
  -1  -6   7    4.11    0.34
  -1  -6   7    3.89    0.49
  -1  -6   7    4.25    0.33
   1   6  -6    0.64    0.20
   1   6  -6    0.63    0.18
   1   6  -6    0.60    0.31
   1   6  -6    0.43    0.32
  -1  -6   6    0.64    0.19
  -1  -6   6    0.53    0.29
  -1  -6   6    0.59    0.18
  -1  -6   6    0.68    0.20
   1   6  -5    1.95    0.20
   1   6  -5    1.94    0.24
   1   6  -5    1.97    0.23
   1   6  -5    1.95    0.23
  -1  -6   5    2.19    0.22
  -1  -6   5    1.97    0.22
  -1  -6   5    1.94    0.21
  -1  -6   5    2.27    0.32
   1   6  -4    0.05    0.15
   1   6  -4   -0.00    0.16
   1   6  -4   -0.04    0.13
   1   6  -4    0.02    0.16
  -1  -6   4    0.10    0.09
  -1  -6   4   -0.04    0.09
  -1  -6   4   -0.01    0.10
  -1  -6   4    0.03    0.09
   1   6  -3    0.06    0.08
   1   6  -3   -0.00    0.08
   1   6  -3   -0.02    0.07
   1   6  -3   -0.09    0.12
  -1  -6   3    0.07    0.07
  -1  -6   3   -0.03    0.08
  -1  -6   3   -0.05    0.13
  -1  -6   3    0.04    0.13
   1   6  -2   12.90    0.39
   1   6  -2   12.20    0.32
  -1  -6   2   12.65    0.38
  -1  -6   2   12.23    0.38
  -1  -6   2   12.25    0.37
  -1  -6   2   13.21    0.35
  -1  -6   2   12.43    0.36
   1   6  -1    6.49    0.28
   1   6  -1    6.31    0.38
   1   6  -1    6.33    0.20
  -1  -6   1    7.02    0.37
  -1  -6   1    6.59    0.24
  -1  -6   1    6.42    0.34
  -1  -6   1    6.65    0.36
  -1  -6   1    6.56    0.35
   1   6   0    2.11    0.12
   1   6   0    2.18    0.18
   1   6   0    2.27    0.17
  -1  -6   0    2.25    0.17
  -1  -6   0    2.04    0.17
  -1  -6   0    2.11    0.23
  -1  -6   0    2.24    0.15
  -1  -6   0    2.08    0.17
   1   6   1   35.98    0.71
   1   6   1   35.90    0.75
   1   6   1   35.47    0.71
   1   6   1   36.53    0.74
   1   6   1   36.41    0.72
  -1  -6  -1   37.72    0.74
  -1  -6  -1   36.32    0.75
  -1  -6  -1   37.17    0.76
   1   6   2    5.23    0.21
   1   6   2    5.45    0.22
   1   6   2    5.40    0.33
   1   6   2    5.42    0.20
  -1  -6  -2    5.26    0.20
  -1  -6  -2    5.16    0.21
  -1  -6  -2    5.38    0.23
  -1  -6  -2    5.60    0.32
   1   6   3    0.28    0.07
   1   6   3    0.33    0.09
   1   6   3    0.45    0.17
   1   6   3    0.34    0.11
  -1  -6  -3    0.30    0.10
  -1  -6  -3    0.32    0.11
  -1  -6  -3    0.30    0.11
  -1  -6  -3    0.32    0.17
   1   6   4   14.33    0.38
   1   6   4   13.57    0.48
   1   6   4   13.83    0.35
   1   6   4   13.33    0.29
  -1  -6  -4   14.06    0.38
  -1  -6  -4   14.09    0.48
  -1  -6  -4   13.76    0.30
  -1  -6  -4   13.88    0.36
   1   6   5    2.95    0.17
   1   6   5    2.91    0.27
   1   6   5    2.79    0.18
   1   6   5    2.84    0.14
  -1  -6  -5    2.86    0.19
  -1  -6  -5    2.85    0.14
  -1  -6  -5    2.75    0.27
  -1  -6  -5    2.86    0.18
   1   6   6    0.14    0.10
   1   6   6    0.08    0.12
   1   6   6    0.08    0.10
   1   6   6    0.19    0.10
  -1  -6  -6    0.09    0.15
  -1  -6  -6    0.13    0.10
  -1  -6  -6    0.10    0.10
  -1  -6  -6    0.06    0.08
   1   6   7    4.82    0.25
   1   6   7    4.85    0.21
   1   6   7    4.81    0.35
   1   6   7    4.98    0.25
  -1  -6  -7    4.82    0.21
  -1  -6  -7    5.02    0.25
  -1  -6  -7    4.72    0.36
  -1  -6  -7    4.91    0.25
   1   6   8    0.17    0.12
   1   6   8    0.12    0.10
   1   6   8    0.04    0.19
   1   6   8    0.05    0.12
  -1  -6  -8    0.10    0.10
  -1  -6  -8    0.10    0.12
  -1  -6  -8    0.05    0.19
  -1  -6  -8    0.01    0.12
   1   6   9    2.62    0.24
   1   6   9    2.22    0.20
   1   6   9    2.30    0.23
  -1  -6  -9    2.62    0.25
  -1  -6  -9    2.24    0.23
  -1  -6  -9    2.52    0.31
  -1  -6  -9    2.44    0.24
  -1  -6  -9    2.54    0.23
   1   6  10    6.50    0.32
   1   6  10    6.46    0.35
   1   6  10    6.00    0.50
  -1  -6 -10    6.36    0.34
  -1  -6 -10    6.04    0.31
  -1  -6 -10    6.56    0.36
  -1  -6 -10    6.14    0.49
  -1  -6 -10    6.08    0.36
   1   6  11    4.51    0.32
   1   6  11    4.27    0.33
   1   6  11    4.46    0.34
  -1  -6 -11    4.40    0.35
  -1  -6 -11    4.27    0.34
  -1  -6 -11    4.27    0.33
  -1  -6 -11    4.64    0.33
  -1  -6 -11    4.34    0.30
   1   6  12    0.21    0.16
   1   6  12    0.13    0.16
   1   6  12    0.04    0.24
  -1  -6 -12    0.01    0.17
  -1  -6 -12   -0.02    0.17
  -1  -6 -12   -0.00    0.17
  -1  -6 -12    0.05    0.15
  -1  -6 -12    0.13    0.16
   1   6  13    0.21    0.20
   1   6  13    0.36    0.18
   1   6  13    0.23    0.21
  -1  -6 -13    0.00    0.21
  -1  -6 -13    0.00    0.34
  -1  -6 -13   -0.00    0.20
  -1  -6 -13    0.34    0.20
  -1  -6 -13    0.28    0.18
   1   6  14    0.90    0.26
   1   6  14    0.97    0.27
   1   6  14    0.54    0.25
  -1  -6 -14   -0.01    0.41
  -1  -6 -14    0.75    0.25
  -1  -6 -14    0.55    0.24
  -1  -6 -14    0.01    0.43
  -1  -6 -14   -0.00    0.28
   1   6  15    0.07    0.24
   1   6  15    0.34    0.21
   1   6  15    0.19    0.24
  -1  -6 -15   -0.00    0.23
  -1  -6 -15   -0.04    0.24
  -1  -6 -15    0.14    0.21
  -1  -6 -15    0.00    0.23
  -1  -6 -15    0.30    0.23
   1   7 -10    0.01    0.29
   1   7 -10   -0.09    0.16
  -1  -7  10    0.19    0.17
  -1  -7  10   -0.02    0.18
  -1  -7  10   -0.01    0.16
  -1  -7  10    0.02    0.28
   1   7  -9    0.00    0.42
   1   7  -9    0.99    0.23
  -1  -7   9    1.16    0.25
  -1  -7   9   -0.00    0.26
  -1  -7   9   -0.03    0.41
  -1  -7   9    0.00    0.26
   1   7  -8    0.16    0.27
   1   7  -8   -0.01    0.20
   1   7  -8    0.18    0.20
   1   7  -8    0.27    0.20
  -1  -7   8    0.01    0.18
  -1  -7   8    0.02    0.30
   1   7  -7    3.03    0.34
   1   7  -7    2.70    0.29
   1   7  -7    2.55    0.32
   1   7  -7    2.58    0.34
  -1  -7   7    2.84    0.48
  -1  -7   7    2.92    0.48
  -1  -7   7    2.78    0.31
  -1  -7   7    2.20    0.45
   1   7  -6   11.99    0.47
   1   7  -6   12.18    0.52
   1   7  -6   11.60    0.52
   1   7  -6   12.06    0.54
  -1  -7   6   12.40    0.51
  -1  -7   6   12.23    0.51
  -1  -7   6   12.57    0.52
  -1  -7   6   12.04    0.67
   1   7  -5    0.33    0.17
   1   7  -5    0.41    0.15
   1   7  -5    0.32    0.18
   1   7  -5    0.32    0.18
  -1  -7   5    0.30    0.25
  -1  -7   5    0.33    0.17
  -1  -7   5    0.26    0.17
  -1  -7   5    0.20    0.26
   1   7  -4   -0.04    0.13
   1   7  -4   -0.02    0.19
   1   7  -4    0.08    0.13
   1   7  -4    0.16    0.11
  -1  -7   4    0.12    0.12
  -1  -7   4    0.08    0.20
  -1  -7   4    0.07    0.20
  -1  -7   4    0.11    0.12
   1   7  -3   -0.00    0.08
   1   7  -3    0.00    0.09
   1   7  -3    0.05    0.10
  -1  -7   3    0.02    0.09
  -1  -7   3    0.01    0.09
  -1  -7   3   -0.01    0.15
  -1  -7   3    0.06    0.09
  -1  -7   3   -0.03    0.10
   1   7  -2    0.01    0.07
   1   7  -2    0.04    0.12
   1   7  -2    0.12    0.10
  -1  -7   2    0.10    0.10
  -1  -7   2   -0.01    0.14
  -1  -7   2   -0.05    0.13
  -1  -7   2   -0.00    0.10
  -1  -7   2   -0.04    0.10
   1   7  -1    0.02    0.06
   1   7  -1   -0.03    0.09
   1   7  -1    0.02    0.10
  -1  -7   1    0.08    0.13
  -1  -7   1   -0.06    0.12
  -1  -7   1    0.06    0.08
  -1  -7   1    0.00    0.08
  -1  -7   1    0.00    0.09
   1   7   0    0.60    0.14
   1   7   0    0.60    0.10
   1   7   0    0.56    0.15
  -1  -7   0    0.58    0.12
  -1  -7   0    0.79    0.14
  -1  -7   0    0.61    0.13
  -1  -7   0    0.58    0.12
  -1  -7   0    0.58    0.14
   1   7   1    2.00    0.12
   1   7   1    2.10    0.18
   1   7   1    2.25    0.17
   1   7   1    2.09    0.18
  -1  -7  -1    2.00    0.18
  -1  -7  -1    1.91    0.16
  -1  -7  -1    2.10    0.18
  -1  -7  -1    2.05    0.16
   1   7   2    0.30    0.08
   1   7   2    0.41    0.19
   1   7   2    0.33    0.10
   1   7   2    0.42    0.19
  -1  -7  -2    0.34    0.12
  -1  -7  -2    0.43    0.12
  -1  -7  -2    0.37    0.12
  -1  -7  -2    0.40    0.10
   1   7   3    0.02    0.06
   1   7   3    0.02    0.04
   1   7   3   -0.02    0.07
   1   7   3   -0.01    0.06
  -1  -7  -3   -0.04    0.06
  -1  -7  -3    0.04    0.07
  -1  -7  -3    0.00    0.05
  -1  -7  -3   -0.01    0.07
   1   7   4    3.72    0.21
   1   7   4    3.39    0.30
   1   7   4    3.83    0.19
   1   7   4    3.81    0.22
  -1  -7  -4    3.57    0.15
  -1  -7  -4    3.79    0.21
  -1  -7  -4    3.66    0.28
  -1  -7  -4    3.61    0.31
   1   7   5    9.93    0.32
   1   7   5   10.34    0.34
   1   7   5   10.70    0.47
   1   7   5    9.94    0.35
  -1  -7  -5    9.81    0.27
  -1  -7  -5    9.86    0.31
  -1  -7  -5   10.79    0.47
  -1  -7  -5   10.52    0.35
   1   7   6    3.79    0.23
   1   7   6    4.06    0.32
   1   7   6    3.83    0.23
   1   7   6    3.62    0.17
  -1  -7  -6    3.71    0.22
  -1  -7  -6    3.71    0.23
  -1  -7  -6    3.89    0.18
  -1  -7  -6    3.99    0.23
   1   7   7    2.73    0.17
   1   7   7    2.40    0.21
   1   7   7    2.85    0.33
   1   7   7    2.50    0.20
  -1  -7  -7    2.56    0.18
  -1  -7  -7    2.61    0.32
  -1  -7  -7    2.56    0.20
  -1  -7  -7    2.59    0.21
   1   7   8    0.09    0.11
   1   7   8    0.02    0.17
   1   7   8    0.08    0.09
   1   7   8    0.01    0.11
  -1  -7  -8   -0.00    0.09
  -1  -7  -8    0.03    0.11
  -1  -7  -8    0.02    0.18
  -1  -7  -8    0.05    0.11
   1   7   9    1.09    0.17
   1   7   9    0.99    0.21
   1   7   9    1.10    0.20
   1   7   9    1.06    0.20
  -1  -7  -9    1.20    0.17
  -1  -7  -9    0.97    0.32
  -1  -7  -9    1.19    0.21
  -1  -7  -9    1.10    0.20
   1   7  10    0.93    0.22
   1   7  10    0.88    0.19
   1   7  10    1.02    0.34
  -1  -7 -10    1.12    0.29
  -1  -7 -10    0.99    0.35
  -1  -7 -10    0.88    0.21
  -1  -7 -10    0.86    0.22
  -1  -7 -10    1.07    0.34
   1   7  11    1.14    0.25
   1   7  11    1.31    0.26
   1   7  11    1.11    0.22
  -1  -7 -11    1.08    0.39
  -1  -7 -11    1.84    0.26
  -1  -7 -11    1.41    0.26
  -1  -7 -11    1.25    0.25
  -1  -7 -11    1.52    0.22
   1   7  12   -0.03    0.12
   1   7  12   -0.09    0.14
   1   7  12   -0.05    0.14
  -1  -7 -12   -0.01    0.14
  -1  -7 -12   -0.00    0.14
  -1  -7 -12    0.02    0.13
  -1  -7 -12    0.03    0.14
  -1  -7 -12    0.03    0.13
   1   7  13    0.41    0.21
   1   7  13    0.15    0.29
   1   7  13    0.21    0.32
  -1  -7 -13   -0.00    0.20
  -1  -7 -13   -0.06    0.21
  -1  -7 -13    0.27    0.21
  -1  -7 -13   -0.01    0.21
  -1  -7 -13    0.31    0.18
   1   7  14   -0.06    0.27
   1   7  14   -0.05    0.16
   1   7  14   -0.41    0.28
  -1  -7 -14    0.02    0.27
  -1  -7 -14   -0.00    0.27
  -1  -7 -14    0.12    0.27
  -1  -7 -14    0.01    0.18
  -1  -7 -14    0.23    0.16
   1   7  15    0.46    0.29
   1   7  15    0.90    0.46
   1   7  15    0.49    0.41
  -1  -7 -15   -0.04    0.43
  -1  -7 -15    0.00    0.44
  -1  -7 -15   -0.00    0.45
  -1  -7 -15    0.58    0.46
  -1  -7 -15    0.63    0.26
   1   8  -9    0.09    0.12
   1   8  -9   -0.07    0.22
  -1  -8   9   -0.07    0.13
  -1  -8   9   -0.00    0.14
  -1  -8   9    0.00    0.13
  -1  -8   9   -0.03    0.21
   1   8  -8    0.17    0.19
   1   8  -8    0.01    0.33
  -1  -8   8    0.01    0.32
  -1  -8   8    0.30    0.21
  -1  -8   8    0.19    0.19
  -1  -8   8    0.00    0.21
   1   8  -7    9.89    0.55
   1   8  -7    9.56    0.66
   1   8  -7    8.95    0.52
   1   8  -7    9.89    0.56
  -1  -8   7    9.36    0.51
  -1  -8   7    9.78    0.69
   1   8  -6    0.46    0.22
   1   8  -6    0.32    0.19
   1   8  -6    0.43    0.22
   1   8  -6    0.25    0.21
  -1  -8   6    0.40    0.33
  -1  -8   6    0.27    0.33
  -1  -8   6    0.27    0.20
  -1  -8   6    0.25    0.31
   1   8  -5    8.95    0.66
   1   8  -5    8.44    0.40
   1   8  -5    7.88    0.60
  -1  -8   5    7.31    0.61
  -1  -8   5    8.17    0.61
  -1  -8   5    8.25    0.56
  -1  -8   5    7.96    0.57
   1   8  -4    0.61    0.18
   1   8  -4    0.04    0.16
   1   8  -4    0.65    0.21
  -1  -8   4    0.79    0.18
  -1  -8   4    0.57    0.30
  -1  -8   4    0.54    0.27
  -1  -8   4    0.71    0.30
  -1  -8   4    0.60    0.20
   1   8  -3   -0.03    0.08
   1   8  -3    0.04    0.09
   1   8  -3    0.00    0.12
  -1  -8   3   -0.08    0.11
  -1  -8   3    0.00    0.11
  -1  -8   3    0.05    0.10
  -1  -8   3    0.02    0.11
  -1  -8   3   -0.09    0.09
   1   8  -2   -0.00    0.15
   1   8  -2    0.10    0.10
   1   8  -2    0.14    0.21
  -1  -8   2    0.09    0.11
  -1  -8   2    0.14    0.12
  -1  -8   2    0.05    0.11
  -1  -8   2   -0.05    0.20
  -1  -8   2    0.06    0.13
   1   8  -1    0.80    0.29
   1   8  -1    1.20    0.14
   1   8  -1    1.01    0.14
  -1  -8   1    1.33    0.18
  -1  -8   1    1.00    0.15
  -1  -8   1    1.08    0.25
  -1  -8   1    0.87    0.28
  -1  -8   1    1.22    0.18
   1   8   0    0.01    0.07
   1   8   0    0.06    0.12
   1   8   0   -0.03    0.11
  -1  -8   0    0.07    0.11
  -1  -8   0    0.10    0.16
  -1  -8   0    0.02    0.13
  -1  -8   0    0.07    0.09
  -1  -8   0    0.06    0.10
   1   8   1    0.16    0.12
   1   8   1    0.11    0.12
   1   8   1    0.07    0.08
  -1  -8  -1    0.07    0.11
  -1  -8  -1    0.13    0.10
  -1  -8  -1    0.14    0.10
  -1  -8  -1    0.16    0.11
  -1  -8  -1    0.12    0.11
   1   8   2    2.73    0.22
   1   8   2    2.37    0.21
   1   8   2    2.62    0.30
   1   8   2    2.62    0.17
   1   8   2    2.66    0.16
  -1  -8  -2    2.52    0.17
  -1  -8  -2    2.56    0.21
  -1  -8  -2    2.71    0.32
   1   8   3    0.43    0.14
   1   8   3    0.51    0.13
   1   8   3    0.40    0.11
   1   8   3    0.38    0.14
  -1  -8  -3    0.32    0.17
  -1  -8  -3    0.45    0.14
  -1  -8  -3    0.43    0.14
  -1  -8  -3    0.15    0.14
   1   8   4    1.91    0.20
   1   8   4    1.83    0.13
   1   8   4    2.05    0.29
   1   8   4    1.83    0.24
  -1  -8  -4    2.06    0.29
  -1  -8  -4    1.94    0.20
  -1  -8  -4    1.80    0.20
  -1  -8  -4    1.95    0.17
   1   8   5    3.13    0.22
   1   8   5    3.31    0.23
   1   8   5    2.88    0.23
   1   8   5    3.13    0.20
  -1  -8  -5    3.15    0.23
  -1  -8  -5    3.16    0.24
  -1  -8  -5    3.07    0.20
  -1  -8  -5    3.04    0.23
   1   8   6    0.81    0.23
   1   8   6    0.78    0.17
   1   8   6    0.82    0.17
   1   8   6    0.90    0.19
  -1  -8  -6    0.83    0.12
  -1  -8  -6    0.77    0.23
  -1  -8  -6    0.82    0.17
  -1  -8  -6    0.77    0.17
   1   8   7    0.06    0.11
   1   8   7    0.01    0.18
   1   8   7    0.02    0.17
   1   8   7    0.08    0.09
  -1  -8  -7   -0.00    0.12
  -1  -8  -7    0.09    0.10
  -1  -8  -7    0.08    0.14
  -1  -8  -7   -0.05    0.19
   1   8   8    0.04    0.13
   1   8   8    0.10    0.10
   1   8   8    0.09    0.13
   1   8   8    0.13    0.19
  -1  -8  -8    0.16    0.16
  -1  -8  -8    0.11    0.13
  -1  -8  -8    0.07    0.13
  -1  -8  -8    0.04    0.13
   1   8   9    1.97    0.25
   1   8   9    2.00    0.25
   1   8   9    1.97    0.24
   1   8   9    1.81    0.20
  -1  -8  -9    1.96    0.25
  -1  -8  -9    2.01    0.30
  -1  -8  -9    2.10    0.24
  -1  -8  -9    1.89    0.25
   1   8  10   10.19    0.46
   1   8  10   10.11    0.41
   1   8  10   10.22    0.47
   1   8  10   10.68    0.48
  -1  -8 -10   10.36    0.46
  -1  -8 -10   10.26    0.41
  -1  -8 -10   10.78    0.48
  -1  -8 -10   10.49    0.48
   1   8  11    1.87    0.29
   1   8  11    2.12    0.24
   1   8  11    2.05    0.27
  -1  -8 -11    1.60    0.37
  -1  -8 -11    2.11    0.28
  -1  -8 -11    2.07    0.27
  -1  -8 -11    1.79    0.28
  -1  -8 -11    2.12    0.28
   1   8  12    1.00    0.21
   1   8  12    1.35    0.37
   1   8  12    0.01    0.24
  -1  -8 -12    0.01    0.25
  -1  -8 -12   -0.01    0.24
  -1  -8 -12    1.23    0.21
  -1  -8 -12    1.36    0.24
  -1  -8 -12    0.00    0.25
   1   8  13    0.40    0.22
   1   8  13   -0.03    0.22
   1   8  13   -0.01    0.20
  -1  -8 -13    0.54    0.19
  -1  -8 -13   -0.01    0.22
  -1  -8 -13    0.80    0.22
  -1  -8 -13    0.01    0.35
  -1  -8 -13   -0.01    0.22
   1   8  14    0.08    0.19
   1   8  14    0.08    0.31
  -1  -8 -14    0.00    0.20
  -1  -8 -14   -0.01    0.20
  -1  -8 -14   -0.11    0.31
  -1  -8 -14   -0.01    0.20
  -1  -8 -14    0.20    0.17
   1   8  15   -0.09    0.34
   1   8  15    0.42    0.24
   1   8  15   -0.00    0.22
  -1  -8 -15    0.43    0.20
  -1  -8 -15    0.00    0.24
  -1  -8 -15   -0.05    0.23
  -1  -8 -15   -0.04    0.24
  -1  -8 -15   -0.32    0.38
   1   9  -8    1.44    0.33
   1   9  -8    0.03    0.48
   1   9  -8    1.51    0.29
  -1  -9   8    1.62    0.32
  -1  -9   8    0.01    0.32
  -1  -9   8    0.01    0.48
  -1  -9   8    1.58    0.46
   1   9  -7    0.36    0.25
   1   9  -7   -0.00    0.23
   1   9  -7    0.27    0.32
  -1  -9   7    0.36    0.23
  -1  -9   7    0.00    0.23
  -1  -9   7    0.53    0.33
  -1  -9   7    0.39    0.24
   1   9  -6    7.98    0.62
   1   9  -6    7.73    0.50
   1   9  -6    8.73    0.54
  -1  -9   6    8.70    0.51
  -1  -9   6    8.80    0.53
  -1  -9   6    8.19    0.63
   1   9  -5    3.67    0.31
   1   9  -5    3.64    0.38
  -1  -9   5    3.94    0.54
  -1  -9   5    3.80    0.54
  -1  -9   5    3.58    0.36
  -1  -9   5    3.70    0.47
   1   9  -4    0.75    0.18
   1   9  -4    0.94    0.24
   1   9  -4   -0.03    0.19
  -1  -9   4    0.73    0.35
  -1  -9   4    0.63    0.35
  -1  -9   4    0.84    0.23
  -1  -9   4    0.77    0.18
  -1  -9   4    0.79    0.30
   1   9  -3   -0.01    0.12
   1   9  -3    0.09    0.12
   1   9  -3    0.17    0.26
  -1  -9   3    0.17    0.15
  -1  -9   3    0.15    0.21
  -1  -9   3    0.11    0.13
  -1  -9   3    0.27    0.25
  -1  -9   3    0.03    0.24
   1   9  -2    0.00    0.25
   1   9  -2    0.94    0.16
   1   9  -2    0.86    0.22
  -1  -9   2    0.98    0.21
  -1  -9   2    0.99    0.17
  -1  -9   2    0.72    0.22
  -1  -9   2    0.89    0.18
  -1  -9   2    1.08    0.21
   1   9  -1   12.19    0.40
   1   9  -1   12.39    0.48
   1   9  -1   12.26    0.39
  -1  -9   1   12.79    0.47
  -1  -9   1   12.56    0.47
  -1  -9   1   12.40    0.48
  -1  -9   1   12.67    0.42
  -1  -9   1   12.14    0.42
   1   9   0    0.74    0.13
   1   9   0    0.69    0.14
   1   9   0    0.60    0.19
  -1  -9   0    0.78    0.18
  -1  -9   0    0.67    0.18
  -1  -9   0    0.70    0.14
  -1  -9   0    0.81    0.16
  -1  -9   0    0.60    0.19
   1   9   1    0.30    0.11
   1   9   1    0.34    0.16
   1   9   1    0.35    0.18
  -1  -9  -1    0.27    0.19
  -1  -9  -1    0.34    0.15
  -1  -9  -1    0.32    0.24
  -1  -9  -1    0.35    0.13
  -1  -9  -1    0.47    0.23
   1   9   2    4.79    0.29
   1   9   2    4.99    0.28
   1   9   2    4.92    0.30
   1   9   2    4.75    0.31
  -1  -9  -2    5.19    0.29
  -1  -9  -2    4.83    0.29
  -1  -9  -2    4.80    0.25
  -1  -9  -2    4.72    0.23
   1   9   3    1.48    0.21
   1   9   3    1.90    0.21
   1   9   3    1.72    0.21
   1   9   3    1.74    0.17
  -1  -9  -3    1.72    0.25
  -1  -9  -3    1.68    0.32
  -1  -9  -3    1.58    0.21
  -1  -9  -3    1.55    0.21
   1   9   4   -0.01    0.14
   1   9   4   -0.07    0.07
   1   9   4    0.02    0.16
   1   9   4    0.07    0.11
  -1  -9  -4   -0.06    0.17
  -1  -9  -4   -0.03    0.07
  -1  -9  -4    0.01    0.11
  -1  -9  -4   -0.04    0.09
   1   9   5   -0.02    0.11
   1   9   5    0.03    0.11
   1   9   5   -0.02    0.09
   1   9   5    0.08    0.08
  -1  -9  -5    0.07    0.11
  -1  -9  -5    0.03    0.08
  -1  -9  -5    0.02    0.11
  -1  -9  -5    0.08    0.15
   1   9   6    1.80    0.20
   1   9   6    1.95    0.21
   1   9   6    1.91    0.22
   1   9   6    1.63    0.24
  -1  -9  -6    1.78    0.25
  -1  -9  -6    1.81    0.22
  -1  -9  -6    1.79    0.18
  -1  -9  -6    1.77    0.22
   1   9   7    0.31    0.17
   1   9   7    0.33    0.17
   1   9   7    0.36    0.12
   1   9   7    0.35    0.14
  -1  -9  -7    0.34    0.16
  -1  -9  -7    0.38    0.12
  -1  -9  -7    0.31    0.14
  -1  -9  -7    0.34    0.17
   1   9   8    0.12    0.15
   1   9   8    0.15    0.15
   1   9   8    0.05    0.11
   1   9   8    0.13    0.13
  -1  -9  -8    0.18    0.11
  -1  -9  -8    0.19    0.21
  -1  -9  -8    0.04    0.15
  -1  -9  -8    0.08    0.15
   1   9   9    0.14    0.19
   1   9   9    0.13    0.14
   1   9   9    0.16    0.24
   1   9   9    0.12    0.25
  -1  -9  -9    0.02    0.12
  -1  -9  -9    0.14    0.15
  -1  -9  -9    0.16    0.25
  -1  -9  -9    0.10    0.23
   1   9  10    0.04    0.14
   1   9  10    0.07    0.18
   1   9  10   -0.09    0.23
   1   9  10    0.08    0.15
  -1  -9 -10    0.06    0.15
  -1  -9 -10    0.04    0.24
  -1  -9 -10   -0.00    0.22
  -1  -9 -10    0.04    0.13
   1   9  11    0.19    0.16
   1   9  11    0.03    0.17
   1   9  11   -0.00    0.17
   1   9  11    0.19    0.22
  -1  -9 -11    0.10    0.15
  -1  -9 -11    0.00    0.27
  -1  -9 -11    0.03    0.17
  -1  -9 -11    0.01    0.25
   1   9  12    0.02    0.19
   1   9  12    0.00    0.29
   1   9  12   -0.02    0.15
  -1  -9 -12    0.16    0.17
  -1  -9 -12    0.53    0.19
  -1  -9 -12   -0.01    0.29
  -1  -9 -12    0.01    0.28
  -1  -9 -12   -0.01    0.30
   1   9  13    0.02    0.14
   1   9  13    0.01    0.28
   1   9  13    0.16    0.17
  -1  -9 -13   -0.04    0.16
  -1  -9 -13    0.05    0.18
  -1  -9 -13    0.00    0.17
  -1  -9 -13   -0.00    0.18
  -1  -9 -13    0.03    0.28
   1   9  14    0.01    0.32
   1   9  14   -0.01    0.18
   1   9  14   -0.04    0.20
  -1  -9 -14    0.26    0.19
  -1  -9 -14    0.00    0.20
  -1  -9 -14   -0.00    0.21
  -1  -9 -14   -0.01    0.22
  -1  -9 -14    0.46    0.31
   1  10  -7    1.45    0.28
   1  10  -7   -0.03    0.29
   1  10  -7    0.01    0.27
  -1 -10   7    1.57    0.28
  -1 -10   7    0.08    0.31
  -1 -10   7    1.50    0.33
  -1 -10   7    1.52    0.33
   1  10  -6    0.21    0.32
   1  10  -6    0.35    0.26
   1  10  -6    0.00    0.20
  -1 -10   6    0.26    0.23
  -1 -10   6    0.42    0.37
  -1 -10   6    0.50    0.21
  -1 -10   6    0.24    0.25
  -1 -10   6    0.36    0.20
   1  10  -5    0.28    0.20
   1  10  -5    0.42    0.24
   1  10  -5    0.00    0.28
  -1 -10   5    0.46    0.37
  -1 -10   5    0.25    0.37
  -1 -10   5    0.24    0.28
  -1 -10   5    0.25    0.19
  -1 -10   5    0.29    0.24
   1  10  -4    3.39    0.56
   1  10  -4    3.39    0.29
   1  10  -4    3.26    0.30
  -1 -10   4    0.14    0.54
  -1 -10   4    3.44    0.30
  -1 -10   4    3.39    0.54
  -1 -10   4    3.30    0.54
  -1 -10   4    3.17    0.30
   1  10  -3    0.01    0.14
   1  10  -3    0.26    0.19
   1  10  -3    0.20    0.14
  -1 -10   3    0.15    0.28
  -1 -10   3    0.12    0.22
  -1 -10   3    0.09    0.28
  -1 -10   3    0.14    0.18
  -1 -10   3    0.11    0.15
   1  10  -2    1.80    0.21
   1  10  -2    0.06    0.32
   1  10  -2    1.87    0.27
  -1 -10   2    1.35    0.33
  -1 -10   2    1.80    0.40
  -1 -10   2    2.10    0.32
  -1 -10   2    1.86    0.26
  -1 -10   2    1.94    0.40
   1  10  -1    1.03    0.40
   1  10  -1    0.30    0.27
   1  10  -1   -0.00    0.29
  -1 -10   1    0.53    0.38
  -1 -10   1    1.69    0.24
  -1 -10   1    1.55    0.20
  -1 -10   1    2.01    0.29
  -1 -10   1    1.85    0.24
   1  10   0    5.35    0.27
   1  10   0    6.06    0.55
   1  10   0    5.71    0.28
  -1 -10   0    6.22    0.36
  -1 -10   0    5.55    0.41
  -1 -10   0    5.97    0.53
  -1 -10   0    5.80    0.31
  -1 -10   0    5.86    0.36
   1  10   1    7.09    0.56
   1  10   1    6.16    0.28
   1  10   1    6.40    0.29
  -1 -10  -1    7.48    0.54
  -1 -10  -1    6.84    0.37
  -1 -10  -1    6.61    0.36
  -1 -10  -1    6.43    0.29
  -1 -10  -1    6.52    0.44
   1  10   2    3.84    0.22
   1  10   2    4.56    0.47
   1  10   2    3.93    0.31
  -1 -10  -2    4.01    0.29
  -1 -10  -2    3.89    0.23
  -1 -10  -2    3.94    0.45
  -1 -10  -2    4.11    0.25
  -1 -10  -2    3.99    0.29
   1  10   3    0.47    0.27
   1  10   3    0.36    0.13
   1  10   3    0.40    0.28
   1  10   3    0.31    0.13
   1  10   3    0.39    0.12
  -1 -10  -3    0.30    0.27
  -1 -10  -3    0.36    0.20
  -1 -10  -3    0.35    0.28
   1  10   4    1.52    0.23
   1  10   4    1.73    0.18
   1  10   4    1.54    0.16
   1  10   4    1.67    0.24
  -1 -10  -4    1.90    0.18
  -1 -10  -4    1.71    0.24
  -1 -10  -4    1.48    0.17
  -1 -10  -4    1.72    0.23
   1  10   5    4.27    0.25
   1  10   5    4.54    0.30
   1  10   5    4.48    0.32
   1  10   5    4.13    0.31
  -1 -10  -5    4.31    0.31
  -1 -10  -5    4.23    0.36
  -1 -10  -5    4.34    0.33
  -1 -10  -5    4.34    0.31
   1  10   6    0.27    0.14
   1  10   6    0.38    0.18
   1  10   6    0.40    0.12
   1  10   6    0.32    0.18
  -1 -10  -6    0.44    0.13
  -1 -10  -6    0.39    0.14
  -1 -10  -6    0.43    0.18
  -1 -10  -6    0.34    0.18
   1  10   7    2.57    0.28
   1  10   7    2.68    0.24
   1  10   7    3.03    0.42
   1  10   7    2.72    0.31
  -1 -10  -7    2.96    0.43
  -1 -10  -7    2.74    0.23
  -1 -10  -7    2.93    0.32
  -1 -10  -7    3.03    0.28
   1  10   8    1.99    0.27
   1  10   8    2.09    0.30
   1  10   8    2.15    0.23
   1  10   8    2.00    0.26
  -1 -10  -8    1.70    0.40
  -1 -10  -8    1.91    0.27
  -1 -10  -8    2.07    0.31
  -1 -10  -8    1.84    0.22
   1  10   9    0.30    0.30
   1  10   9    0.34    0.15
   1  10   9    0.26    0.19
   1  10   9    0.30    0.17
  -1 -10  -9    0.46    0.24
  -1 -10  -9    0.34    0.19
  -1 -10  -9    0.35    0.31
  -1 -10  -9    0.25    0.17
   1  10  10    1.41    0.27
   1  10  10    1.64    0.26
   1  10  10    1.59    0.21
   1  10  10    1.72    0.26
  -1 -10 -10    1.17    0.24
  -1 -10 -10    1.40    0.34
  -1 -10 -10   -0.00    0.28
  -1 -10 -10    1.34    0.27
   1  10  11    0.10    0.18
   1  10  11    0.00    0.20
   1  10  11    0.31    0.16
   1  10  11    0.27    0.20
  -1 -10 -11    0.01    0.18
  -1 -10 -11    0.23    0.17
  -1 -10 -11    0.40    0.21
  -1 -10 -11   -0.00    0.20
   1  10  12    0.01    0.15
   1  10  12    0.02    0.19
   1  10  12    0.32    0.27
  -1 -10 -12    0.02    0.18
  -1 -10 -12    0.01    0.18
  -1 -10 -12    0.36    0.19
  -1 -10 -12    0.11    0.26
  -1 -10 -12    0.00    0.19
   1  10  13   -0.01    0.27
   1  10  13    0.37    0.20
   1  10  13   -0.01    0.33
  -1 -10 -13    0.03    0.21
  -1 -10 -13    0.11    0.19
  -1 -10 -13   -0.03    0.21
  -1 -10 -13    0.00    0.22
  -1 -10 -13    0.64    0.35
   1  10  14   -0.01    0.18
   1  10  14    0.44    0.21
   1  10  14   -0.01    0.21
  -1 -10 -14    0.00    0.35
  -1 -10 -14   -0.00    0.36
  -1 -10 -14   -0.03    0.34
  -1 -10 -14    0.04    0.23
  -1 -10 -14    0.10    0.20
   1  11  -6   -0.08    0.28
   1  11  -6    0.01    0.17
   1  11  -6    0.15    0.36
  -1 -11   6    0.26    0.18
  -1 -11   6   -0.33    0.30
  -1 -11   6   -0.01    0.35
  -1 -11   6   -0.01    0.33
  -1 -11   6    0.10    0.17
   1  11  -5   -0.00    0.21
   1  11  -5    0.00    0.24
   1  11  -5    0.02    0.17
  -1 -11   5   -0.08    0.29
  -1 -11   5    0.27    0.16
  -1 -11   5   -0.07    0.20
  -1 -11   5   -0.01    0.15
  -1 -11   5    0.15    0.30
   1  11  -4    0.01    0.14
   1  11  -4    0.00    0.13
   1  11  -4   -0.06    0.18
  -1 -11   4    0.13    0.26
  -1 -11   4   -0.03    0.26
  -1 -11   4    0.05    0.13
  -1 -11   4    0.03    0.18
  -1 -11   4    0.07    0.14
   1  11  -3    0.52    0.27
   1  11  -3    0.56    0.23
   1  11  -3    0.06    0.18
  -1 -11   3    0.53    0.35
  -1 -11   3    0.45    0.23
  -1 -11   3    0.49    0.27
  -1 -11   3   -0.01    0.36
  -1 -11   3    0.48    0.19
   1  11  -2    0.64    0.18
   1  11  -2   -0.00    0.18
   1  11  -2    0.64    0.23
  -1 -11   2    0.69    0.35
  -1 -11   2    0.55    0.18
  -1 -11   2    0.54    0.17
  -1 -11   2    0.08    0.35
  -1 -11   2    0.76    0.23
   1  11  -1    0.91    0.18
   1  11  -1    0.05    0.18
   1  11  -1    0.72    0.25
  -1 -11   1    0.85    0.17
  -1 -11   1    0.98    0.24
  -1 -11   1    0.75    0.19
  -1 -11   1    1.01    0.36
  -1 -11   1    0.87    0.36
   1  11   0    0.42    0.15
   1  11   0    0.01    0.23
   1  11   0    0.48    0.21
  -1 -11   0    0.36    0.15
  -1 -11   0    0.53    0.20
  -1 -11   0    0.31    0.31
  -1 -11   0    0.46    0.32
   1  11   1    0.10    0.18
   1  11   1    0.08    0.18
   1  11   1    0.15    0.17
  -1 -11  -1    0.05    0.12
  -1 -11  -1    0.08    0.13
  -1 -11  -1    0.01    0.16
  -1 -11  -1    0.16    0.25
  -1 -11  -1    0.15    0.16
   1  11   2    0.06    0.11
   1  11   2   -0.02    0.24
   1  11   2    0.05    0.10
  -1 -11  -2    0.04    0.14
  -1 -11  -2   -0.00    0.16
  -1 -11  -2    0.09    0.12
  -1 -11  -2    0.06    0.15
   1  11   3   -0.05    0.09
   1  11   3   -0.01    0.13
   1  11   3    0.01    0.15
   1  11   3   -0.06    0.15
  -1 -11  -3    0.10    0.11
  -1 -11  -3    0.12    0.10
  -1 -11  -3    0.09    0.14
   1  11   4    2.78    0.29
   1  11   4    2.54    0.30
   1  11   4    2.43    0.21
   1  11   4    2.47    0.29
  -1 -11  -4    2.64    0.29
  -1 -11  -4    2.65    0.22
  -1 -11  -4    2.45    0.20
  -1 -11  -4    2.45    0.30
   1  11   5    1.97    0.19
   1  11   5    2.07    0.33
   1  11   5    2.03    0.27
   1  11   5    2.06    0.27
  -1 -11  -5    1.92    0.32
  -1 -11  -5    2.34    0.28
  -1 -11  -5    1.90    0.28
  -1 -11  -5    1.98    0.27
   1  11   6    0.49    0.22
   1  11   6    0.51    0.17
   1  11   6    0.52    0.19
   1  11   6    0.39    0.20
  -1 -11  -6    0.49    0.15
  -1 -11  -6    0.35    0.21
  -1 -11  -6    0.38    0.20
  -1 -11  -6    0.47    0.15
   1  11   7    1.82    0.27
   1  11   7    1.94    0.22
   1  11   7    1.74    0.27
   1  11   7    1.71    0.20
  -1 -11  -7    1.49    0.28
  -1 -11  -7    1.83    0.22
  -1 -11  -7    1.89    0.28
  -1 -11  -7    1.93    0.20
   1  11   8   -0.03    0.12
   1  11   8    0.02    0.12
   1  11   8    0.04    0.09
   1  11   8   -0.03    0.10
  -1 -11  -8    0.01    0.10
  -1 -11  -8    0.06    0.09
  -1 -11  -8   -0.02    0.12
  -1 -11  -8   -0.07    0.13
   1  11   9    0.00    0.35
   1  11   9    0.42    0.22
   1  11   9    0.45    0.17
   1  11   9    0.37    0.19
  -1 -11  -9    0.52    0.17
  -1 -11  -9    0.44    0.22
  -1 -11  -9    0.35    0.19
  -1 -11  -9    0.52    0.36
   1  11  10    2.30    0.45
   1  11  10    2.54    0.26
   1  11  10    2.66    0.33
   1  11  10    2.78    0.34
  -1 -11 -10    2.61    0.33
  -1 -11 -10    2.45    0.28
  -1 -11 -10    2.47    0.30
  -1 -11 -10    3.05    0.36
   1  11  11    2.94    0.31
   1  11  11    3.00    0.29
   1  11  11    2.80    0.37
   1  11  11    3.14    0.36
  -1 -11 -11    3.11    0.38
  -1 -11 -11    2.95    0.30
  -1 -11 -11    2.76    0.33
  -1 -11 -11    2.95    0.38
   1  11  12   -0.00    0.27
   1  11  12    0.03    0.25
   1  11  12    1.07    0.27
   1  11  12    1.25    0.22
  -1 -11 -12    0.06    0.25
  -1 -11 -12    1.04    0.36
  -1 -11 -12    0.02    0.29
  -1 -11 -12    1.10    0.28
   1  11  13   -0.01    0.18
   1  11  13   -0.00    0.34
   1  11  13   -0.03    0.20
  -1 -11 -13    0.31    0.35
  -1 -11 -13    0.01    0.31
  -1 -11 -13   -0.01    0.23
  -1 -11 -13    0.47    0.19
  -1 -11 -13    0.03    0.21
   1  12  -5    0.00    0.17
   1  12  -5   -0.09    0.18
   1  12  -5   -0.02    0.35
  -1 -12   5    0.15    0.17
  -1 -12   5    0.12    0.29
  -1 -12   5    0.23    0.34
  -1 -12   5   -0.16    0.29
  -1 -12   5    0.19    0.26
   1  12  -4   -0.00    0.22
   1  12  -4   -0.01    0.26
   1  12  -4    0.07    0.17
  -1 -12   4    0.21    0.20
  -1 -12   4    0.12    0.21
  -1 -12   4   -0.05    0.26
  -1 -12   4    0.05    0.25
  -1 -12   4    0.10    0.20
   1  12  -3   -0.01    0.13
   1  12  -3   -0.01    0.13
   1  12  -3   -0.06    0.17
  -1 -12   3    0.05    0.16
  -1 -12   3   -0.14    0.16
  -1 -12   3   -0.05    0.12
  -1 -12   3    0.11    0.16
  -1 -12   3    0.02    0.20
   1  12  -2   -0.08    0.15
   1  12  -2    0.01    0.11
   1  12  -2   -0.02    0.11
  -1 -12   2    0.05    0.18
  -1 -12   2   -0.02    0.10
  -1 -12   2    0.06    0.14
  -1 -12   2    0.10    0.14
  -1 -12   2   -0.01    0.14
   1  12  -1   -0.01    0.18
   1  12  -1    0.62    0.17
   1  12  -1    0.72    0.37
  -1 -12   1    0.58    0.18
  -1 -12   1    0.01    0.23
  -1 -12   1    0.46    0.17
  -1 -12   1    0.70    0.36
  -1 -12   1   -0.00    0.23
   1  12   0    0.03    0.10
   1  12   0    0.02    0.10
   1  12   0   -0.06    0.13
  -1 -12   0    0.02    0.10
  -1 -12   0    0.00    0.13
  -1 -12   0   -0.13    0.13
  -1 -12   0    0.07    0.15
  -1 -12   0    0.04    0.13
   1  12   1    0.55    0.16
   1  12   1    0.62    0.17
   1  12   1    0.83    0.24
  -1 -12  -1    0.71    0.16
  -1 -12  -1    0.03    0.22
  -1 -12  -1    0.00    0.24
  -1 -12  -1    0.54    0.17
  -1 -12  -1    0.08    0.23
   1  12   2    3.92    0.27
   1  12   2    3.93    0.38
   1  12   2    3.94    0.40
  -1 -12  -2    4.00    0.36
  -1 -12  -2    3.78    0.35
  -1 -12  -2    4.08    0.37
  -1 -12  -2    3.71    0.27
  -1 -12  -2    3.90    0.42
   1  12   3    0.13    0.13
   1  12   3    0.01    0.19
   1  12   3    0.17    0.13
  -1 -12  -3    0.20    0.13
  -1 -12  -3    0.32    0.18
  -1 -12  -3   -0.01    0.19
  -1 -12  -3    0.15    0.14
  -1 -12  -3    0.14    0.18
   1  12   4    3.98    0.38
   1  12   4    4.42    0.35
   1  12   4    4.21    0.37
   1  12   4    4.06    0.29
  -1 -12  -4    4.24    0.36
  -1 -12  -4    4.38    0.28
  -1 -12  -4    4.37    0.37
  -1 -12  -4    4.01    0.29
   1  12   5    0.33    0.24
   1  12   5   -0.00    0.20
   1  12   5    0.39    0.20
   1  12   5    0.36    0.13
  -1 -12  -5    0.37    0.23
  -1 -12  -5    0.27    0.22
  -1 -12  -5    0.05    0.20
  -1 -12  -5    0.39    0.21
   1  12   6    0.78    0.19
   1  12   6    1.02    0.25
   1  12   6    0.94    0.24
   1  12   6    0.75    0.17
  -1 -12  -6    0.76    0.28
  -1 -12  -6    1.04    0.25
  -1 -12  -6    0.89    0.17
  -1 -12  -6    0.74    0.25
   1  12   7   -0.06    0.12
   1  12   7    0.11    0.14
   1  12   7    0.03    0.14
   1  12   7   -0.02    0.16
  -1 -12  -7    0.06    0.11
  -1 -12  -7    0.08    0.15
  -1 -12  -7    0.02    0.11
  -1 -12  -7   -0.07    0.14
   1  12   8    1.87    0.30
   1  12   8    1.70    0.24
   1  12   8    1.74    0.30
   1  12   8    1.59    0.33
  -1 -12  -8    2.25    0.31
  -1 -12  -8    1.80    0.23
  -1 -12  -8    1.71    0.23
  -1 -12  -8    1.98    0.32
   1  12   9    4.30    0.35
   1  12   9    4.26    0.41
   1  12   9    4.45    0.31
   1  12   9    4.57    0.59
  -1 -12  -9    4.62    0.41
  -1 -12  -9    4.36    0.34
  -1 -12  -9    4.44    0.33
  -1 -12  -9    4.37    0.60
   1  12  10    0.44    0.34
   1  12  10    0.48    0.19
   1  12  10    0.38    0.25
   1  12  10    0.58    0.25
  -1 -12 -10    0.45    0.25
  -1 -12 -10    0.76    0.25
  -1 -12 -10   -0.00    0.21
  -1 -12 -10    0.56    0.20
   1  12  11    5.60    0.48
   1  12  11    5.01    0.46
   1  12  11    5.38    0.42
   1  12  11    5.15    0.37
  -1 -12 -11    5.11    0.48
  -1 -12 -11    5.18    0.40
  -1 -12 -11    5.40    0.56
  -1 -12 -11    5.17    0.48
   1  12  12   -0.01    0.17
   1  12  12    0.03    0.14
   1  12  12    0.06    0.16
   1  12  12   -0.09    0.20
  -1 -12 -12    0.01    0.21
  -1 -12 -12   -0.01    0.17
  -1 -12 -12   -0.05    0.13
  -1 -12 -12   -0.00    0.16
   1  12  13    0.00    0.29
   1  12  13    0.12    0.21
   1  12  13    0.00    0.22
  -1 -12 -13   -0.03    0.35
  -1 -12 -13    0.26    0.20
  -1 -12 -13   -0.00    0.37
  -1 -12 -13    0.22    0.25
   1  13  -3    0.01    0.12
   1  13  -3    0.06    0.19
   1  13  -3   -0.01    0.16
  -1 -13   3    0.04    0.14
  -1 -13   3    0.00    0.13
  -1 -13   3   -0.30    0.15
  -1 -13   3    0.00    0.11
  -1 -13   3    0.16    0.14
   1  13  -2   -0.00    0.23
   1  13  -2   -0.02    0.24
   1  13  -2    0.23    0.20
  -1 -13   2    0.18    0.19
  -1 -13   2    0.04    0.22
  -1 -13   2    0.00    0.19
  -1 -13   2   -0.14    0.19
  -1 -13   2    0.03    0.15
   1  13  -1   -0.03    0.23
   1  13  -1   -0.01    0.22
   1  13  -1    0.09    0.20
  -1 -13   1    0.11    0.15
  -1 -13   1   -0.02    0.19
  -1 -13   1    0.11    0.19
  -1 -13   1    0.05    0.22
  -1 -13   1    0.02    0.19
   1  13   0    0.27    0.15
   1  13   0    0.00    0.24
   1  13   0    0.34    0.34
  -1 -13   0    0.02    0.20
  -1 -13   0   -0.03    0.33
  -1 -13   0    0.11    0.14
  -1 -13   0    0.01    0.20
  -1 -13   0    0.12    0.16
   1  13   1    0.09    0.22
   1  13   1    0.06    0.13
   1  13   1    0.18    0.19
  -1 -13  -1   -0.00    0.18
  -1 -13  -1    0.00    0.19
  -1 -13  -1    0.01    0.19
  -1 -13  -1    0.10    0.13
   1  13   2    0.04    0.13
   1  13   2    0.12    0.19
   1  13   2    0.07    0.14
  -1 -13  -2    0.10    0.13
  -1 -13  -2   -0.01    0.18
  -1 -13  -2   -0.01    0.19
  -1 -13  -2    0.19    0.22
  -1 -13  -2    0.13    0.19
   1  13   3    0.02    0.28
   1  13   3    1.21    0.21
   1  13   3    0.78    0.30
  -1 -13  -3    0.82    0.19
  -1 -13  -3    0.03    0.28
  -1 -13  -3    1.10    0.21
   1  13   4    2.58    0.26
   1  13   4    2.61    0.37
   1  13   4    3.07    0.36
  -1 -13  -4    2.44    0.36
  -1 -13  -4    2.71    0.38
  -1 -13  -4    2.70    0.27
   1  13   5   -0.00    0.14
   1  13   5   -0.03    0.11
   1  13   5   -0.01    0.10
  -1 -13  -5    0.06    0.16
  -1 -13  -5   -0.02    0.14
  -1 -13  -5    0.06    0.11
   1  13   6    0.50    0.19
   1  13   6    0.00    0.25
   1  13   6    0.50    0.17
  -1 -13  -6    0.47    0.17
  -1 -13  -6    0.72    0.25
  -1 -13  -6    0.55    0.17
   1  13   7    0.02    0.12
   1  13   7   -0.09    0.09
   1  13   7    0.00    0.12
   1  13   7    0.04    0.08
  -1 -13  -7    0.09    0.09
  -1 -13  -7   -0.00    0.12
  -1 -13  -7   -0.01    0.09
  -1 -13  -7   -0.12    0.12
   1  13   8    0.35    0.18
   1  13   8    0.24    0.21
   1  13   8    0.11    0.24
   1  13   8    0.33    0.34
  -1 -13  -8    0.17    0.22
  -1 -13  -8    0.28    0.35
  -1 -13  -8    0.17    0.17
  -1 -13  -8    0.14    0.16
   1  13   9    0.51    0.26
   1  13   9    0.42    0.40
   1  13   9    0.57    0.28
   1  13   9    0.42    0.20
  -1 -13  -9    0.04    0.20
  -1 -13  -9    0.63    0.41
  -1 -13  -9    0.55    0.27
  -1 -13  -9    0.52    0.20
   1  13  10    5.86    0.70
   1  13  10    4.91    0.66
   1  13  10    5.79    0.61
   1  13  10    5.31    0.53
  -1 -13 -10    5.00    0.39
  -1 -13 -10    5.55    0.70
  -1 -13 -10    5.50    0.74
  -1 -13 -10    5.23    0.38
   1  13  11    0.03    0.25
   1  13  11    0.21    0.34
   1  13  11    0.17    0.22
   1  13  11    0.10    0.19
  -1 -13 -11    0.01    0.27
  -1 -13 -11    0.03    0.28
  -1 -13 -11    0.05    0.34
  -1 -13 -11    0.08    0.22
   1  13  12    2.49    0.35
   1  13  12    2.09    0.55
   1  13  12    2.09    0.56
   1  13  12    2.30    0.30
  -1 -13 -12    2.49    0.33
  -1 -13 -12    0.03    0.49
  -1 -13 -12    2.61    0.63
  -1 -13 -12   -0.01    0.39
   1  14  -1    0.10    0.42
   1  14  -1   -0.00    0.19
   1  14  -1    0.42    0.21
  -1 -14   1    0.16    0.17
  -1 -14   1    0.39    0.36
  -1 -14   1    0.59    0.38
  -1 -14   1    0.16    0.31
  -1 -14   1   -0.12    0.39
   1  14   0    0.08    0.16
   1  14   0   -0.00    0.14
   1  14   0   -0.04    0.21
  -1 -14   0   -0.05    0.19
  -1 -14   0   -0.00    0.19
  -1 -14   0   -0.12    0.30
  -1 -14   0    0.12    0.13
  -1 -14   0    0.06    0.24
   1  14   1   -0.02    0.30
   1  14   1    0.00    0.20
   1  14   1    0.04    0.15
  -1 -14  -1   -0.14    0.12
  -1 -14  -1    0.03    0.14
  -1 -14  -1    0.00    0.18
  -1 -14  -1   -0.01    0.18
  -1 -14  -1    0.00    0.29
   1  14   2    0.00    0.22
   1  14   2    0.19    0.21
   1  14   2    0.16    0.16
  -1 -14  -2    0.01    0.20
  -1 -14  -2    0.05    0.22
  -1 -14  -2   -0.00    0.21
  -1 -14  -2    0.08    0.16
  -1 -14  -2    0.03    0.20
   1  14   3    0.28    0.24
   1  14   3    0.22    0.17
   1  14   3    0.01    0.23
  -1 -14  -3   -0.02    0.23
  -1 -14  -3    0.29    0.22
  -1 -14  -3    0.14    0.24
  -1 -14  -3    0.04    0.23
  -1 -14  -3    0.26    0.18
   1  14   4    0.01    0.11
   1  14   4    0.02    0.16
   1  14   4   -0.04    0.19
  -1 -14  -4    0.01    0.15
  -1 -14  -4   -0.11    0.15
  -1 -14  -4   -0.00    0.10
  -1 -14  -4    0.02    0.12
  -1 -14  -4    0.01    0.16
   1  14   5    0.00    0.15
   1  14   5    0.01    0.15
   1  14   5    0.05    0.10
  -1 -14  -5   -0.08    0.10
  -1 -14  -5   -0.04    0.18
  -1 -14  -5    0.11    0.15
   1  14   6    0.07    0.13
   1  14   6   -0.01    0.18
   1  14   6    0.06    0.12
  -1 -14  -6    0.03    0.12
  -1 -14  -6    0.02    0.12
  -1 -14  -6   -0.04    0.14
   1  14   7    0.04    0.15
   1  14   7    0.00    0.32
   1  14   7    0.18    0.14
  -1 -14  -7    0.05    0.15
  -1 -14  -7    0.06    0.14
   1  14   8    0.14    0.15
   1  14   8    0.00    0.19
   1  14   8   -0.01    0.31
   1  14   8    0.07    0.14
  -1 -14  -8    0.12    0.14
  -1 -14  -8    0.05    0.31
  -1 -14  -8   -0.06    0.14
  -1 -14  -8   -0.01    0.20
   1  14   9    0.40    0.20
   1  14   9    0.01    0.25
   1  14   9    0.40    0.40
   1  14   9    0.24    0.18
  -1 -14  -9    0.02    0.19
  -1 -14  -9    0.60    0.39
  -1 -14  -9    0.31    0.20
  -1 -14  -9    0.35    0.25
   1  14  10    0.06    0.29
   1  14  10    0.13    0.17
   1  14  10   -0.06    0.22
   1  14  10    0.15    0.33
  -1 -14 -10    0.31    0.27
  -1 -14 -10   -0.03    0.27
  -1 -14 -10    0.19    0.37
  -1 -14 -10    0.06    0.23
   1  15   2    0.24    0.28
   1  15   2    0.01    0.24
   1  15   2   -0.00    0.16
  -1 -15  -2    0.05    0.15
  -1 -15  -2    0.05    0.32
  -1 -15  -2    0.18    0.17
  -1 -15  -2    0.01    0.35
  -1 -15  -2    0.06    0.21
   1  15   3    0.00    0.19
   1  15   3    0.02    0.27
  -1 -15  -3    0.00    0.38
  -1 -15  -3    0.05    0.27
  -1 -15  -3    0.82    0.18
  -1 -15  -3    0.02    0.21
   1  15   4    0.01    0.28
   1  15   4    0.49    0.19
  -1 -15  -4   -0.02    0.28
  -1 -15  -4    0.02    0.29
  -1 -15  -4    0.02    0.33
  -1 -15  -4    0.57    0.18
   1  15   5    0.01    0.21
   1  15   5   -0.02    0.14
  -1 -15  -5    0.03    0.21
  -1 -15  -5   -0.03    0.21
  -1 -15  -5    0.09    0.14
  -1 -15  -5   -0.00    0.25
  -1 -15  -5    0.26    0.21
   1  15   6   -0.00    0.17
   1  15   6   -0.00    0.17
   1  15   6    0.00    0.12
  -1 -15  -6    0.01    0.11
  -1 -15  -6    0.15    0.21
  -1 -15  -6   -0.08    0.18
   1  15   7   -0.02    0.31
   1  15   7   -0.00    0.15
   1  15   7    0.06    0.13
  -1 -15  -7    0.15    0.15
  -1 -15  -7    0.09    0.14
  -1 -15  -7   -0.09    0.17
  -1 -15  -7   -0.06    0.21
   1  15   8   -0.12    0.12
   1  15   8   -0.05    0.25
   1  15   8    0.08    0.11
  -1 -15  -8   -0.00    0.25
  -1 -15  -8   -0.04    0.12
  -1 -15  -8    0.45    0.26
  -1 -15  -8   -0.00    0.11
   2 -14  -9   -0.07    0.24
   2 -14  -9    0.02    0.24
   2 -14  -9   -0.01    0.17
  -2  14   9   -0.05    0.17
  -2  14   9    0.17    0.23
  -2  14   9   -0.00    0.24
   2 -14  -8   -0.05    0.17
   2 -14  -8   -0.01    0.18
   2 -14  -8   -0.12    0.28
  -2  14   8    0.15    0.17
  -2  14   8   -0.00    0.18
  -2  14   8    0.09    0.18
   2 -14  -7    1.00    0.25
   2 -14  -7    0.08    0.27
   2 -14  -7    0.63    0.26
  -2  14   7    0.63    0.26
  -2  14   7   -0.00    0.26
   2 -14  -6    0.27    0.20
   2 -14  -6    0.19    0.20
  -2  14   6    0.03    0.21
  -2  14   6   -0.00    0.21
   2 -14  -5    0.20    0.19
   2 -14  -5    0.13    0.19
  -2  14   5   -0.04    0.20
   2 -14  -4    0.00    0.14
  -2  14   4    0.02    0.16
   2 -14  -3    0.00    0.16
   2 -14  -3    0.26    0.25
  -2  14   3    0.01    0.17
  -2  14   3   -0.04    0.20
  -2  14   3   -0.01    0.17
   2 -14  -2   -0.09    0.29
   2 -14  -2   -0.00    0.29
   2 -14  -2    0.39    0.30
  -2  14   2    0.14    0.23
  -2  14   2   -0.00    0.22
  -2  14   2    0.02    0.32
   2 -14  -1    0.00    0.28
   2 -14  -1    0.10    0.29
   2 -14  -1    0.24    0.28
  -2  14   1    0.05    0.35
  -2  14   1   -0.01    0.21
  -2  14   1   -0.01    0.20
   2 -13 -11   -0.02    0.11
   2 -13 -11   -0.02    0.20
   2 -13 -11    0.02    0.31
  -2  13  11   -0.00    0.30
  -2  13  11    0.28    0.18
  -2  13  11   -0.06    0.19
   2 -13 -10    0.01    0.15
   2 -13 -10   -0.02    0.19
   2 -13 -10    0.01    0.19
   2 -13 -10   -0.00    0.18
  -2  13  10    0.00    0.18
  -2  13  10    0.10    0.19
  -2  13  10    0.16    0.18
   2 -13  -9   -0.01    0.29
   2 -13  -9   -0.03    0.30
   2 -13  -9   -0.16    0.18
  -2  13   9   -0.06    0.19
  -2  13   9   -0.03    0.27
  -2  13   9   -0.00    0.18
   2 -13  -8    0.01    0.18
   2 -13  -8   -0.01    0.20
   2 -13  -8    0.26    0.18
  -2  13   8    0.18    0.17
  -2  13   8   -0.04    0.20
  -2  13   8    0.00    0.19
   2 -13  -7    0.16    0.17
   2 -13  -7    0.04    0.19
   2 -13  -7   -0.01    0.18
  -2  13   7    0.19    0.19
  -2  13   7   -0.00    0.18
  -2  13   7    0.10    0.17
   2 -13  -6    0.24    0.20
   2 -13  -6    0.24    0.19
   2 -13  -6    0.07    0.21
  -2  13   6    0.36    0.19
  -2  13   6    0.01    0.19
   2 -13  -5    0.11    0.17
   2 -13  -5   -0.01    0.17
  -2  13   5    0.18    0.17
  -2  13   5    0.01    0.18
   2 -13  -4    0.00    0.14
   2 -13  -4   -0.17    0.15
   2 -13  -4    0.27    0.15
  -2  13   4    0.01    0.16
   2 -13  -3    0.00    0.14
   2 -13  -3   -0.05    0.14
   2 -13  -3    0.06    0.13
  -2  13   3    0.02    0.14
   2 -13  -2    0.03    0.17
   2 -13  -2    0.15    0.17
   2 -13  -2    0.00    0.17
  -2  13   2    0.26    0.20
  -2  13   2    0.04    0.33
  -2  13   2    0.01    0.18
   2 -13  -1   -0.00    0.24
   2 -13  -1    0.83    0.24
   2 -13  -1    0.87    0.25
  -2  13   1    1.12    0.28
  -2  13   1   -0.03    0.46
  -2  13   1    0.00    0.40
   2 -13   0    0.26    0.19
   2 -13   0    0.00    0.29
   2 -13   0    0.12    0.19
  -2  13   0    0.02    0.34
  -2  13   0   -0.14    0.35
  -2  13   0    0.00    0.32
   2 -13   1    0.16    0.17
   2 -13   1    0.08    0.18
   2 -13   1    0.00    0.17
  -2  13  -1   -0.01    0.19
  -2  13  -1   -0.01    0.20
  -2  13  -1    0.00    0.19
   2 -13   2    0.30    0.21
   2 -13   2    0.33    0.20
   2 -13   2    0.01    0.21
  -2  13  -2    0.02    0.21
  -2  13  -2   -0.03    0.23
  -2  13  -2    0.00    0.22
   2 -12 -12   -0.00    0.29
   2 -12 -12    0.02    0.32
   2 -12 -12    1.63    0.29
   2 -12 -12   -0.01    0.29
   2 -12 -12   -0.02    0.30
  -2  12  12    0.10    0.28
  -2  12  12    1.44    0.29
   2 -12 -11    0.01    0.08
   2 -12 -11   -0.00    0.13
   2 -12 -11    0.04    0.23
   2 -12 -11   -0.00    0.13
  -2  12  11   -0.00    0.13
  -2  12  11   -0.02    0.13
  -2  12  11   -0.03    0.14
  -2  12  11    0.00    0.13
   2 -12 -10    0.00    0.18
   2 -12 -10    0.13    0.23
   2 -12 -10   -0.00    0.20
   2 -12 -10   -0.00    0.21
  -2  12  10   -0.00    0.18
  -2  12  10    0.87    0.35
  -2  12  10   -0.00    0.21
  -2  12  10    0.77    0.20
   2 -12  -9    1.86    0.16
   2 -12  -9    0.00    0.46
   2 -12  -9    2.06    0.28
   2 -12  -9    0.02    0.49
  -2  12   9    1.91    0.24
  -2  12   9    1.64    0.48
  -2  12   9   -0.00    0.29
  -2  12   9    2.52    0.44
   2 -12  -8    1.58    0.13
   2 -12  -8    0.00    0.44
   2 -12  -8    2.19    0.31
   2 -12  -8    1.97    0.27
  -2  12   8    1.50    0.19
  -2  12   8    2.03    0.28
  -2  12   8    2.07    0.43
  -2  12   8    1.52    0.50
   2 -12  -7    0.11    0.12
   2 -12  -7    0.05    0.24
   2 -12  -7    0.89    0.21
   2 -12  -7    0.81    0.21
  -2  12   7    0.62    0.37
  -2  12   7    0.70    0.21
  -2  12   7   -0.00    0.21
  -2  12   7    0.60    0.12
   2 -12  -6    0.02    0.06
   2 -12  -6   -0.03    0.15
   2 -12  -6    0.02    0.04
   2 -12  -6    0.03    0.14
   2 -12  -6   -0.01    0.13
  -2  12   6    0.03    0.13
  -2  12   6    0.02    0.13
   2 -12  -5    0.01    0.03
   2 -12  -5    0.02    0.13
   2 -12  -5   -0.03    0.14
   2 -12  -5    0.03    0.05
   2 -12  -5    0.08    0.13
  -2  12   5    0.02    0.12
  -2  12   5   -0.01    0.13
   2 -12  -4    0.04    0.29
   2 -12  -4    1.85    0.24
   2 -12  -4    2.01    0.27
  -2  12   4    1.96    0.26
  -2  12   4    1.78    0.26
   2 -12  -3    0.19    0.25
   2 -12  -3    0.00    0.16
   2 -12  -3    0.35    0.16
  -2  12   3    0.01    0.17
  -2  12   3    0.01    0.20
   2 -12  -2    0.02    0.20
   2 -12  -2    0.11    0.20
   2 -12  -2    0.00    0.13
  -2  12   2   -0.01    0.13
  -2  12   2   -0.01    0.15
   2 -12  -1    0.86    0.31
   2 -12  -1    0.98    0.31
   2 -12  -1   -0.00    0.20
  -2  12   1    1.07    0.24
  -2  12   1   -0.01    0.25
  -2  12   1    0.00    0.22
   2 -12   0    0.00    0.13
   2 -12   0   -0.13    0.13
   2 -12   0    0.49    0.21
  -2  12   0   -0.00    0.16
  -2  12   0   -0.00    0.16
  -2  12   0   -0.00    0.15
   2 -12   1    0.01    0.28
   2 -12   1    0.11    0.18
   2 -12   1    0.34    0.18
  -2  12  -1   -0.00    0.31
  -2  12  -1    0.01    0.22
  -2  12  -1    0.21    0.21
   2 -12   2    0.00    0.19
   2 -12   2    0.45    0.20
   2 -12   2    0.35    0.20
  -2  12  -2    0.25    0.23
  -2  12  -2    0.00    0.21
  -2  12  -2    0.01    0.23
   2 -12   3   -0.13    0.16
   2 -12   3   -0.00    0.16
   2 -12   3   -0.00    0.16
  -2  12  -3   -0.01    0.19
  -2  12  -3    0.00    0.18
  -2  12  -3   -0.00    0.18
   2 -11 -13   -0.04    0.18
   2 -11 -13    0.01    0.19
   2 -11 -13    0.01    0.27
   2 -11 -13    0.02    0.18
   2 -11 -13   -0.02    0.13
  -2  11  13   -0.06    0.18
  -2  11  13    0.01    0.27
  -2  11  13   -0.01    0.13
   2 -11 -12    0.01    0.16
   2 -11 -12    0.01    0.15
   2 -11 -12   -0.00    0.16
   2 -11 -12    0.00    0.21
   2 -11 -12   -0.02    0.22
  -2  11  12   -0.01    0.15
  -2  11  12   -0.00    0.17
  -2  11  12   -0.07    0.24
   2 -11 -11    0.01    0.12
   2 -11 -11    0.01    0.18
   2 -11 -11    0.01    0.27
   2 -11 -11   -0.04    0.29
  -2  11  11   -0.00    0.12
  -2  11  11    0.08    0.17
  -2  11  11    0.00    0.17
  -2  11  11    0.71    0.30
   2 -11 -10    0.02    0.17
   2 -11 -10    0.01    0.18
   2 -11 -10    0.03    0.27
   2 -11 -10    0.02    0.20
  -2  11  10    0.09    0.18
  -2  11  10   -0.00    0.17
  -2  11  10    0.93    0.30
  -2  11  10   -0.00    0.28
   2 -11  -9    0.03    0.13
   2 -11  -9   -0.06    0.17
   2 -11  -9    0.01    0.23
   2 -11  -9    0.03    0.24
  -2  11   9    0.00    0.13
  -2  11   9    0.17    0.22
  -2  11   9    0.00    0.23
  -2  11   9    0.18    0.17
   2 -11  -8    1.63    0.13
   2 -11  -8    0.05    0.45
   2 -11  -8    1.08    0.37
   2 -11  -8    1.35    0.40
  -2  11   8    1.46    0.28
  -2  11   8    1.57    0.13
  -2  11   8    0.00    0.38
  -2  11   8    1.66    0.38
   2 -11  -7    5.28    0.24
   2 -11  -7    5.89    0.40
   2 -11  -7    5.58    0.50
   2 -11  -7    5.77    0.38
  -2  11   7    5.10    0.18
  -2  11   7    6.27    0.59
  -2  11   7    5.39    0.52
  -2  11   7    5.65    0.37
   2 -11  -6    0.80    0.21
   2 -11  -6    0.91    0.07
   2 -11  -6    0.91    0.24
   2 -11  -6    0.75    0.21
  -2  11   6    0.79    0.10
  -2  11   6    0.90    0.21
  -2  11   6    0.17    0.38
  -2  11   6    0.95    0.33
   2 -11  -5    0.03    0.05
   2 -11  -5    0.10    0.15
   2 -11  -5    0.02    0.13
   2 -11  -5    0.07    0.03
  -2  11   5    0.03    0.21
  -2  11   5    0.03    0.14
   2 -11  -4    0.01    0.03
   2 -11  -4   -0.05    0.10
   2 -11  -4   -0.02    0.12
   2 -11  -4    0.00    0.03
  -2  11   4   -0.03    0.16
  -2  11   4    0.02    0.10
   2 -11  -3    6.88    0.38
   2 -11  -3    6.91    0.37
   2 -11  -3    7.10    0.42
   2 -11  -3    6.81    0.38
  -2  11   3    7.10    0.39
   2 -11  -2    7.70    0.42
   2 -11  -2    8.14    0.41
   2 -11  -2    7.99    0.43
  -2  11   2    8.72    0.50
  -2  11   2    8.12    0.43
   2 -11  -1    4.35    0.34
   2 -11  -1    4.77    0.33
   2 -11  -1    4.15    0.34
  -2  11   1    6.93    0.61
  -2  11   1    4.65    0.35
  -2  11   1    4.64    0.58
   2 -11   0    0.99    0.07
   2 -11   0    1.41    0.23
   2 -11   0    0.98    0.07
   2 -11   0    1.67    0.23
   2 -11   0    1.68    0.24
  -2  11   0    1.49    0.28
  -2  11   0    0.00    0.45
  -2  11   0    1.26    0.25
   2 -11   1    1.19    0.07
   2 -11   1    1.76    0.24
   2 -11   1    1.66    0.39
   2 -11   1    1.17    0.10
   2 -11   1    1.74    0.38
  -2  11  -1    1.66    0.29
  -2  11  -1    0.01    0.45
  -2  11  -1    1.86    0.26
   2 -11   2    0.16    0.26
   2 -11   2    0.10    0.08
   2 -11   2    0.01    0.16
   2 -11   2    0.11    0.26
   2 -11   2    0.14    0.08
  -2  11  -2    0.08    0.20
  -2  11  -2    0.00    0.18
   2 -11   3    0.00    0.26
   2 -11   3   -0.01    0.26
   2 -11   3   -0.00    0.10
   2 -11   3    0.18    0.10
   2 -11   3    0.35    0.26
  -2  11  -3    0.23    0.31
  -2  11  -3    0.00    0.32
  -2  11  -3   -0.00    0.29
   2 -11   4   -0.00    0.26
   2 -11   4    0.00    0.17
   2 -11   4    0.20    0.26
  -2  11  -4    0.22    0.20
  -2  11  -4   -0.03    0.20
  -2  11  -4    0.00    0.18
   2 -11   5    0.00    0.31
   2 -11   5    0.72    0.32
   2 -11   5   -0.00    0.32
  -2  11  -5    0.02    0.23
  -2  11  -5    0.00    0.34
  -2  11  -5    0.20    0.24
   2 -10 -13   -0.03    0.19
   2 -10 -13    0.04    0.29
   2 -10 -13    0.05    0.20
   2 -10 -13   -0.04    0.20
   2 -10 -13   -0.18    0.15
  -2  10  13    0.01    0.24
  -2  10  13    0.00    0.29
  -2  10  13    0.01    0.19
   2 -10 -12    0.15    0.17
   2 -10 -12    0.02    0.19
   2 -10 -12    0.03    0.17
   2 -10 -12    0.13    0.17
   2 -10 -12    0.08    0.21
  -2  10  12   -0.01    0.14
  -2  10  12   -0.03    0.19
  -2  10  12    0.02    0.17
   2 -10 -11    0.02    0.11
   2 -10 -11    0.08    0.14
   2 -10 -11   -0.02    0.26
   2 -10 -11    0.02    0.15
   2 -10 -11    0.04    0.15
  -2  10  11   -0.02    0.15
  -2  10  11    0.03    0.17
  -2  10  11    0.02    0.17
   2 -10 -10    2.88    0.22
   2 -10 -10    2.77    0.35
   2 -10 -10    2.94    0.32
   2 -10 -10    2.74    0.32
  -2  10  10    2.93    0.22
  -2  10  10    3.05    0.32
  -2  10  10    2.83    0.34
  -2  10  10    3.09    0.31
   2 -10  -9   -0.01    0.18
   2 -10  -9    0.82    0.19
   2 -10  -9    0.03    0.22
   2 -10  -9    0.72    0.32
  -2  10   9    1.08    0.31
  -2  10   9   -0.00    0.12
  -2  10   9    0.75    0.20
  -2  10   9    0.81    0.22
   2 -10  -8    0.29    0.16
   2 -10  -8    0.23    0.28
   2 -10  -8    0.19    0.15
   2 -10  -8   -0.00    0.08
  -2  10   8    0.25    0.17
  -2  10   8    0.00    0.08
  -2  10   8    0.38    0.15
  -2  10   8    0.26    0.24
   2 -10  -7    0.07    0.10
   2 -10  -7    0.11    0.13
   2 -10  -7    0.01    0.14
   2 -10  -7    0.09    0.25
  -2  10   7    0.09    0.10
  -2  10   7    0.17    0.14
  -2  10   7    0.15    0.14
  -2  10   7    0.02    0.16
   2 -10  -6    0.23    0.09
   2 -10  -6    0.07    0.17
   2 -10  -6    0.16    0.15
   2 -10  -6    0.15    0.16
  -2  10   6    0.22    0.17
  -2  10   6    0.18    0.15
  -2  10   6    0.24    0.05
  -2  10   6    0.20    0.15
   2 -10  -5    0.15    0.22
   2 -10  -5    0.28    0.17
   2 -10  -5    0.16    0.23
   2 -10  -5    0.20    0.04
  -2  10   5    0.09    0.27
  -2  10   5    0.22    0.22
  -2  10   5    0.11    0.22
  -2  10   5    0.18    0.06
   2 -10  -4    2.82    0.25
   2 -10  -4    2.54    0.10
   2 -10  -4    2.83    0.27
   2 -10  -4    2.36    0.10
   2 -10  -4    2.76    0.23
  -2  10   4    3.05    0.44
  -2  10   4    2.66    0.24
  -2  10   4    2.76    0.25
   2 -10  -3   14.74    0.51
   2 -10  -3   14.68    0.75
   2 -10  -3   14.42    0.51
  -2  10   3   14.68    0.50
  -2  10   3   14.80    0.57
  -2  10   3   13.74    0.51
   2 -10  -2    3.75    0.43
   2 -10  -2    3.46    0.28
   2 -10  -2    3.62    0.28
  -2  10   2    3.68    0.34
  -2  10   2    3.55    0.29
  -2  10   2    4.00    0.37
   2 -10  -1   30.41    1.04
   2 -10  -1   29.91    0.83
   2 -10  -1   30.98    1.03
  -2  10   1   30.85    0.93
  -2  10   1   30.39    0.92
  -2  10   1   29.57    1.04
   2 -10   0    1.03    0.07
   2 -10   0    1.23    0.21
   2 -10   0    1.01    0.07
   2 -10   0    0.98    0.32
   2 -10   0    1.38    0.21
  -2  10   0    1.32    0.26
  -2  10   0    1.16    0.25
  -2  10   0    1.19    0.34
   2 -10   1    0.05    0.05
   2 -10   1    0.02    0.19
   2 -10   1    0.03    0.05
   2 -10   1    0.14    0.13
   2 -10   1    0.06    0.13
  -2  10  -1    0.12    0.25
  -2  10  -1    0.02    0.21
  -2  10  -1    0.03    0.16
   2 -10   2    0.11    0.14
   2 -10   2    0.07    0.04
   2 -10   2    0.15    0.22
   2 -10   2    0.05    0.05
   2 -10   2    0.01    0.14
  -2  10  -2    0.18    0.15
  -2  10  -2    0.08    0.17
  -2  10  -2    0.01    0.17
   2 -10   3    1.05    0.34
   2 -10   3   -0.00    0.21
   2 -10   3    0.85    0.14
   2 -10   3    0.96    0.09
   2 -10   3    0.92    0.34
  -2  10  -3    1.20    0.27
  -2  10  -3    0.00    0.23
  -2  10  -3   -0.02    0.26
   2 -10   4    0.00    0.27
   2 -10   4    0.85    0.27
   2 -10   4   -0.01    0.17
   2 -10   4   -0.01    0.13
  -2  10  -4    0.60    0.33
  -2  10  -4    0.03    0.21
  -2  10  -4    0.02    0.29
   2 -10   5    0.00    0.08
   2 -10   5    0.00    0.24
   2 -10   5    0.08    0.24
   2 -10   5    0.00    0.16
  -2  10  -5    0.05    0.09
  -2  10  -5   -0.00    0.17
  -2  10  -5   -0.01    0.18
  -2  10  -5    0.17    0.18
   2 -10   6    0.01    0.26
   2 -10   6    0.00    0.26
   2 -10   6    0.01    0.15
   2 -10   6    0.27    0.26
  -2  10  -6    0.07    0.18
  -2  10  -6   -0.02    0.19
  -2  10  -6   -0.00    0.10
  -2  10  -6    0.01    0.28
   2  -9 -14    0.25    0.24
   2  -9 -14    0.40    0.26
   2  -9 -14    0.01    0.26
   2  -9 -14    0.16    0.24
   2  -9 -14    0.19    0.20
  -2   9  14    0.45    0.25
  -2   9  14    0.02    0.24
  -2   9  14   -0.01    0.31
   2  -9 -13   -0.04    0.20
   2  -9 -13    0.01    0.28
   2  -9 -13    0.05    0.28
   2  -9 -13    0.21    0.28
   2  -9 -13    0.07    0.15
  -2   9  13    0.00    0.28
  -2   9  13    0.11    0.19
  -2   9  13   -0.01    0.23
   2  -9 -12    0.28    0.29
   2  -9 -12    0.02    0.30
   2  -9 -12    0.16    0.19
   2  -9 -12    0.04    0.21
   2  -9 -12    0.22    0.15
  -2   9  12   -0.01    0.19
  -2   9  12    0.22    0.24
  -2   9  12    0.21    0.33
   2  -9 -11    0.37    0.23
   2  -9 -11    0.02    0.21
   2  -9 -11   -0.01    0.19
   2  -9 -11    0.40    0.20
   2  -9 -11    0.38    0.19
  -2   9  11    0.33    0.15
  -2   9  11    0.61    0.34
  -2   9  11    0.00    0.20
   2  -9 -10    1.75    0.20
   2  -9 -10    1.87    0.24
   2  -9 -10    1.72    0.25
   2  -9 -10    2.04    0.27
   2  -9 -10    2.07    0.29
  -2   9  10    1.71    0.26
  -2   9  10    1.66    0.44
  -2   9  10    1.52    0.29
   2  -9  -9    0.88    0.15
   2  -9  -9    0.94    0.25
   2  -9  -9    1.11    0.35
   2  -9  -9    1.11    0.22
  -2   9   9    1.08    0.38
  -2   9   9    0.98    0.22
  -2   9   9    1.22    0.15
  -2   9   9    1.01    0.34
   2  -9  -8   -0.02    0.11
   2  -9  -8    0.06    0.18
   2  -9  -8   -0.04    0.12
   2  -9  -8   -0.03    0.21
  -2   9   8   -0.07    0.07
  -2   9   8    0.01    0.12
  -2   9   8    0.04    0.12
  -2   9   8   -0.04    0.21
   2  -9  -7    0.02    0.06
   2  -9  -7    0.12    0.18
   2  -9  -7   -0.01    0.12
   2  -9  -7   -0.02    0.22
  -2   9   7    0.08    0.14
  -2   9   7    0.09    0.12
  -2   9   7    0.03    0.10
  -2   9   7    0.16    0.18
   2  -9  -6    0.06    0.22
   2  -9  -6    0.08    0.11
   2  -9  -6    0.18    0.12
   2  -9  -6    0.06    0.08
  -2   9   6   -0.05    0.14
  -2   9   6    0.03    0.11
  -2   9   6    0.08    0.08
  -2   9   6    0.06    0.12
   2  -9  -5    0.59    0.15
   2  -9  -5    0.75    0.29
   2  -9  -5    0.81    0.09
   2  -9  -5    0.66    0.26
  -2   9   5    0.66    0.20
  -2   9   5    0.78    0.25
  -2   9   5    0.63    0.08
  -2   9   5    0.66    0.16
   2  -9  -4    1.26    0.18
   2  -9  -4    1.02    0.31
   2  -9  -4    1.08    0.07
   2  -9  -4    1.00    0.26
   2  -9  -4    0.96    0.05
  -2   9   4    0.54    0.32
  -2   9   4    1.27    0.17
  -2   9   4    1.23    0.27
   2  -9  -3    0.09    0.12
   2  -9  -3    0.03    0.10
   2  -9  -3    0.03    0.10
  -2   9   3    0.16    0.12
  -2   9   3   -0.05    0.10
  -2   9   3   -0.04    0.10
   2  -9  -2   15.39    0.48
   2  -9  -2   16.24    0.55
   2  -9  -2   16.14    0.49
   2  -9  -2   15.88    0.48
  -2   9   2   15.85    0.56
  -2   9   2   15.76    0.50
   2  -9  -1    0.01    0.09
   2  -9  -1    0.01    0.15
   2  -9  -1    0.01    0.09
  -2   9   1    0.02    0.12
  -2   9   1   -0.02    0.12
  -2   9   1    0.04    0.16
   2  -9   0    0.13    0.03
   2  -9   0    0.09    0.20
   2  -9   0    0.12    0.03
   2  -9   0   -0.01    0.12
   2  -9   0    0.20    0.20
  -2   9   0    0.03    0.26
  -2   9   0    0.03    0.16
  -2   9   0    0.23    0.13
   2  -9   1    2.09    0.22
   2  -9   1    1.85    0.10
   2  -9   1    2.07    0.22
   2  -9   1    2.00    0.10
   2  -9   1    2.17    0.21
  -2   9  -1    2.00    0.27
  -2   9  -1    2.06    0.27
  -2   9  -1    2.28    0.23
   2  -9   2   -0.02    0.12
   2  -9   2    0.05    0.04
   2  -9   2    0.09    0.07
   2  -9   2    0.02    0.12
   2  -9   2    0.04    0.12
  -2   9  -2    0.11    0.15
  -2   9  -2    0.11    0.15
  -2   9  -2    0.04    0.13
   2  -9   3    2.91    0.40
   2  -9   3    2.72    0.18
   2  -9   3    2.92    0.26
   2  -9   3    2.61    0.17
   2  -9   3    3.03    0.40
  -2   9  -3    2.73    0.42
  -2   9  -3    2.97    0.47
  -2   9  -3    2.49    0.31
   2  -9   4    0.35    0.27
   2  -9   4    0.00    0.13
   2  -9   4   -0.01    0.26
   2  -9   4    0.37    0.27
  -2   9  -4   -0.01    0.21
  -2   9  -4    0.31    0.09
  -2   9  -4    0.31    0.20
  -2   9  -4    0.42    0.18
   2  -9   5    2.18    0.44
   2  -9   5    2.68    0.18
   2  -9   5    3.06    0.44
   2  -9   5    2.65    0.30
  -2   9  -5    2.71    0.53
  -2   9  -5    2.55    0.19
  -2   9  -5    3.14    0.35
  -2   9  -5    2.90    0.33
   2  -9   6   -0.00    0.36
   2  -9   6    0.00    0.24
   2  -9   6    1.88    0.36
  -2   9  -6   -0.03    0.28
  -2   9  -6    1.28    0.29
  -2   9  -6    1.11    0.24
  -2   9  -6    0.01    0.41
   2  -9   7    2.17    0.32
   2  -9   7    2.41    0.32
   2  -9   7    2.46    0.33
   2  -9   7    2.27    0.24
  -2   9  -7    2.52    0.37
  -2   9  -7    0.04    0.38
  -2   9  -7    2.05    0.25
  -2   9  -7    2.49    0.35
   2  -8 -14   -0.13    0.20
   2  -8 -14   -0.04    0.21
   2  -8 -14   -0.01    0.19
   2  -8 -14   -0.10    0.19
   2  -8 -14   -0.06    0.17
  -2   8  14   -0.00    0.27
  -2   8  14    0.06    0.20
   2  -8 -13    0.33    0.23
   2  -8 -13    0.56    0.23
   2  -8 -13    0.01    0.25
   2  -8 -13    0.38    0.36
   2  -8 -13    0.45    0.32
  -2   8  13    0.39    0.24
  -2   8  13    0.70    0.36
  -2   8  13   -0.00    0.31
   2  -8 -12   -0.06    0.25
   2  -8 -12    0.08    0.14
   2  -8 -12    0.01    0.14
   2  -8 -12    0.03    0.14
   2  -8 -12    0.05    0.12
  -2   8  12   -0.03    0.15
  -2   8  12   -0.01    0.14
  -2   8  12   -0.05    0.19
   2  -8 -11    0.04    0.22
   2  -8 -11    0.02    0.16
   2  -8 -11   -0.01    0.23
   2  -8 -11    0.01    0.12
   2  -8 -11    0.11    0.14
  -2   8  11    0.01    0.14
  -2   8  11    0.01    0.19
  -2   8  11    0.14    0.16
   2  -8 -10   -0.01    0.14
   2  -8 -10   -0.05    0.13
   2  -8 -10   -0.02    0.17
   2  -8 -10   -0.01    0.18
   2  -8 -10   -0.05    0.18
  -2   8  10   -0.01    0.09
  -2   8  10    0.01    0.13
  -2   8  10    0.10    0.18
   2  -8  -9    1.60    0.16
   2  -8  -9    0.23    0.32
   2  -8  -9    1.28    0.24
   2  -8  -9    1.73    0.22
  -2   8   9    1.37    0.23
  -2   8   9    0.09    0.20
  -2   8   9    1.43    0.24
  -2   8   9    1.34    0.24
   2  -8  -8    0.16    0.09
   2  -8  -8    0.16    0.25
   2  -8  -8    0.15    0.14
   2  -8  -8    0.11    0.21
  -2   8   8    0.14    0.22
  -2   8   8    0.19    0.09
  -2   8   8    0.02    0.14
  -2   8   8    0.13    0.16
   2  -8  -7    0.04    0.08
   2  -8  -7   -0.02    0.17
   2  -8  -7    0.05    0.09
   2  -8  -7   -0.01    0.09
  -2   8   7   -0.05    0.09
  -2   8   7   -0.06    0.09
  -2   8   7   -0.01    0.05
  -2   8   7   -0.00    0.11
   2  -8  -6    3.02    0.17
   2  -8  -6    3.06    0.22
   2  -8  -6    2.92    0.22
   2  -8  -6    2.74    0.37
  -2   8   6    2.79    0.38
  -2   8   6    3.02    0.17
  -2   8   6    2.91    0.22
  -2   8   6    2.94    0.22
   2  -8  -5    0.13    0.04
   2  -8  -5    0.22    0.21
   2  -8  -5    0.15    0.11
   2  -8  -5    0.21    0.17
  -2   8   5    0.16    0.14
  -2   8   5    0.13    0.07
  -2   8   5    0.20    0.11
  -2   8   5    0.23    0.18
   2  -8  -4   -0.01    0.09
   2  -8  -4    0.01    0.11
   2  -8  -4    0.05    0.03
   2  -8  -4    0.01    0.09
  -2   8   4    0.02    0.08
  -2   8   4    0.02    0.11
  -2   8   4   -0.01    0.09
  -2   8   4    0.01    0.03
   2  -8  -3    0.08    0.02
   2  -8  -3    0.16    0.12
   2  -8  -3    0.10    0.15
   2  -8  -3    0.08    0.02
   2  -8  -3    0.15    0.16
  -2   8   3    0.13    0.19
  -2   8   3    0.06    0.15
  -2   8   3    0.13    0.16
   2  -8  -2    0.04    0.08
   2  -8  -2   -0.06    0.10
   2  -8  -2    0.00    0.08
  -2   8   2   -0.01    0.10
  -2   8   2    0.06    0.08
  -2   8   2    0.03    0.08
   2  -8  -1    1.32    0.16
   2  -8  -1    1.24    0.16
   2  -8  -1    1.30    0.24
  -2   8   1    1.24    0.20
  -2   8   1    1.36    0.25
  -2   8   1    1.15    0.21
   2  -8   0    0.46    0.13
   2  -8   0    0.48    0.13
   2  -8   0    0.49    0.03
   2  -8   0    0.48    0.03
   2  -8   0    0.53    0.14
  -2   8   0    0.54    0.17
  -2   8   0    0.59    0.14
  -2   8   0    0.56    0.17
   2  -8   1    2.48    0.10
   2  -8   1    2.35    0.07
   2  -8   1    2.49    0.21
   2  -8   1    2.65    0.30
   2  -8   1    2.65    0.20
  -2   8  -1    2.74    0.25
  -2   8  -1    2.48    0.40
  -2   8  -1    2.48    0.21
   2  -8   2    0.36    0.14
   2  -8   2    0.44    0.14
   2  -8   2    0.35    0.08
   2  -8   2    0.38    0.08
   2  -8   2   -0.02    0.21
  -2   8  -2    0.39    0.28
  -2   8  -2    0.49    0.23
  -2   8  -2    0.33    0.18
   2  -8   3    0.47    0.24
   2  -8   3    0.26    0.11
   2  -8   3    0.03    0.24
   2  -8   3    0.45    0.24
  -2   8  -3    0.52    0.19
  -2   8  -3    0.39    0.18
  -2   8  -3    0.37    0.07
  -2   8  -3    0.45    0.16
   2  -8   4    1.77    0.13
   2  -8   4    1.91    0.34
   2  -8   4    1.86    0.23
   2  -8   4    1.87    0.34
  -2   8  -4    1.82    0.27
  -2   8  -4    1.83    0.25
  -2   8  -4    1.41    0.41
  -2   8  -4    1.73    0.20
   2  -8   5    0.26    0.24
   2  -8   5   -0.01    0.10
   2  -8   5    0.25    0.24
   2  -8   5    0.03    0.15
  -2   8  -5    0.27    0.19
  -2   8  -5    0.33    0.19
  -2   8  -5    0.29    0.17
  -2   8  -5    0.26    0.16
   2  -8   6    0.30    0.27
   2  -8   6    0.01    0.18
   2  -8   6    0.48    0.28
   2  -8   6    0.00    0.17
  -2   8  -6    0.31    0.32
  -2   8  -6    0.41    0.13
  -2   8  -6    0.03    0.21
  -2   8  -6    0.01    0.19
   2  -8   7    0.01    0.12
  -2   8  -7    0.00    0.17
  -2   8  -7    0.21    0.18
  -2   8  -7   -0.01    0.18
  -2   8  -7    0.08    0.12
  -2   8  -7    0.00    0.26
   2  -8   8   -0.02    0.14
   2  -8   8    0.00    0.11
   2  -8   8    0.00    0.14
  -2   8  -8    0.01    0.15
  -2   8  -8    0.09    0.16
  -2   8  -8   -0.09    0.18
  -2   8  -8    0.13    0.26
  -2   8  -8    0.00    0.15
   2  -8   9    2.27    0.34
   2  -8   9   -0.11    0.41
   2  -8   9    2.22    0.44
  -2   8  -9    2.39    0.36
   2  -7 -14   -0.38    0.35
   2  -7 -14   -0.02    0.19
   2  -7 -14    0.06    0.21
   2  -7 -14   -0.47    0.33
   2  -7 -14   -0.04    0.31
  -2   7  14    0.03    0.29
  -2   7  14    0.00    0.21
  -2   7  14   -0.13    0.31
   2  -7 -13    0.12    0.17
   2  -7 -13   -0.04    0.18
   2  -7 -13    0.02    0.17
   2  -7 -13    0.11    0.27
   2  -7 -13    0.07    0.16
  -2   7  13    0.20    0.30
  -2   7  13    0.00    0.24
  -2   7  13    0.01    0.27
   2  -7 -12    1.01    0.24
   2  -7 -12    0.79    0.25
   2  -7 -12    0.87    0.24
   2  -7 -12    0.04    0.41
   2  -7 -12    0.92    0.34
  -2   7  12    0.91    0.25
  -2   7  12    1.24    0.41
  -2   7  12    0.84    0.33
   2  -7 -11    0.32    0.18
   2  -7 -11    0.25    0.20
   2  -7 -11    0.25    0.18
   2  -7 -11    0.27    0.19
   2  -7 -11    0.32    0.16
  -2   7  11    0.27    0.19
  -2   7  11    0.28    0.20
  -2   7  11    0.30    0.24
   2  -7 -10    4.48    0.35
   2  -7 -10    4.66    0.45
   2  -7 -10    4.73    0.46
   2  -7 -10    5.23    0.48
   2  -7 -10    4.84    0.28
  -2   7  10    4.37    0.48
  -2   7  10    4.63    0.39
  -2   7  10    4.57    0.35
   2  -7  -9    1.85    0.26
   2  -7  -9    1.88    0.34
   2  -7  -9    1.91    0.23
   2  -7  -9    1.87    0.28
   2  -7  -9    1.61    0.33
  -2   7   9    2.01    0.23
  -2   7   9    1.91    0.40
  -2   7   9    1.85    0.18
   2  -7  -8    0.51    0.12
   2  -7  -8    0.44    0.28
   2  -7  -8    0.39    0.25
   2  -7  -8    0.51    0.15
  -2   7   8    0.58    0.16
  -2   7   8    0.45    0.11
  -2   7   8    0.46    0.15
   2  -7  -7    0.10    0.07
   2  -7  -7    0.10    0.11
   2  -7  -7    0.09    0.13
   2  -7  -7    0.20    0.18
  -2   7   7    0.08    0.07
  -2   7   7    0.16    0.18
  -2   7   7    0.08    0.11
  -2   7   7    0.13    0.13
   2  -7  -6    0.02    0.05
   2  -7  -6    0.07    0.09
   2  -7  -6    0.03    0.13
   2  -7  -6    0.06    0.08
  -2   7   6    0.02    0.05
  -2   7   6   -0.07    0.08
  -2   7   6   -0.04    0.08
  -2   7   6   -0.02    0.10
   2  -7  -5    0.65    0.06
   2  -7  -5    0.56    0.24
   2  -7  -5    0.70    0.13
   2  -7  -5    0.60    0.20
  -2   7   5    0.61    0.25
  -2   7   5    0.69    0.06
  -2   7   5    0.64    0.13
  -2   7   5    0.66    0.20
   2  -7  -4    0.03    0.02
   2  -7  -4    0.06    0.09
   2  -7  -4   -0.01    0.07
   2  -7  -4   -0.01    0.12
  -2   7   4    0.00    0.10
  -2   7   4    0.03    0.04
  -2   7   4   -0.00    0.12
  -2   7   4    0.02    0.08
   2  -7  -3    0.38    0.14
   2  -7  -3    0.38    0.11
   2  -7  -3    0.40    0.16
   2  -7  -3    0.36    0.02
  -2   7   3    0.44    0.16
  -2   7   3    0.50    0.14
  -2   7   3    0.53    0.11
   2  -7  -2    1.42    0.27
   2  -7  -2    1.27    0.14
   2  -7  -2    1.30    0.13
  -2   7   2    1.39    0.14
  -2   7   2    1.24    0.17
  -2   7   2    1.07    0.14
   2  -7  -1    0.22    0.10
   2  -7  -1    0.22    0.10
   2  -7  -1    0.23    0.16
   2  -7  -1    0.23    0.13
  -2   7   1    0.23    0.13
  -2   7   1    0.27    0.16
   2  -7   0    3.84    0.19
   2  -7   0    3.60    0.19
   2  -7   0    3.73    0.19
  -2   7   0    3.80    0.36
  -2   7   0    3.48    0.19
  -2   7   0    3.73    0.24
   2  -7   1    0.82    0.06
   2  -7   1    0.79    0.14
   2  -7   1    0.83    0.06
   2  -7   1    0.77    0.13
   2  -7   1    0.71    0.21
  -2   7  -1    0.81    0.18
  -2   7  -1    0.82    0.18
  -2   7  -1    0.92    0.14
   2  -7   2    2.06    0.18
   2  -7   2    1.98    0.18
   2  -7   2    2.03    0.08
   2  -7   2    2.00    0.18
  -2   7  -2    2.18    0.35
  -2   7  -2    1.94    0.08
  -2   7  -2    1.93    0.22
  -2   7  -2    2.16    0.19
   2  -7   3    1.73    0.10
   2  -7   3    1.73    0.28
   2  -7   3    1.78    0.28
   2  -7   3    1.97    0.19
  -2   7  -3    1.81    0.11
  -2   7  -3    1.69    0.34
  -2   7  -3    1.72    0.35
  -2   7  -3    1.93    0.20
   2  -7   4    1.23    0.11
   2  -7   4    1.20    0.18
   2  -7   4    1.34    0.18
   2  -7   4    1.31    0.18
  -2   7  -4    1.12    0.23
  -2   7  -4    1.23    0.19
  -2   7  -4    1.20    0.23
  -2   7  -4    1.14    0.12
   2  -7   5    0.38    0.15
   2  -7   5    0.20    0.10
   2  -7   5    0.31    0.15
  -2   7  -5    0.32    0.18
  -2   7  -5    0.17    0.19
  -2   7  -5    0.31    0.25
  -2   7  -5    0.27    0.16
  -2   7  -5    0.23    0.10
   2  -7   6    1.25    0.22
   2  -7   6    1.13    0.23
   2  -7   6    1.38    0.22
  -2   7  -6    1.24    0.22
  -2   7  -6    1.17    0.26
  -2   7  -6   -0.01    0.26
  -2   7  -6    1.11    0.25
  -2   7  -6    1.27    0.23
   2  -7   7    0.34    0.18
   2  -7   7    0.32    0.18
   2  -7   7    0.30    0.24
   2  -7   7    0.24    0.14
  -2   7  -7    0.66    0.22
  -2   7  -7    0.00    0.29
  -2   7  -7   -0.00    0.30
   2  -7   8    0.02    0.28
   2  -7   8   -0.00    0.29
   2  -7   8    0.27    0.15
   2  -7   8    0.49    0.24
  -2   7  -8    0.35    0.24
  -2   7  -8    0.00    0.19
  -2   7  -8   -0.00    0.33
  -2   7  -8    0.00    0.20
   2  -7   9   -0.01    0.30
   2  -7   9   -0.01    0.31
   2  -7   9    0.25    0.27
   2  -7   9    0.45    0.26
  -2   7  -9    0.01    0.22
  -2   7  -9    0.00    0.22
  -2   7  -9    0.33    0.27
  -2   7  -9   -0.00    0.36
   2  -6 -14    6.14    0.68
   2  -6 -14    5.65    0.47
   2  -6 -14    6.01    0.70
   2  -6 -14    6.08    0.68
  -2   6  14    5.61    0.50
  -2   6  14    5.74    0.43
   2  -6 -13   -0.07    0.32
   2  -6 -13    0.23    0.20
   2  -6 -13    0.28    0.19
   2  -6 -13    0.14    0.20
  -2   6  13   -0.00    0.21
  -2   6  13    0.48    0.31
  -2   6  13   -0.01    0.28
   2  -6 -12   -0.07    0.13
   2  -6 -12   -0.04    0.13
   2  -6 -12   -0.03    0.21
   2  -6 -12    0.04    0.15
   2  -6 -12    0.03    0.13
  -2   6  12    0.13    0.21
  -2   6  12   -0.11    0.15
  -2   6  12   -0.01    0.20
   2  -6 -11    0.14    0.17
   2  -6 -11    0.10    0.16
   2  -6 -11    0.06    0.16
   2  -6 -11    0.05    0.16
   2  -6 -11    0.03    0.23
  -2   6  11    0.19    0.15
  -2   6  11    0.24    0.16
  -2   6  11    0.10    0.28
   2  -6 -10    0.05    0.13
   2  -6 -10    0.01    0.13
   2  -6 -10    0.08    0.14
   2  -6 -10    0.02    0.11
  -2   6  10    0.04    0.11
  -2   6  10   -0.00    0.13
  -2   6  10    0.06    0.23
   2  -6  -9    1.78    0.24
   2  -6  -9    1.58    0.34
   2  -6  -9    1.42    0.32
   2  -6  -9    1.59    0.33
   2  -6  -9    1.36    0.18
  -2   6   9    1.64    0.33
  -2   6   9    1.67    0.18
  -2   6   9    1.57    0.38
   2  -6  -8    0.05    0.21
   2  -6  -8    0.03    0.17
   2  -6  -8    0.04    0.18
   2  -6  -8    0.13    0.12
   2  -6  -8    0.03    0.09
  -2   6   8    0.08    0.15
  -2   6   8    0.05    0.12
  -2   6   8    0.18    0.13
   2  -6  -7    0.18    0.13
   2  -6  -7    0.16    0.11
   2  -6  -7    0.22    0.11
   2  -6  -7    0.17    0.13
  -2   6   7    0.16    0.11
  -2   6   7    0.10    0.08
  -2   6   7    0.11    0.11
  -2   6   7    0.20    0.13
   2  -6  -6    9.47    0.30
   2  -6  -6    9.66    0.31
   2  -6  -6    9.24    0.34
   2  -6  -6    9.52    0.30
  -2   6   6    9.31    0.31
  -2   6   6    9.21    0.30
  -2   6   6    9.21    0.34
  -2   6   6    9.36    0.29
   2  -6  -5    0.12    0.10
   2  -6  -5    0.06    0.12
   2  -6  -5    0.07    0.13
   2  -6  -5    0.10    0.07
  -2   6   5    0.03    0.10
  -2   6   5    0.07    0.07
  -2   6   5    0.00    0.12
  -2   6   5    0.02    0.13
   2  -6  -4    8.55    0.30
   2  -6  -4    8.04    0.25
   2  -6  -4    8.16    0.26
   2  -6  -4    8.04    0.15
  -2   6   4    8.07    0.30
  -2   6   4    7.83    0.25
  -2   6   4    8.29    0.25
  -2   6   4    8.15    0.18
   2  -6  -3    0.14    0.10
   2  -6  -3    0.15    0.08
   2  -6  -3    0.08    0.02
   2  -6  -3    0.10    0.08
  -2   6   3    0.05    0.10
  -2   6   3    0.05    0.08
  -2   6   3    0.08    0.02
  -2   6   3    0.06    0.07
   2  -6  -2    0.59    0.13
   2  -6  -2    0.54    0.15
   2  -6  -2    0.54    0.15
  -2   6   2    0.69    0.14
  -2   6   2    0.50    0.15
  -2   6   2    0.50    0.10
   2  -6  -1    1.20    0.23
   2  -6  -1    0.88    0.11
   2  -6  -1    0.85    0.17
   2  -6  -1    0.78    0.16
  -2   6   1    1.03    0.15
  -2   6   1    0.74    0.17
   2  -6   0    0.98    0.11
   2  -6   0    0.71    0.17
   2  -6   0    0.89    0.11
  -2   6   0    0.84    0.15
  -2   6   0    0.64    0.17
  -2   6   0    0.95    0.16
   2  -6   1    0.22    0.04
   2  -6   1    0.24    0.09
   2  -6   1    0.21    0.04
   2  -6   1    0.26    0.09
   2  -6   1    0.23    0.14
  -2   6  -1    0.45    0.09
  -2   6  -1    0.26    0.13
  -2   6  -1    0.24    0.13
   2  -6   2    0.03    0.12
   2  -6   2    0.03    0.05
   2  -6   2    0.04    0.08
   2  -6   2   -0.02    0.12
  -2   6  -2   -0.01    0.11
  -2   6  -2   -0.02    0.10
  -2   6  -2    0.09    0.05
  -2   6  -2    0.02    0.08
   2  -6   3    0.69    0.13
   2  -6   3    0.57    0.13
   2  -6   3    0.65    0.11
   2  -6   3    0.66    0.13
  -2   6  -3    0.74    0.17
  -2   6  -3    0.65    0.08
  -2   6  -3    0.73    0.14
   2  -6   4    0.05    0.11
   2  -6   4    0.13    0.11
   2  -6   4    0.09    0.10
  -2   6  -4    0.17    0.14
  -2   6  -4    0.04    0.11
  -2   6  -4    0.09    0.14
  -2   6  -4    0.12    0.07
  -2   6  -4    0.13    0.11
   2  -6   5   -0.10    0.10
   2  -6   5   -0.03    0.11
   2  -6   5   -0.06    0.11
   2  -6   5    0.01    0.14
  -2   6  -5    0.01    0.17
  -2   6  -5   -0.02    0.13
  -2   6  -5    0.02    0.12
  -2   6  -5   -0.08    0.17
   2  -6   6    0.62    0.23
   2  -6   6    0.55    0.13
   2  -6   6    0.63    0.18
   2  -6   6    0.72    0.18
  -2   6  -6    0.73    0.19
  -2   6  -6    0.56    0.21
  -2   6  -6    0.67    0.18
  -2   6  -6    0.54    0.14
   2  -6   7    0.02    0.45
   2  -6   7    1.49    0.19
   2  -6   7    1.56    0.23
   2  -6   7    1.50    0.24
  -2   6  -7    1.42    0.27
  -2   6  -7    1.40    0.37
  -2   6  -7    1.68    0.19
  -2   6  -7    1.42    0.37
   2  -6   8    0.09    0.12
   2  -6   8    0.00    0.18
   2  -6   8    0.04    0.14
   2  -6   8    0.06    0.14
  -2   6  -8   -0.00    0.17
  -2   6  -8    0.01    0.15
  -2   6  -8    0.09    0.12
  -2   6  -8    0.00    0.24
   2  -6   9   -0.03    0.13
   2  -6   9   -0.02    0.17
   2  -6   9    0.00    0.14
   2  -6   9    0.00    0.18
  -2   6  -9   -0.00    0.14
  -2   6  -9    0.01    0.15
  -2   6  -9    0.10    0.13
  -2   6  -9   -0.00    0.24
   2  -6  10    0.01    0.28
   2  -6  10    0.01    0.29
   2  -6  10    0.06    0.22
   2  -6  10    0.32    0.17
  -2   6 -10    0.01    0.20
  -2   6 -10    0.14    0.28
  -2   6 -10    0.00    0.20
  -2   6 -10    0.00    0.21
   2  -5 -14    0.04    0.18
   2  -5 -14   -0.01    0.18
   2  -5 -14   -0.06    0.19
   2  -5 -14    0.03    0.28
  -2   5  14    0.10    0.17
  -2   5  14    0.01    0.19
   2  -5 -13    0.02    0.21
   2  -5 -13    0.00    0.20
  -2   5  13    0.00    0.21
  -2   5  13    0.43    0.19
  -2   5  13    0.48    0.31
   2  -5 -12    0.09    0.14
   2  -5 -12    0.03    0.22
   2  -5 -12    0.01    0.14
   2  -5 -12   -0.02    0.15
   2  -5 -12    0.01    0.21
  -2   5  12    0.07    0.21
  -2   5  12    0.00    0.15
  -2   5  12    0.00    0.22
   2  -5 -11    1.17    0.23
   2  -5 -11    1.20    0.25
   2  -5 -11    1.14    0.23
   2  -5 -11    1.66    0.23
   2  -5 -11    1.13    0.23
  -2   5  11    1.15    0.23
  -2   5  11    1.25    0.24
  -2   5  11    1.40    0.25
   2  -5 -10   26.23    0.77
   2  -5 -10   26.75    0.92
   2  -5 -10   27.46    0.96
   2  -5 -10   26.89    0.76
   2  -5 -10   26.89    0.74
  -2   5  10   26.95    0.76
  -2   5  10   26.71    0.73
  -2   5  10   26.40    0.79
   2  -5  -9    5.18    0.45
   2  -5  -9    5.20    0.31
   2  -5  -9    5.15    0.33
   2  -5  -9    5.31    0.46
   2  -5  -9    5.55    0.43
  -2   5   9    5.31    0.29
  -2   5   9    5.26    0.31
  -2   5   9    4.99    0.34
   2  -5  -8   64.54    1.42
   2  -5  -8   64.93    1.54
   2  -5  -8   65.26    1.55
   2  -5  -8   64.38    1.37
   2  -5  -8   65.36    1.49
  -2   5   8   63.84    1.36
  -2   5   8   65.36    1.34
  -2   5   8   65.43    1.46
   2  -5  -7    1.65    0.25
   2  -5  -7    1.54    0.19
   2  -5  -7    1.54    0.24
   2  -5  -7    1.65    0.24
   2  -5  -7    1.45    0.21
  -2   5   7    1.63    0.14
  -2   5   7    1.66    0.24
  -2   5   7    1.45    0.19
   2  -5  -6    3.34    0.21
   2  -5  -6    3.20    0.18
   2  -5  -6    3.05    0.27
   2  -5  -6    3.14    0.21
  -2   5   6    3.09    0.18
  -2   5   6    3.34    0.26
  -2   5   6    3.16    0.14
  -2   5   6    3.38    0.32
   2  -5  -5    0.06    0.09
   2  -5  -5    0.10    0.07
   2  -5  -5    0.01    0.08
   2  -5  -5    0.11    0.08
  -2   5   5    0.02    0.05
  -2   5   5    0.12    0.07
  -2   5   5    0.03    0.07
  -2   5   5    0.06    0.09
   2  -5  -4    0.04    0.09
   2  -5  -4    0.02    0.12
   2  -5  -4    0.03    0.05
   2  -5  -4   -0.01    0.06
  -2   5   4    0.00    0.13
  -2   5   4   -0.01    0.09
  -2   5   4    0.02    0.06
  -2   5   4    0.01    0.03
   2  -5  -3    0.24    0.10
   2  -5  -3    0.15    0.07
   2  -5  -3    0.17    0.11
   2  -5  -3    0.21    0.04
  -2   5   3    0.11    0.16
  -2   5   3    0.12    0.02
  -2   5   3    0.13    0.11
  -2   5   3    0.22    0.07
   2  -5  -2   24.92    0.56
   2  -5  -2   23.72    0.53
   2  -5  -2   23.93    0.46
  -2   5   2   24.21    0.55
  -2   5   2   23.43    0.53
  -2   5   2   23.86    0.46
   2  -5  -1   34.97    0.72
   2  -5  -1   33.46    0.62
   2  -5  -1   34.09    0.63
  -2   5   1   33.91    0.62
  -2   5   1   33.41    0.63
  -2   5   1   34.92    0.74
   2  -5   0    0.20    0.11
   2  -5   0    0.21    0.11
   2  -5   0    0.26    0.11
  -2   5   0    0.33    0.11
  -2   5   0    0.25    0.12
  -2   5   0    0.22    0.12
   2  -5   1    3.59    0.15
   2  -5   1    3.56    0.08
   2  -5   1    3.54    0.15
   2  -5   1    3.57    0.15
  -2   5  -1    3.81    0.21
  -2   5  -1    3.56    0.16
  -2   5  -1    3.47    0.08
  -2   5  -1    3.64    0.31
   2  -5   2    2.68    0.08
   2  -5   2    2.64    0.15
   2  -5   2    2.81    0.15
   2  -5   2    2.58    0.21
  -2   5  -2    2.73    0.20
  -2   5  -2    2.59    0.29
  -2   5  -2    2.53    0.11
  -2   5  -2    2.46    0.22
   2  -5   3    0.63    0.11
   2  -5   3    0.78    0.07
   2  -5   3    0.60    0.18
  -2   5  -3    0.70    0.12
  -2   5  -3    0.70    0.15
  -2   5  -3    0.57    0.11
  -2   5  -3    0.79    0.12
   2  -5   4    1.32    0.23
   2  -5   4    1.42    0.11
   2  -5   4    1.00    0.20
   2  -5   4    1.40    0.15
  -2   5  -4    1.38    0.16
  -2   5  -4    1.36    0.19
  -2   5  -4    1.37    0.11
  -2   5  -4    1.54    0.16
   2  -5   5    0.04    0.07
   2  -5   5    0.06    0.09
   2  -5   5    0.02    0.13
   2  -5   5    0.05    0.09
  -2   5  -5    0.02    0.15
  -2   5  -5    0.02    0.15
  -2   5  -5    0.09    0.12
  -2   5  -5   -0.01    0.12
   2  -5   6    0.11    0.12
   2  -5   6    0.22    0.10
   2  -5   6    0.08    0.16
   2  -5   6    0.12    0.13
  -2   5  -6    0.14    0.13
  -2   5  -6    0.02    0.15
  -2   5  -6    0.22    0.17
  -2   5  -6    0.18    0.13
   2  -5   7    0.17    0.12
   2  -5   7    0.17    0.17
   2  -5   7    0.07    0.22
   2  -5   7    0.10    0.21
  -2   5  -7    0.15    0.23
  -2   5  -7    0.11    0.22
  -2   5  -7    0.11    0.17
  -2   5  -7    0.14    0.19
   2  -5   8    0.20    0.24
   2  -5   8    0.16    0.21
   2  -5   8    0.09    0.30
   2  -5   8    0.17    0.25
  -2   5  -8    0.11    0.16
  -2   5  -8    0.29    0.19
  -2   5  -8    0.15    0.15
  -2   5  -8    0.11    0.17
   2  -5   9    0.15    0.16
   2  -5   9    0.15    0.16
   2  -5   9    0.25    0.14
   2  -5   9   -0.07    0.32
  -2   5  -9   -0.00    0.17
  -2   5  -9   -0.00    0.17
  -2   5  -9    0.00    0.18
  -2   5  -9    0.12    0.16
   2  -5  10   -0.01    0.19
   2  -5  10    0.43    0.18
   2  -5  10   -0.00    0.19
   2  -5  10   -0.03    0.38
  -2   5 -10   -0.00    0.34
  -2   5 -10    0.00    0.20
  -2   5 -10    0.55    0.19
  -2   5 -10   -0.00    0.20
   2  -5  11    0.02    0.29
   2  -5  11   -0.01    0.30
   2  -5  11    0.73    0.28
   2  -5  11    0.01    0.23
  -2   5 -11    0.00    0.23
  -2   5 -11   -0.01    0.20
  -2   5 -11    0.01    0.20
  -2   5 -11    0.13    0.31
   2  -4 -14    0.02    0.28
   2  -4 -14    0.00    0.45
   2  -4 -14    1.44    0.28
   2  -4 -14   -0.02    0.27
   2  -4 -14   -0.01    0.29
  -2   4  14    0.00    0.47
  -2   4  14    1.37    0.27
  -2   4  14    1.48    0.42
   2  -4 -13    0.00    0.23
   2  -4 -13   -0.01    0.33
   2  -4 -13    0.01    0.23
  -2   4  13    0.00    0.24
  -2   4  13    0.96    0.34
  -2   4  13    0.81    0.22
   2  -4 -12   -0.01    0.14
   2  -4 -12    0.09    0.15
   2  -4 -12    0.01    0.16
   2  -4 -12   -0.05    0.23
   2  -4 -12    0.00    0.15
  -2   4  12    0.00    0.16
  -2   4  12    0.10    0.22
  -2   4  12    0.08    0.14
   2  -4 -11    0.04    0.13
   2  -4 -11   -0.01    0.13
   2  -4 -11    0.13    0.14
   2  -4 -11    0.02    0.22
   2  -4 -11   -0.07    0.21
  -2   4  11    0.06    0.21
  -2   4  11    0.08    0.15
  -2   4  11   -0.07    0.21
   2  -4 -10    1.44    0.37
   2  -4 -10    1.67    0.25
   2  -4 -10    1.68    0.37
   2  -4 -10    1.60    0.37
   2  -4 -10    1.55    0.37
  -2   4  10    1.71    0.23
  -2   4  10    1.60    0.27
  -2   4  10    1.54    0.36
   2  -4  -9   68.10    1.53
   2  -4  -9   67.51    1.48
   2  -4  -9   67.35    1.49
   2  -4  -9   69.13    1.52
   2  -4  -9   69.53    1.52
  -2   4   9   68.49    1.48
  -2   4   9   67.52    1.54
  -2   4   9   68.93    1.51
   2  -4  -8    3.57    0.26
   2  -4  -8    3.76    0.24
   2  -4  -8    3.95    0.24
   2  -4  -8    3.68    0.24
   2  -4  -8    3.78    0.24
  -2   4   8    3.56    0.24
  -2   4   8    3.66    0.28
  -2   4   8    3.85    0.34
   2  -4  -7    8.97    0.29
   2  -4  -7    9.04    0.33
   2  -4  -7    9.04    0.30
   2  -4  -7    8.58    0.29
   2  -4  -7    8.79    0.29
  -2   4   7    8.86    0.33
  -2   4   7    8.45    0.28
  -2   4   7    8.67    0.29
   2  -4  -6    6.47    0.26
   2  -4  -6    6.47    0.22
   2  -4  -6    6.29    0.23
   2  -4  -6    6.37    0.31
   2  -4  -6    6.25    0.21
  -2   4   6    6.35    0.21
  -2   4   6    6.23    0.31
  -2   4   6    6.48    0.37
   2  -4  -5    0.31    0.11
   2  -4  -5    0.40    0.13
   2  -4  -5    0.43    0.11
   2  -4  -5    0.25    0.14
  -2   4   5    0.41    0.07
  -2   4   5    0.01    0.09
  -2   4   5    0.43    0.11
  -2   4   5    0.26    0.14
   2  -4  -4   41.20    0.82
   2  -4  -4   40.32    0.74
   2  -4  -4   40.59    0.73
   2  -4  -4   39.85    0.67
  -2   4   4   40.99    0.82
  -2   4   4   40.53    0.81
  -2   4   4   41.58    0.72
  -2   4   4   39.72    0.73
   2  -4  -3    1.75    0.10
   2  -4  -3    1.80    0.15
   2  -4  -3    1.75    0.16
   2  -4  -3    1.74    0.06
  -2   4   3    1.76    0.24
  -2   4   3    1.83    0.09
  -2   4   3    1.73    0.15
  -2   4   3    1.67    0.10
   2  -4  -2   90.16    1.59
   2  -4  -2   87.98    1.64
   2  -4  -2  100.24    1.37
   2  -4  -2   87.05    1.49
  -2   4   2   88.71    1.66
  -2   4   2   88.78    1.55
  -2   4   2   89.66    1.52
  -2   4   2   97.13    1.31
   2  -4  -1    2.83    0.16
   2  -4  -1    2.95    0.17
   2  -4  -1    2.97    0.11
  -2   4   1    2.95    0.17
  -2   4   1    2.75    0.11
  -2   4   1    2.86    0.11
   2  -4   0   32.50    0.61
   2  -4   0   32.08    0.61
   2  -4   0   32.14    0.65
   2  -4   0   32.85    0.62
  -2   4   0   32.33    0.66
  -2   4   0   32.19    0.63
   2  -4   1    2.54    0.11
   2  -4   1    2.51    0.11
   2  -4   1    2.38    0.16
   2  -4   1    2.45    0.07
  -2   4  -1    2.76    0.25
  -2   4  -1    2.61    0.17
  -2   4  -1    2.58    0.07
  -2   4  -1    2.48    0.17
   2  -4   2    0.37    0.06
   2  -4   2    0.29    0.12
   2  -4   2    0.41    0.12
  -2   4  -2    0.21    0.08
  -2   4  -2    0.38    0.11
  -2   4  -2    0.38    0.12
  -2   4  -2    0.24    0.12
  -2   4  -2    0.38    0.07
   2  -4   3    7.98    0.23
   2  -4   3    8.16    0.23
   2  -4   3    8.13    0.24
  -2   4  -3    8.44    0.24
  -2   4  -3    8.06    0.29
  -2   4  -3    8.24    0.40
  -2   4  -3    7.90    0.19
  -2   4  -3    8.16    0.24
   2  -4   4    4.19    0.27
   2  -4   4    4.04    0.15
   2  -4   4    4.21    0.26
   2  -4   4    4.39    0.26
  -2   4  -4    4.11    0.24
  -2   4  -4    3.91    0.19
  -2   4  -4    4.33    0.22
  -2   4  -4    4.18    0.19
   2  -4   5    0.30    0.15
   2  -4   5    0.34    0.14
   2  -4   5    0.19    0.17
   2  -4   5    0.31    0.18
  -2   4  -5    0.37    0.14
  -2   4  -5    0.29    0.12
  -2   4  -5    0.40    0.10
  -2   4  -5    0.37    0.12
   2  -4   6    2.46    0.29
   2  -4   6    2.76    0.30
   2  -4   6    2.70    0.25
   2  -4   6    2.48    0.39
  -2   4  -6    2.49    0.30
  -2   4  -6    2.43    0.24
  -2   4  -6    2.49    0.18
  -2   4  -6    2.18    0.20
   2  -4   7    0.04    0.16
   2  -4   7    0.07    0.12
   2  -4   7    0.05    0.11
   2  -4   7    0.06    0.15
  -2   4  -7    0.07    0.14
  -2   4  -7    0.04    0.19
  -2   4  -7    0.07    0.11
  -2   4  -7    0.10    0.19
   2  -4   8    0.91    0.19
   2  -4   8    0.93    0.18
   2  -4   8    0.78    0.20
   2  -4   8    0.75    0.25
  -2   4  -8    0.95    0.21
  -2   4  -8    0.89    0.23
  -2   4  -8    0.82    0.29
  -2   4  -8    0.99    0.21
   2  -4   9    0.06    0.15
   2  -4   9    0.09    0.14
   2  -4   9    0.11    0.16
   2  -4   9   -0.03    0.18
  -2   4  -9    0.05    0.16
  -2   4  -9    0.22    0.15
  -2   4  -9   -0.00    0.17
  -2   4  -9    0.06    0.15
   2  -4  10   -0.00    0.14
   2  -4  10    0.12    0.14
   2  -4  10    0.00    0.14
   2  -4  10    0.05    0.28
  -2   4 -10    0.00    0.15
  -2   4 -10   -0.00    0.15
  -2   4 -10   -0.00    0.17
  -2   4 -10    0.06    0.14
   2  -4  11    0.01    0.13
   2  -4  11    0.06    0.19
   2  -4  11   -0.00    0.14
   2  -4  11   -0.01    0.26
  -2   4 -11    0.01    0.14
  -2   4 -11   -0.00    0.23
  -2   4 -11   -0.06    0.22
  -2   4 -11    0.01    0.14
   2  -4  12    0.00    0.29
   2  -4  12   -0.00    0.28
   2  -4  12    0.24    0.17
   2  -4  12   -0.07    0.21
  -2   4 -12   -0.00    0.22
  -2   4 -12    0.00    0.20
  -2   4 -12    0.03    0.20
  -2   4 -12   -0.01    0.31
   2  -3 -14    0.03    0.20
   2  -3 -14    0.35    0.20
   2  -3 -14    0.00    0.20
   2  -3 -14   -0.01    0.22
   2  -3 -14   -0.02    0.20
  -2   3  14    0.12    0.21
  -2   3  14    0.17    0.20
  -2   3  14   -0.00    0.21
   2  -3 -13    0.52    0.32
   2  -3 -13   -0.02    0.21
   2  -3 -13   -0.00    0.20
   2  -3 -13   -0.01    0.32
   2  -3 -13    0.00    0.35
  -2   3  13    0.49    0.20
  -2   3  13    0.50    0.32
  -2   3  13   -0.01    0.34
   2  -3 -12    0.73    0.19
   2  -3 -12    0.03    0.19
   2  -3 -12    0.13    0.29
   2  -3 -12   -0.01    0.20
   2  -3 -12   -0.00    0.32
  -2   3  12    0.00    0.21
  -2   3  12    0.44    0.19
  -2   3  12    0.24    0.28
   2  -3 -11    0.25    0.17
   2  -3 -11    0.25    0.17
   2  -3 -11    0.22    0.18
   2  -3 -11    0.17    0.27
   2  -3 -11    0.24    0.19
  -2   3  11    0.27    0.19
  -2   3  11    0.19    0.28
  -2   3  11    0.20    0.27
   2  -3 -10    9.26    0.40
   2  -3 -10    9.06    0.40
   2  -3 -10    9.04    0.55
   2  -3 -10    9.11    0.40
   2  -3 -10    9.54    0.43
  -2   3  10    9.42    0.55
  -2   3  10    9.10    0.42
  -2   3  10    9.26    0.41
   2  -3  -9    0.79    0.18
   2  -3  -9    0.89    0.31
   2  -3  -9    0.85    0.29
   2  -3  -9    0.78    0.18
   2  -3  -9    0.81    0.19
  -2   3   9    0.76    0.18
  -2   3   9    0.90    0.29
  -2   3   9    0.66    0.22
   2  -3  -8   15.68    0.57
   2  -3  -8   15.86    0.57
   2  -3  -8   15.93    0.56
   2  -3  -8   16.11    0.47
   2  -3  -8   16.33    0.49
  -2   3   8   16.16    0.46
  -2   3   8   15.90    0.57
  -2   3   8   15.79    0.49
   2  -3  -7   18.14    0.59
   2  -3  -7   17.69    0.55
   2  -3  -7   18.21    0.55
   2  -3  -7   17.88    0.44
   2  -3  -7   18.47    0.47
  -2   3   7   18.14    0.46
  -2   3   7   17.74    0.44
  -2   3   7   17.98    0.49
   2  -3  -6   11.87    0.34
   2  -3  -6   11.93    0.39
   2  -3  -6   12.01    0.32
   2  -3  -6   11.90    0.31
   2  -3  -6   11.86    0.32
  -2   3   6   12.01    0.39
  -2   3   6   11.85    0.35
   2  -3  -5    1.66    0.15
   2  -3  -5    1.67    0.18
   2  -3  -5    1.62    0.18
   2  -3  -5    1.59    0.12
   2  -3  -5    1.75    0.18
  -2   3   5    1.66    0.11
  -2   3   5    1.75    0.23
  -2   3   5    1.57    0.17
   2  -3  -4   16.57    0.39
   2  -3  -4   15.61    0.32
   2  -3  -4   15.50    0.32
   2  -3  -4   16.39    0.39
   2  -3  -4   16.00    0.32
  -2   3   4   16.21    0.37
  -2   3   4   16.39    0.33
  -2   3   4   16.08    0.38
   2  -3  -3  103.27    1.71
   2  -3  -3  104.71    1.99
   2  -3  -3  102.33    1.69
   2  -3  -3  104.55    1.67
  -2   3   3   98.39    1.91
  -2   3   3  106.36    1.68
  -2   3   3  102.45    1.70
  -2   3   3  103.45    1.78
   2  -3  -2   59.79    1.08
   2  -3  -2   58.06    0.96
   2  -3  -2   58.65    0.88
   2  -3  -2   58.76    0.97
  -2   3   2   57.05    0.83
  -2   3   2   58.61    1.07
  -2   3   2   58.03    0.96
  -2   3   2   57.92    0.96
   2  -3  -1   20.11    0.43
   2  -3  -1   19.67    0.36
   2  -3  -1   19.83    0.32
  -2   3   1   19.83    0.42
  -2   3   1   18.70    0.23
  -2   3   1   19.48    0.31
  -2   3   1   19.46    0.35
  -2   3   1   18.92    0.24
   2  -3   0    4.80    0.15
   2  -3   0    4.59    0.11
   2  -3   0    4.89    0.19
   2  -3   0    4.81    0.15
  -2   3   0    4.62    0.12
  -2   3   0    4.59    0.07
  -2   3   0    4.83    0.19
   2  -3   1   16.65    0.29
   2  -3   1   17.51    0.27
   2  -3   1   16.65    0.29
   2  -3   1   16.85    0.30
  -2   3  -1   16.79    0.26
  -2   3  -1   16.87    0.39
  -2   3  -1   16.99    0.31
  -2   3  -1   16.34    0.39
   2  -3   2    4.33    0.18
   2  -3   2    4.29    0.18
   2  -3   2    4.24    0.10
  -2   3  -2    4.42    0.15
  -2   3  -2    4.31    0.14
  -2   3  -2    4.18    0.14
  -2   3  -2    4.26    0.28
  -2   3  -2    4.23    0.20
   2  -3   3   21.51    0.42
   2  -3   3   22.93    0.54
   2  -3   3   21.33    0.43
   2  -3   3   21.79    0.42
  -2   3  -3   21.30    0.39
  -2   3  -3   21.52    0.50
  -2   3  -3   21.44    0.50
  -2   3  -3   21.52    0.51
   2  -3   4   13.71    0.36
   2  -3   4   13.59    0.39
   2  -3   4   13.29    0.40
   2  -3   4   13.65    0.40
  -2   3  -4   13.47    0.38
  -2   3  -4   13.68    0.42
  -2   3  -4   13.43    0.37
  -2   3  -4   13.50    0.41
   2  -3   5    0.01    0.10
   2  -3   5   -0.02    0.06
   2  -3   5    0.04    0.11
   2  -3   5    0.04    0.10
  -2   3  -5    0.06    0.07
  -2   3  -5    0.03    0.07
  -2   3  -5   -0.03    0.13
  -2   3  -5   -0.02    0.06
   2  -3   6    0.03    0.13
   2  -3   6    0.04    0.08
   2  -3   6    0.11    0.08
   2  -3   6    0.00    0.11
  -2   3  -6   -0.02    0.08
  -2   3  -6    0.07    0.13
  -2   3  -6   -0.05    0.10
  -2   3  -6   -0.02    0.08
   2  -3   7    0.27    0.13
   2  -3   7    0.46    0.13
   2  -3   7    0.34    0.14
   2  -3   7    0.34    0.18
  -2   3  -7    0.40    0.14
  -2   3  -7    0.31    0.17
  -2   3  -7    0.41    0.13
  -2   3  -7    0.40    0.14
   2  -3   8    0.03    0.09
   2  -3   8   -0.06    0.09
   2  -3   8   -0.00    0.12
   2  -3   8    0.04    0.10
  -2   3  -8   -0.06    0.10
  -2   3  -8   -0.05    0.09
  -2   3  -8    0.01    0.18
  -2   3  -8    0.08    0.10
   2  -3   9    1.28    0.21
   2  -3   9    1.33    0.32
   2  -3   9    1.15    0.22
   2  -3   9    0.04    0.26
  -2   3  -9    1.41    0.23
  -2   3  -9    1.41    0.34
  -2   3  -9    1.37    0.38
  -2   3  -9    1.36    0.23
   2  -3  10    0.74    0.31
   2  -3  10    1.00    0.22
   2  -3  10    0.04    0.25
   2  -3  10    0.85    0.21
  -2   3 -10    1.22    0.22
  -2   3 -10   -0.00    0.24
  -2   3 -10    0.02    0.22
  -2   3 -10    0.89    0.22
   2  -3  11    0.01    0.33
   2  -3  11    1.06    0.21
   2  -3  11    0.06    0.26
   2  -3  11    0.02    0.34
  -2   3 -11   -0.00    0.24
  -2   3 -11    0.97    0.23
  -2   3 -11    0.80    0.36
  -2   3 -11    0.01    0.23
   2  -3  12   -0.01    0.16
   2  -3  12    0.02    0.16
   2  -3  12    0.00    0.16
   2  -3  12    0.04    0.19
  -2   3 -12    0.01    0.27
  -2   3 -12    0.29    0.27
  -2   3 -12    0.00    0.28
  -2   3 -12   -0.03    0.17
   2  -2 -14   -0.02    0.18
   2  -2 -14   -0.16    0.18
   2  -2 -14   -0.02    0.18
   2  -2 -14    0.00    0.31
   2  -2 -14   -0.01    0.30
  -2   2  14   -0.02    0.18
  -2   2  14   -0.03    0.19
  -2   2  14   -0.00    0.21
   2  -2 -13    0.04    0.16
   2  -2 -13    0.01    0.15
   2  -2 -13   -0.00    0.25
   2  -2 -13   -0.00    0.17
   2  -2 -13   -0.10    0.16
  -2   2  13    0.01    0.15
  -2   2  13   -0.06    0.16
  -2   2  13   -0.00    0.25
   2  -2 -12    0.43    0.18
   2  -2 -12    0.01    0.28
   2  -2 -12   -0.03    0.28
   2  -2 -12   -0.00    0.20
   2  -2 -12    0.03    0.18
  -2   2  12    0.00    0.19
  -2   2  12    0.29    0.18
  -2   2  12   -0.01    0.27
   2  -2 -11    1.04    0.23
   2  -2 -11    1.04    0.35
   2  -2 -11    1.06    0.24
   2  -2 -11    1.06    0.25
   2  -2 -11    1.07    0.23
  -2   2  11    0.99    0.25
  -2   2  11    1.17    0.36
  -2   2  11    0.99    0.24
   2  -2 -10    1.37    0.23
   2  -2 -10    1.54    0.37
   2  -2 -10    1.68    0.22
   2  -2 -10    1.61    0.39
   2  -2 -10    1.56    0.23
  -2   2  10    1.50    0.37
  -2   2  10    1.41    0.24
  -2   2  10    1.73    0.23
   2  -2  -9    2.89    0.36
   2  -2  -9    2.95    0.37
   2  -2  -9    2.76    0.24
   2  -2  -9    2.89    0.37
   2  -2  -9    2.86    0.40
  -2   2   9    2.60    0.25
  -2   2   9    2.84    0.39
  -2   2   9    2.82    0.24
   2  -2  -8    1.95    0.18
   2  -2  -8    1.89    0.18
   2  -2  -8    1.88    0.19
   2  -2  -8    2.00    0.19
   2  -2  -8    2.06    0.32
  -2   2   8    1.78    0.31
  -2   2   8    1.63    0.19
  -2   2   8    2.05    0.19
   2  -2  -7    0.73    0.13
   2  -2  -7    0.62    0.13
   2  -2  -7    0.68    0.13
   2  -2  -7    0.62    0.22
   2  -2  -7    0.66    0.14
  -2   2   7    0.68    0.13
  -2   2   7    0.73    0.13
  -2   2   7    0.69    0.23
   2  -2  -6    0.61    0.17
   2  -2  -6    0.65    0.17
   2  -2  -6    0.47    0.16
   2  -2  -6    0.55    0.12
   2  -2  -6    0.59    0.13
  -2   2   6    0.54    0.12
  -2   2   6    0.61    0.20
  -2   2   6    0.47    0.17
   2  -2  -5    6.34    0.20
   2  -2  -5    6.34    0.20
   2  -2  -5    6.44    0.22
   2  -2  -5    6.36    0.19
   2  -2  -5    6.43    0.22
  -2   2   5    6.19    0.20
  -2   2   5    6.31    0.23
  -2   2   5    6.38    0.29
   2  -2  -4   20.42    0.44
   2  -2  -4   19.46    0.38
   2  -2  -4   19.19    0.36
   2  -2  -4   19.86    0.38
   2  -2  -4   19.29    0.39
  -2   2   4   19.83    0.38
  -2   2   4   19.70    0.43
  -2   2   4   20.30    0.47
   2  -2  -3   18.85    0.38
   2  -2  -3   19.39    0.40
   2  -2  -3   18.97    0.39
   2  -2  -3   19.51    0.38
  -2   2   3   19.35    0.38
  -2   2   3   19.54    0.41
  -2   2   3   18.81    0.34
   2  -2  -2   48.62    0.85
   2  -2  -2   47.58    0.75
   2  -2  -2   48.06    0.79
   2  -2  -2   48.34    0.75
  -2   2   2   47.46    0.93
  -2   2   2   48.86    0.75
  -2   2   2   48.36    0.73
   2  -2  -1    0.00    0.05
   2  -2  -1    0.04    0.03
   2  -2  -1   -0.00    0.03
  -2   2   1   -0.08    0.08
  -2   2   1   -0.02    0.03
  -2   2   1    0.02    0.03
  -2   2   1   -0.00    0.03
  -2   2   1    0.00    0.03
   2  -2   0   37.15    0.66
   2  -2   0   36.98    0.53
   2  -2   0   38.44    0.55
   2  -2   0   37.37    0.54
   2  -2   0   36.73    0.52
  -2   2   0   38.67    0.56
  -2   2   0   37.06    0.75
  -2   2   0   38.98    0.56
   2  -2   1   43.59    0.66
   2  -2   1   43.48    0.66
   2  -2   1   43.31    0.66
  -2   2  -1   43.85    0.66
  -2   2  -1   42.54    0.77
  -2   2  -1   43.92    0.65
  -2   2  -1   43.76    0.80
   2  -2   2  106.46    1.76
   2  -2   2  107.86    1.72
   2  -2   2  105.95    1.75
  -2   2  -2  108.38    1.79
  -2   2  -2  106.14    2.01
  -2   2  -2  104.35    1.88
  -2   2  -2  107.01    1.79
  -2   2  -2  107.35    1.80
   2  -2   3   12.21    0.25
   2  -2   3   12.04    0.33
   2  -2   3   12.02    0.25
   2  -2   3   12.40    0.26
  -2   2  -3   11.93    0.32
  -2   2  -3   12.28    0.26
  -2   2  -3   12.30    0.32
  -2   2  -3   12.43    0.32
   2  -2   4    9.79    0.24
   2  -2   4    9.69    0.24
   2  -2   4    9.65    0.24
   2  -2   4    9.91    0.31
  -2   2  -4    9.58    0.32
  -2   2  -4    9.52    0.24
  -2   2  -4    9.49    0.29
  -2   2  -4    9.83    0.31
   2  -2   5    0.82    0.11
   2  -2   5    0.95    0.11
   2  -2   5    0.89    0.15
   2  -2   5    0.93    0.11
  -2   2  -5    0.84    0.12
  -2   2  -5    0.96    0.12
  -2   2  -5    0.94    0.12
  -2   2  -5    0.74    0.14
   2  -2   6   19.64    0.46
   2  -2   6   19.77    0.57
   2  -2   6   20.01    0.54
   2  -2   6   19.64    0.58
  -2   2  -6   20.71    0.60
  -2   2  -6   20.41    0.50
  -2   2  -6   20.13    0.49
  -2   2  -6   20.65    0.54
   2  -2   7    9.13    0.43
   2  -2   7    9.47    0.34
   2  -2   7    9.11    0.32
   2  -2   7    9.31    0.53
  -2   2  -7    9.18    0.34
  -2   2  -7    9.20    0.33
  -2   2  -7    9.25    0.34
  -2   2  -7    9.45    0.37
   2  -2   8    1.62    0.31
   2  -2   8    1.46    0.32
   2  -2   8    1.74    0.25
   2  -2   8    1.55    0.31
  -2   2  -8    1.64    0.21
  -2   2  -8    1.62    0.23
  -2   2  -8    1.80    0.21
  -2   2  -8    1.53    0.21
   2  -2   9    9.56    0.40
   2  -2   9    9.45    0.41
   2  -2   9    9.64    0.47
   2  -2   9    9.51    0.40
  -2   2  -9    9.59    0.42
  -2   2  -9    9.39    0.46
  -2   2  -9    9.72    0.42
  -2   2  -9    9.98    0.59
   2  -2  10    0.12    0.14
   2  -2  10   -0.08    0.17
   2  -2  10    0.02    0.23
   2  -2  10    0.08    0.22
  -2   2 -10    0.04    0.25
  -2   2 -10    0.10    0.15
  -2   2 -10    0.05    0.15
  -2   2 -10    0.13    0.14
   2  -2  11    0.00    0.18
   2  -2  11    0.04    0.19
   2  -2  11    0.58    0.18
   2  -2  11   -0.01    0.22
  -2   2 -11   -0.02    0.20
  -2   2 -11    0.00    0.21
  -2   2 -11    0.73    0.20
  -2   2 -11    1.00    0.30
   2  -2  12   -0.03    0.28
   2  -2  12   -0.00    0.27
   2  -2  12    0.12    0.17
   2  -2  12    0.06    0.21
  -2   2 -12    0.01    0.29
  -2   2 -12    0.35    0.29
  -2   2 -12   -0.00    0.20
  -2   2 -12    0.13    0.19
   2  -2  13    0.00    0.14
   2  -2  13   -0.11    0.23
   2  -2  13    0.06    0.26
   2  -2  13   -0.03    0.15
  -2   2 -13    0.17    0.25
  -2   2 -13    0.04    0.27
  -2   2 -13    0.00    0.16
  -2   2 -13    0.04    0.27
   2  -1 -14    0.01    0.28
   2  -1 -14    0.02    0.18
   2  -1 -14    0.16    0.28
   2  -1 -14   -0.03    0.19
   2  -1 -14   -0.00    0.19
  -2   1  14    0.08    0.19
  -2   1  14   -0.00    0.30
   2  -1 -13    0.53    0.20
   2  -1 -13   -0.03    0.20
   2  -1 -13   -0.00    0.20
   2  -1 -13   -0.00    0.22
   2  -1 -13    0.01    0.20
  -2   1  13    0.43    0.21
  -2   1  13   -0.00    0.21
  -2   1  13   -0.02    0.20
   2  -1 -12    0.03    0.14
   2  -1 -12   -0.00    0.14
   2  -1 -12   -0.04    0.23
   2  -1 -12    0.01    0.14
   2  -1 -12   -0.00    0.25
  -2   1  12    0.09    0.15
  -2   1  12    0.00    0.15
  -2   1  12   -0.00    0.15
   2  -1 -11    0.51    0.28
   2  -1 -11   -0.13    0.18
   2  -1 -11    0.69    0.30
   2  -1 -11    0.00    0.21
   2  -1 -11    0.59    0.29
  -2   1  11    0.60    0.20
  -2   1  11    0.00    0.19
  -2   1  11    0.36    0.28
   2  -1 -10    0.93    0.21
   2  -1 -10    0.81    0.21
   2  -1 -10    0.86    0.23
  -2   1  10    0.77    0.34
  -2   1  10    0.80    0.19
  -2   1  10    0.64    0.22
  -2   1  10    0.83    0.20
   2  -1  -9    8.85    0.52
   2  -1  -9    9.31    0.53
   2  -1  -9    9.17    0.53
   2  -1  -9    9.32    0.41
  -2   1   9    8.98    0.39
  -2   1   9    9.05    0.40
  -2   1   9    8.74    0.37
  -2   1   9    8.76    0.36
   2  -1  -8    0.15    0.11
   2  -1  -8    0.09    0.12
   2  -1  -8    0.10    0.12
   2  -1  -8    0.17    0.13
  -2   1   8    0.08    0.20
  -2   1   8    0.13    0.11
  -2   1   8    0.05    0.12
  -2   1   8    0.18    0.11
   2  -1  -7    0.46    0.12
   2  -1  -7    0.44    0.12
   2  -1  -7    0.45    0.13
   2  -1  -7    0.41    0.14
  -2   1   7    0.39    0.13
  -2   1   7    0.26    0.18
  -2   1   7    0.38    0.13
  -2   1   7    0.30    0.18
   2  -1  -6    2.12    0.22
   2  -1  -6    2.12    0.23
   2  -1  -6    2.33    0.26
   2  -1  -6    2.30    0.24
  -2   1   6    2.00    0.16
  -2   1   6    2.29    0.22
  -2   1   6    2.11    0.17
  -2   1   6    2.26    0.22
   2  -1  -5    3.36    0.16
   2  -1  -5    3.35    0.15
   2  -1  -5    3.49    0.18
   2  -1  -5    3.28    0.16
  -2   1   5    3.25    0.21
  -2   1   5    3.37    0.17
  -2   1   5    3.45    0.21
  -2   1   5    3.40    0.17
   2  -1  -4    3.46    0.13
   2  -1  -4    3.44    0.13
   2  -1  -4    3.63    0.17
   2  -1  -4    3.60    0.16
  -2   1   4    3.45    0.13
  -2   1   4    3.56    0.13
  -2   1   4    3.32    0.16
  -2   1   4    3.61    0.16
   2  -1  -3    7.85    0.21
   2  -1  -3    7.40    0.21
   2  -1  -3    7.25    0.21
   2  -1  -3    7.46    0.22
  -2   1   3    7.58    0.21
  -2   1   3    7.54    0.21
  -2   1   3    7.51    0.20
   2  -1  -2    6.06    0.23
   2  -1  -2    5.82    0.11
   2  -1  -2    5.71    0.22
   2  -1  -2    5.76    0.11
   2  -1  -2    5.77    0.12
  -2   1   2    5.88    0.15
  -2   1   2    5.62    0.11
  -2   1   2    5.86    0.17
   2  -1  -1   23.23    0.30
   2  -1  -1   23.29    0.30
   2  -1  -1   23.90    0.42
   2  -1  -1   23.86    0.31
  -2   1   1   23.72    0.42
  -2   1   1   23.67    0.42
  -2   1   1   23.32    0.30
  -2   1   1   23.16    0.37
   2  -1   0   18.27    0.29
   2  -1   0   18.27    0.40
  -2   1   0   18.38    0.39
  -2   1   0   18.27    0.33
   2  -1   1   23.13    0.37
   2  -1   1   22.26    0.28
   2  -1   1   22.61    0.31
  -2   1  -1   22.51    0.31
  -2   1  -1   23.17    0.40
  -2   1  -1   22.69    0.41
  -2   1  -1   22.69    0.31
  -2   1  -1   22.57    0.41
   2  -1   2   11.42    0.28
   2  -1   2   11.05    0.22
   2  -1   2   11.08    0.22
   2  -1   2   11.34    0.28
  -2   1  -2   11.46    0.23
  -2   1  -2   11.26    0.19
  -2   1  -2   10.67    0.22
  -2   1  -2   11.14    0.26
   2  -1   3   99.09    1.60
   2  -1   3  100.94    1.70
   2  -1   3   99.36    1.62
   2  -1   3  101.29    1.81
  -2   1  -3   99.72    1.65
  -2   1  -3  101.21    1.72
  -2   1  -3   99.37    1.77
  -2   1  -3   99.97    1.64
   2  -1   4    0.11    0.07
   2  -1   4    0.11    0.09
   2  -1   4    0.14    0.06
   2  -1   4    0.16    0.06
  -2   1  -4    0.19    0.06
  -2   1  -4    0.11    0.06
  -2   1  -4    0.16    0.08
  -2   1  -4    0.12    0.07
   2  -1   5    7.71    0.29
   2  -1   5    7.93    0.24
   2  -1   5    7.68    0.27
   2  -1   5    7.87    0.30
  -2   1  -5    7.56    0.23
  -2   1  -5    7.57    0.23
  -2   1  -5    7.70    0.25
  -2   1  -5    7.57    0.26
   2  -1   6    0.24    0.10
   2  -1   6    0.19    0.16
   2  -1   6    0.23    0.10
   2  -1   6    0.24    0.12
  -2   1  -6    0.24    0.10
  -2   1  -6    0.44    0.11
  -2   1  -6    0.22    0.12
  -2   1  -6    0.20    0.10
   2  -1   7    6.53    0.26
   2  -1   7    6.40    0.27
   2  -1   7    6.56    0.27
  -2   1  -7    6.42    0.27
  -2   1  -7    6.83    0.30
  -2   1  -7    6.25    0.27
  -2   1  -7    6.18    0.29
   2  -1   8   74.51    1.60
   2  -1   8   74.88    1.76
   2  -1   8   74.29    1.60
   2  -1   8   75.18    1.87
  -2   1  -8   78.65    1.89
  -2   1  -8   72.87    1.60
  -2   1  -8   74.80    1.66
  -2   1  -8   73.57    1.61
   2  -1   9    1.83    0.22
   2  -1   9    1.83    0.23
   2  -1   9    1.98    0.27
   2  -1   9    1.94    0.23
  -2   1  -9    1.93    0.25
  -2   1  -9    1.31    0.35
  -2   1  -9    1.33    0.38
  -2   1  -9    0.87    0.36
   2  -1  10    2.88    0.41
   2  -1  10    2.97    0.42
   2  -1  10    3.14    0.28
   2  -1  10    3.21    0.47
  -2   1 -10    2.67    0.30
  -2   1 -10    3.12    0.29
  -2   1 -10    2.95    0.28
  -2   1 -10    3.05    0.30
   2  -1  11    0.92    0.21
   2  -1  11    0.90    0.22
   2  -1  11    0.99    0.34
   2  -1  11   -0.00    0.39
  -2   1 -11    1.08    0.23
  -2   1 -11    1.29    0.23
  -2   1 -11   -0.00    0.24
  -2   1 -11    0.03    0.37
   2  -1  12   -0.01    0.22
   2  -1  12    0.39    0.36
   2  -1  12    0.07    0.22
  -2   1 -12    1.09    0.36
  -2   1 -12    0.78    0.24
  -2   1 -12   -0.00    0.38
  -2   1 -12    1.21    0.25
   2  -1  13    0.30    0.25
   2  -1  13    0.00    0.27
   2  -1  13    0.04    0.38
  -2   1 -13    0.79    0.25
  -2   1 -13   -0.00    0.25
  -2   1 -13    0.77    0.24
  -2   1 -13    0.09    0.26
  -2   1 -13    0.94    0.40
   2   0 -14   -0.01    0.26
   2   0 -14    0.05    0.26
   2   0 -14    0.00    0.15
   2   0 -14   -0.04    0.24
   2   0 -14   -0.00    0.29
  -2   0  14    0.03    0.18
  -2   0  14    0.03    0.18
  -2   0  14   -0.03    0.29
   2   0 -13    0.02    0.22
   2   0 -13    0.17    0.22
   2   0 -13    0.00    0.24
   2   0 -13    0.33    0.23
  -2   0  13    0.44    0.21
  -2   0  13    0.33    0.23
  -2   0  13   -0.02    0.21
  -2   0  13    0.17    0.23
   2   0 -12    0.00    0.21
   2   0 -12    0.39    0.20
   2   0 -12    0.22    0.21
   2   0 -12    0.00    0.23
  -2   0  12    0.03    0.19
  -2   0  12    0.37    0.22
  -2   0  12    0.35    0.21
  -2   0  12    0.33    0.19
   2   0 -11   -0.00    0.28
   2   0 -11    0.26    0.18
   2   0 -11   -0.01    0.20
   2   0 -11    0.30    0.28
  -2   0  11    0.27    0.27
  -2   0  11    0.32    0.19
  -2   0  11    0.24    0.26
  -2   0  11    0.00    0.19
   2   0 -10    0.72    0.21
   2   0 -10    0.76    0.21
   2   0 -10    0.81    0.20
   2   0 -10    0.66    0.23
  -2   0  10    0.80    0.22
  -2   0  10    0.72    0.20
  -2   0  10    0.62    0.20
  -2   0  10    0.57    0.34
   2   0  -9    0.05    0.12
   2   0  -9    0.05    0.12
   2   0  -9    0.14    0.14
   2   0  -9    0.02    0.12
  -2   0   9    0.04    0.20
  -2   0   9    0.10    0.12
  -2   0   9   -0.04    0.12
  -2   0   9   -0.04    0.12
   2   0  -8    4.42    0.37
   2   0  -8    4.39    0.37
   2   0  -8    4.08    0.25
   2   0  -8    4.11    0.28
  -2   0   8    4.15    0.27
  -2   0   8    3.96    0.35
  -2   0   8    4.57    0.36
  -2   0   8    4.07    0.26
   2   0  -7    0.11    0.16
   2   0  -7    0.09    0.16
   2   0  -7    0.10    0.09
   2   0  -7    0.10    0.11
  -2   0   7    0.06    0.11
  -2   0   7    0.00    0.09
  -2   0   7    0.12    0.10
  -2   0   7   -0.06    0.16
   2   0  -6    2.22    0.16
   2   0  -6    2.26    0.16
   2   0  -6    2.07    0.16
   2   0  -6    2.27    0.19
  -2   0   6    2.09    0.16
  -2   0   6    2.19    0.17
  -2   0   6    2.29    0.16
  -2   0   6    2.13    0.18
   2   0  -5    4.75    0.18
   2   0  -5    4.59    0.18
   2   0  -5    4.52    0.22
  -2   0   5    4.43    0.18
  -2   0   5    4.56    0.19
  -2   0   5    4.50    0.18
  -2   0   5    4.61    0.21
   2   0  -4    3.96    0.15
   2   0  -4    4.19    0.15
   2   0  -4    4.01    0.28
   2   0  -4    4.28    0.16
  -2   0   4    4.05    0.15
  -2   0   4    4.11    0.15
  -2   0   4    4.05    0.24
  -2   0   4    4.11    0.18
   2   0  -3    5.25    0.20
   2   0  -3    5.24    0.20
   2   0  -3    5.37    0.20
   2   0  -3    5.40    0.16
  -2   0   3    5.32    0.14
  -2   0   3    5.22    0.14
  -2   0   3    5.38    0.16
  -2   0   3    5.53    0.19
   2   0  -2    0.49    0.08
   2   0  -2    0.52    0.08
   2   0  -2    0.55    0.07
   2   0  -2    0.44    0.09
  -2   0   2    0.58    0.08
  -2   0   2    0.61    0.08
  -2   0   2    0.48    0.10
  -2   0   2    0.39    0.09
   2   0  -1    0.09    0.03
   2   0  -1    0.11    0.04
   2   0  -1    0.09    0.04
  -2   0   1    0.09    0.04
  -2   0   1    0.09    0.03
  -2   0   1    0.12    0.03
  -2   0   1    0.10    0.06
  -2   0   1   -0.01    0.06
   2   0   0   20.55    0.36
  -2   0   0   20.48    0.32
  -2   0   0   20.57    0.42
   2   0   1   13.78    0.17
   2   0   1   14.50    0.34
  -2   0  -1   13.35    0.17
  -2   0  -1   13.33    0.17
  -2   0  -1   13.92    0.27
  -2   0  -1   13.70    0.24
  -2   0  -1   13.78    0.24
  -2   0  -1   13.97    0.17
   2   0   2    0.77    0.13
   2   0   2    0.78    0.04
   2   0   2    0.77    0.08
  -2   0  -2    0.75    0.04
  -2   0  -2    0.78    0.08
  -2   0  -2    0.74    0.04
  -2   0  -2    0.76    0.04
  -2   0  -2    0.72    0.07
   2   0   3    0.08    0.07
   2   0   3    0.13    0.06
   2   0   3    0.09    0.07
  -2   0  -3    0.15    0.04
  -2   0  -3    0.10    0.06
  -2   0  -3    0.09    0.04
  -2   0  -3    0.13    0.10
  -2   0  -3   -0.02    0.04
   2   0   4    0.13    0.05
   2   0   4    0.12    0.08
   2   0   4    0.12    0.06
   2   0   4    0.13    0.08
  -2   0  -4    0.15    0.09
  -2   0  -4    0.11    0.08
  -2   0  -4    0.16    0.09
  -2   0  -4    0.17    0.08
   2   0   5   14.42    0.36
   2   0   5   14.25    0.38
   2   0   5   14.47    0.35
   2   0   5   14.24    0.39
  -2   0  -5   14.54    0.36
  -2   0  -5   14.52    0.33
  -2   0  -5   14.71    0.33
  -2   0  -5   14.92    0.36
   2   0   6   -0.02    0.06
   2   0   6    0.03    0.08
   2   0   6    0.03    0.10
   2   0   6   -0.02    0.08
  -2   0  -6    0.02    0.06
  -2   0  -6    0.01    0.10
  -2   0  -6    0.00    0.06
  -2   0  -6   -0.01    0.06
   2   0   7   28.29    0.80
   2   0   7   26.99    0.71
   2   0   7   27.69    0.65
   2   0   7   26.87    0.61
  -2   0  -7   27.73    0.74
  -2   0  -7   27.86    0.66
  -2   0  -7   27.89    0.75
  -2   0  -7   26.90    0.79
   2   0   8    0.79    0.18
   2   0   8    0.87    0.17
   2   0   8    0.81    0.16
   2   0   8    0.94    0.29
  -2   0  -8    0.83    0.17
  -2   0  -8    0.79    0.19
  -2   0  -8    0.79    0.29
  -2   0  -8    0.86    0.17
   2   0   9   41.22    0.97
   2   0   9   42.16    1.26
   2   0   9   41.62    1.03
   2   0   9   40.68    0.99
  -2   0  -9   41.64    1.01
  -2   0  -9   40.08    1.01
  -2   0  -9   42.89    1.09
  -2   0  -9   42.00    1.03
   2   0  10    0.88    0.34
   2   0  10    0.69    0.18
   2   0  10    0.86    0.20
   2   0  10    0.79    0.29
  -2   0 -10    0.77    0.21
  -2   0 -10    0.73    0.30
  -2   0 -10    0.72    0.30
  -2   0 -10    0.69    0.20
  -2   0 -10   -0.04    0.19
   2   0  11    0.03    0.13
   2   0  11   -0.00    0.14
   2   0  11    0.10    0.20
  -2   0 -11    0.02    0.21
  -2   0 -11   -0.04    0.12
  -2   0 -11   -0.02    0.13
  -2   0 -11   -0.01    0.20
  -2   0 -11    0.07    0.12
   2   0  12   -0.00    0.19
   2   0  12   -0.02    0.18
   2   0  12   -0.03    0.17
  -2   0 -12    0.09    0.17
  -2   0 -12    0.37    0.17
  -2   0 -12    0.05    0.18
  -2   0 -12    0.22    0.16
  -2   0 -12   -0.01    0.19
   2   0  13   -0.01    0.22
   2   0  13    0.12    0.20
   2   0  13    0.07    0.20
  -2   0 -13    0.18    0.20
  -2   0 -13    0.30    0.20
  -2   0 -13    0.11    0.19
  -2   0 -13   -0.03    0.33
  -2   0 -13   -0.02    0.34
   2   0  14    3.34    0.43
   2   0  14    3.21    0.40
   2   0  14    0.06    0.60
  -2   0 -14    3.34    0.43
  -2   0 -14    3.06    0.43
  -2   0 -14    2.80    0.59
  -2   0 -14    3.45    0.42
  -2   0 -14    3.35    0.45
   2   1 -13    0.42    0.23
   2   1 -13    0.25    0.23
   2   1 -13    0.28    0.22
   2   1 -13   -0.01    0.25
  -2  -1  13    0.30    0.38
  -2  -1  13   -0.02    0.22
  -2  -1  13    0.19    0.24
  -2  -1  13    0.19    0.34
   2   1 -12    0.41    0.24
   2   1 -12    0.44    0.24
   2   1 -12    0.57    0.35
   2   1 -12    0.00    0.26
  -2  -1  12    0.67    0.22
  -2  -1  12    0.52    0.25
  -2  -1  12    0.47    0.23
  -2  -1  12    0.02    0.23
   2   1 -11    0.02    0.23
   2   1 -11    0.06    0.23
   2   1 -11    0.12    0.14
   2   1 -11    0.00    0.26
  -2  -1  11    0.00    0.24
  -2  -1  11   -0.00    0.14
  -2  -1  11   -0.00    0.14
  -2  -1  11    0.00    0.15
   2   1 -10    0.12    0.15
   2   1 -10    0.11    0.15
   2   1 -10    0.01    0.15
   2   1 -10    0.01    0.26
  -2  -1  10    0.04    0.16
  -2  -1  10    0.06    0.15
  -2  -1  10    0.07    0.15
  -2  -1  10    0.09    0.15
   2   1  -9    3.33    0.28
   2   1  -9    3.08    0.28
   2   1  -9    3.32    0.27
   2   1  -9    3.22    0.47
  -2  -1   9    3.21    0.29
  -2  -1   9    3.10    0.26
  -2  -1   9    3.37    0.28
  -2  -1   9    3.14    0.27
   2   1  -8    0.53    0.17
   2   1  -8    0.70    0.16
   2   1  -8    0.59    0.17
   2   1  -8    0.69    0.30
  -2  -1   8    0.71    0.18
  -2  -1   8    0.72    0.16
  -2  -1   8    0.60    0.17
  -2  -1   8    0.63    0.17
   2   1  -7   12.14    0.39
   2   1  -7   12.21    0.39
   2   1  -7   12.17    0.37
   2   1  -7   12.11    0.43
  -2  -1   7   12.19    0.38
  -2  -1   7   11.83    0.37
  -2  -1   7   11.51    0.37
  -2  -1   7   12.31    0.54
   2   1  -6    4.80    0.22
   2   1  -6    4.65    0.21
   2   1  -6    4.73    0.26
   2   1  -6    4.75    0.22
  -2  -1   6    4.46    0.21
  -2  -1   6    4.53    0.22
  -2  -1   6    4.52    0.30
  -2  -1   6    4.58    0.35
   2   1  -5    0.15    0.09
   2   1  -5    0.21    0.09
   2   1  -5    0.18    0.18
   2   1  -5    0.26    0.09
  -2  -1   5    0.18    0.09
  -2  -1   5    0.16    0.14
  -2  -1   5    0.16    0.14
  -2  -1   5    0.29    0.11
   2   1  -4    2.73    0.20
   2   1  -4    2.78    0.21
   2   1  -4    2.62    0.20
   2   1  -4    2.67    0.18
  -2  -1   4    2.64    0.14
  -2  -1   4    2.66    0.14
  -2  -1   4    2.50    0.14
  -2  -1   4    2.56    0.17
   2   1  -3    1.47    0.10
   2   1  -3    1.51    0.22
   2   1  -3    1.48    0.14
   2   1  -3    1.38    0.10
  -2  -1   3    1.44    0.10
  -2  -1   3    1.42    0.09
  -2  -1   3    1.41    0.10
  -2  -1   3    1.41    0.14
   2   1  -2   -0.00    0.06
   2   1  -2   -0.02    0.06
   2   1  -2    0.02    0.03
   2   1  -2    0.04    0.04
  -2  -1   2   -0.04    0.06
  -2  -1   2   -0.01    0.06
  -2  -1   2   -0.00    0.10
  -2  -1   2    0.03    0.06
   2   1  -1   27.29    0.40
   2   1  -1   27.69    0.46
   2   1  -1   27.33    0.42
  -2  -1   1   27.27    0.44
  -2  -1   1   27.30    0.44
  -2  -1   1   27.13    0.51
  -2  -1   1   27.48    0.40
  -2  -1   1   27.03    0.51
   2   1   0   10.06    0.15
   2   1   0    9.97    0.15
   2   1   0    9.86    0.31
  -2  -1   0    9.99    0.17
  -2  -1   0    9.70    0.15
  -2  -1   0    9.73    0.14
  -2  -1   0    9.87    0.24
  -2  -1   0   10.27    0.18
   2   1   1    4.75    0.11
   2   1   1    4.74    0.23
   2   1   1    4.78    0.08
  -2  -1  -1    4.73    0.16
  -2  -1  -1    4.70    0.11
  -2  -1  -1    4.75    0.11
  -2  -1  -1    4.82    0.11
  -2  -1  -1    4.99    0.12
   2   1   2   51.04    0.95
   2   1   2   49.09    0.78
   2   1   2   49.15    0.75
  -2  -1  -2   48.70    0.76
  -2  -1  -2   50.31    0.78
  -2  -1  -2   49.99    0.87
  -2  -1  -2   49.75    0.76
   2   1   3    7.10    0.21
   2   1   3    6.85    0.15
   2   1   3    6.90    0.17
  -2  -1  -3    7.04    0.20
  -2  -1  -3    6.80    0.21
  -2  -1  -3    7.01    0.16
  -2  -1  -3    6.87    0.15
  -2  -1  -3    6.94    0.22
   2   1   4    0.01    0.09
   2   1   4    0.07    0.11
   2   1   4    0.09    0.07
  -2  -1  -4    0.02    0.05
  -2  -1  -4   -0.01    0.06
  -2  -1  -4    0.02    0.07
  -2  -1  -4    0.03    0.05
  -2  -1  -4    0.01    0.05
   2   1   5    2.10    0.13
   2   1   5    2.15    0.15
   2   1   5    2.06    0.12
  -2  -1  -5    2.08    0.13
  -2  -1  -5    1.95    0.12
  -2  -1  -5    2.05    0.15
  -2  -1  -5    2.01    0.12
  -2  -1  -5    2.08    0.12
   2   1   6    0.63    0.17
   2   1   6    0.79    0.19
   2   1   6    0.93    0.20
  -2  -1  -6    0.69    0.19
  -2  -1  -6    0.86    0.11
  -2  -1  -6    0.91    0.14
  -2  -1  -6    0.78    0.11
  -2  -1  -6    0.79    0.17
   2   1   7    0.85    0.14
   2   1   7    0.71    0.13
   2   1   7    0.62    0.22
  -2  -1  -7    0.76    0.15
  -2  -1  -7    0.68    0.13
  -2  -1  -7    0.62    0.20
  -2  -1  -7    0.66    0.19
  -2  -1  -7    0.62    0.13
   2   1   8   16.19    0.63
   2   1   8   16.70    0.47
   2   1   8   16.70    0.63
  -2  -1  -8   16.10    0.46
  -2  -1  -8   16.17    0.47
  -2  -1  -8   15.69    0.61
  -2  -1  -8   16.36    0.46
  -2  -1  -8   16.47    0.51
   2   1   9    0.82    0.31
   2   1   9    1.08    0.31
   2   1   9    0.86    0.19
  -2  -1  -9    0.78    0.21
  -2  -1  -9    0.95    0.18
  -2  -1  -9    0.85    0.19
  -2  -1  -9    0.72    0.19
  -2  -1  -9    0.79    0.18
   2   1  10    0.38    0.28
   2   1  10    0.36    0.18
   2   1  10    0.47    0.27
  -2  -1 -10    0.41    0.20
  -2  -1 -10    0.34    0.17
  -2  -1 -10    0.31    0.17
  -2  -1 -10    0.28    0.17
  -2  -1 -10    0.26    0.26
   2   1  11    1.05    0.23
   2   1  11    0.56    0.34
   2   1  11    0.86    0.24
  -2  -1 -11    1.17    0.38
  -2  -1 -11    0.87    0.22
  -2  -1 -11    1.06    0.23
  -2  -1 -11    0.90    0.23
  -2  -1 -11    0.75    0.33
   2   1  12   -0.00    0.12
   2   1  12    0.01    0.18
   2   1  12    0.04    0.11
  -2  -1 -12   -0.02    0.12
  -2  -1 -12   -0.00    0.11
  -2  -1 -12   -0.02    0.18
  -2  -1 -12    0.00    0.11
  -2  -1 -12   -0.00    0.11
   2   1  13    4.15    0.43
   2   1  13    4.33    0.61
   2   1  13    4.54    0.40
  -2  -1 -13    4.37    0.40
  -2  -1 -13    4.27    0.40
  -2  -1 -13    4.57    0.39
  -2  -1 -13    4.92    0.40
  -2  -1 -13    4.82    0.44
   2   1  14    0.07    0.26
   2   1  14   -0.02    0.25
  -2  -1 -14    0.03    0.40
  -2  -1 -14    0.63    0.26
  -2  -1 -14    0.58    0.25
  -2  -1 -14    0.67    0.26
  -2  -1 -14    0.00    0.44
   2   2 -13    0.90    0.31
   2   2 -13    1.00    0.31
   2   2 -13    1.13    0.30
   2   2 -13    0.00    0.55
  -2  -2  13    1.09    0.31
  -2  -2  13    1.00    0.32
  -2  -2  13   -0.01    0.32
  -2  -2  13    1.13    0.34
   2   2 -12   -0.00    0.16
   2   2 -12   -0.02    0.26
   2   2 -12    0.00    0.18
   2   2 -12    0.08    0.15
  -2  -2  12   -0.03    0.25
  -2  -2  12    0.04    0.24
  -2  -2  12   -0.02    0.16
  -2  -2  12    0.04    0.17
   2   2 -11    3.35    0.53
   2   2 -11    3.33    0.54
   2   2 -11    3.31    0.49
   2   2 -11    3.60    0.38
  -2  -2  11    3.16    0.36
  -2  -2  11    3.39    0.34
  -2  -2  11    2.97    0.35
  -2  -2  11    3.09    0.35
   2   2 -10    0.13    0.13
   2   2 -10    0.04    0.12
   2   2 -10   -0.01    0.13
   2   2 -10   -0.00    0.14
  -2  -2  10   -0.06    0.14
  -2  -2  10   -0.04    0.20
  -2  -2  10    0.00    0.19
  -2  -2  10   -0.04    0.12
   2   2  -9    2.83    0.28
   2   2  -9    2.72    0.29
   2   2  -9    2.74    0.26
   2   2  -9    2.86    0.31
  -2  -2   9    2.84    0.46
  -2  -2   9    2.62    0.26
  -2  -2   9    2.74    0.27
  -2  -2   9    2.78    0.42
   2   2  -8    6.99    0.35
   2   2  -8    7.11    0.35
   2   2  -8    6.95    0.32
   2   2  -8    7.04    0.38
  -2  -2   8    7.04    0.36
  -2  -2   8    6.69    0.33
  -2  -2   8    6.72    0.33
  -2  -2   8    6.88    0.34
   2   2  -7   10.31    0.38
   2   2  -7   10.78    0.48
   2   2  -7   10.74    0.39
  -2  -2   7   10.05    0.48
  -2  -2   7   10.35    0.36
  -2  -2   7    9.94    0.49
  -2  -2   7   10.50    0.39
   2   2  -6    2.46    0.28
   2   2  -6    2.38    0.19
   2   2  -6    2.36    0.26
   2   2  -6    2.36    0.22
  -2  -2   6    2.20    0.18
  -2  -2   6    2.10    0.19
  -2  -2   6    2.34    0.27
  -2  -2   6    2.53    0.20
   2   2  -5    0.11    0.09
   2   2  -5    0.09    0.09
   2   2  -5    0.11    0.13
   2   2  -5    0.13    0.11
  -2  -2   5    0.10    0.09
  -2  -2   5    0.07    0.09
  -2  -2   5    0.12    0.08
  -2  -2   5    0.03    0.10
   2   2  -4    7.61    0.25
   2   2  -4    7.62    0.24
   2   2  -4    7.62    0.29
   2   2  -4    7.83    0.29
  -2  -2   4    7.49    0.24
  -2  -2   4    7.55    0.24
  -2  -2   4    7.83    0.30
  -2  -2   4    8.25    0.38
   2   2  -3   15.92    0.35
   2   2  -3   16.00    0.36
   2   2  -3   15.99    0.31
   2   2  -3   15.67    0.41
  -2  -2   3   15.95    0.35
  -2  -2   3   15.71    0.35
  -2  -2   3   16.04    0.40
  -2  -2   3   15.47    0.31
   2   2  -2   19.23    0.38
   2   2  -2   19.08    0.44
   2   2  -2   19.66    0.45
   2   2  -2   19.75    0.33
  -2  -2   2   19.43    0.37
  -2  -2   2   19.61    0.37
  -2  -2   2   20.36    0.45
  -2  -2   2   19.34    0.33
   2   2  -1    8.46    0.19
   2   2  -1    8.42    0.19
   2   2  -1    8.75    0.16
  -2  -2   1    8.66    0.25
  -2  -2   1    8.85    0.26
  -2  -2   1    8.55    0.19
  -2  -2   1    8.64    0.17
  -2  -2   1    8.57    0.19
   2   2   0    1.18    0.03
   2   2   0    1.16    0.11
   2   2   0    1.14    0.07
  -2  -2   0    1.20    0.07
  -2  -2   0    1.21    0.12
  -2  -2   0    1.33    0.10
  -2  -2   0    1.13    0.11
  -2  -2   0    1.11    0.03
   2   2   1   18.26    0.29
   2   2   1   18.63    0.39
   2   2   1   18.00    0.30
  -2  -2  -1   17.42    0.19
  -2  -2  -1   18.26    0.20
  -2  -2  -1   18.15    0.39
  -2  -2  -1   18.11    0.30
  -2  -2  -1   18.36    0.30
   2   2   2    7.90    0.14
   2   2   2    8.02    0.23
   2   2   2    7.78    0.21
   2   2   2    7.94    0.16
  -2  -2  -2    7.49    0.13
  -2  -2  -2    7.89    0.16
  -2  -2  -2    7.74    0.23
  -2  -2  -2    7.76    0.21
   2   2   3    1.15    0.06
   2   2   3    1.44    0.19
   2   2   3    1.21    0.08
   2   2   3    1.16    0.12
  -2  -2  -3    1.13    0.06
  -2  -2  -3    1.11    0.08
  -2  -2  -3    1.24    0.08
  -2  -2  -3    1.30    0.12
   2   2   4   20.40    0.45
   2   2   4   20.53    0.45
   2   2   4   20.09    0.37
  -2  -2  -4   20.49    0.42
  -2  -2  -4   18.47    0.53
  -2  -2  -4   19.99    0.39
  -2  -2  -4   19.77    0.38
  -2  -2  -4   20.01    0.44
   2   2   5    0.19    0.15
   2   2   5    0.20    0.07
   2   2   5    0.18    0.11
  -2  -2  -5    0.26    0.10
  -2  -2  -5    0.15    0.07
  -2  -2  -5    0.19    0.12
  -2  -2  -5    0.19    0.08
  -2  -2  -5    0.20    0.07
   2   2   6    1.34    0.23
   2   2   6    1.18    0.12
   2   2   6    1.25    0.12
  -2  -2  -6    1.20    0.12
  -2  -2  -6    1.17    0.12
  -2  -2  -6    1.23    0.12
  -2  -2  -6    1.10    0.17
  -2  -2  -6    1.22    0.15
   2   2   7    8.49    0.31
   2   2   7    8.16    0.27
   2   2   7    8.35    0.28
  -2  -2  -7    8.25    0.27
  -2  -2  -7    8.35    0.31
  -2  -2  -7    8.11    0.36
  -2  -2  -7    8.33    0.28
  -2  -2  -7    8.06    0.27
   2   2   8    8.23    0.46
   2   2   8    8.00    0.42
   2   2   8    8.01    0.43
  -2  -2  -8    8.44    0.41
  -2  -2  -8    8.34    0.35
  -2  -2  -8    8.39    0.43
  -2  -2  -8    8.14    0.31
  -2  -2  -8    7.88    0.41
   2   2   9   15.45    0.51
   2   2   9   16.19    0.63
   2   2   9   15.82    0.65
  -2  -2  -9   15.20    0.48
  -2  -2  -9   15.58    0.49
  -2  -2  -9   15.36    0.48
  -2  -2  -9   15.80    0.62
  -2  -2  -9   15.57    0.54
   2   2  10    2.20    0.27
   2   2  10    2.18    0.25
   2   2  10    2.30    0.36
  -2  -2 -10    2.44    0.27
  -2  -2 -10    2.34    0.24
  -2  -2 -10    2.41    0.36
  -2  -2 -10    2.27    0.24
  -2  -2 -10    1.95    0.37
   2   2  11    0.03    0.14
   2   2  11    0.03    0.14
  -2  -2 -11    0.13    0.21
  -2  -2 -11    0.10    0.21
  -2  -2 -11    0.03    0.20
  -2  -2 -11   -0.03    0.24
  -2  -2 -11   -0.03    0.13
   2   2  12    0.18    0.23
   2   2  12    0.12    0.16
   2   2  12    0.01    0.16
  -2  -2 -12    0.02    0.29
  -2  -2 -12    0.01    0.15
  -2  -2 -12   -0.00    0.16
  -2  -2 -12    0.14    0.24
  -2  -2 -12    0.11    0.23
   2   2  13    0.01    0.26
   2   2  13    0.04    0.17
   2   2  13   -0.15    0.16
  -2  -2 -13   -0.01    0.17
  -2  -2 -13   -0.03    0.16
  -2  -2 -13    0.02    0.26
  -2  -2 -13   -0.04    0.15
  -2  -2 -13    0.00    0.15
   2   2  14    0.24    0.24
   2   2  14    0.98    0.22
   2   2  14    0.01    0.25
  -2  -2 -14   -0.01    0.23
  -2  -2 -14    0.05    0.25
  -2  -2 -14   -0.12    0.22
  -2  -2 -14    0.01    0.24
  -2  -2 -14    0.00    0.21
   2   3 -12   -0.04    0.46
   2   3 -12    1.44    0.42
   2   3 -12    0.04    0.34
   2   3 -12    1.83    0.45
  -2  -3  12   -0.01    0.46
  -2  -3  12    1.39    0.45
  -2  -3  12    1.52    0.28
  -2  -3  12    0.00    0.29
   2   3 -11    0.37    0.36
   2   3 -11    0.48    0.35
   2   3 -11    0.44    0.20
   2   3 -11   -0.03    0.26
  -2  -3  11    0.03    0.23
  -2  -3  11    0.33    0.34
  -2  -3  11    0.48    0.22
  -2  -3  11    0.01    0.34
   2   3 -10    6.68    0.42
   2   3 -10    6.24    0.38
   2   3 -10    6.19    0.47
   2   3 -10    6.21    0.42
  -2  -3  10    6.53    0.44
  -2  -3  10    6.05    0.41
  -2  -3  10    6.28    0.40
  -2  -3  10    6.03    0.41
   2   3  -9    2.11    0.28
   2   3  -9    2.06    0.28
   2   3  -9    2.28    0.31
   2   3  -9    2.06    0.39
  -2  -3   9    2.32    0.29
  -2  -3   9    2.28    0.27
  -2  -3   9    2.49    0.27
  -2  -3   9    2.05    0.27
   2   3  -8    1.05    0.22
   2   3  -8    0.95    0.22
   2   3  -8    0.98    0.24
   2   3  -8    1.13    0.19
  -2  -3   8    1.05    0.31
  -2  -3   8    0.87    0.33
  -2  -3   8    1.00    0.31
  -2  -3   8    1.24    0.35
   2   3  -7    4.62    0.43
   2   3  -7    5.28    0.43
   2   3  -7    5.05    0.27
   2   3  -7    5.06    0.33
  -2  -3   7    5.06    0.28
  -2  -3   7    4.91    0.29
  -2  -3   7    5.09    0.27
  -2  -3   7    5.23    0.45
   2   3  -6    1.95    0.30
   2   3  -6    2.31    0.26
   2   3  -6    1.81    0.35
   2   3  -6    1.91    0.20
  -2  -3   6    1.64    0.19
  -2  -3   6    1.75    0.19
  -2  -3   6    1.83    0.17
  -2  -3   6    2.11    0.31
   2   3  -5    8.86    0.31
   2   3  -5    9.02    0.28
   2   3  -5    8.90    0.36
   2   3  -5    8.83    0.31
  -2  -3   5    8.84    0.30
  -2  -3   5    8.68    0.30
  -2  -3   5    8.60    0.27
  -2  -3   5    9.09    0.46
   2   3  -4    2.85    0.14
   2   3  -4    2.86    0.26
   2   3  -4    2.83    0.21
   2   3  -4    2.87    0.18
  -2  -3   4    2.78    0.17
  -2  -3   4    2.76    0.17
  -2  -3   4    2.91    0.15
  -2  -3   4    2.80    0.20
   2   3  -3    1.90    0.21
   2   3  -3    2.11    0.11
   2   3  -3    2.12    0.21
   2   3  -3    1.94    0.17
  -2  -3   3    1.97    0.21
  -2  -3   3    2.03    0.21
  -2  -3   3    2.03    0.11
  -2  -3   3    1.84    0.25
   2   3  -2    0.07    0.04
   2   3  -2    0.20    0.09
   2   3  -2    0.05    0.07
   2   3  -2    0.00    0.07
  -2  -3   2    0.11    0.07
  -2  -3   2    0.09    0.07
  -2  -3   2    0.01    0.09
  -2  -3   2    0.03    0.07
   2   3  -1   19.41    0.31
   2   3  -1   19.02    0.39
  -2  -3   1   19.45    0.32
  -2  -3   1   19.24    0.38
  -2  -3   1   19.42    0.44
  -2  -3   1   19.23    0.38
  -2  -3   1   19.57    0.45
  -2  -3   1   19.52    0.38
   2   3   0    1.51    0.10
   2   3   0    1.57    0.04
  -2  -3   0    1.59    0.14
  -2  -3   0    1.59    0.10
  -2  -3   0    1.53    0.04
  -2  -3   0    1.66    0.10
  -2  -3   0    1.59    0.10
   2   3   1    0.18    0.06
   2   3   1    0.17    0.09
   2   3   1    0.18    0.06
  -2  -3  -1    0.21    0.06
  -2  -3  -1    0.22    0.15
  -2  -3  -1    0.27    0.10
   2   3   2    6.80    0.10
   2   3   2    6.54    0.17
   2   3   2    6.67    0.22
   2   3   2    6.75    0.17
  -2  -3  -2    6.67    0.09
  -2  -3  -2    7.02    0.23
  -2  -3  -2    6.55    0.17
  -2  -3  -2    6.83    0.23
   2   3   3    1.19    0.09
   2   3   3    1.13    0.09
   2   3   3    1.15    0.13
   2   3   3    1.22    0.08
  -2  -3  -3    1.26    0.14
  -2  -3  -3    1.13    0.09
  -2  -3  -3    1.23    0.07
  -2  -3  -3    1.17    0.09
   2   3   4    1.29    0.10
   2   3   4    1.27    0.14
   2   3   4    1.30    0.15
   2   3   4    1.28    0.11
  -2  -3  -4    1.29    0.14
  -2  -3  -4    1.16    0.15
  -2  -3  -4    1.19    0.07
  -2  -3  -4    1.12    0.10
   2   3   5    6.11    0.24
   2   3   5    5.85    0.33
   2   3   5    6.35    0.27
   2   3   5    6.43    0.20
  -2  -3  -5    5.94    0.24
  -2  -3  -5    6.34    0.21
  -2  -3  -5    6.39    0.23
  -2  -3  -5    6.12    0.27
   2   3   6    0.65    0.21
   2   3   6    0.77    0.11
   2   3   6    0.81    0.10
  -2  -3  -6    0.74    0.11
  -2  -3  -6    0.78    0.22
  -2  -3  -6    0.78    0.11
  -2  -3  -6    0.84    0.10
  -2  -3  -6    0.73    0.11
   2   3   7    0.19    0.12
   2   3   7    0.08    0.16
   2   3   7    0.20    0.09
  -2  -3  -7    0.21    0.11
  -2  -3  -7    0.20    0.09
  -2  -3  -7    0.20    0.10
  -2  -3  -7    0.21    0.16
  -2  -3  -7    0.29    0.13
   2   3   8    1.04    0.16
   2   3   8    1.12    0.18
   2   3   8    1.09    0.16
  -2  -3  -8    0.93    0.15
  -2  -3  -8    1.18    0.19
  -2  -3  -8    0.96    0.16
  -2  -3  -8    1.16    0.15
  -2  -3  -8    1.07    0.16
   2   3   9    0.33    0.16
   2   3   9    0.30    0.14
   2   3   9    0.16    0.21
  -2  -3  -9    0.21    0.16
  -2  -3  -9    0.13    0.13
  -2  -3  -9    0.23    0.14
  -2  -3  -9    0.27    0.20
  -2  -3  -9    0.26    0.14
   2   3  10    0.04    0.21
   2   3  10    0.09    0.11
   2   3  10    0.05    0.18
  -2  -3 -10   -0.04    0.14
  -2  -3 -10    0.01    0.12
  -2  -3 -10    0.03    0.12
  -2  -3 -10   -0.01    0.11
  -2  -3 -10    0.12    0.18
   2   3  11    0.14    0.26
   2   3  11    0.03    0.24
   2   3  11    0.16    0.15
  -2  -3 -11    0.02    0.17
  -2  -3 -11    0.15    0.24
  -2  -3 -11    0.15    0.24
  -2  -3 -11    0.16    0.15
  -2  -3 -11    0.09    0.25
   2   3  12    0.29    0.30
   2   3  12   -0.00    0.27
  -2  -3 -12    0.04    0.33
  -2  -3 -12    0.01    0.18
  -2  -3 -12   -0.03    0.18
  -2  -3 -12    0.51    0.27
  -2  -3 -12    0.42    0.17
   2   3  13   -0.01    0.14
   2   3  13    0.06    0.24
  -2  -3 -13    0.02    0.17
  -2  -3 -13    0.01    0.14
  -2  -3 -13    0.02    0.15
  -2  -3 -13    0.02    0.22
  -2  -3 -13    0.00    0.22
   2   3  14    0.50    0.19
   2   3  14   -0.01    0.20
   2   3  14    0.07    0.33
  -2  -3 -14   -0.01    0.22
  -2  -3 -14   -0.01    0.20
  -2  -3 -14   -0.01    0.20
  -2  -3 -14    0.04    0.19
  -2  -3 -14    0.01    0.19
   2   4 -12    0.19    0.25
   2   4 -12   -0.01    0.25
   2   4 -12   -0.11    0.14
   2   4 -12   -0.01    0.28
  -2  -4  12   -0.01    0.15
  -2  -4  12    0.01    0.26
  -2  -4  12    0.19    0.25
  -2  -4  12   -0.05    0.25
   2   4 -11    0.01    0.21
   2   4 -11    0.28    0.29
   2   4 -11   -0.01    0.36
   2   4 -11   -0.03    0.21
  -2  -4  11    0.01    0.32
  -2  -4  11    0.31    0.20
  -2  -4  11    0.25    0.31
  -2  -4  11   -0.00    0.21
   2   4 -10   -0.00    0.22
   2   4 -10   -0.07    0.37
   2   4 -10    0.37    0.19
   2   4 -10    0.38    0.21
  -2  -4  10    0.00    0.21
  -2  -4  10    0.02    0.22
  -2  -4  10    0.36    0.20
  -2  -4  10    0.36    0.20
   2   4  -9   -0.01    0.24
   2   4  -9    0.93    0.22
   2   4  -9    0.00    0.41
   2   4  -9    1.10    0.24
  -2  -4   9    1.08    0.25
  -2  -4   9    1.18    0.35
  -2  -4   9    0.97    0.22
  -2  -4   9    1.00    0.36
   2   4  -8    5.60    0.52
   2   4  -8    4.98    0.35
   2   4  -8    5.08    0.45
   2   4  -8    5.06    0.57
  -2  -4   8    4.81    0.33
  -2  -4   8    5.28    0.32
  -2  -4   8    5.43    0.35
  -2  -4   8    5.31    0.36
   2   4  -7   11.57    0.61
   2   4  -7   11.51    0.41
   2   4  -7   11.57    0.50
   2   4  -7   10.99    0.62
  -2  -4   7   11.18    0.43
  -2  -4   7   11.44    0.56
  -2  -4   7   11.33    0.44
  -2  -4   7   11.12    0.45
   2   4  -6    5.07    0.37
   2   4  -6    5.04    0.33
   2   4  -6    5.19    0.30
   2   4  -6    5.70    0.30
  -2  -4   6    5.15    0.37
  -2  -4   6    5.38    0.28
  -2  -4   6    5.45    0.29
  -2  -4   6    5.73    0.31
   2   4  -5    3.39    0.23
   2   4  -5    3.54    0.23
   2   4  -5    3.41    0.19
   2   4  -5    3.68    0.26
  -2  -4   5    3.48    0.23
  -2  -4   5    3.63    0.20
  -2  -4   5    3.82    0.23
  -2  -4   5    3.47    0.24
   2   4  -4   26.97    0.63
   2   4  -4   26.76    0.64
   2   4  -4   27.47    0.65
   2   4  -4   27.58    0.84
  -2  -4   4   27.09    0.57
  -2  -4   4   27.42    0.63
  -2  -4   4   27.38    0.63
  -2  -4   4   27.75    0.67
   2   4  -3    0.25    0.10
   2   4  -3    0.15    0.07
   2   4  -3    0.22    0.19
   2   4  -3    0.27    0.10
  -2  -4   3    0.24    0.10
  -2  -4   3    0.24    0.10
  -2  -4   3    0.13    0.18
  -2  -4   3    0.18    0.11
   2   4  -2   23.94    0.47
   2   4  -2   24.09    0.52
   2   4  -2   23.89    0.51
  -2  -4   2   23.86    0.51
  -2  -4   2   23.91    0.54
  -2  -4   2   24.28    0.56
  -2  -4   2   24.23    0.52
   2   4  -1    9.83    0.18
   2   4  -1   10.37    0.28
  -2  -4   1    9.92    0.31
  -2  -4   1   10.17    0.27
  -2  -4   1    9.96    0.32
  -2  -4   1   10.62    0.24
  -2  -4   1   10.08    0.28
  -2  -4   1   10.04    0.27
   2   4   0    4.98    0.09
   2   4   0    5.16    0.11
   2   4   0    5.33    0.19
  -2  -4   0    5.20    0.19
  -2  -4   0    5.38    0.19
  -2  -4   0    5.45    0.23
  -2  -4   0    5.10    0.23
  -2  -4   0    5.45    0.19
   2   4   1   95.73    1.27
   2   4   1   84.07    1.58
   2   4   1   86.53    1.64
   2   4   1   99.07    1.32
   2   4   1   82.69    1.60
  -2  -4  -1   86.10    1.63
  -2  -4  -1   87.03    1.66
  -2  -4  -1   86.62    1.65
   2   4   2    4.87    0.24
   2   4   2    4.62    0.08
   2   4   2    4.88    0.21
   2   4   2    4.77    0.17
  -2  -4  -2    4.68    0.21
  -2  -4  -2    4.61    0.08
  -2  -4  -2    4.61    0.17
  -2  -4  -2    4.75    0.17
   2   4   3    0.19    0.05
   2   4   3    0.14    0.10
   2   4   3    0.12    0.08
   2   4   3    0.12    0.08
  -2  -4  -3    0.20    0.04
  -2  -4  -3    0.15    0.08
  -2  -4  -3    0.19    0.10
  -2  -4  -3    0.12    0.08
   2   4   4   23.46    0.39
   2   4   4   23.91    0.48
   2   4   4   23.92    0.53
   2   4   4   23.61    0.57
  -2  -4  -4   23.74    0.54
  -2  -4  -4   24.22    0.50
  -2  -4  -4   23.59    0.38
  -2  -4  -4   23.56    0.57
   2   4   5    0.06    0.07
   2   4   5    0.01    0.06
   2   4   5   -0.01    0.10
   2   4   5    0.05    0.08
  -2  -4  -5    0.04    0.10
  -2  -4  -5   -0.02    0.08
  -2  -4  -5    0.01    0.07
  -2  -4  -5    0.03    0.07
   2   4   6    0.03    0.06
   2   4   6    0.10    0.14
   2   4   6    0.02    0.08
   2   4   6    0.04    0.08
  -2  -4  -6    0.13    0.09
  -2  -4  -6   -0.02    0.08
  -2  -4  -6    0.05    0.08
  -2  -4  -6    0.05    0.09
   2   4   7    1.61    0.16
   2   4   7    1.58    0.18
   2   4   7    1.68    0.21
  -2  -4  -7    1.63    0.19
  -2  -4  -7    1.52    0.23
  -2  -4  -7    1.67    0.13
  -2  -4  -7    1.64    0.16
  -2  -4  -7    1.56    0.16
   2   4   8   -0.00    0.14
   2   4   8    0.04    0.11
   2   4   8   -0.04    0.08
  -2  -4  -8    0.10    0.14
  -2  -4  -8    0.04    0.11
  -2  -4  -8   -0.02    0.15
  -2  -4  -8    0.06    0.08
   2   4   9   10.14    0.38
   2   4   9   10.46    0.58
   2   4   9   10.26    0.49
  -2  -4  -9   10.38    0.52
  -2  -4  -9   10.19    0.43
  -2  -4  -9    9.94    0.53
  -2  -4  -9   10.36    0.36
  -2  -4  -9   10.12    0.39
   2   4  10    7.40    0.39
   2   4  10    7.13    0.35
   2   4  10    7.04    0.34
  -2  -4 -10    7.19    0.49
  -2  -4 -10    7.31    0.40
  -2  -4 -10    7.02    0.51
  -2  -4 -10    6.98    0.33
  -2  -4 -10    7.20    0.35
   2   4  11    2.01    0.27
   2   4  11    1.65    0.38
   2   4  11    1.81    0.24
  -2  -4 -11    1.82    0.24
  -2  -4 -11    1.93    0.28
  -2  -4 -11    1.93    0.25
  -2  -4 -11    1.54    0.24
  -2  -4 -11    1.54    0.38
   2   4  12   -0.07    0.15
   2   4  12   -0.01    0.13
  -2  -4 -12    0.01    0.15
  -2  -4 -12    0.04    0.14
  -2  -4 -12    0.10    0.13
   2   4  13    0.12    0.19
   2   4  13   -0.00    0.17
  -2  -4 -13    0.03    0.20
  -2  -4 -13   -0.01    0.17
  -2  -4 -13    0.04    0.18
  -2  -4 -13    0.41    0.25
   2   4  14    0.00    0.21
   2   4  14    0.04    0.15
  -2  -4 -14    0.02    0.14
  -2  -4 -14   -0.02    0.24
  -2  -4 -14    0.02    0.14
  -2  -4 -14   -0.05    0.13
   2   5 -11    0.01    0.18
   2   5 -11    0.05    0.16
   2   5 -11    0.05    0.21
   2   5 -11   -0.01    0.18
  -2  -5  11   -0.01    0.31
  -2  -5  11    0.01    0.27
  -2  -5  11    0.00    0.28
  -2  -5  11    0.05    0.28
   2   5 -10    0.00    0.14
   2   5 -10   -0.05    0.17
   2   5 -10   -0.01    0.13
   2   5 -10    0.20    0.15
  -2  -5  10    0.02    0.15
  -2  -5  10   -0.11    0.14
  -2  -5  10   -0.07    0.14
  -2  -5  10    0.00    0.14
   2   5  -9    0.23    0.16
   2   5  -9   -0.02    0.21
   2   5  -9   -0.02    0.18
   2   5  -9    0.09    0.18
  -2  -5   9    0.02    0.18
  -2  -5   9    0.06    0.17
  -2  -5   9    0.01    0.17
  -2  -5   9    0.22    0.16
   2   5  -8   -0.01    0.20
   2   5  -8    0.55    0.18
   2   5  -8   -0.06    0.24
   2   5  -8    0.56    0.21
  -2  -5   8    0.61    0.20
  -2  -5   8    0.49    0.21
  -2  -5   8    0.56    0.20
  -2  -5   8    0.55    0.19
   2   5  -7    0.30    0.29
   2   5  -7    0.39    0.15
   2   5  -7    0.33    0.32
   2   5  -7    0.47    0.30
  -2  -5   7    0.32    0.28
  -2  -5   7    0.26    0.28
  -2  -5   7    0.33    0.16
  -2  -5   7    0.35    0.19
   2   5  -6    0.66    0.19
   2   5  -6    0.69    0.15
   2   5  -6    0.66    0.21
   2   5  -6    0.63    0.19
  -2  -5   6    0.60    0.28
  -2  -5   6    0.60    0.28
  -2  -5   6    0.67    0.16
  -2  -5   6    0.56    0.20
   2   5  -5    7.67    0.28
   2   5  -5    8.04    0.34
   2   5  -5    8.24    0.54
   2   5  -5    7.77    0.35
  -2  -5   5    8.26    0.47
  -2  -5   5    8.39    0.47
  -2  -5   5    8.13    0.40
  -2  -5   5    8.18    0.36
   2   5  -4    2.54    0.21
   2   5  -4    2.35    0.23
   2   5  -4    2.51    0.23
   2   5  -4    2.47    0.21
  -2  -5   4    2.62    0.30
  -2  -5   4    2.51    0.24
  -2  -5   4    2.52    0.30
  -2  -5   4    2.53    0.22
   2   5  -3    0.51    0.09
   2   5  -3    0.39    0.13
   2   5  -3    0.57    0.15
   2   5  -3    0.41    0.13
  -2  -5   3    0.54    0.13
  -2  -5   3    0.51    0.13
  -2  -5   3    0.20    0.14
  -2  -5   3    0.31    0.22
   2   5  -2    5.38    0.23
   2   5  -2    5.07    0.15
  -2  -5   2    5.05    0.22
  -2  -5   2    5.09    0.24
  -2  -5   2    5.42    0.22
  -2  -5   2    5.20    0.25
  -2  -5   2    5.36    0.23
  -2  -5   2    4.97    0.22
   2   5  -1    5.86    0.14
   2   5  -1    5.99    0.34
  -2  -5   1    5.88    0.23
  -2  -5   1    6.00    0.37
  -2  -5   1    5.97    0.33
  -2  -5   1    6.01    0.37
  -2  -5   1    6.02    0.20
  -2  -5   1    5.80    0.23
   2   5   0  124.94    2.08
   2   5   0  122.49    1.98
   2   5   0  120.72    2.30
  -2  -5   0  122.11    2.32
  -2  -5   0  124.86    2.41
  -2  -5   0  122.59    2.32
  -2  -5   0  121.26    2.30
  -2  -5   0  124.11    2.53
   2   5   1   53.53    0.77
   2   5   1   54.94    1.04
   2   5   1   53.05    1.19
   2   5   1   55.42    0.83
   2   5   1   54.05    1.04
  -2  -5  -1   56.74    1.13
  -2  -5  -1   53.33    1.03
  -2  -5  -1   54.11    1.05
   2   5   2  181.71    3.67
   2   5   2  176.18    3.34
   2   5   2  177.83    3.53
   2   5   2  203.49    3.23
  -2  -5  -2  173.41    3.37
  -2  -5  -2  177.58    3.53
  -2  -5  -2  178.72    3.41
   2   5   3   30.90    0.66
   2   5   3   31.26    0.49
   2   5   3   30.42    0.62
   2   5   3   32.66    0.74
  -2  -5  -3   36.36    0.74
  -2  -5  -3   30.90    0.63
  -2  -5  -3   31.53    0.47
  -2  -5  -3   32.12    0.75
   2   5   4    0.42    0.12
   2   5   4    0.38    0.16
   2   5   4    0.57    0.08
   2   5   4    0.50    0.10
  -2  -5  -4    0.44    0.05
  -2  -5  -4    0.46    0.19
  -2  -5  -4    0.40    0.10
  -2  -5  -4    0.34    0.10
   2   5   5    0.15    0.10
   2   5   5    0.14    0.08
   2   5   5    0.11    0.09
   2   5   5    0.15    0.09
  -2  -5  -5    0.06    0.11
  -2  -5  -5    0.08    0.09
  -2  -5  -5    0.13    0.09
  -2  -5  -5    0.18    0.08
   2   5   6    0.26    0.12
   2   5   6    0.38    0.12
   2   5   6    0.40    0.20
   2   5   6    0.39    0.18
  -2  -5  -6    0.40    0.13
  -2  -5  -6    0.34    0.12
  -2  -5  -6    0.38    0.18
  -2  -5  -6    0.38    0.08
   2   5   7    3.56    0.17
   2   5   7    3.47    0.24
   2   5   7    3.51    0.21
   2   5   7    3.43    0.21
  -2  -5  -7    3.50    0.23
  -2  -5  -7    3.54    0.22
  -2  -5  -7    3.33    0.21
  -2  -5  -7    3.37    0.16
   2   5   8    4.46    0.26
   2   5   8    4.62    0.28
   2   5   8    4.34    0.21
  -2  -5  -8    4.25    0.24
  -2  -5  -8    4.28    0.41
  -2  -5  -8    4.27    0.25
  -2  -5  -8    4.66    0.26
  -2  -5  -8    4.49    0.30
   2   5   9   13.58    0.53
   2   5   9   14.47    0.66
   2   5   9   13.98    0.46
  -2  -5  -9   13.01    0.67
  -2  -5  -9   13.43    0.45
  -2  -5  -9   13.44    0.46
  -2  -5  -9   13.38    0.45
  -2  -5  -9   13.38    0.52
   2   5  10    0.36    0.20
   2   5  10    0.47    0.18
   2   5  10    0.63    0.16
  -2  -5 -10    0.50    0.32
  -2  -5 -10    0.40    0.18
  -2  -5 -10    0.41    0.18
  -2  -5 -10    0.46    0.18
  -2  -5 -10    0.60    0.15
   2   5  11    1.02    0.24
   2   5  11    0.99    0.22
   2   5  11    1.17    0.31
  -2  -5 -11    1.01    0.23
  -2  -5 -11    1.43    0.38
  -2  -5 -11    1.01    0.23
  -2  -5 -11    1.16    0.20
  -2  -5 -11    1.06    0.23
   2   5  12   -0.02    0.25
   2   5  12   -0.10    0.27
   2   5  12    0.11    0.15
  -2  -5 -12    0.03    0.15
  -2  -5 -12    0.08    0.14
  -2  -5 -12    0.16    0.18
   2   5  13    0.02    0.28
   2   5  13   -0.00    0.31
   2   5  13    0.32    0.26
  -2  -5 -13    0.02    0.20
  -2  -5 -13   -0.03    0.18
  -2  -5 -13    0.39    0.26
   2   5  14    0.09    0.38
   2   5  14    0.61    0.22
  -2  -5 -14    0.03    0.28
  -2  -5 -14   -0.01    0.38
   2   6 -10    1.05    0.25
   2   6 -10   -0.00    0.24
   2   6 -10    0.05    0.28
   2   6 -10    0.02    0.33
  -2  -6  10    0.04    0.26
  -2  -6  10    1.09    0.36
  -2  -6  10    0.00    0.38
  -2  -6  10   -0.00    0.24
   2   6  -9    0.01    0.15
   2   6  -9    0.01    0.12
   2   6  -9   -0.00    0.16
   2   6  -9   -0.03    0.15
  -2  -6   9    0.02    0.15
  -2  -6   9   -0.07    0.14
  -2  -6   9   -0.01    0.15
  -2  -6   9    0.01    0.13
   2   6  -8    0.01    0.12
   2   6  -8    0.00    0.15
   2   6  -8    0.05    0.12
   2   6  -8   -0.01    0.13
  -2  -6   8    0.00    0.11
  -2  -6   8   -0.02    0.11
  -2  -6   8   -0.03    0.11
  -2  -6   8    0.01    0.12
   2   6  -7    0.05    0.13
   2   6  -7   -0.00    0.25
   2   6  -7    0.11    0.27
   2   6  -7    0.13    0.18
  -2  -6   7    0.06    0.16
  -2  -6   7    0.08    0.16
  -2  -6   7    0.24    0.14
  -2  -6   7    0.03    0.17
   2   6  -6    1.21    0.23
   2   6  -6    1.14    0.17
   2   6  -6    0.98    0.23
   2   6  -6    1.06    0.24
  -2  -6   6    1.04    0.22
  -2  -6   6    1.11    0.22
  -2  -6   6    1.17    0.19
  -2  -6   6    1.05    0.23
   2   6  -5    0.54    0.21
   2   6  -5    0.46    0.18
   2   6  -5    0.51    0.19
   2   6  -5    0.58    0.19
  -2  -6   5    0.53    0.18
  -2  -6   5    0.58    0.18
  -2  -6   5    0.56    0.23
  -2  -6   5    0.52    0.17
   2   6  -4    0.07    0.09
   2   6  -4    0.00    0.12
   2   6  -4    0.07    0.13
   2   6  -4    0.06    0.12
  -2  -6   4    0.05    0.11
  -2  -6   4    0.09    0.09
  -2  -6   4    0.10    0.11
  -2  -6   4    0.02    0.12
   2   6  -3    2.12    0.14
   2   6  -3    2.19    0.21
  -2  -6   3    2.15    0.20
  -2  -6   3    2.13    0.21
  -2  -6   3    2.19    0.20
  -2  -6   3    2.26    0.20
  -2  -6   3    2.20    0.15
  -2  -6   3    2.33    0.32
   2   6  -2    0.90    0.16
   2   6  -2    0.86    0.09
  -2  -6   2    0.76    0.23
  -2  -6   2    0.95    0.16
  -2  -6   2    0.92    0.15
  -2  -6   2    0.89    0.16
  -2  -6   2    0.88    0.10
  -2  -6   2    1.03    0.23
   2   6  -1    1.10    0.12
   2   6  -1    0.98    0.08
   2   6  -1    0.96    0.15
  -2  -6   1    0.98    0.16
  -2  -6   1    1.07    0.17
  -2  -6   1    0.97    0.15
  -2  -6   1    1.11    0.14
  -2  -6   1    1.10    0.15
   2   6   0   20.80    0.36
   2   6   0   21.46    0.38
   2   6   0   20.99    0.65
  -2  -6   0   21.64    0.55
  -2  -6   0   20.92    0.54
  -2  -6   0   21.08    0.52
  -2  -6   0   21.76    0.64
  -2  -6   0   20.79    0.52
   2   6   1  102.45    1.69
   2   6   1  102.70    2.04
   2   6   1  105.47    1.76
   2   6   1  101.93    2.03
  -2  -6  -1  105.96    2.22
  -2  -6  -1  107.57    2.13
  -2  -6  -1  103.04    2.03
   2   6   2   68.29    1.46
   2   6   2   66.39    1.09
   2   6   2   64.61    1.06
   2   6   2   67.66    1.51
   2   6   2   66.29    1.32
  -2  -6  -2   66.86    1.33
  -2  -6  -2   65.35    1.47
  -2  -6  -2   68.66    1.49
   2   6   3    0.41    0.11
   2   6   3    0.45    0.13
   2   6   3    0.43    0.11
   2   6   3    0.39    0.07
  -2  -6  -3    0.38    0.13
  -2  -6  -3    0.39    0.05
  -2  -6  -3    0.39    0.12
  -2  -6  -3    0.36    0.11
   2   6   4    2.41    0.19
   2   6   4    2.43    0.16
   2   6   4    2.24    0.12
   2   6   4    2.21    0.17
  -2  -6  -4    2.35    0.09
  -2  -6  -4    2.37    0.19
  -2  -6  -4    2.28    0.17
  -2  -6  -4    2.26    0.17
   2   6   5    6.83    0.28
   2   6   5    6.89    0.37
   2   6   5    7.28    0.36
   2   6   5    6.76    0.23
  -2  -6  -5    6.98    0.23
  -2  -6  -5    6.78    0.29
  -2  -6  -5    7.10    0.37
  -2  -6  -5    7.00    0.37
   2   6   6   22.87    0.46
   2   6   6   23.84    0.58
   2   6   6   23.00    0.57
   2   6   6   23.62    0.59
  -2  -6  -6   24.04    0.55
  -2  -6  -6   23.26    0.60
  -2  -6  -6   23.48    0.58
  -2  -6  -6   24.23    0.59
   2   6   7   13.27    0.44
   2   6   7   13.75    0.42
   2   6   7   13.13    0.54
   2   6   7   12.67    0.33
  -2  -6  -7   11.74    0.55
  -2  -6  -7   12.67    0.54
  -2  -6  -7   13.49    0.42
  -2  -6  -7   13.31    0.43
   2   6   8    4.60    0.27
   2   6   8    4.92    0.31
   2   6   8    4.86    0.30
   2   6   8    4.62    0.27
  -2  -6  -8    4.68    0.30
  -2  -6  -8    4.83    0.28
  -2  -6  -8    4.96    0.27
  -2  -6  -8    4.63    0.30
   2   6   9    0.43    0.21
   2   6   9    0.45    0.18
   2   6   9    0.59    0.26
  -2  -6  -9    0.39    0.16
  -2  -6  -9    0.42    0.19
  -2  -6  -9    0.51    0.17
  -2  -6  -9    0.34    0.26
  -2  -6  -9    0.46    0.13
   2   6  10    2.45    0.21
   2   6  10    2.48    0.28
   2   6  10    2.37    0.26
  -2  -6 -10    2.24    0.26
  -2  -6 -10    2.50    0.28
  -2  -6 -10    2.35    0.26
  -2  -6 -10    2.61    0.26
  -2  -6 -10    2.59    0.32
   2   6  11   -0.00    0.13
   2   6  11    0.08    0.22
   2   6  11    0.02    0.17
  -2  -6 -11   -0.01    0.14
  -2  -6 -11    0.04    0.13
  -2  -6 -11    0.09    0.13
  -2  -6 -11   -0.07    0.13
  -2  -6 -11    0.03    0.17
   2   6  12    0.05    0.14
   2   6  12    0.02    0.19
   2   6  12   -0.03    0.11
  -2  -6 -12   -0.01    0.14
  -2  -6 -12    0.02    0.13
  -2  -6 -12   -0.04    0.19
  -2  -6 -12   -0.03    0.11
   2   6  13    0.30    0.22
   2   6  13    0.39    0.20
   2   6  13    0.24    0.18
  -2  -6 -13   -0.01    0.20
  -2  -6 -13    0.04    0.36
  -2  -6 -13    0.28    0.20
  -2  -6 -13    0.16    0.19
   2   6  14   -0.16    0.18
   2   6  14    0.11    0.15
   2   6  14    0.09    0.16
  -2  -6 -14   -0.01    0.18
  -2  -6 -14   -0.18    0.16
  -2  -6 -14    0.05    0.24
  -2  -6 -14   -0.02    0.27
   2   7 -10   -0.00    0.16
   2   7 -10   -0.01    0.15
   2   7 -10    0.02    0.28
   2   7 -10   -0.04    0.16
  -2  -7  10   -0.00    0.17
  -2  -7  10    0.08    0.16
  -2  -7  10   -0.01    0.15
  -2  -7  10    0.01    0.17
   2   7  -9    0.01    0.18
   2   7  -9    0.02    0.24
   2   7  -9   -0.01    0.29
   2   7  -9    0.01    0.18
  -2  -7   9   -0.01    0.17
  -2  -7   9    0.32    0.27
  -2  -7   9   -0.01    0.16
  -2  -7   9   -0.00    0.28
   2   7  -8    0.00    0.15
   2   7  -8    0.01    0.15
   2   7  -8   -0.00    0.12
   2   7  -8    0.02    0.15
  -2  -7   8    0.01    0.13
  -2  -7   8    0.02    0.14
   2   7  -7   -0.00    0.16
   2   7  -7    0.08    0.19
   2   7  -7    0.02    0.15
   2   7  -7   -0.01    0.15
  -2  -7   7   -0.01    0.13
  -2  -7   7    0.08    0.15
  -2  -7   7    0.00    0.15
  -2  -7   7    0.07    0.15
   2   7  -6    1.07    0.36
   2   7  -6    0.84    0.25
   2   7  -6    1.04    0.19
   2   7  -6    0.93    0.38
  -2  -7   6    1.09    0.24
  -2  -7   6    0.84    0.24
  -2  -7   6    1.19    0.32
  -2  -7   6    0.96    0.24
   2   7  -5    0.31    0.13
   2   7  -5    0.37    0.18
   2   7  -5    0.20    0.19
   2   7  -5    0.25    0.18
  -2  -7   5    0.28    0.17
  -2  -7   5    0.43    0.17
  -2  -7   5    0.32    0.15
  -2  -7   5    0.21    0.18
   2   7  -4   -0.01    0.09
   2   7  -4    0.08    0.12
   2   7  -4   -0.00    0.13
   2   7  -4   -0.03    0.13
  -2  -7   4    0.08    0.12
  -2  -7   4    0.14    0.12
  -2  -7   4    0.03    0.13
  -2  -7   4    0.04    0.13
  -2  -7   4    0.06    0.15
   2   7  -3    2.06    0.23
   2   7  -3    2.06    0.35
  -2  -7   3    2.09    0.22
  -2  -7   3    2.25    0.22
  -2  -7   3    1.94    0.34
  -2  -7   3    1.83    0.23
  -2  -7   3    2.42    0.23
  -2  -7   3    1.97    0.24
   2   7  -2    0.39    0.08
   2   7  -2    0.36    0.14
   2   7  -2    0.39    0.15
  -2  -7   2    0.44    0.21
  -2  -7   2    0.33    0.21
  -2  -7   2    0.43    0.14
  -2  -7   2    0.30    0.14
  -2  -7   2    0.02    0.09
   2   7  -1    0.02    0.08
   2   7  -1    0.01    0.05
   2   7  -1    0.05    0.16
  -2  -7   1    0.03    0.10
  -2  -7   1    0.04    0.09
  -2  -7   1    0.02    0.15
  -2  -7   1    0.07    0.10
  -2  -7   1    0.02    0.10
   2   7   0    8.28    0.26
   2   7   0    8.11    0.20
   2   7   0    8.53    0.45
  -2  -7   0    7.65    0.43
  -2  -7   0    8.11    0.43
  -2  -7   0    8.10    0.43
  -2  -7   0    8.78    0.47
  -2  -7   0    8.54    0.32
   2   7   1    1.11    0.12
   2   7   1    1.19    0.12
   2   7   1    1.22    0.17
  -2  -7  -1    1.31    0.18
  -2  -7  -1    1.37    0.16
  -2  -7  -1    1.40    0.18
  -2  -7  -1    1.18    0.16
  -2  -7  -1    1.14    0.16
   2   7   2    1.57    0.12
   2   7   2    1.62    0.08
   2   7   2    1.69    0.18
   2   7   2    1.68    0.17
   2   7   2    1.65    0.18
  -2  -7  -2    1.74    0.28
  -2  -7  -2    1.72    0.18
  -2  -7  -2    1.91    0.18
   2   7   3    5.54    0.26
   2   7   3    5.60    0.35
   2   7   3    5.37    0.25
   2   7   3    5.34    0.14
  -2  -7  -3    5.59    0.26
  -2  -7  -3    5.51    0.25
  -2  -7  -3    5.75    0.27
  -2  -7  -3    5.28    0.14
   2   7   4    2.33    0.19
   2   7   4    2.40    0.19
   2   7   4    2.45    0.14
   2   7   4    2.38    0.19
  -2  -7  -4    2.49    0.20
  -2  -7  -4    2.48    0.14
  -2  -7  -4    2.38    0.19
  -2  -7  -4    2.69    0.19
   2   7   5   -0.05    0.09
   2   7   5    0.12    0.10
   2   7   5    0.05    0.05
   2   7   5    0.07    0.15
  -2  -7  -5    0.04    0.05
  -2  -7  -5    0.02    0.15
  -2  -7  -5    0.01    0.09
  -2  -7  -5    0.05    0.10
   2   7   6    5.22    0.24
   2   7   6    5.27    0.28
   2   7   6    5.41    0.27
   2   7   6    5.29    0.38
  -2  -7  -6    5.35    0.18
  -2  -7  -6    5.20    0.40
  -2  -7  -6    5.47    0.27
  -2  -7  -6    5.89    0.39
   2   7   7   10.11    0.37
   2   7   7   10.44    0.51
   2   7   7   10.13    0.39
   2   7   7   10.42    0.51
  -2  -7  -7   10.58    0.38
  -2  -7  -7   10.37    0.40
  -2  -7  -7   10.26    0.51
  -2  -7  -7   10.37    0.53
   2   7   8   11.80    0.44
   2   7   8   11.73    0.58
   2   7   8   11.54    0.43
   2   7   8   12.23    0.46
  -2  -7  -8   11.83    0.44
  -2  -7  -8   11.90    0.44
  -2  -7  -8   11.55    0.44
  -2  -7  -8   11.04    0.59
   2   7   9    1.84    0.26
   2   7   9    1.69    0.25
   2   7   9    1.93    0.23
   2   7   9    1.71    0.23
  -2  -7  -9    1.70    0.26
  -2  -7  -9    1.79    0.24
  -2  -7  -9    1.97    0.23
  -2  -7  -9    1.78    0.26
   2   7  10   -0.01    0.09
   2   7  10    0.05    0.12
   2   7  10   -0.10    0.11
  -2  -7 -10   -0.07    0.12
  -2  -7 -10    0.02    0.12
  -2  -7 -10    0.08    0.11
  -2  -7 -10   -0.04    0.11
  -2  -7 -10   -0.01    0.09
   2   7  11    1.96    0.22
   2   7  11    1.88    0.29
   2   7  11    2.03    0.27
  -2  -7 -11    2.04    0.29
  -2  -7 -11    1.98    0.27
  -2  -7 -11    2.01    0.28
  -2  -7 -11    1.94    0.23
   2   7  12    0.07    0.20
   2   7  12    0.22    0.17
   2   7  12   -0.09    0.24
  -2  -7 -12   -0.01    0.16
  -2  -7 -12   -0.00    0.16
  -2  -7 -12   -0.15    0.24
  -2  -7 -12    0.05    0.21
   2   7  13    1.38    0.27
   2   7  13    1.59    0.28
   2   7  13    0.01    0.23
  -2  -7 -13    0.03    0.29
  -2  -7 -13    0.02    0.27
  -2  -7 -13    1.43    0.26
  -2  -7 -13    1.34    0.35
   2   7  14    0.92    0.31
   2   7  14    1.36    0.29
   2   7  14    1.47    0.40
  -2  -7 -14   -0.01    0.30
  -2  -7 -14    0.01    0.30
  -2  -7 -14    1.15    0.30
  -2  -7 -14    1.21    0.40
   2   8  -9   -0.02    0.16
   2   8  -9   -0.02    0.17
   2   8  -9    0.05    0.20
  -2  -8   9    0.02    0.16
  -2  -8   9   -0.00    0.16
  -2  -8   9    0.04    0.15
  -2  -8   9   -0.02    0.15
   2   8  -8    0.01    0.25
   2   8  -8    0.84    0.20
   2   8  -8   -0.04    0.39
   2   8  -8   -0.02    0.26
  -2  -8   8    0.88    0.25
  -2  -8   8    0.00    0.25
  -2  -8   8    0.04    0.23
  -2  -8   8    0.02    0.24
   2   8  -7    0.40    0.16
   2   8  -7   -0.00    0.20
   2   8  -7    0.02    0.21
   2   8  -7   -0.02    0.21
  -2  -8   7    0.44    0.29
  -2  -8   7    0.03    0.19
   2   8  -6    0.07    0.19
   2   8  -6    0.02    0.16
   2   8  -6   -0.01    0.16
   2   8  -6    0.01    0.25
  -2  -8   6    0.16    0.25
  -2  -8   6    0.09    0.16
  -2  -8   6    0.00    0.13
  -2  -8   6    0.06    0.16
   2   8  -5    1.03    0.18
   2   8  -5    0.10    0.23
   2   8  -5    0.02    0.24
  -2  -8   5    1.04    0.24
  -2  -8   5    1.04    0.23
  -2  -8   5    1.17    0.24
  -2  -8   5    1.19    0.23
  -2  -8   5    1.10    0.19
   2   8  -4    0.23    0.12
   2   8  -4    0.19    0.28
  -2  -8   4    0.10    0.16
  -2  -8   4    0.19    0.17
  -2  -8   4    0.24    0.27
  -2  -8   4    0.23    0.16
  -2  -8   4    0.18    0.13
  -2  -8   4    0.14    0.17
   2   8  -3    0.50    0.19
   2   8  -3    0.62    0.12
   2   8  -3    0.58    0.12
  -2  -8   3    0.47    0.28
  -2  -8   3    0.64    0.19
  -2  -8   3    0.52    0.28
  -2  -8   3    0.44    0.18
  -2  -8   3   -0.03    0.13
  -2  -8   3    0.54    0.18
   2   8  -2    0.10    0.08
   2   8  -2    0.06    0.14
   2   8  -2   -0.01    0.08
  -2  -8   2    0.04    0.20
  -2  -8   2    0.06    0.13
  -2  -8   2    0.12    0.13
  -2  -8   2    0.10    0.13
  -2  -8   2    0.13    0.20
   2   8  -1    1.36    0.18
   2   8  -1    1.46    0.21
   2   8  -1    1.29    0.18
  -2  -8   1    1.34    0.20
  -2  -8   1    1.63    0.20
  -2  -8   1    1.15    0.31
  -2  -8   1    1.44    0.20
  -2  -8   1    1.52    0.20
   2   8   0    5.35    0.18
   2   8   0    5.46    0.24
   2   8   0    5.86    0.30
  -2  -8   0    5.53    0.29
  -2  -8   0    5.70    0.28
  -2  -8   0    5.83    0.30
  -2  -8   0    5.53    0.30
  -2  -8   0    5.69    0.30
   2   8   1    4.63    0.21
   2   8   1    4.51    0.21
   2   8   1    4.70    0.27
  -2  -8  -1    4.88    0.38
  -2  -8  -1    4.77    0.27
  -2  -8  -1    4.63    0.39
  -2  -8  -1    4.84    0.27
  -2  -8  -1    4.68    0.38
   2   8   2    0.08    0.09
   2   8   2    0.17    0.11
   2   8   2    0.18    0.12
   2   8   2   -0.03    0.20
   2   8   2    0.11    0.06
  -2  -8  -2    0.21    0.19
  -2  -8  -2    0.03    0.19
  -2  -8  -2    0.12    0.12
   2   8   3    1.08    0.17
   2   8   3    0.33    0.26
   2   8   3    1.20    0.26
   2   8   3    1.02    0.08
  -2  -8  -3    0.98    0.17
  -2  -8  -3    0.99    0.17
  -2  -8  -3    0.96    0.26
   2   8   4    0.75    0.16
   2   8   4    0.74    0.15
   2   8   4    0.45    0.24
   2   8   4    0.65    0.11
  -2  -8  -4    0.22    0.25
  -2  -8  -4    0.75    0.25
  -2  -8  -4    0.63    0.11
  -2  -8  -4    0.65    0.16
   2   8   5    0.55    0.15
   2   8   5    0.62    0.15
   2   8   5    0.64    0.16
   2   8   5    0.59    0.12
  -2  -8  -5    0.51    0.16
  -2  -8  -5    0.68    0.16
  -2  -8  -5    0.52    0.08
  -2  -8  -5    0.67    0.16
   2   8   6    1.59    0.20
   2   8   6    1.35    0.11
   2   8   6    1.50    0.29
   2   8   6    1.46    0.30
  -2  -8  -6    1.40    0.30
  -2  -8  -6    1.47    0.12
  -2  -8  -6    1.35    0.21
  -2  -8  -6    1.30    0.29
   2   8   7    2.25    0.23
   2   8   7    2.06    0.21
   2   8   7    2.04    0.23
   2   8   7    2.33    0.35
  -2  -8  -7    2.10    0.22
  -2  -8  -7    2.32    0.36
  -2  -8  -7    2.16    0.23
  -2  -8  -7    1.83    0.35
   2   8   8   -0.02    0.12
   2   8   8   -0.04    0.11
   2   8   8   -0.01    0.12
   2   8   8    0.07    0.11
  -2  -8  -8   -0.03    0.08
  -2  -8  -8   -0.05    0.11
  -2  -8  -8   -0.02    0.12
  -2  -8  -8   -0.02    0.11
   2   8   9    0.36    0.19
   2   8   9    0.33    0.18
   2   8   9    0.47    0.18
   2   8   9    0.35    0.19
  -2  -8  -9    0.44    0.13
  -2  -8  -9    0.27    0.19
  -2  -8  -9    0.35    0.18
  -2  -8  -9    0.33    0.18
   2   8  10    0.64    0.34
   2   8  10    0.59    0.15
   2   8  10    0.46    0.21
   2   8  10    0.64    0.20
  -2  -8 -10    0.63    0.24
  -2  -8 -10    0.51    0.22
  -2  -8 -10    0.52    0.21
  -2  -8 -10    0.55    0.21
   2   8  11   -0.02    0.12
   2   8  11    0.28    0.16
   2   8  11    0.05    0.16
  -2  -8 -11    0.05    0.12
  -2  -8 -11    0.03    0.16
  -2  -8 -11   -0.02    0.15
  -2  -8 -11    0.00    0.15
   2   8  12    1.97    0.23
   2   8  12    1.92    0.30
   2   8  12   -0.02    0.42
  -2  -8 -12    1.79    0.24
  -2  -8 -12    0.07    0.30
  -2  -8 -12   -0.01    0.29
  -2  -8 -12    2.26    0.42
   2   8  13    0.01    0.24
   2   8  13    0.27    0.32
   2   8  13    0.00    0.19
  -2  -8 -13    0.17    0.25
  -2  -8 -13    0.19    0.19
  -2  -8 -13    0.00    0.33
  -2  -8 -13   -0.00    0.20
   2   8  14    0.60    0.37
   2   8  14   -0.02    0.22
  -2  -8 -14    0.04    0.23
  -2  -8 -14   -0.03    0.23
  -2  -8 -14    0.32    0.22
  -2  -8 -14    0.34    0.31
   2   9  -8    1.06    0.37
   2   9  -8    0.05    0.31
  -2  -9   8    1.24    0.30
  -2  -9   8   -0.00    0.31
  -2  -9   8    1.37    0.30
  -2  -9   8    0.03    0.26
  -2  -9   8    0.00    0.28
   2   9  -7    0.15    0.18
   2   9  -7    0.08    0.24
   2   9  -7    0.04    0.24
  -2  -9   7    0.25    0.37
  -2  -9   7    0.57    0.37
  -2  -9   7    0.44    0.24
  -2  -9   7    0.00    0.31
  -2  -9   7    0.00    0.34
   2   9  -6    0.94    0.22
   2   9  -6   -0.02    0.28
  -2  -9   6    1.06    0.28
  -2  -9   6    0.86    0.40
  -2  -9   6    0.92    0.25
  -2  -9   6    0.72    0.24
   2   9  -5    0.08    0.23
   2   9  -5   -0.04    0.33
  -2  -9   5    0.38    0.30
  -2  -9   5    0.17    0.30
  -2  -9   5    0.14    0.31
  -2  -9   5    0.11    0.16
  -2  -9   5    0.27    0.18
  -2  -9   5    0.14    0.29
   2   9  -4   -0.04    0.16
   2   9  -4    0.02    0.16
   2   9  -4    0.10    0.10
  -2  -9   4    0.02    0.23
  -2  -9   4    0.10    0.14
  -2  -9   4   -0.01    0.15
  -2  -9   4   -0.02    0.15
  -2  -9   4   -0.13    0.23
   2   9  -3    0.51    0.21
   2   9  -3    0.52    0.14
   2   9  -3    0.46    0.13
  -2  -9   3    0.63    0.31
  -2  -9   3    0.42    0.29
  -2  -9   3    0.34    0.31
  -2  -9   3    0.52    0.21
  -2  -9   3    0.45    0.20
   2   9  -2    0.09    0.23
   2   9  -2    0.08    0.08
   2   9  -2    0.02    0.09
  -2  -9   2    0.06    0.22
  -2  -9   2   -0.14    0.21
  -2  -9   2    0.02    0.13
  -2  -9   2    0.01    0.13
  -2  -9   2    0.13    0.21
   2   9  -1    0.38    0.10
   2   9  -1    0.01    0.15
   2   9  -1    0.27    0.17
  -2  -9   1    0.27    0.26
  -2  -9   1    0.28    0.17
  -2  -9   1    0.36    0.17
  -2  -9   1    0.25    0.16
  -2  -9   1    0.29    0.17
   2   9   0    1.34    0.12
   2   9   0    1.15    0.12
   2   9   0    1.27    0.22
  -2  -9   0    1.28    0.21
  -2  -9   0    1.10    0.20
  -2  -9   0    1.28    0.33
  -2  -9   0    1.18    0.22
  -2  -9   0    1.35    0.21
   2   9   1    8.93    0.26
   2   9   1    9.55    0.57
  -2  -9  -1    9.50    0.54
  -2  -9  -1    9.38    0.56
  -2  -9  -1    9.44    0.40
  -2  -9  -1    9.56    0.40
  -2  -9  -1    9.73    0.40
   2   9   2    0.57    0.14
   2   9   2    0.49    0.09
   2   9   2    0.51    0.28
  -2  -9  -2    0.22    0.17
  -2  -9  -2    0.67    0.16
  -2  -9  -2    0.74    0.28
  -2  -9  -2    0.57    0.17
  -2  -9  -2    0.25    0.26
   2   9   3    4.69    0.17
   2   9   3    4.82    0.23
   2   9   3    5.21    0.41
   2   9   3    5.02    0.30
   2   9   3    5.01    0.30
  -2  -9  -3    5.04    0.29
  -2  -9  -3    5.14    0.31
  -2  -9  -3    5.00    0.30
   2   9   4    4.84    0.29
   2   9   4    4.93    0.29
   2   9   4    4.70    0.30
   2   9   4    4.48    0.23
  -2  -9  -4    4.48    0.17
  -2  -9  -4    4.65    0.29
  -2  -9  -4    4.50    0.30
  -2  -9  -4    4.87    0.29
   2   9   5    0.32    0.14
   2   9   5    0.19    0.24
   2   9   5    0.18    0.11
   2   9   5    0.20    0.14
  -2  -9  -5    0.06    0.23
  -2  -9  -5    0.23    0.15
  -2  -9  -5    0.19    0.15
  -2  -9  -5    0.19    0.08
   2   9   6    1.85    0.13
   2   9   6    1.77    0.23
   2   9   6    1.96    0.35
   2   9   6    1.68    0.22
  -2  -9  -6    1.69    0.36
  -2  -9  -6    2.01    0.23
  -2  -9  -6    1.81    0.23
  -2  -9  -6    1.92    0.14
   2   9   7    0.50    0.18
   2   9   7    0.49    0.27
   2   9   7    0.39    0.16
   2   9   7    0.55    0.18
  -2  -9  -7    0.54    0.17
  -2  -9  -7    0.56    0.18
  -2  -9  -7    0.36    0.18
  -2  -9  -7    0.49    0.29
   2   9   8    0.93    0.22
   2   9   8    0.48    0.21
   2   9   8    0.89    0.21
   2   9   8    1.19    0.21
  -2  -9  -8    1.15    0.14
  -2  -9  -8    0.91    0.22
  -2  -9  -8    0.78    0.22
  -2  -9  -8    0.89    0.22
   2   9   9    0.27    0.17
   2   9   9    0.21    0.18
   2   9   9    0.24    0.27
   2   9   9    0.28    0.18
  -2  -9  -9    0.17    0.27
  -2  -9  -9    0.29    0.12
  -2  -9  -9    0.07    0.27
  -2  -9  -9    0.19    0.18
   2   9  10    0.42    0.30
   2   9  10    0.23    0.21
   2   9  10    0.30    0.30
   2   9  10    0.33    0.31
  -2  -9 -10    0.42    0.14
  -2  -9 -10   -0.01    0.32
  -2  -9 -10    0.01    0.31
  -2  -9 -10    0.47    0.30
   2   9  11   -0.00    0.21
   2   9  11    0.08    0.21
   2   9  11    0.59    0.16
   2   9  11    0.63    0.22
  -2  -9 -11    0.46    0.26
  -2  -9 -11    0.01    0.35
  -2  -9 -11    0.00    0.33
  -2  -9 -11    0.51    0.21
   2   9  12    0.36    0.35
   2   9  12    0.22    0.16
   2   9  12    0.02    0.34
  -2  -9 -12    0.38    0.17
  -2  -9 -12    0.04    0.22
  -2  -9 -12    0.00    0.33
  -2  -9 -12    0.63    0.33
   2   9  13    0.00    0.19
   2   9  13    0.79    0.25
   2   9  13    0.01    0.25
  -2  -9 -13    0.68    0.20
  -2  -9 -13    0.06    0.25
  -2  -9 -13   -0.00    0.39
  -2  -9 -13    0.63    0.25
   2   9  14    0.02    0.28
   2   9  14    0.35    0.24
   2   9  14   -0.01    0.21
  -2  -9 -14    0.02    0.23
  -2  -9 -14    0.00    0.23
  -2  -9 -14    0.39    0.29
  -2  -9 -14    0.12    0.23
   2  10  -7    0.66    0.24
  -2 -10   7    0.80    0.32
  -2 -10   7    0.75    0.30
  -2 -10   7    0.86    0.50
  -2 -10   7    0.03    0.27
  -2 -10   7    0.73    0.32
  -2 -10   7    0.73    0.44
   2  10  -6    1.14    0.24
   2  10  -6   -0.00    0.22
   2  10  -6   -0.00    0.31
  -2 -10   6    1.01    0.47
  -2 -10   6    1.21    0.32
  -2 -10   6    0.84    0.47
  -2 -10   6    1.16    0.43
  -2 -10   6    1.36    0.28
   2  10  -5    3.46    0.44
   2  10  -5    3.85    0.42
   2  10  -5    3.42    0.43
  -2 -10   5    3.90    0.59
  -2 -10   5    3.49    0.37
  -2 -10   5    3.69    0.58
  -2 -10   5    3.27    0.41
  -2 -10   5    3.53    0.36
   2  10  -4    2.66    0.38
   2  10  -4    2.68    0.25
   2  10  -4    2.92    0.37
  -2 -10   4    2.83    0.52
  -2 -10   4    2.82    0.35
  -2 -10   4    3.19    0.48
  -2 -10   4    3.10    0.36
  -2 -10   4    2.86    0.33
   2  10  -3    0.49    0.14
   2  10  -3    0.02    0.22
   2  10  -3    0.39    0.23
  -2 -10   3    0.06    0.22
  -2 -10   3    0.40    0.21
  -2 -10   3    0.64    0.22
  -2 -10   3    0.32    0.19
  -2 -10   3    0.43    0.20
   2  10  -2    0.06    0.14
   2  10  -2   -0.02    0.14
   2  10  -2   -0.12    0.14
  -2 -10   2    0.05    0.14
  -2 -10   2   -0.09    0.14
  -2 -10   2   -0.06    0.22
  -2 -10   2   -0.04    0.21
  -2 -10   2    0.01    0.13
   2  10  -1    0.00    0.16
   2  10  -1    0.18    0.18
   2  10  -1    0.23    0.10
  -2 -10   1    0.16    0.28
  -2 -10   1    0.33    0.18
  -2 -10   1    0.14    0.16
  -2 -10   1    0.30    0.27
  -2 -10   1    0.27    0.27
   2  10   0    1.03    0.13
   2  10   0    0.76    0.19
   2  10   0    0.83    0.35
  -2 -10   0    0.72    0.20
  -2 -10   0    0.75    0.34
  -2 -10   0    0.85    0.22
  -2 -10   0    0.76    0.33
  -2 -10   0    0.76    0.34
   2  10   1   -0.00    0.07
   2  10   1    0.05    0.07
   2  10   1    0.16    0.22
  -2 -10  -1    0.11    0.13
  -2 -10  -1    0.02    0.12
  -2 -10  -1    0.05    0.22
  -2 -10  -1    0.04    0.13
  -2 -10  -1    0.03    0.14
   2  10   2    4.90    0.21
   2  10   2    4.84    0.20
   2  10   2    5.47    0.35
  -2 -10  -2    5.10    0.33
  -2 -10  -2    5.27    0.31
  -2 -10  -2    5.05    0.47
  -2 -10  -2    5.19    0.50
  -2 -10  -2    5.44    0.34
   2  10   3    0.40    0.09
   2  10   3    0.35    0.15
   2  10   3    0.53    0.18
   2  10   3    0.33    0.17
   2  10   3    0.33    0.18
  -2 -10  -3    0.30    0.17
  -2 -10  -3    0.47    0.18
  -2 -10  -3    0.44    0.18
   2  10   4    1.34    0.22
   2  10   4    1.14    0.21
   2  10   4    1.39    0.23
   2  10   4    1.06    0.18
  -2 -10  -4    1.23    0.23
  -2 -10  -4    1.05    0.21
  -2 -10  -4    1.59    0.23
   2  10   5    0.09    0.14
   2  10   5    0.08    0.23
   2  10   5    0.12    0.15
   2  10   5    0.08    0.12
  -2 -10  -5    0.12    0.15
  -2 -10  -5    0.10    0.22
  -2 -10  -5    0.16    0.12
  -2 -10  -5    0.18    0.24
   2  10   6    0.34    0.26
   2  10   6    0.24    0.26
   2  10   6    0.24    0.28
   2  10   6    0.24    0.09
  -2 -10  -6    0.28    0.16
  -2 -10  -6    0.27    0.15
  -2 -10  -6    0.18    0.27
  -2 -10  -6    0.26    0.26
   2  10   7    0.44    0.29
   2  10   7    0.38    0.27
   2  10   7    0.24    0.30
   2  10   7    0.41    0.17
  -2 -10  -7    0.39    0.11
  -2 -10  -7    0.36    0.18
  -2 -10  -7    0.36    0.30
  -2 -10  -7    0.38    0.31
   2  10   8    0.09    0.15
   2  10   8    0.05    0.15
   2  10   8    0.17    0.14
   2  10   8    0.10    0.15
  -2 -10  -8    0.04    0.15
  -2 -10  -8    0.03    0.15
  -2 -10  -8    0.05    0.15
  -2 -10  -8   -0.02    0.15
   2  10   9    0.03    0.16
   2  10   9    0.09    0.10
   2  10   9    0.09    0.15
   2  10   9    0.07    0.14
  -2 -10  -9    0.01    0.15
  -2 -10  -9    0.06    0.16
  -2 -10  -9   -0.08    0.14
  -2 -10  -9    0.01    0.15
   2  10  10    0.05    0.10
   2  10  10   -0.01    0.14
   2  10  10    0.03    0.14
   2  10  10   -0.06    0.14
  -2 -10 -10    0.02    0.14
  -2 -10 -10    0.01    0.16
  -2 -10 -10    0.01    0.14
  -2 -10 -10    0.11    0.23
   2  10  11    0.39    0.25
   2  10  11    0.01    0.23
   2  10  11    0.91    0.22
   2  10  11    0.45    0.22
  -2 -10 -11    0.50    0.17
  -2 -10 -11    0.00    0.23
  -2 -10 -11    0.01    0.24
  -2 -10 -11    0.59    0.23
   2  10  12    0.29    0.27
   2  10  12   -0.06    0.20
   2  10  12   -0.00    0.18
  -2 -10 -12   -0.02    0.21
  -2 -10 -12    0.00    0.18
  -2 -10 -12    0.16    0.18
  -2 -10 -12   -0.01    0.17
   2  10  13    0.02    0.19
   2  10  13    0.02    0.24
   2  10  13    0.64    0.25
  -2 -10 -13    0.53    0.20
  -2 -10 -13    0.00    0.26
  -2 -10 -13    0.02    0.24
  -2 -10 -13    0.73    0.25
   2  11  -6    0.69    0.25
   2  11  -6    0.01    0.23
   2  11  -6    0.04    0.48
  -2 -11   6    1.08    0.49
  -2 -11   6    0.58    0.29
  -2 -11   6    0.06    0.49
  -2 -11   6    0.90    0.27
  -2 -11   6    0.70    0.50
   2  11  -5    3.09    0.51
   2  11  -5    3.30    0.45
   2  11  -5    3.08    0.32
  -2 -11   5    3.28    0.64
  -2 -11   5    2.95    0.43
  -2 -11   5    3.78    0.56
  -2 -11   5    3.79    0.45
  -2 -11   5    3.52    0.39
   2  11  -4    0.06    0.21
   2  11  -4    0.01    0.12
   2  11  -4   -0.00    0.31
  -2 -11   4   -0.00    0.18
  -2 -11   4   -0.09    0.29
  -2 -11   4    0.14    0.16
  -2 -11   4    0.06    0.18
  -2 -11   4   -0.00    0.17
   2  11  -3    0.45    0.26
   2  11  -3    0.70    0.25
   2  11  -3    0.56    0.27
  -2 -11   3    0.50    0.25
  -2 -11   3    0.02    0.24
  -2 -11   3    0.66    0.21
  -2 -11   3    0.73    0.25
  -2 -11   3   -0.01    0.22
   2  11  -2    0.28    0.21
   2  11  -2    0.03    0.14
   2  11  -2    0.10    0.32
  -2 -11   2    0.42    0.20
  -2 -11   2    0.48    0.28
  -2 -11   2    0.30    0.18
  -2 -11   2    0.40    0.32
  -2 -11   2   -0.05    0.20
   2  11  -1    0.17    0.19
   2  11  -1    0.03    0.20
   2  11  -1    0.44    0.22
  -2 -11   1   -0.03    0.21
  -2 -11   1    0.59    0.21
  -2 -11   1    0.06    0.21
  -2 -11   1    0.45    0.19
  -2 -11   1    0.46    0.17
   2  11   0   -0.01    0.17
   2  11   0    0.12    0.11
   2  11   0    0.33    0.19
  -2 -11   0    0.28    0.18
  -2 -11   0    0.22    0.16
  -2 -11   0    0.34    0.18
  -2 -11   0    0.25    0.17
  -2 -11   0    0.10    0.18
   2  11   1    1.30    0.15
   2  11   1    1.15    0.27
   2  11   1    1.25    0.15
  -2 -11  -1    1.21    0.25
  -2 -11  -1    1.22    0.25
  -2 -11  -1    1.40    0.22
  -2 -11  -1    0.05    0.26
  -2 -11  -1    1.27    0.37
   2  11   2    0.20    0.20
   2  11   2    0.20    0.10
   2  11   2    0.27    0.10
  -2 -11  -2    0.17    0.30
  -2 -11  -2    0.44    0.30
  -2 -11  -2    0.31    0.16
  -2 -11  -2    0.19    0.20
  -2 -11  -2    0.38    0.17
   2  11   3    3.60    0.27
   2  11   3    3.82    0.33
   2  11   3    3.54    0.20
  -2 -11  -3    3.93    0.29
  -2 -11  -3    3.77    0.34
  -2 -11  -3    3.59    0.31
   2  11   4    0.85    0.18
   2  11   4    0.69    0.20
   2  11   4    1.09    0.21
   2  11   4    1.17    0.24
  -2 -11  -4    0.96    0.32
  -2 -11  -4    1.08    0.24
   2  11   5    0.11    0.23
   2  11   5    0.12    0.16
   2  11   5    0.09    0.08
  -2 -11  -5    0.22    0.16
  -2 -11  -5    0.08    0.14
  -2 -11  -5    0.14    0.23
   2  11   6   -0.02    0.23
   2  11   6    0.02    0.22
   2  11   6    0.00    0.15
   2  11   6    0.04    0.12
  -2 -11  -6    0.04    0.13
  -2 -11  -6    0.08    0.15
  -2 -11  -6    0.08    0.08
  -2 -11  -6    0.00    0.23
   2  11   7   -0.05    0.24
   2  11   7    0.12    0.09
   2  11   7    0.21    0.16
   2  11   7   -0.04    0.26
  -2 -11  -7    0.19    0.17
  -2 -11  -7    0.03    0.15
  -2 -11  -7    0.07    0.15
  -2 -11  -7    0.06    0.26
   2  11   8    0.35    0.13
   2  11   8    0.58    0.21
   2  11   8    0.43    0.20
   2  11   8    0.48    0.21
  -2 -11  -8    0.28    0.20
  -2 -11  -8    0.47    0.22
  -2 -11  -8    0.47    0.22
  -2 -11  -8    0.49    0.13
   2  11   9    1.50    0.18
   2  11   9    1.37    0.27
   2  11   9    1.25    0.27
   2  11   9    1.63    0.28
  -2 -11  -9    1.34    0.29
  -2 -11  -9    1.49    0.25
  -2 -11  -9    1.28    0.19
  -2 -11  -9    1.66    0.28
   2  11  10    0.89    0.18
   2  11  10    1.09    0.25
   2  11  10    0.00    0.27
   2  11  10    0.90    0.40
  -2 -11 -10    0.02    0.25
  -2 -11 -10    0.93    0.18
  -2 -11 -10    1.22    0.40
  -2 -11 -10    1.18    0.27
   2  11  11    0.55    0.29
   2  11  11    0.08    0.13
   2  11  11    0.08    0.30
   2  11  11    0.00    0.20
  -2 -11 -11    0.03    0.19
  -2 -11 -11    0.09    0.14
  -2 -11 -11    0.00    0.20
  -2 -11 -11    0.21    0.20
   2  11  12    1.70    0.23
   2  11  12    1.79    0.31
   2  11  12    1.76    0.31
   2  11  12   -0.02    0.32
  -2 -11 -12    0.01    0.34
  -2 -11 -12    0.02    0.32
  -2 -11 -12    2.20    0.32
  -2 -11 -12    1.45    0.38
   2  11  13    0.01    0.27
   2  11  13    0.33    0.22
   2  11  13   -0.01    0.21
  -2 -11 -13    0.27    0.18
  -2 -11 -13    0.05    0.40
  -2 -11 -13   -0.01    0.24
  -2 -11 -13    0.15    0.25
   2  12  -4    1.87    0.41
   2  12  -4    1.37    0.26
   2  12  -4    1.57    0.35
  -2 -12   4    1.53    0.37
  -2 -12   4    1.51    0.37
  -2 -12   4    1.49    0.37
  -2 -12   4    1.50    0.31
  -2 -12   4   -0.00    0.51
   2  12  -3    0.40    0.39
   2  12  -3    0.23    0.18
   2  12  -3    0.53    0.27
  -2 -12   3    0.03    0.26
  -2 -12   3    0.33    0.33
  -2 -12   3    0.40    0.25
  -2 -12   3    0.01    0.36
  -2 -12   3    0.44    0.40
   2  12  -2    0.23    0.14
   2  12  -2    0.64    0.23
   2  12  -2    0.07    0.15
  -2 -12   2    0.28    0.22
  -2 -12   2   -0.00    0.22
  -2 -12   2    0.16    0.23
  -2 -12   2    0.18    0.18
  -2 -12   2    0.00    0.32
   2  12  -1    0.73    0.16
   2  12  -1    0.44    0.17
   2  12  -1    0.86    0.40
  -2 -12   1    0.00    0.26
  -2 -12   1    0.89    0.22
  -2 -12   1    0.77    0.41
  -2 -12   1    0.68    0.36
  -2 -12   1    0.08    0.25
   2  12   0    0.02    0.18
   2  12   0    0.07    0.16
   2  12   0    0.10    0.11
  -2 -12   0    0.01    0.18
  -2 -12   0    0.16    0.23
  -2 -12   0    0.24    0.18
  -2 -12   0   -0.12    0.17
  -2 -12   0    0.00    0.16
   2  12   1    2.04    0.28
   2  12   1    1.76    0.29
   2  12   1    1.95    0.32
  -2 -12  -1    2.19    0.31
  -2 -12  -1    1.23    0.39
  -2 -12  -1    2.19    0.32
  -2 -12  -1    2.33    0.30
  -2 -12  -1    1.98    0.31
   2  12   2    0.80    0.14
   2  12   2    0.84    0.23
   2  12   2    1.11    0.26
  -2 -12  -2    0.03    0.25
  -2 -12  -2   -0.01    0.26
  -2 -12  -2    0.84    0.32
  -2 -12  -2    1.05    0.23
  -2 -12  -2    1.08    0.25
   2  12   3    0.82    0.24
   2  12   3    0.01    0.19
   2  12   3    0.85    0.14
  -2 -12  -3    0.00    0.23
  -2 -12  -3   -0.01    0.24
  -2 -12  -3    0.85    0.21
  -2 -12  -3    0.85    0.23
   2  12   4   -0.02    0.08
   2  12   4    0.07    0.14
   2  12   4   -0.11    0.16
   2  12   4   -0.09    0.16
  -2 -12  -4   -0.00    0.17
  -2 -12  -4   -0.04    0.15
  -2 -12  -4   -0.24    0.16
   2  12   5    0.06    0.16
   2  12   5    0.04    0.10
   2  12   5    0.00    0.22
   2  12   5    0.28    0.16
   2  12   5    0.01    0.13
  -2 -12  -5    0.01    0.16
  -2 -12  -5    0.00    0.22
  -2 -12  -5   -0.02    0.17
   2  12   6    1.09    0.37
   2  12   6    1.37    0.27
   2  12   6    1.14    0.27
   2  12   6    1.16    0.15
  -2 -12  -6    1.20    0.28
  -2 -12  -6    1.02    0.23
  -2 -12  -6    1.13    0.16
  -2 -12  -6    1.23    0.28
   2  12   7    0.12    0.28
   2  12   7    0.09    0.19
   2  12   7    0.25    0.19
   2  12   7    0.15    0.11
  -2 -12  -7    0.02    0.20
  -2 -12  -7    0.34    0.17
  -2 -12  -7    0.17    0.20
  -2 -12  -7    0.17    0.11
   2  12   8    0.64    0.42
   2  12   8    1.20    0.40
   2  12   8    1.43    0.28
   2  12   8    1.32    0.26
  -2 -12  -8    1.09    0.25
  -2 -12  -8    1.30    0.29
  -2 -12  -8    1.31    0.45
  -2 -12  -8    1.04    0.28
   2  12   9    0.38    0.23
   2  12   9    0.49    0.22
   2  12   9    0.18    0.23
   2  12   9    0.30    0.20
  -2 -12  -9    0.30    0.20
  -2 -12  -9    0.24    0.23
  -2 -12  -9    0.55    0.23
  -2 -12  -9    0.19    0.23
   2  12  10    0.33    0.20
   2  12  10   -0.02    0.20
   2  12  10    0.33    0.19
   2  12  10   -0.05    0.19
  -2 -12 -10   -0.01    0.18
  -2 -12 -10    0.01    0.20
  -2 -12 -10    0.06    0.20
  -2 -12 -10    0.04    0.21
   2  12  11   -0.01    0.36
   2  12  11    0.67    0.26
   2  12  11    0.33    0.39
   2  12  11    0.57    0.24
  -2 -12 -11    0.02    0.37
  -2 -12 -11    0.32    0.27
  -2 -12 -11    0.00    0.26
  -2 -12 -11    0.41    0.40
   2  12  12    0.16    0.20
   2  12  12   -0.06    0.18
   2  12  12   -0.00    0.17
   2  12  12    0.02    0.18
  -2 -12 -12    0.01    0.30
  -2 -12 -12    0.04    0.13
  -2 -12 -12   -0.01    0.19
  -2 -12 -12    0.02    0.20
   2  13  -2    0.28    0.17
   2  13  -2    0.20    0.18
   2  13  -2    0.79    0.40
  -2 -13   2    0.35    0.26
  -2 -13   2    0.38    0.33
  -2 -13   2    0.00    0.23
  -2 -13   2    0.45    0.41
  -2 -13   2   -0.01    0.26
   2  13  -1    0.00    0.11
   2  13  -1    0.03    0.11
   2  13  -1    0.03    0.17
  -2 -13   1   -0.02    0.27
  -2 -13   1    0.01    0.14
  -2 -13   1    0.01    0.15
  -2 -13   1   -0.02    0.17
  -2 -13   1    0.03    0.26
   2  13   0    0.72    0.20
   2  13   0    1.42    0.19
   2  13   0    1.77    0.31
  -2 -13   0    0.04    0.46
  -2 -13   0    1.65    0.25
  -2 -13   0    0.00    0.32
  -2 -13   0    0.01    0.27
  -2 -13   0    0.22    0.46
   2  13   1    0.12    0.13
   2  13   1    0.13    0.13
   2  13   1    0.47    0.36
  -2 -13  -1   -0.00    0.34
  -2 -13  -1    0.24    0.17
  -2 -13  -1    0.06    0.36
  -2 -13  -1    0.33    0.20
  -2 -13  -1    0.01    0.34
   2  13   2    0.03    0.10
   2  13   2    0.04    0.09
   2  13   2    0.07    0.17
  -2 -13  -2   -0.01    0.25
  -2 -13  -2    0.07    0.13
  -2 -13  -2   -0.09    0.17
  -2 -13  -2   -0.03    0.15
  -2 -13  -2   -0.03    0.26
   2  13   3   -0.01    0.16
   2  13   3    0.07    0.17
   2  13   3    0.10    0.19
  -2 -13  -3   -0.03    0.19
  -2 -13  -3    0.08    0.15
  -2 -13  -3    0.12    0.27
  -2 -13  -3   -0.03    0.19
  -2 -13  -3    0.78    0.30
   2  13   4    0.01    0.10
   2  13   4   -0.04    0.19
   2  13   4    0.10    0.11
  -2 -13  -4   -0.03    0.18
  -2 -13  -4    0.16    0.15
  -2 -13  -4    0.06    0.19
  -2 -13  -4    0.25    0.18
   2  13   5    0.98    0.28
   2  13   5    0.98    0.17
   2  13   5    1.21    0.27
   2  13   5    0.03    0.23
  -2 -13  -5    1.43    0.23
  -2 -13  -5    0.08    0.27
  -2 -13  -5    1.23    0.28
   2  13   6    0.10    0.12
   2  13   6    0.07    0.27
   2  13   6    0.07    0.19
   2  13   6    0.45    0.20
   2  13   6    0.00    0.16
  -2 -13  -6    0.00    0.16
  -2 -13  -6   -0.11    0.20
  -2 -13  -6    0.14    0.20
   2  13   7    0.89    0.37
   2  13   7    0.58    0.26
   2  13   7    0.38    0.26
   2  13   7    0.67    0.15
  -2 -13  -7    0.46    0.16
  -2 -13  -7    0.71    0.22
  -2 -13  -7    0.63    0.26
  -2 -13  -7    0.99    0.27
   2  13   8    0.50    0.34
   2  13   8    0.45    0.25
   2  13   8    0.30    0.25
   2  13   8    0.40    0.15
  -2 -13  -8    0.57    0.21
  -2 -13  -8    0.48    0.25
  -2 -13  -8    0.22    0.15
  -2 -13  -8    0.48    0.39
   2  13   9    0.12    0.29
   2  13   9    0.08    0.17
   2  13   9    0.10    0.11
   2  13   9   -0.01    0.19
  -2 -13  -9    0.14    0.16
  -2 -13  -9    0.25    0.29
  -2 -13  -9   -0.04    0.12
  -2 -13  -9   -0.18    0.19
   2  13  10    0.53    0.16
   2  13  10    0.32    0.26
   2  13  10    0.52    0.38
   2  13  10    0.26    0.24
  -2 -13 -10    0.25    0.40
  -2 -13 -10    0.40    0.27
  -2 -13 -10   -0.03    0.36
  -2 -13 -10    0.23    0.17
   2  13  11    0.17    0.16
   2  13  11    0.23    0.36
   2  13  11    0.16    0.36
   2  13  11    0.21    0.34
  -2 -13 -11    0.04    0.36
  -2 -13 -11    0.09    0.17
  -2 -13 -11    0.11    0.39
   2  14   0    0.01    0.15
   2  14   0    0.04    0.17
   2  14   0    0.02    0.16
  -2 -14   0    0.05    0.16
  -2 -14   0   -0.14    0.19
  -2 -14   0   -0.02    0.17
  -2 -14   0    0.00    0.21
  -2 -14   0   -0.02    0.16
   2  14   1    0.02    0.12
   2  14   1   -0.02    0.13
   2  14   1    0.06    0.13
  -2 -14  -1   -0.26    0.16
  -2 -14  -1    0.05    0.14
  -2 -14  -1    0.31    0.18
  -2 -14  -1   -0.08    0.13
  -2 -14  -1   -0.01    0.13
   2  14   2    0.04    0.22
   2  14   2    0.05    0.20
   2  14   2    0.51    0.36
  -2 -14  -2   -0.06    0.23
  -2 -14  -2   -0.01    0.22
  -2 -14  -2    0.30    0.18
  -2 -14  -2    0.10    0.37
  -2 -14  -2    0.40    0.32
   2  14   3   -0.02    0.13
   2  14   3    0.06    0.14
   2  14   3    0.40    0.22
  -2 -14  -3    0.00    0.23
  -2 -14  -3    0.41    0.18
  -2 -14  -3   -0.02    0.23
  -2 -14  -3    0.12    0.31
  -2 -14  -3    0.43    0.23
   2  14   4   -0.01    0.14
   2  14   4    0.46    0.15
   2  14   4    0.34    0.25
  -2 -14  -4    0.37    0.20
  -2 -14  -4    0.55    0.21
  -2 -14  -4    0.05    0.26
   2  14   5    0.35    0.22
   2  14   5    0.02    0.13
   2  14   5    0.20    0.14
  -2 -14  -5    0.20    0.18
  -2 -14  -5   -0.00    0.23
  -2 -14  -5    0.30    0.20
   2  14   6    0.44    0.25
   2  14   6    0.40    0.22
   2  14   6    0.50    0.26
   2  14   6    0.01    0.22
  -2 -14  -6    0.61    0.21
   2  14   7    0.02    0.17
   2  14   7    0.40    0.22
   2  14   7    0.91    0.39
   2  14   7    0.43    0.22
  -2 -14  -7    0.60    0.21
  -2 -14  -7    0.24    0.15
  -2 -14  -7    0.55    0.27
   2  14   8    0.76    0.41
   2  14   8    0.82    0.30
   2  14   8    0.69    0.45
   2  14   8    0.93    0.28
  -2 -14  -8    0.84    0.25
  -2 -14  -8    0.85    0.48
  -2 -14  -8    0.39    0.19
  -2 -14  -8    0.89    0.31
   2  14   9    0.11    0.30
   2  14   9    0.09    0.31
   2  14   9    0.09    0.13
   2  14   9   -0.01    0.33
  -2 -14  -9    0.17    0.18
  -2 -14  -9    0.23    0.34
  -2 -14  -9   -0.07    0.34
  -2 -14  -9   -0.03    0.14
   2  14  10   -0.06    0.22
   2  14  10    0.24    0.15
   2  14  10    0.15    0.22
  -2 -14 -10    0.04    0.33
  -2 -14 -10    0.13    0.24
  -2 -14 -10    0.04    0.16
   2  15   4   -0.01    0.11
   2  15   4    0.02    0.12
  -2 -15  -4    0.37    0.21
  -2 -15  -4    0.03    0.21
  -2 -15  -4    0.03    0.16
  -2 -15  -4    0.08    0.21
  -2 -15  -4   -0.09    0.18
   2  15   5    0.52    0.25
   2  15   5    0.39    0.25
   2  15   5    0.00    0.15
  -2 -15  -5    0.01    0.26
  -2 -15  -5    0.32    0.20
  -2 -15  -5    0.23    0.22
  -2 -15  -5    0.02    0.26
  -2 -15  -5    0.53    0.27
   2  15   6    0.52    0.27
   2  15   6    0.61    0.28
   2  15   6    0.01    0.24
  -2 -15  -6    0.42    0.22
  -2 -15  -6    0.33    0.24
   3 -13  -9   -0.02    0.21
   3 -13  -9   -0.05    0.16
   3 -13  -9    0.00    0.16
  -3  13   9    0.07    0.16
  -3  13   9    0.00    0.17
  -3  13   9    0.17    0.19
   3 -13  -8    0.21    0.16
   3 -13  -8   -0.01    0.33
   3 -13  -8   -0.04    0.17
  -3  13   8    0.02    0.17
  -3  13   8    0.00    0.16
  -3  13   8    0.02    0.20
   3 -13  -7    0.01    0.17
   3 -13  -7   -0.01    0.21
   3 -13  -7    0.26    0.18
  -3  13   7    0.23    0.18
  -3  13   7   -0.00    0.18
   3 -13  -6    0.31    0.18
   3 -13  -6    0.01    0.22
   3 -13  -6    0.20    0.18
  -3  13   6    0.09    0.18
  -3  13   6   -0.00    0.19
   3 -13  -5    0.05    0.17
   3 -13  -5   -0.07    0.21
   3 -13  -5    0.24    0.16
   3 -13  -5    0.20    0.26
  -3  13   5    0.03    0.17
   3 -13  -4    0.27    0.19
   3 -13  -4    0.47    0.19
   3 -13  -4    0.26    0.19
  -3  13   4   -0.03    0.26
  -3  13   4    0.02    0.20
   3 -13  -3    0.47    0.19
   3 -13  -3    0.29    0.19
   3 -13  -3   -0.00    0.18
  -3  13   3    0.34    0.23
  -3  13   3   -0.02    0.20
   3 -13  -2    0.05    0.16
   3 -13  -2    0.00    0.16
   3 -13  -2    0.28    0.16
  -3  13   2   -0.11    0.20
  -3  13   2    0.00    0.17
   3 -13  -1    0.08    0.17
   3 -13  -1    0.00    0.16
   3 -13  -1    0.02    0.16
  -3  13   1    0.24    0.31
  -3  13   1   -0.01    0.32
  -3  13   1    0.04    0.27
   3 -13   0   -0.09    0.18
   3 -13   0    0.34    0.17
   3 -13   0   -0.00    0.27
  -3  13   0    0.01    0.21
  -3  13   0    0.07    0.22
  -3  13   0    0.01    0.29
   3 -12 -10   -0.04    0.14
   3 -12 -10    0.04    0.28
   3 -12 -10   -0.01    0.23
  -3  12  10   -0.00    0.15
  -3  12  10    0.24    0.23
  -3  12  10   -0.14    0.17
   3 -12  -9   -0.09    0.14
   3 -12  -9    0.08    0.17
   3 -12  -9    0.01    0.15
  -3  12   9    0.09    0.14
  -3  12   9   -0.00    0.15
  -3  12   9    0.04    0.16
   3 -12  -8   -0.03    0.21
   3 -12  -8    0.04    0.15
   3 -12  -8    0.01    0.16
  -3  12   8    0.22    0.16
  -3  12   8    0.00    0.16
  -3  12   8    0.12    0.19
   3 -12  -7    0.10    0.17
   3 -12  -7    0.31    0.19
  -3  12   7    0.29    0.18
  -3  12   7   -0.00    0.18
  -3  12   7    0.26    0.34
   3 -12  -6    1.36    0.22
   3 -12  -6    0.96    0.24
  -3  12   6   -0.00    0.24
  -3  12   6    1.14    0.23
   3 -12  -5    0.24    0.16
   3 -12  -5    0.13    0.16
  -3  12   5    0.18    0.16
  -3  12   5   -0.01    0.17
   3 -12  -4    0.04    0.12
   3 -12  -4    0.04    0.12
   3 -12  -4   -0.00    0.15
   3 -12  -4   -0.01    0.12
  -3  12   4   -0.02    0.13
   3 -12  -3    0.14    0.14
   3 -12  -3   -0.00    0.13
   3 -12  -3    0.10    0.15
  -3  12   3    0.13    0.19
  -3  12   3   -0.02    0.20
  -3  12   3   -0.02    0.15
   3 -12  -2    0.25    0.24
   3 -12  -2   -0.00    0.15
   3 -12  -2    0.13    0.16
  -3  12   2    0.01    0.16
  -3  12   2   -0.00    0.21
  -3  12   2    0.31    0.20
   3 -12  -1   -0.00    0.11
   3 -12  -1    0.10    0.19
   3 -12  -1   -0.02    0.18
  -3  12   1    0.00    0.16
  -3  12   1   -0.01    0.12
  -3  12   1   -0.01    0.15
   3 -12   0    0.11    0.23
   3 -12   0    0.00    0.15
   3 -12   0    0.35    0.23
  -3  12   0    0.01    0.20
  -3  12   0   -0.10    0.29
  -3  12   0    0.00    0.16
   3 -12   1   -0.06    0.23
   3 -12   1    0.04    0.23
   3 -12   1    0.00    0.22
  -3  12  -1   -0.11    0.18
  -3  12  -1    0.00    0.25
  -3  12  -1   -0.02    0.19
   3 -12   2   -0.00    0.27
   3 -12   2    0.54    0.27
   3 -12   2   -0.00    0.27
  -3  12  -2    0.03    0.22
  -3  12  -2   -0.00    0.19
  -3  12  -2    0.01    0.32
   3 -11 -11    0.00    0.26
   3 -11 -11   -0.01    0.23
   3 -11 -11    0.13    0.27
   3 -11 -11    0.02    0.19
   3 -11 -11    0.09    0.18
  -3  11  11    0.00    0.17
  -3  11  11    0.02    0.19
  -3  11  11    0.33    0.20
   3 -11 -10   -0.10    0.20
   3 -11 -10    0.05    0.17
   3 -11 -10   -0.01    0.22
   3 -11 -10    0.03    0.11
  -3  11  10   -0.03    0.22
  -3  11  10    0.00    0.14
  -3  11  10    0.08    0.25
   3 -11  -9    0.02    0.29
   3 -11  -9    0.08    0.23
   3 -11  -9    0.00    0.15
   3 -11  -9    0.04    0.10
  -3  11   9    0.15    0.15
  -3  11   9    0.00    0.24
  -3  11   9   -0.05    0.29
   3 -11  -8   -0.04    0.20
   3 -11  -8   -0.04    0.17
   3 -11  -8    0.06    0.14
  -3  11   8    0.07    0.14
  -3  11   8   -0.00    0.21
  -3  11   8    0.13    0.26
   3 -11  -7   -0.03    0.18
   3 -11  -7    0.01    0.20
   3 -11  -7    0.07    0.13
  -3  11   7   -0.00    0.21
  -3  11   7    0.07    0.13
  -3  11   7    0.09    0.27
   3 -11  -6    0.02    0.12
   3 -11  -6    0.04    0.18
  -3  11   6    0.10    0.18
  -3  11   6   -0.02    0.12
   3 -11  -5    0.10    0.21
   3 -11  -5    0.05    0.14
  -3  11   5    0.13    0.14
  -3  11   5    0.02    0.21
   3 -11  -4    0.21    0.15
   3 -11  -4   -0.02    0.14
   3 -11  -4    0.20    0.15
  -3  11   4    0.32    0.15
   3 -11  -3   -0.01    0.19
   3 -11  -3    0.06    0.12
   3 -11  -3    0.05    0.19
  -3  11   3    0.04    0.13
   3 -11  -2    0.63    0.19
   3 -11  -2    0.57    0.19
   3 -11  -2    0.77    0.19
  -3  11   2    0.95    0.25
  -3  11   2    0.60    0.20
   3 -11  -1    0.03    0.13
   3 -11  -1   -0.02    0.13
   3 -11  -1    0.10    0.13
  -3  11   1    0.06    0.18
  -3  11   1    0.08    0.13
  -3  11   1   -0.01    0.27
   3 -11   0    0.27    0.17
   3 -11   0    0.36    0.17
   3 -11   0    0.32    0.17
  -3  11   0    0.38    0.24
  -3  11   0    0.01    0.38
  -3  11   0    0.25    0.18
   3 -11   1    0.12    0.23
   3 -11   1    0.13    0.24
   3 -11   1   -0.00    0.15
  -3  11  -1    0.03    0.32
  -3  11  -1    0.18    0.16
   3 -11   2    0.11    0.21
   3 -11   2    0.13    0.20
   3 -11   2    0.01    0.12
  -3  11  -2   -0.06    0.17
  -3  11  -2   -0.02    0.27
  -3  11  -2   -0.00    0.14
   3 -11   3    0.00    0.26
   3 -11   3    0.32    0.27
   3 -11   3   -0.00    0.26
  -3  11  -3    0.23    0.22
  -3  11  -3    0.00    0.29
  -3  11  -3    0.04    0.22
   3 -11   4   -0.00    0.27
   3 -11   4    0.41    0.27
   3 -11   4    0.00    0.17
  -3  11  -4   -0.02    0.21
  -3  11  -4    0.20    0.22
  -3  11  -4   -0.00    0.18
   3 -10 -12   -0.01    0.20
   3 -10 -12    0.55    0.21
   3 -10 -12    0.29    0.23
   3 -10 -12    0.23    0.24
   3 -10 -12   -0.00    0.26
  -3  10  12   -0.00    0.24
  -3  10  12    0.11    0.34
  -3  10  12    0.45    0.40
   3 -10 -11   -0.05    0.52
   3 -10 -11    2.14    0.27
   3 -10 -11    1.80    0.29
   3 -10 -11    0.07    0.30
   3 -10 -11    2.06    0.31
  -3  10  11    1.74    0.20
  -3  10  11    2.09    0.29
  -3  10  11    2.06    0.35
   3 -10 -10    0.28    0.16
   3 -10 -10    0.01    0.16
   3 -10 -10    0.01    0.21
   3 -10 -10    0.00    0.28
   3 -10 -10    0.24    0.16
  -3  10  10    0.00    0.16
  -3  10  10    0.05    0.27
  -3  10  10    0.24    0.21
   3 -10  -9    0.36    0.17
   3 -10  -9    0.02    0.34
   3 -10  -9    0.46    0.18
   3 -10  -9    0.12    0.15
  -3  10   9   -0.00    0.14
  -3  10   9    0.38    0.18
  -3  10   9    0.48    0.18
  -3  10   9   -0.01    0.22
   3 -10  -8    0.03    0.25
   3 -10  -8    0.78    0.20
   3 -10  -8    0.81    0.20
   3 -10  -8    0.98    0.09
  -3  10   8    0.81    0.09
  -3  10   8    0.61    0.20
  -3  10   8    0.83    0.20
  -3  10   8    0.01    0.25
   3 -10  -7    0.00    0.22
   3 -10  -7    0.50    0.16
   3 -10  -7    0.43    0.06
   3 -10  -7    0.70    0.18
  -3  10   7    0.42    0.08
  -3  10   7    0.51    0.17
  -3  10   7    0.60    0.17
  -3  10   7   -0.00    0.23
   3 -10  -6    0.19    0.19
   3 -10  -6    0.19    0.14
   3 -10  -6    0.19    0.15
  -3  10   6    0.20    0.14
  -3  10   6    0.22    0.14
  -3  10   6    0.00    0.19
   3 -10  -5    0.73    0.17
   3 -10  -5    0.87    0.23
   3 -10  -5    0.70    0.18
  -3  10   5    0.00    0.24
  -3  10   5    0.93    0.17
  -3  10   5    0.74    0.17
   3 -10  -4    0.28    0.18
   3 -10  -4    0.17    0.20
   3 -10  -4    0.09    0.21
  -3  10   4    0.14    0.19
  -3  10   4    0.13    0.20
  -3  10   4    0.16    0.21
   3 -10  -3    0.06    0.11
   3 -10  -3    0.03    0.11
   3 -10  -3    0.10    0.16
   3 -10  -3    0.02    0.11
  -3  10   3    0.18    0.16
  -3  10   3    0.06    0.12
   3 -10  -2    0.07    0.12
   3 -10  -2    0.03    0.19
   3 -10  -2    0.07    0.12
  -3  10   2    0.22    0.17
  -3  10   2    0.13    0.18
  -3  10   2    0.09    0.13
   3 -10  -1    1.47    0.31
   3 -10  -1    1.64    0.21
   3 -10  -1    1.63    0.31
  -3  10   1    1.80    0.29
  -3  10   1    1.74    0.22
  -3  10   1    1.58    0.29
   3 -10   0    0.82    0.18
   3 -10   0    0.65    0.27
   3 -10   0    0.79    0.18
  -3  10   0    0.87    0.25
  -3  10   0    0.62    0.26
  -3  10   0    0.74    0.19
   3 -10   1   -0.03    0.11
   3 -10   1   -0.00    0.11
   3 -10   1    0.08    0.17
  -3  10  -1   -0.09    0.15
  -3  10  -1   -0.00    0.15
  -3  10  -1   -0.01    0.18
   3 -10   2    0.07    0.11
   3 -10   2    0.02    0.18
   3 -10   2   -0.03    0.18
  -3  10  -2   -0.00    0.25
  -3  10  -2   -0.01    0.16
  -3  10  -2    0.00    0.12
   3 -10   3    0.07    0.20
   3 -10   3    0.06    0.20
   3 -10   3   -0.00    0.12
  -3  10  -3    0.01    0.18
  -3  10  -3    0.07    0.14
  -3  10  -3   -0.03    0.17
   3 -10   4   -0.04    0.18
   3 -10   4    0.00    0.11
   3 -10   4   -0.00    0.17
  -3  10  -4    0.01    0.14
  -3  10  -4   -0.01    0.25
  -3  10  -4   -0.00    0.12
   3 -10   5    0.00    0.30
   3 -10   5    0.95    0.30
   3 -10   5   -0.00    0.28
  -3  10  -5    0.26    0.25
  -3  10  -5   -0.00    0.26
  -3  10  -5    0.00    0.20
   3  -9 -13   -0.02    0.21
   3  -9 -13    0.30    0.23
   3  -9 -13    0.01    0.22
   3  -9 -13    0.36    0.28
   3  -9 -13    0.21    0.21
  -3   9  13    0.33    0.18
  -3   9  13   -0.01    0.22
  -3   9  13    0.23    0.25
   3  -9 -12    1.15    0.37
   3  -9 -12    1.14    0.28
   3  -9 -12    0.96    0.25
   3  -9 -12    0.87    0.30
   3  -9 -12   -0.01    0.36
  -3   9  12   -0.00    0.19
  -3   9  12   -0.00    0.26
  -3   9  12    1.19    0.29
   3  -9 -11    0.01    0.17
   3  -9 -11   -0.09    0.34
   3  -9 -11    0.28    0.27
   3  -9 -11    0.30    0.19
   3  -9 -11    0.18    0.21
  -3   9  11    0.00    0.20
  -3   9  11    0.04    0.18
  -3   9  11    0.66    0.22
   3  -9 -10    0.03    0.13
   3  -9 -10    0.03    0.14
   3  -9 -10    0.06    0.15
   3  -9 -10    0.34    0.17
   3  -9 -10    0.04    0.15
  -3   9  10    0.10    0.23
  -3   9  10   -0.03    0.17
  -3   9  10   -0.01    0.09
   3  -9  -9    0.10    0.14
   3  -9  -9    0.29    0.19
   3  -9  -9    0.19    0.14
   3  -9  -9    0.32    0.16
   3  -9  -9    0.14    0.15
  -3   9   9    0.22    0.16
  -3   9   9    0.01    0.14
  -3   9   9    0.01    0.19
   3  -9  -8   -0.05    0.11
   3  -9  -8    0.12    0.24
   3  -9  -8    0.11    0.12
   3  -9  -8    0.03    0.06
  -3   9   8    0.06    0.09
  -3   9   8    0.03    0.12
  -3   9   8   -0.02    0.12
  -3   9   8   -0.01    0.15
   3  -9  -7   11.88    0.43
   3  -9  -7   12.31    0.54
   3  -9  -7   11.85    0.45
   3  -9  -7   11.70    0.32
  -3   9   7   11.48    0.31
  -3   9   7   11.99    0.44
  -3   9   7   11.79    0.44
  -3   9   7   12.04    0.55
   3  -9  -6    1.87    0.27
   3  -9  -6    1.27    0.28
   3  -9  -6    1.51    0.09
   3  -9  -6    1.85    0.20
  -3   9   6    1.82    0.20
  -3   9   6    1.56    0.09
  -3   9   6    1.54    0.30
  -3   9   6    1.76    0.26
   3  -9  -5    0.77    0.15
   3  -9  -5    0.72    0.22
   3  -9  -5    0.75    0.16
  -3   9   5    0.72    0.22
  -3   9   5    0.61    0.16
  -3   9   5    0.83    0.23
   3  -9  -4    0.95    0.16
   3  -9  -4    1.03    0.22
   3  -9  -4    0.88    0.16
  -3   9   4    1.11    0.24
  -3   9   4    1.08    0.16
  -3   9   4    1.05    0.16
   3  -9  -3    1.77    0.26
   3  -9  -3    1.78    0.27
   3  -9  -3    1.80    0.18
  -3   9   3    1.74    0.27
  -3   9   3    1.56    0.18
  -3   9   3    1.86    0.28
   3  -9  -2    6.89    0.30
   3  -9  -2    6.98    0.31
   3  -9  -2    7.77    0.40
   3  -9  -2    7.21    0.31
  -3   9   2    6.93    0.32
   3  -9  -1    2.20    0.20
   3  -9  -1    2.27    0.29
   3  -9  -1    2.00    0.20
  -3   9   1    2.46    0.47
  -3   9   1    2.19    0.21
   3  -9   0    2.58    0.21
   3  -9   0    2.35    0.31
   3  -9   0    2.53    0.31
  -3   9   0    2.53    0.30
  -3   9   0    0.10    0.47
  -3   9   0    2.52    0.33
   3  -9   1    0.41    0.14
   3  -9   1    0.04    0.14
   3  -9   1    0.39    0.14
  -3   9  -1    0.39    0.20
  -3   9  -1   -0.00    0.20
  -3   9  -1    0.45    0.15
   3  -9   2   -0.02    0.10
   3  -9   2    0.00    0.10
   3  -9   2    0.07    0.10
  -3   9  -2    0.00    0.14
  -3   9  -2    0.07    0.14
  -3   9  -2   -0.03    0.10
   3  -9   3   -0.02    0.15
   3  -9   3    0.00    0.04
   3  -9   3    0.04    0.15
   3  -9   3   -0.00    0.04
   3  -9   3    0.04    0.10
  -3   9  -3    0.00    0.23
  -3   9  -3   -0.02    0.16
  -3   9  -3    0.13    0.14
   3  -9   4   -0.02    0.19
   3  -9   4    0.02    0.06
   3  -9   4    0.02    0.04
   3  -9   4   -0.02    0.19
   3  -9   4    0.20    0.20
  -3   9  -4    0.24    0.17
  -3   9  -4   -0.00    0.18
  -3   9  -4    0.16    0.20
   3  -9   5   -0.05    0.18
   3  -9   5   -0.02    0.18
   3  -9   5    0.00    0.11
  -3   9  -5   -0.03    0.24
  -3   9  -5    0.00    0.24
  -3   9  -5    0.01    0.13
   3  -9   6   -0.00    0.16
   3  -9   6    0.00    0.16
  -3   9  -6    0.00    0.14
  -3   9  -6   -0.01    0.21
  -3   9  -6    0.00    0.17
   3  -8 -13    0.38    0.23
   3  -8 -13    0.25    0.20
   3  -8 -13    0.05    0.20
   3  -8 -13    0.43    0.22
   3  -8 -13    0.28    0.19
  -3   8  13    0.03    0.19
  -3   8  13    0.21    0.39
  -3   8  13    0.00    0.21
   3  -8 -12   -0.02    0.15
   3  -8 -12   -0.26    0.29
   3  -8 -12   -0.15    0.15
   3  -8 -12    0.17    0.15
   3  -8 -12    0.04    0.21
  -3   8  12    0.11    0.13
  -3   8  12    0.05    0.16
  -3   8  12    0.20    0.28
   3  -8 -11   -0.01    0.28
   3  -8 -11    0.56    0.23
   3  -8 -11    0.66    0.29
   3  -8 -11    0.56    0.31
   3  -8 -11    0.26    0.24
  -3   8  11    0.02    0.15
  -3   8  11    0.51    0.30
  -3   8  11    0.26    0.23
   3  -8 -10    0.56    0.27
   3  -8 -10    0.87    0.23
   3  -8 -10    0.61    0.27
   3  -8 -10    0.53    0.19
   3  -8 -10    0.18    0.22
  -3   8  10   -0.02    0.14
  -3   8  10    0.55    0.19
  -3   8  10    0.72    0.23
   3  -8  -9    0.18    0.17
   3  -8  -9    0.01    0.12
   3  -8  -9    0.02    0.20
   3  -8  -9    0.10    0.13
   3  -8  -9    0.08    0.14
  -3   8   9   -0.00    0.14
  -3   8   9    0.04    0.13
  -3   8   9    0.22    0.17
   3  -8  -8    0.70    0.36
   3  -8  -8    0.72    0.26
   3  -8  -8    0.88    0.27
   3  -8  -8    0.87    0.11
  -3   8   8    0.65    0.27
  -3   8   8    0.60    0.23
   3  -8  -7    1.11    0.27
   3  -8  -7    1.12    0.28
   3  -8  -7    1.12    0.15
   3  -8  -7    0.98    0.24
  -3   8   7    1.18    0.09
  -3   8   7    1.18    0.28
  -3   8   7    1.15    0.27
  -3   8   7    0.90    0.37
   3  -8  -6    1.90    0.26
   3  -8  -6    1.62    0.18
   3  -8  -6    1.78    0.12
   3  -8  -6    1.78    0.18
  -3   8   6    1.75    0.11
  -3   8   6    1.66    0.18
  -3   8   6    1.86    0.27
  -3   8   6    1.60    0.39
   3  -8  -5    1.18    0.21
   3  -8  -5    1.20    0.15
   3  -8  -5    1.03    0.06
   3  -8  -5    1.17    0.16
  -3   8   5    1.02    0.22
  -3   8   5    1.00    0.05
  -3   8   5    1.23    0.15
  -3   8   5    1.17    0.15
   3  -8  -4    0.83    0.20
   3  -8  -4    0.77    0.20
   3  -8  -4    0.76    0.14
  -3   8   4    0.90    0.21
  -3   8   4    0.81    0.13
  -3   8   4    0.68    0.21
   3  -8  -3    3.85    0.21
   3  -8  -3    3.94    0.44
   3  -8  -3    4.13    0.31
  -3   8   3    4.12    0.31
  -3   8   3    4.00    0.30
  -3   8   3    3.78    0.21
   3  -8  -2    3.28    0.20
   3  -8  -2    3.46    0.30
   3  -8  -2    4.91    0.46
   3  -8  -2    3.26    0.20
  -3   8   2    3.35    0.31
   3  -8  -1   33.46    0.78
   3  -8  -1   33.74    0.78
   3  -8  -1   33.22    0.78
  -3   8   1   35.87    1.01
  -3   8   1   33.15    0.79
   3  -8   0    3.97    0.33
   3  -8   0    4.26    0.23
   3  -8   0    4.09    0.33
  -3   8   0    4.46    0.35
  -3   8   0    3.93    0.34
   3  -8   1    3.91    0.23
   3  -8   1    4.13    0.23
   3  -8   1    3.87    0.23
  -3   8  -1    3.96    0.49
  -3   8  -1    4.40    0.35
  -3   8  -1    4.11    0.24
   3  -8   2    0.63    0.21
   3  -8   2    0.54    0.21
   3  -8   2    0.00    0.13
  -3   8  -2    0.49    0.33
  -3   8  -2    0.56    0.21
  -3   8  -2    0.63    0.15
   3  -8   3    0.91    0.25
   3  -8   3    0.79    0.25
   3  -8   3    0.79    0.08
   3  -8   3    0.01    0.24
  -3   8  -3    0.00    0.24
  -3   8  -3    0.96    0.17
   3  -8   4    0.50    0.25
   3  -8   4    0.54    0.16
   3  -8   4    0.54    0.06
   3  -8   4   -0.01    0.16
  -3   8  -4    0.57    0.36
  -3   8  -4   -0.00    0.35
  -3   8  -4    0.36    0.11
  -3   8  -4    0.63    0.17
   3  -8   5    0.14    0.23
   3  -8   5    0.11    0.11
   3  -8   5    0.33    0.24
   3  -8   5    0.05    0.15
  -3   8  -5    0.66    0.32
  -3   8  -5   -0.00    0.20
  -3   8  -5    0.19    0.13
  -3   8  -5    0.23    0.16
   3  -8   6    0.09    0.22
   3  -8   6   -0.08    0.21
   3  -8   6    0.03    0.08
   3  -8   6    0.00    0.21
  -3   8  -6   -0.00    0.30
  -3   8  -6    0.49    0.29
  -3   8  -6    0.06    0.09
  -3   8  -6   -0.01    0.24
   3  -8   7   -0.00    0.23
   3  -8   7    0.01    0.10
   3  -8   7   -0.00    0.15
  -3   8  -7    0.01    0.21
  -3   8  -7    0.12    0.17
  -3   8  -7   -0.01    0.16
  -3   8  -7    0.33    0.20
   3  -8   8    0.02    0.16
   3  -8   8    0.07    0.12
   3  -8   8    0.00    0.16
   3  -8   8   -0.01    0.17
  -3   8  -8   -0.00    0.22
  -3   8  -8    0.24    0.22
  -3   8  -8    0.05    0.19
  -3   8  -8   -0.00    0.18
   3  -7 -13   -0.00    0.24
   3  -7 -13    0.95    0.29
   3  -7 -13    0.78    0.25
   3  -7 -13    1.12    0.26
   3  -7 -13    0.89    0.24
  -3   7  13   -0.02    0.23
  -3   7  13    1.00    0.31
  -3   7  13    1.25    0.27
   3  -7 -12   -0.01    0.15
   3  -7 -12    0.12    0.31
   3  -7 -12    0.32    0.16
   3  -7 -12    0.03    0.16
   3  -7 -12    0.08    0.15
  -3   7  12    0.03    0.22
  -3   7  12   -0.09    0.17
  -3   7  12    0.23    0.20
   3  -7 -11   -0.01    0.14
   3  -7 -11    0.22    0.17
   3  -7 -11    0.02    0.14
   3  -7 -11   -0.08    0.23
   3  -7 -11    0.04    0.13
  -3   7  11   -0.10    0.23
  -3   7  11    0.05    0.19
  -3   7  11    0.27    0.18
   3  -7 -10    0.47    0.27
   3  -7 -10    0.59    0.35
   3  -7 -10    0.64    0.29
   3  -7 -10    0.60    0.19
   3  -7 -10    0.57    0.16
  -3   7  10    0.54    0.18
  -3   7  10    0.37    0.23
  -3   7  10    0.87    0.23
   3  -7  -9    0.39    0.23
   3  -7  -9    0.39    0.20
   3  -7  -9    0.47    0.24
   3  -7  -9    0.21    0.25
   3  -7  -9    0.31    0.13
  -3   7   9    0.36    0.12
  -3   7   9    0.38    0.25
  -3   7   9    0.55    0.20
   3  -7  -8    3.15    0.33
   3  -7  -8    3.07    0.33
   3  -7  -8    3.06    0.23
   3  -7  -8    3.13    0.18
   3  -7  -8    3.15    0.29
  -3   7   8    3.07    0.35
  -3   7   8    3.08    0.16
  -3   7   8    3.14    0.30
   3  -7  -7    5.45    0.49
   3  -7  -7    5.19    0.36
   3  -7  -7    5.31    0.27
   3  -7  -7    5.45    0.26
  -3   7   7    5.34    0.24
  -3   7   7    5.23    0.26
  -3   7   7    5.04    0.33
   3  -7  -6    1.51    0.22
   3  -7  -6    1.33    0.15
   3  -7  -6    1.66    0.24
   3  -7  -6    1.55    0.13
  -3   7   6    1.37    0.12
  -3   7   6    0.71    0.24
  -3   7   6    1.37    0.24
  -3   7   6    1.41    0.23
   3  -7  -5    0.07    0.08
   3  -7  -5    0.02    0.20
   3  -7  -5    0.02    0.05
   3  -7  -5    0.04    0.08
  -3   7   5    0.01    0.08
  -3   7   5    0.07    0.04
  -3   7   5    0.08    0.08
  -3   7   5    0.08    0.20
   3  -7  -4    0.29    0.15
   3  -7  -4    0.30    0.25
   3  -7  -4    0.41    0.15
  -3   7   4    0.35    0.16
  -3   7   4    0.33    0.15
  -3   7   4    0.32    0.16
   3  -7  -3    0.83    0.17
   3  -7  -3    0.73    0.18
   3  -7  -3    0.60    0.18
  -3   7   3    0.81    0.19
  -3   7   3    0.81    0.18
  -3   7   3    0.83    0.11
   3  -7  -2   42.16    1.03
   3  -7  -2   39.52    0.82
   3  -7  -2   40.61    0.95
  -3   7   2   41.50    1.01
  -3   7   2   39.25    0.83
   3  -7  -1   58.44    1.30
   3  -7  -1   59.01    1.20
   3  -7  -1   59.33    1.39
   3  -7  -1   59.02    1.31
  -3   7   1   61.92    1.66
  -3   7   1   57.64    1.20
   3  -7   0    9.84    0.39
   3  -7   0   10.03    0.39
   3  -7   0   10.14    0.31
  -3   7   0   10.46    0.43
  -3   7   0    9.95    0.32
  -3   7   0    9.86    0.43
   3  -7   1    0.78    0.12
   3  -7   1    0.02    0.18
   3  -7   1    0.85    0.12
  -3   7  -1    0.90    0.20
  -3   7  -1    0.79    0.21
  -3   7  -1    0.68    0.19
   3  -7   2    0.43    0.18
   3  -7   2    0.01    0.11
   3  -7   2    0.35    0.18
   3  -7   2    0.34    0.03
   3  -7   2    0.29    0.03
  -3   7  -2    0.32    0.18
  -3   7  -2    0.41    0.29
  -3   7  -2    0.42    0.12
   3  -7   3    2.45    0.19
   3  -7   3    2.35    0.11
   3  -7   3    2.30    0.19
   3  -7   3    2.35    0.19
  -3   7  -3    2.41    0.43
  -3   7  -3    2.24    0.43
  -3   7  -3    2.15    0.12
  -3   7  -3    2.39    0.20
   3  -7   4    2.21    0.21
   3  -7   4    2.37    0.21
   3  -7   4    2.48    0.21
   3  -7   4    2.38    0.15
  -3   7  -4    2.25    0.30
  -3   7  -4    2.37    0.16
  -3   7  -4    2.10    0.45
  -3   7  -4    2.41    0.23
   3  -7   5    1.94    0.21
   3  -7   5    1.76    0.21
   3  -7   5    0.12    0.32
   3  -7   5    2.01    0.18
  -3   7  -5    2.09    0.45
  -3   7  -5    1.68    0.20
  -3   7  -5    2.07    0.30
  -3   7  -5    1.55    0.34
   3  -7   6    0.35    0.11
   3  -7   6    0.57    0.17
   3  -7   6    0.59    0.16
   3  -7   6   -0.01    0.17
  -3   7  -6    0.32    0.36
  -3   7  -6   -0.00    0.23
  -3   7  -6    0.38    0.11
  -3   7  -6    0.40    0.18
   3  -7   7    0.57    0.18
   3  -7   7    0.44    0.14
   3  -7   7    0.51    0.19
  -3   7  -7    0.66    0.38
  -3   7  -7    0.01    0.31
  -3   7  -7    0.01    0.19
  -3   7  -7    0.39    0.14
  -3   7  -7    0.00    0.39
   3  -7   8    0.01    0.26
   3  -7   8    0.16    0.13
   3  -7   8   -0.01    0.27
  -3   7  -8    0.00    0.18
  -3   7  -8    0.00    0.23
  -3   7  -8    0.46    0.23
  -3   7  -8    0.23    0.14
  -3   7  -8    0.00    0.19
   3  -7   9    0.03    0.18
   3  -7   9    0.21    0.15
   3  -7   9    0.01    0.18
  -3   7  -9   -0.00    0.19
  -3   7  -9   -0.00    0.23
  -3   7  -9    0.21    0.15
  -3   7  -9    0.00    0.24
  -3   7  -9    0.00    0.19
   3  -6 -14   -0.00    0.35
   3  -6 -14    0.31    0.22
   3  -6 -14    0.13    0.21
   3  -6 -14    0.11    0.23
   3  -6 -14    0.06    0.33
  -3   6  14    0.01    0.38
  -3   6  14    0.31    0.21
  -3   6  14   -0.03    0.22
   3  -6 -13   -0.07    0.25
   3  -6 -13   -0.31    0.30
   3  -6 -13   -0.26    0.26
   3  -6 -13   -0.19    0.16
   3  -6 -13    0.09    0.17
  -3   6  13    0.12    0.17
  -3   6  13   -0.03    0.16
  -3   6  13    0.01    0.19
   3  -6 -12    0.01    0.22
   3  -6 -12    0.94    0.26
   3  -6 -12    0.82    0.22
   3  -6 -12    0.60    0.22
   3  -6 -12    0.68    0.22
  -3   6  12    0.61    0.34
  -3   6  12    0.73    0.27
  -3   6  12    0.78    0.23
   3  -6 -11    0.09    0.16
   3  -6 -11    0.05    0.13
   3  -6 -11    0.06    0.13
   3  -6 -11    0.01    0.12
   3  -6 -11    0.06    0.13
  -3   6  11    0.03    0.19
  -3   6  11   -0.03    0.16
  -3   6  11   -0.01    0.13
   3  -6 -10    0.31    0.23
   3  -6 -10    0.29    0.30
   3  -6 -10    0.37    0.24
   3  -6 -10    0.32    0.25
   3  -6 -10    0.25    0.14
  -3   6  10    0.14    0.14
  -3   6  10    0.23    0.16
  -3   6  10    0.27    0.20
   3  -6  -9    0.04    0.11
   3  -6  -9    0.04    0.14
   3  -6  -9   -0.03    0.09
   3  -6  -9    0.04    0.14
   3  -6  -9   -0.04    0.08
  -3   6   9    0.01    0.08
  -3   6   9    0.03    0.09
  -3   6   9   -0.11    0.12
   3  -6  -8    1.96    0.18
   3  -6  -8    1.64    0.24
   3  -6  -8    1.90    0.19
   3  -6  -8    1.76    0.19
   3  -6  -8    1.98    0.24
  -3   6   8    1.94    0.16
  -3   6   8    1.96    0.19
  -3   6   8    1.93    0.25
   3  -6  -7    1.73    0.25
   3  -6  -7    1.66    0.16
   3  -6  -7    1.10    0.35
   3  -6  -7    1.86    0.17
   3  -6  -7    1.96    0.13
  -3   6   7    1.80    0.17
  -3   6   7    1.84    0.19
  -3   6   7    1.90    0.23
   3  -6  -6    0.61    0.26
   3  -6  -6    0.58    0.17
   3  -6  -6    0.67    0.12
   3  -6  -6    0.58    0.12
  -3   6   6    0.42    0.08
  -3   6   6    0.56    0.11
  -3   6   6    0.35    0.26
   3  -6  -5    0.12    0.18
   3  -6  -5   -0.01    0.07
   3  -6  -5    0.05    0.04
   3  -6  -5    0.17    0.12
  -3   6   5    0.04    0.06
  -3   6   5    0.00    0.11
  -3   6   5    0.04    0.07
  -3   6   5    0.17    0.11
   3  -6  -4    1.65    0.19
   3  -6  -4    1.81    0.18
   3  -6  -4    1.66    0.07
   3  -6  -4    1.74    0.12
  -3   6   4    1.84    0.20
  -3   6   4    1.62    0.05
  -3   6   4    1.86    0.18
  -3   6   4    1.85    0.18
   3  -6  -3    3.60    0.22
   3  -6  -3    3.70    0.25
   3  -6  -3    3.69    0.21
  -3   6   3    3.45    0.25
  -3   6   3    3.87    0.21
  -3   6   3    3.37    0.15
   3  -6  -2    1.99    0.30
   3  -6  -2    1.86    0.12
   3  -6  -2    1.93    0.17
  -3   6   2    1.94    0.21
  -3   6   2    1.86    0.12
  -3   6   2    1.86    0.18
   3  -6  -1    3.03    0.14
   3  -6  -1    3.06    0.20
   3  -6  -1    3.19    0.23
   3  -6  -1    3.11    0.14
  -3   6   1    2.98    0.35
  -3   6   1    3.14    0.21
   3  -6   0    0.28    0.12
   3  -6   0    0.33    0.08
   3  -6   0    0.24    0.12
  -3   6   0    0.21    0.16
  -3   6   0    0.21    0.15
  -3   6   0    0.30    0.13
   3  -6   1    0.62    0.10
   3  -6   1    0.69    0.10
   3  -6   1    0.01    0.15
  -3   6  -1    0.66    0.17
  -3   6  -1    0.71    0.17
  -3   6  -1    0.71    0.16
   3  -6   2    0.18    0.08
   3  -6   2    0.13    0.08
   3  -6   2    0.13    0.02
   3  -6   2   -0.02    0.13
  -3   6  -2    0.26    0.14
  -3   6  -2    0.20    0.15
  -3   6  -2    0.17    0.03
  -3   6  -2    0.24    0.09
   3  -6   3    0.08    0.08
   3  -6   3    0.06    0.04
   3  -6   3    0.02    0.08
   3  -6   3    0.13    0.08
  -3   6  -3    0.10    0.13
  -3   6  -3   -0.00    0.06
  -3   6  -3    0.07    0.13
  -3   6  -3    0.05    0.14
   3  -6   4    3.27    0.29
   3  -6   4    3.20    0.29
   3  -6   4    2.96    0.18
   3  -6   4    3.12    0.20
  -3   6  -4    3.29    0.44
  -3   6  -4    2.85    0.13
  -3   6  -4    3.59    0.43
  -3   6  -4    3.01    0.31
   3  -6   5    2.84    0.31
   3  -6   5    2.68    0.31
   3  -6   5    2.67    0.14
  -3   6  -5    2.62    0.30
  -3   6  -5    2.79    0.45
  -3   6  -5    2.30    0.21
  -3   6  -5    2.54    0.22
  -3   6  -5    2.35    0.32
   3  -6   6    2.20    0.32
   3  -6   6    2.14    0.23
   3  -6   6    2.18    0.33
  -3   6  -6    1.86    0.23
  -3   6  -6    2.09    0.45
  -3   6  -6    2.03    0.30
  -3   6  -6    2.13    0.25
  -3   6  -6    2.24    0.23
   3  -6   7    0.27    0.15
   3  -6   7    0.18    0.12
   3  -6   7    0.10    0.15
  -3   6  -7    0.24    0.25
  -3   6  -7   -0.00    0.21
  -3   6  -7    0.35    0.32
  -3   6  -7    0.20    0.19
  -3   6  -7    0.23    0.25
   3  -6   8    0.00    0.14
   3  -6   8   -0.06    0.20
   3  -6   8    0.09    0.11
   3  -6   8    0.02    0.14
  -3   6  -8    0.28    0.19
  -3   6  -8    0.00    0.15
  -3   6  -8    0.05    0.18
  -3   6  -8    0.01    0.15
   3  -6   9    0.02    0.31
   3  -6   9    0.03    0.27
   3  -6   9    0.67    0.17
   3  -6   9   -0.01    0.31
  -3   6  -9    0.00    0.21
  -3   6  -9   -0.00    0.26
  -3   6  -9    0.76    0.27
  -3   6  -9   -0.00    0.21
   3  -5 -14    0.00    0.19
   3  -5 -14   -0.02    0.18
   3  -5 -14    0.04    0.19
   3  -5 -14    0.07    0.19
   3  -5 -14    0.03    0.19
  -3   5  14   -0.00    0.21
  -3   5  14    0.16    0.18
  -3   5  14   -0.02    0.18
   3  -5 -13   -0.02    0.19
   3  -5 -13    0.44    0.27
   3  -5 -13    0.20    0.27
   3  -5 -13    0.06    0.17
   3  -5 -13   -0.02    0.28
  -3   5  13   -0.01    0.18
  -3   5  13    0.00    0.32
  -3   5  13    0.06    0.18
   3  -5 -12   -0.00    0.27
   3  -5 -12    1.12    0.23
   3  -5 -12    1.01    0.23
   3  -5 -12    1.15    0.23
   3  -5 -12    0.98    0.37
  -3   5  12    0.72    0.36
  -3   5  12    0.01    0.28
  -3   5  12    1.05    0.24
   3  -5 -11   -0.02    0.16
   3  -5 -11   -0.08    0.12
   3  -5 -11    0.18    0.13
   3  -5 -11    0.00    0.13
   3  -5 -11    0.01    0.21
  -3   5  11    0.04    0.20
  -3   5  11    0.01    0.16
  -3   5  11    0.11    0.13
   3  -5 -10    0.13    0.22
   3  -5 -10    0.20    0.18
   3  -5 -10    0.17    0.22
   3  -5 -10    0.21    0.23
   3  -5 -10    0.14    0.22
  -3   5  10    0.16    0.14
  -3   5  10    0.21    0.23
  -3   5  10    0.23    0.18
   3  -5  -9    1.83    0.19
   3  -5  -9    2.05    0.25
   3  -5  -9    1.62    0.21
   3  -5  -9    1.84    0.20
   3  -5  -9    1.97    0.30
  -3   5   9    1.88    0.19
  -3   5   9    1.74    0.21
  -3   5   9    1.88    0.26
   3  -5  -8    1.33    0.17
   3  -5  -8    1.27    0.22
   3  -5  -8    1.31    0.16
   3  -5  -8    1.36    0.25
   3  -5  -8    1.44    0.16
  -3   5   8    1.17    0.23
  -3   5   8    1.38    0.26
  -3   5   8    1.19    0.23
   3  -5  -7    0.48    0.11
   3  -5  -7    0.29    0.25
   3  -5  -7    0.38    0.12
   3  -5  -7    0.43    0.12
   3  -5  -7    0.45    0.11
  -3   5   7    0.40    0.16
  -3   5   7    0.41    0.12
  -3   5   7    0.28    0.25
   3  -5  -6    0.23    0.09
   3  -5  -6    0.14    0.09
   3  -5  -6    0.28    0.21
   3  -5  -6    0.24    0.09
   3  -5  -6    0.15    0.08
  -3   5   6    0.20    0.11
  -3   5   6    0.19    0.09
  -3   5   6    0.14    0.13
   3  -5  -5    0.08    0.06
   3  -5  -5    0.04    0.17
   3  -5  -5    0.03    0.10
   3  -5  -5    0.04    0.05
   3  -5  -5    0.04    0.10
  -3   5   5    0.05    0.07
  -3   5   5   -0.00    0.11
  -3   5   5    0.08    0.07
   3  -5  -4    0.90    0.15
   3  -5  -4    0.87    0.09
   3  -5  -4    0.77    0.09
   3  -5  -4    0.90    0.14
  -3   5   4    0.84    0.24
  -3   5   4    0.88    0.05
  -3   5   4    0.90    0.14
  -3   5   4    0.78    0.09
   3  -5  -3    0.01    0.08
   3  -5  -3    0.03    0.04
   3  -5  -3    0.04    0.04
  -3   5   3   -0.02    0.09
  -3   5   3    0.01    0.02
  -3   5   3   -0.00    0.02
  -3   5   3    0.02    0.04
  -3   5   3    0.03    0.07
   3  -5  -2    4.61    0.14
   3  -5  -2    4.60    0.24
   3  -5  -2    4.57    0.15
  -3   5   2    4.79    0.25
  -3   5   2    4.45    0.14
  -3   5   2    4.63    0.14
   3  -5  -1    0.96    0.08
   3  -5  -1    0.89    0.08
   3  -5  -1    1.07    0.16
   3  -5  -1    1.09    0.12
  -3   5   1    1.07    0.16
  -3   5   1    0.99    0.12
   3  -5   0    4.34    0.19
   3  -5   0    4.37    0.19
   3  -5   0    4.36    0.19
  -3   5   0    4.59    0.25
  -3   5   0    4.62    0.26
  -3   5   0    4.28    0.19
   3  -5   1    0.76    0.12
   3  -5   1    0.71    0.12
   3  -5   1    0.73    0.08
  -3   5  -1    0.61    0.16
  -3   5  -1    0.69    0.08
  -3   5  -1    0.76    0.24
   3  -5   2    0.06    0.09
   3  -5   2    0.05    0.04
   3  -5   2    0.04    0.06
   3  -5   2    0.07    0.09
  -3   5  -2    0.03    0.11
  -3   5  -2    0.11    0.12
  -3   5  -2    0.11    0.06
  -3   5  -2    0.03    0.04
   3  -5   3    0.12    0.08
   3  -5   3    0.15    0.08
   3  -5   3    0.10    0.07
   3  -5   3    0.01    0.12
  -3   5  -3    0.15    0.13
  -3   5  -3    0.15    0.13
  -3   5  -3    0.05    0.13
  -3   5  -3    0.09    0.07
   3  -5   4    6.01    0.24
   3  -5   4    6.19    0.18
   3  -5   4    6.19    0.24
  -3   5  -4    5.97    0.24
  -3   5  -4    6.37    0.34
  -3   5  -4    6.20    0.48
  -3   5  -4    5.92    0.33
  -3   5  -4    6.13    0.24
   3  -5   5    0.61    0.10
   3  -5   5    0.75    0.13
   3  -5   5    0.75    0.14
  -3   5  -5    0.63    0.22
  -3   5  -5    0.73    0.32
  -3   5  -5    0.78    0.20
  -3   5  -5    0.61    0.16
  -3   5  -5    0.72    0.23
   3  -5   6   -0.03    0.18
   3  -5   6    0.05    0.11
   3  -5   6    0.12    0.11
   3  -5   6    0.12    0.14
  -3   5  -6    0.12    0.25
  -3   5  -6    0.09    0.12
  -3   5  -6    0.08    0.16
  -3   5  -6    0.21    0.15
  -3   5  -6    0.13    0.12
   3  -5   7   -0.04    0.18
   3  -5   7    0.16    0.16
   3  -5   7    0.10    0.12
   3  -5   7    0.01    0.12
  -3   5  -7    0.11    0.20
  -3   5  -7    0.03    0.26
  -3   5  -7    0.07    0.11
  -3   5  -7    0.09    0.20
   3  -5   8   -0.04    0.16
   3  -5   8    0.05    0.15
   3  -5   8   -0.03    0.15
   3  -5   8   -0.06    0.17
  -3   5  -8    0.05    0.11
  -3   5  -8    0.04    0.23
  -3   5  -8   -0.02    0.10
  -3   5  -8    0.05    0.12
   3  -5   9    1.96    0.24
   3  -5   9   -0.00    0.33
   3  -5   9    1.25    0.33
   3  -5   9    1.46    0.25
  -3   5  -9    2.03    0.26
  -3   5  -9   -0.00    0.31
  -3   5  -9    1.68    0.23
  -3   5  -9    0.01    0.27
   3  -5  10   -0.05    0.26
   3  -5  10    0.02    0.13
   3  -5  10    0.09    0.19
   3  -5  10   -0.00    0.13
  -3   5 -10    0.02    0.14
  -3   5 -10   -0.09    0.20
  -3   5 -10   -0.01    0.14
  -3   5 -10    0.00    0.16
   3  -4 -14    0.01    0.32
   3  -4 -14    1.76    0.35
   3  -4 -14    1.60    0.34
   3  -4 -14    1.92    0.32
   3  -4 -14    1.59    0.37
  -3   4  14    0.01    0.37
  -3   4  14    2.15    0.51
  -3   4  14    1.88    0.32
   3  -4 -13    0.90    0.25
   3  -4 -13   -0.01    0.29
   3  -4 -13    1.19    0.26
   3  -4 -13    1.10    0.26
   3  -4 -13    0.95    0.28
  -3   4  13    0.88    0.26
  -3   4  13    0.00    0.29
  -3   4  13    1.11    0.26
   3  -4 -12    0.01    0.26
   3  -4 -12    1.13    0.23
   3  -4 -12    1.02    0.24
   3  -4 -12    0.92    0.24
   3  -4 -12    1.38    0.26
  -3   4  12    1.18    0.24
  -3   4  12    0.00    0.42
  -3   4  12    1.15    0.24
   3  -4 -11    0.01    0.24
   3  -4 -11   -0.05    0.13
   3  -4 -11    0.10    0.14
   3  -4 -11    0.04    0.13
   3  -4 -11    0.06    0.14
  -3   4  11    0.08    0.14
  -3   4  11    0.03    0.21
  -3   4  11   -0.01    0.24
   3  -4 -10    1.31    0.24
   3  -4 -10    1.33    0.32
   3  -4 -10    1.29    0.30
   3  -4 -10    1.15    0.21
   3  -4 -10    1.43    0.22
  -3   4  10    1.28    0.21
  -3   4  10    1.34    0.25
  -3   4  10    1.34    0.21
   3  -4  -9    1.25    0.23
   3  -4  -9    1.33    0.18
   3  -4  -9    1.34    0.18
   3  -4  -9    1.12    0.29
   3  -4  -9    1.46    0.19
  -3   4   9    1.22    0.29
  -3   4   9    1.11    0.24
  -3   4   9    1.14    0.29
   3  -4  -8    0.10    0.10
   3  -4  -8    0.25    0.13
   3  -4  -8    0.07    0.10
   3  -4  -8    0.09    0.11
   3  -4  -8    0.09    0.11
  -3   4   8    0.10    0.11
  -3   4   8    0.06    0.10
  -3   4   8    0.01    0.14
   3  -4  -7    0.42    0.18
   3  -4  -7    0.45    0.17
   3  -4  -7    0.45    0.24
   3  -4  -7    0.49    0.18
   3  -4  -7    0.55    0.18
  -3   4   7    0.58    0.12
  -3   4   7    0.48    0.18
  -3   4   7    0.17    0.24
   3  -4  -6    5.31    0.26
   3  -4  -6    5.00    0.27
   3  -4  -6    4.97    0.20
   3  -4  -6    5.15    0.27
   3  -4  -6    5.02    0.20
  -3   4   6    5.15    0.26
  -3   4   6    5.24    0.27
  -3   4   6    4.93    0.26
   3  -4  -5    4.00    0.21
   3  -4  -5    3.65    0.32
   3  -4  -5    3.74    0.21
   3  -4  -5    3.66    0.21
   3  -4  -5    3.83    0.15
  -3   4   5    3.73    0.14
  -3   4   5    3.66    0.21
  -3   4   5    3.73    0.22
   3  -4  -4    2.39    0.15
   3  -4  -4    2.33    0.18
   3  -4  -4    2.20    0.11
   3  -4  -4    2.31    0.10
   3  -4  -4    2.43    0.16
  -3   4   4    2.41    0.13
  -3   4   4    2.44    0.16
  -3   4   4    2.30    0.18
   3  -4  -3    8.36    0.23
   3  -4  -3    8.85    0.29
   3  -4  -3    8.82    0.19
  -3   4   3    8.79    0.16
  -3   4   3    8.70    0.40
  -3   4   3    8.69    0.24
  -3   4   3    8.59    0.23
  -3   4   3    8.43    0.16
   3  -4  -2    8.73    0.30
   3  -4  -2    8.42    0.17
   3  -4  -2    8.52    0.22
  -3   4   2    8.49    0.15
  -3   4   2    8.43    0.29
  -3   4   2    8.67    0.15
  -3   4   2    8.53    0.21
  -3   4   2    8.28    0.17
   3  -4  -1    0.47    0.12
   3  -4  -1    0.52    0.05
   3  -4  -1    0.51    0.07
   3  -4  -1    0.56    0.07
  -3   4   1    0.56    0.12
  -3   4   1    0.43    0.02
  -3   4   1    0.48    0.05
  -3   4   1    0.41    0.02
   3  -4   0   20.89    0.35
   3  -4   0   20.89    0.40
   3  -4   0   20.86    0.35
  -3   4   0   20.23    0.25
  -3   4   0   21.36    0.63
  -3   4   0   20.41    0.26
  -3   4   0   20.73    0.40
   3  -4   1    3.29    0.15
   3  -4   1    3.47    0.15
   3  -4   1    3.44    0.09
   3  -4   1    3.44    0.11
  -3   4  -1    3.49    0.09
  -3   4  -1    3.42    0.21
  -3   4  -1    3.30    0.11
  -3   4  -1    3.37    0.21
   3  -4   2    0.57    0.11
   3  -4   2    0.74    0.11
   3  -4   2    0.55    0.07
   3  -4   2    0.62    0.11
  -3   4  -2    0.59    0.05
  -3   4  -2    0.78    0.15
  -3   4  -2    0.67    0.22
  -3   4  -2    0.69    0.11
   3  -4   3    0.00    0.05
   3  -4   3    0.04    0.04
   3  -4   3   -0.01    0.05
  -3   4  -3    0.05    0.06
  -3   4  -3    0.03    0.14
  -3   4  -3   -0.01    0.05
  -3   4  -3   -0.09    0.09
  -3   4  -3    0.01    0.08
   3  -4   4    0.30    0.09
   3  -4   4    0.35    0.09
   3  -4   4    0.37    0.11
  -3   4  -4    0.36    0.23
  -3   4  -4    0.34    0.09
  -3   4  -4    0.22    0.23
  -3   4  -4    0.31    0.09
  -3   4  -4    0.28    0.07
   3  -4   5    0.20    0.10
   3  -4   5   -0.00    0.16
   3  -4   5    0.22    0.13
   3  -4   5    0.28    0.10
  -3   4  -5    0.22    0.10
  -3   4  -5    0.19    0.15
  -3   4  -5    0.25    0.15
  -3   4  -5    0.21    0.10
  -3   4  -5    0.20    0.09
   3  -4   6    0.43    0.20
   3  -4   6    0.40    0.13
   3  -4   6    0.43    0.12
   3  -4   6    0.37    0.11
  -3   4  -6    0.26    0.20
  -3   4  -6    0.36    0.17
  -3   4  -6    0.34    0.20
  -3   4  -6    0.40    0.17
   3  -4   7    0.50    0.22
   3  -4   7    0.48    0.35
   3  -4   7    0.49    0.23
   3  -4   7    0.59    0.13
  -3   4  -7    0.51    0.16
  -3   4  -7    0.60    0.21
  -3   4  -7    0.61    0.14
  -3   4  -7    0.62    0.16
   3  -4   8    0.47    0.15
   3  -4   8   -0.05    0.21
   3  -4   8    0.39    0.16
   3  -4   8    0.49    0.22
  -3   4  -8    0.40    0.17
  -3   4  -8    0.28    0.21
  -3   4  -8    0.36    0.24
  -3   4  -8    0.34    0.17
   3  -4   9    0.45    0.17
   3  -4   9    0.29    0.17
   3  -4   9   -0.04    0.23
   3  -4   9    0.31    0.25
  -3   4  -9    0.35    0.18
  -3   4  -9    0.22    0.17
  -3   4  -9    0.00    0.33
  -3   4  -9    0.28    0.18
   3  -4  10    2.88    0.31
   3  -4  10    2.48    0.39
   3  -4  10    3.05    0.32
   3  -4  10    3.13    0.44
  -3   4 -10    2.85    0.32
  -3   4 -10    2.90    0.46
  -3   4 -10   -0.00    0.55
  -3   4 -10    3.09    0.33
   3  -4  11    0.01    0.16
   3  -4  11    0.19    0.16
   3  -4  11   -0.02    0.20
   3  -4  11   -0.00    0.17
  -3   4 -11    0.00    0.21
  -3   4 -11    0.00    0.18
  -3   4 -11    0.11    0.17
  -3   4 -11    0.01    0.18
   3  -3 -14   -0.01    0.49
   3  -3 -14    1.28    0.49
   3  -3 -14   -0.01    0.28
   3  -3 -14   -0.01    0.54
   3  -3 -14    0.00    0.45
  -3   3  14    1.27    0.30
  -3   3  14    1.60    0.28
  -3   3  14    0.00    0.32
   3  -3 -13    0.56    0.23
   3  -3 -13    0.57    0.22
   3  -3 -13   -0.00    0.40
   3  -3 -13    0.40    0.23
   3  -3 -13    0.00    0.40
  -3   3  13    0.00    0.26
  -3   3  13    0.57    0.38
  -3   3  13    0.57    0.23
   3  -3 -12    0.01    0.28
   3  -3 -12    0.12    0.16
   3  -3 -12    0.38    0.26
   3  -3 -12    0.10    0.16
   3  -3 -12   -0.00    0.18
  -3   3  12    0.02    0.17
  -3   3  12   -0.01    0.18
  -3   3  12    0.10    0.16
   3  -3 -11    0.39    0.21
   3  -3 -11    0.50    0.18
   3  -3 -11    0.40    0.18
   3  -3 -11    0.54    0.18
   3  -3 -11    0.32    0.20
  -3   3  11    0.48    0.32
  -3   3  11    0.00    0.33
  -3   3  11    0.50    0.19
   3  -3 -10   -0.03    0.14
   3  -3 -10    0.04    0.13
   3  -3 -10    0.02    0.13
   3  -3 -10    0.08    0.12
   3  -3 -10    0.08    0.14
  -3   3  10    0.04    0.14
  -3   3  10    0.09    0.14
  -3   3  10    0.07    0.12
   3  -3  -9    4.19    0.32
   3  -3  -9    4.20    0.27
   3  -3  -9    4.58    0.27
   3  -3  -9    4.41    0.27
   3  -3  -9    4.32    0.30
  -3   3   9    4.29    0.42
  -3   3   9    4.55    0.33
  -3   3   9    4.29    0.27
   3  -3  -8    3.32    0.26
   3  -3  -8    3.00    0.22
   3  -3  -8    3.11    0.23
   3  -3  -8    2.84    0.22
   3  -3  -8    2.96    0.35
  -3   3   8    2.71    0.23
  -3   3   8    2.91    0.22
  -3   3   8    2.90    0.28
   3  -3  -7    4.43    0.38
   3  -3  -7    4.02    0.21
   3  -3  -7    4.16    0.29
   3  -3  -7    4.06    0.20
   3  -3  -7    4.11    0.23
  -3   3   7    4.03    0.30
  -3   3   7    4.23    0.38
  -3   3   7    4.17    0.33
   3  -3  -6    1.46    0.18
   3  -3  -6    1.32    0.17
   3  -3  -6    1.37    0.18
   3  -3  -6    1.34    0.12
   3  -3  -6    1.39    0.21
  -3   3   6    1.32    0.14
  -3   3   6    1.34    0.12
  -3   3   6    1.25    0.17
   3  -3  -5    2.61    0.12
   3  -3  -5    2.80    0.19
   3  -3  -5    2.59    0.18
   3  -3  -5    2.71    0.13
   3  -3  -5    2.85    0.22
  -3   3   5    2.57    0.14
  -3   3   5    2.76    0.18
  -3   3   5    2.64    0.19
   3  -3  -4    4.08    0.20
   3  -3  -4    3.73    0.13
   3  -3  -4    3.84    0.15
   3  -3  -4    4.02    0.13
   3  -3  -4    3.76    0.13
  -3   3   4    3.98    0.13
  -3   3   4    4.16    0.29
  -3   3   4    4.02    0.14
   3  -3  -3    5.22    0.16
   3  -3  -3    5.20    0.16
   3  -3  -3    5.10    0.14
   3  -3  -3    5.29    0.21
   3  -3  -3    5.52    0.17
  -3   3   3    5.46    0.16
  -3   3   3    5.28    0.14
  -3   3   3    5.29    0.30
   3  -3  -2    2.70    0.16
   3  -3  -2    2.68    0.10
   3  -3  -2    2.67    0.10
  -3   3   2    2.96    0.24
  -3   3   2    2.75    0.11
  -3   3   2    2.70    0.10
  -3   3   2    2.66    0.08
   3  -3  -1    5.57    0.12
   3  -3  -1    5.77    0.12
   3  -3  -1    5.62    0.21
   3  -3  -1    5.64    0.12
  -3   3   1    5.70    0.30
  -3   3   1    5.82    0.14
  -3   3   1    5.61    0.12
  -3   3   1    5.59    0.14
   3  -3   0    4.68    0.11
   3  -3   0    4.79    0.09
   3  -3   0    4.76    0.11
   3  -3   0    4.73    0.20
  -3   3   0    4.57    0.09
  -3   3   0    5.00    0.29
  -3   3   0    4.57    0.09
  -3   3   0    4.78    0.11
   3  -3   1    1.88    0.09
   3  -3   1    1.84    0.06
   3  -3   1    1.90    0.09
   3  -3   1    1.84    0.06
  -3   3  -1    1.89    0.09
  -3   3  -1    1.88    0.15
  -3   3  -1    1.88    0.09
  -3   3  -1    1.75    0.15
   3  -3   2    1.12    0.10
   3  -3   2    1.14    0.10
   3  -3   2    0.99    0.09
   3  -3   2    1.09    0.10
  -3   3  -2    1.06    0.06
  -3   3  -2    1.06    0.14
  -3   3  -2    1.12    0.14
  -3   3  -2    1.02    0.10
   3  -3   3    0.37    0.10
   3  -3   3    0.33    0.10
   3  -3   3    0.53    0.06
  -3   3  -3    0.38    0.10
  -3   3  -3    0.46    0.07
  -3   3  -3    0.44    0.13
  -3   3  -3    0.42    0.11
   3  -3   4    0.17    0.10
   3  -3   4    0.19    0.11
   3  -3   4    0.15    0.07
  -3   3  -4    0.22    0.12
  -3   3  -4    0.16    0.07
  -3   3  -4    0.03    0.12
  -3   3  -4    0.20    0.11
  -3   3  -4    0.16    0.07
   3  -3   5    1.24    0.12
   3  -3   5    1.42    0.21
   3  -3   5    1.48    0.13
   3  -3   5    1.50    0.13
  -3   3  -5    1.41    0.13
  -3   3  -5    1.39    0.13
  -3   3  -5    1.33    0.19
  -3   3  -5    1.48    0.13
   3  -3   6    0.26    0.16
   3  -3   6    0.37    0.25
   3  -3   6    0.35    0.11
   3  -3   6    0.27    0.11
  -3   3  -6    0.30    0.11
  -3   3  -6    0.24    0.11
  -3   3  -6    0.24    0.15
  -3   3  -6    0.34    0.17
   3  -3   7    0.63    0.14
   3  -3   7    0.50    0.20
   3  -3   7    0.63    0.22
   3  -3   7    0.68    0.21
  -3   3  -7    0.52    0.15
  -3   3  -7    0.47    0.19
  -3   3  -7    0.63    0.15
  -3   3  -7    0.48    0.22
   3  -3   8    0.04    0.10
   3  -3   8    0.04    0.10
   3  -3   8   -0.01    0.10
   3  -3   8    0.03    0.22
  -3   3  -8    0.03    0.11
  -3   3  -8   -0.01    0.14
  -3   3  -8    0.04    0.11
  -3   3  -8    0.04    0.11
   3  -3   9    0.36    0.25
   3  -3   9    0.49    0.16
   3  -3   9    0.55    0.27
   3  -3   9    0.01    0.35
  -3   3  -9    0.36    0.18
  -3   3  -9   -0.00    0.20
  -3   3  -9    0.45    0.27
  -3   3  -9    0.47    0.18
   3  -3  10    0.04    0.13
   3  -3  10    0.00    0.13
   3  -3  10    0.04    0.13
   3  -3  10    0.02    0.17
  -3   3 -10   -0.01    0.14
  -3   3 -10   -0.00    0.16
  -3   3 -10    0.08    0.14
  -3   3 -10   -0.01    0.14
   3  -3  11    0.03    0.27
   3  -3  11    0.36    0.18
   3  -3  11    0.00    0.28
   3  -3  11   -0.10    0.22
  -3   3 -11    0.00    0.33
  -3   3 -11    0.00    0.19
  -3   3 -11    0.28    0.19
  -3   3 -11    0.02    0.19
   3  -2 -13    2.06    0.32
   3  -2 -13    1.81    0.33
   3  -2 -13    2.51    0.32
   3  -2 -13    2.42    0.38
   3  -2 -13    2.23    0.34
  -3   2  13    2.20    0.34
  -3   2  13    2.19    0.32
  -3   2  13    0.00    0.35
   3  -2 -12    0.01    0.25
   3  -2 -12    0.47    0.24
   3  -2 -12   -0.01    0.15
   3  -2 -12   -0.00    0.18
   3  -2 -12    0.00    0.17
  -3   2  12    0.00    0.18
  -3   2  12    0.24    0.27
  -3   2  12    0.00    0.16
   3  -2 -11    0.11    0.13
   3  -2 -11    0.01    0.13
   3  -2 -11   -0.04    0.14
   3  -2 -11    0.00    0.25
   3  -2 -11    0.13    0.15
  -3   2  11   -0.00    0.24
  -3   2  11    0.01    0.15
  -3   2  11    0.02    0.14
   3  -2 -10    8.53    0.38
   3  -2 -10    7.94    0.39
   3  -2 -10    8.14    0.38
   3  -2 -10    8.55    0.61
   3  -2 -10    7.77    0.42
  -3   2  10    7.99    0.58
  -3   2  10    7.83    0.41
  -3   2  10    7.97    0.38
   3  -2  -9    6.87    0.47
   3  -2  -9    6.79    0.47
   3  -2  -9    6.76    0.38
   3  -2  -9    6.67    0.47
   3  -2  -9    6.50    0.37
  -3   2   9    6.51    0.36
  -3   2   9    6.54    0.33
  -3   2   9    6.77    0.37
   3  -2  -8  100.18    2.17
   3  -2  -8  101.34    2.13
   3  -2  -8  101.51    2.13
   3  -2  -8  101.35    2.31
   3  -2  -8  102.09    2.25
  -3   2   8  105.45    2.27
  -3   2   8   99.40    2.19
  -3   2   8   99.93    2.10
   3  -2  -7    1.01    0.18
   3  -2  -7    1.10    0.14
   3  -2  -7    0.88    0.22
   3  -2  -7    0.91    0.14
   3  -2  -7    1.03    0.17
  -3   2   7    1.04    0.26
  -3   2   7    1.04    0.14
  -3   2   7    0.95    0.18
   3  -2  -6    1.12    0.15
   3  -2  -6    1.07    0.12
   3  -2  -6    1.04    0.12
   3  -2  -6    1.07    0.12
   3  -2  -6    1.17    0.15
  -3   2   6    1.30    0.21
  -3   2   6    1.09    0.12
  -3   2   6    1.17    0.15
   3  -2  -5    1.65    0.11
   3  -2  -5    1.64    0.15
   3  -2  -5    1.57    0.11
   3  -2  -5    1.47    0.11
   3  -2  -5    1.66    0.21
  -3   2   5    1.67    0.11
  -3   2   5    1.39    0.15
  -3   2   5    1.65    0.20
   3  -2  -4    0.26    0.09
   3  -2  -4    0.27    0.15
   3  -2  -4    0.14    0.09
   3  -2  -4    0.24    0.06
   3  -2  -4    0.23    0.08
  -3   2   4    0.22    0.06
  -3   2   4    0.28    0.10
  -3   2   4    0.28    0.12
   3  -2  -3   18.67    0.31
   3  -2  -3   19.08    0.32
   3  -2  -3   18.19    0.38
   3  -2  -3   18.80    0.42
   3  -2  -3   18.86    0.31
  -3   2   3   18.93    0.31
  -3   2   3   18.97    0.38
  -3   2   3   18.95    0.43
   3  -2  -2    0.48    0.05
   3  -2  -2    0.47    0.05
   3  -2  -2    0.41    0.09
   3  -2  -2    0.47    0.05
  -3   2   2    0.47    0.10
  -3   2   2    0.41    0.10
  -3   2   2    0.46    0.05
  -3   2   2    0.45    0.06
   3  -2  -1    0.57    0.03
   3  -2  -1    0.55    0.02
   3  -2  -1    0.58    0.03
   3  -2  -1    0.51    0.15
   3  -2  -1    0.56    0.02
  -3   2   1    0.49    0.15
  -3   2   1    0.62    0.06
  -3   2   1    0.71    0.09
   3  -2   0    1.38    0.11
  -3   2   0    1.45    0.07
  -3   2   0    1.34    0.12
  -3   2   0    1.33    0.07
   3  -2   1    0.10    0.02
   3  -2   1    0.09    0.03
   3  -2   1    0.09    0.04
   3  -2   1    0.08    0.03
  -3   2  -1    0.03    0.07
  -3   2  -1    0.04    0.04
  -3   2  -1    0.08    0.03
  -3   2  -1    0.07    0.08
   3  -2   2    1.38    0.07
   3  -2   2    1.41    0.08
   3  -2   2    1.28    0.08
  -3   2  -2    1.32    0.13
  -3   2  -2    1.31    0.05
  -3   2  -2    1.34    0.12
  -3   2  -2    1.34    0.13
  -3   2  -2    1.34    0.08
   3  -2   3    1.66    0.08
   3  -2   3    1.67    0.08
   3  -2   3    1.85    0.15
  -3   2  -3    1.78    0.15
  -3   2  -3    1.74    0.11
  -3   2  -3    1.86    0.23
  -3   2  -3    1.86    0.15
  -3   2  -3    1.79    0.12
   3  -2   4    2.28    0.16
   3  -2   4    2.29    0.19
   3  -2   4    2.38    0.13
   3  -2   4    2.38    0.16
  -3   2  -4    2.52    0.18
  -3   2  -4    2.45    0.13
  -3   2  -4    2.46    0.11
  -3   2  -4    2.37    0.11
   3  -2   5    0.69    0.14
   3  -2   5    0.63    0.11
   3  -2   5    0.57    0.09
   3  -2   5    0.75    0.23
  -3   2  -5    0.78    0.11
  -3   2  -5    0.68    0.10
  -3   2  -5    0.62    0.22
  -3   2  -5    0.56    0.10
   3  -2   6    0.03    0.06
   3  -2   6    0.00    0.09
   3  -2   6    0.01    0.06
   3  -2   6   -0.04    0.07
  -3   2  -6    0.03    0.07
  -3   2  -6   -0.01    0.06
  -3   2  -6    0.05    0.08
  -3   2  -6   -0.03    0.06
   3  -2   7    0.02    0.13
   3  -2   7    0.01    0.13
   3  -2   7    0.03    0.14
   3  -2   7    0.03    0.12
  -3   2  -7   -0.02    0.10
  -3   2  -7    0.05    0.13
  -3   2  -7    0.06    0.11
  -3   2  -7    0.01    0.13
   3  -2   8    0.06    0.11
   3  -2   8    0.06    0.10
   3  -2   8   -0.00    0.10
   3  -2   8    0.09    0.15
  -3   2  -8    0.06    0.17
  -3   2  -8    0.06    0.12
  -3   2  -8    0.03    0.18
  -3   2  -8    0.03    0.21
   3  -2   9    0.09    0.12
   3  -2   9    0.04    0.13
   3  -2   9    0.07    0.13
   3  -2   9    0.21    0.17
  -3   2  -9    0.04    0.22
  -3   2  -9    0.08    0.20
  -3   2  -9    0.03    0.25
  -3   2  -9    0.03    0.20
   3  -2  10    0.07    0.15
   3  -2  10    0.18    0.15
   3  -2  10    0.19    0.22
   3  -2  10   -0.08    0.31
  -3   2 -10    0.18    0.25
  -3   2 -10   -0.00    0.18
  -3   2 -10    0.17    0.16
  -3   2 -10    0.13    0.25
   3  -2  11   -0.00    0.19
   3  -2  11    0.76    0.20
   3  -2  11   -0.00    0.20
   3  -2  11    0.02    0.39
  -3   2 -11    0.00    0.22
  -3   2 -11    0.68    0.20
  -3   2 -11    1.16    0.33
  -3   2 -11    0.00    0.21
   3  -2  12    0.25    0.19
   3  -2  12    0.00    0.29
   3  -2  12   -0.04    0.40
  -3   2 -12    0.00    0.33
  -3   2 -12    0.20    0.20
  -3   2 -12   -0.01    0.19
  -3   2 -12    0.31    0.20
  -3   2 -12   -0.00    0.20
   3  -1 -13    0.00    0.18
   3  -1 -13    0.17    0.17
   3  -1 -13   -0.02    0.27
   3  -1 -13    0.01    0.20
   3  -1 -13   -0.02    0.18
  -3   1  13   -0.00    0.28
  -3   1  13    0.14    0.29
  -3   1  13   -0.00    0.19
   3  -1 -12    0.00    0.22
   3  -1 -12    0.12    0.22
   3  -1 -12    0.02    0.14
   3  -1 -12   -0.01    0.17
   3  -1 -12   -0.04    0.14
  -3   1  12    0.06    0.16
  -3   1  12    0.00    0.14
  -3   1  12    0.00    0.15
   3  -1 -11   -0.01    0.19
   3  -1 -11    0.51    0.19
   3  -1 -11    0.50    0.19
   3  -1 -11   -0.00    0.23
   3  -1 -11    0.50    0.19
  -3   1  11   -0.00    0.32
  -3   1  11    0.55    0.19
  -3   1  11    0.00    0.31
   3  -1 -10    0.17    0.15
   3  -1 -10    0.21    0.15
   3  -1 -10    0.23    0.15
   3  -1 -10    0.17    0.18
   3  -1 -10    0.08    0.16
  -3   1  10    0.09    0.17
  -3   1  10    0.10    0.17
  -3   1  10    0.02    0.25
   3  -1  -9    9.58    0.39
   3  -1  -9    9.71    0.55
   3  -1  -9   10.07    0.47
   3  -1  -9   10.52    0.58
  -3   1   9   10.43    0.46
  -3   1   9    9.90    0.43
  -3   1   9   10.12    0.55
   3  -1  -8    5.23    0.41
   3  -1  -8    4.75    0.42
   3  -1  -8    5.10    0.50
   3  -1  -8    5.00    0.32
  -3   1   8    4.87    0.47
  -3   1   8    4.83    0.32
  -3   1   8    4.87    0.27
  -3   1   8    4.70    0.27
   3  -1  -7   11.11    0.35
   3  -1  -7   11.23    0.41
   3  -1  -7   11.24    0.36
   3  -1  -7   11.64    0.38
  -3   1   7   10.91    0.53
  -3   1   7   11.04    0.35
  -3   1   7   11.10    0.38
  -3   1   7   11.07    0.34
   3  -1  -6    2.86    0.18
   3  -1  -6    2.93    0.16
   3  -1  -6    2.95    0.16
   3  -1  -6    2.86    0.21
  -3   1   6    2.84    0.16
  -3   1   6    2.91    0.19
  -3   1   6    2.85    0.15
  -3   1   6    2.85    0.29
   3  -1  -5    0.95    0.10
   3  -1  -5    0.91    0.13
   3  -1  -5    1.01    0.10
   3  -1  -5    1.03    0.14
  -3   1   5    0.87    0.15
  -3   1   5    0.95    0.13
  -3   1   5    0.97    0.20
   3  -1  -4   10.36    0.23
   3  -1  -4   10.81    0.29
   3  -1  -4   10.40    0.23
   3  -1  -4   10.51    0.23
   3  -1  -4   10.38    0.30
  -3   1   4   10.50    0.23
  -3   1   4   10.15    0.36
  -3   1   4   10.60    0.30
   3  -1  -3    4.78    0.16
   3  -1  -3    4.98    0.18
   3  -1  -3    4.85    0.16
   3  -1  -3    4.72    0.19
   3  -1  -3    4.89    0.12
  -3   1   3    4.92    0.12
  -3   1   3    4.80    0.25
  -3   1   3    4.87    0.18
   3  -1  -2   77.97    1.13
   3  -1  -2   77.69    1.13
   3  -1  -2   77.26    1.36
   3  -1  -2   78.10    1.16
  -3   1   2   75.86    1.34
  -3   1   2   78.06    1.16
  -3   1   2   78.20    1.37
  -3   1   2   75.00    1.42
   3  -1  -1    0.06    0.09
  -3   1   1    0.06    0.06
  -3   1   1    0.09    0.05
  -3   1   1    0.00    0.08
   3  -1   0    0.00    0.07
  -3   1   0   -0.00    0.04
  -3   1   0    0.03    0.03
  -3   1   0   -0.02    0.04
   3  -1   1    2.61    0.15
  -3   1  -1    2.54    0.10
  -3   1  -1    2.61    0.17
  -3   1  -1    2.54    0.12
   3  -1   2    1.59    0.15
   3  -1   2    1.53    0.06
  -3   1  -2    1.48    0.09
  -3   1  -2    1.55    0.06
  -3   1  -2    1.68    0.11
  -3   1  -2    1.53    0.17
  -3   1  -2    1.56    0.06
  -3   1  -2    1.55    0.06
   3  -1   3    5.58    0.15
   3  -1   3    5.81    0.24
  -3   1  -3    5.56    0.13
  -3   1  -3    5.30    0.17
  -3   1  -3    5.39    0.20
  -3   1  -3    5.66    0.28
  -3   1  -3    5.66    0.12
   3  -1   4    0.78    0.10
   3  -1   4    0.81    0.13
   3  -1   4    0.73    0.10
   3  -1   4    0.79    0.10
  -3   1  -4    0.71    0.11
  -3   1  -4    0.74    0.10
  -3   1  -4    0.72    0.11
  -3   1  -4    0.77    0.12
   3  -1   5    1.35    0.15
   3  -1   5    1.38    0.16
   3  -1   5    1.29    0.16
   3  -1   5    1.76    0.20
  -3   1  -5    1.46    0.11
  -3   1  -5    1.48    0.21
  -3   1  -5    1.53    0.11
  -3   1  -5    1.40    0.15
   3  -1   6    2.14    0.17
   3  -1   6    2.20    0.20
   3  -1   6    2.01    0.20
   3  -1   6    2.19    0.20
  -3   1  -6    2.10    0.14
  -3   1  -6    2.07    0.26
  -3   1  -6    1.91    0.14
  -3   1  -6    2.16    0.29
   3  -1   7    0.25    0.24
   3  -1   7    0.27    0.10
   3  -1   7    0.29    0.13
   3  -1   7    0.31    0.11
  -3   1  -7    0.33    0.20
  -3   1  -7    0.26    0.11
  -3   1  -7    0.29    0.11
  -3   1  -7    0.22    0.14
   3  -1   8    0.40    0.12
   3  -1   8    0.28    0.15
   3  -1   8    0.13    0.13
   3  -1   8    0.27    0.16
  -3   1  -8    0.23    0.13
  -3   1  -8    0.30    0.23
  -3   1  -8    0.29    0.13
  -3   1  -8    0.20    0.16
   3  -1   9    1.19    0.18
   3  -1   9    1.11    0.31
   3  -1   9    0.81    0.23
   3  -1   9    1.09    0.18
  -3   1  -9    1.13    0.19
  -3   1  -9    0.97    0.22
  -3   1  -9    0.90    0.22
  -3   1  -9    1.02    0.19
   3  -1  10    0.00    0.22
   3  -1  10   -0.02    0.21
   3  -1  10    0.00    0.16
  -3   1 -10    0.04    0.15
  -3   1 -10    0.05    0.21
  -3   1 -10    0.10    0.14
  -3   1 -10    0.08    0.21
  -3   1 -10    0.10    0.13
   3  -1  11    1.29    0.35
   3  -1  11    0.98    0.22
   3  -1  11    0.06    0.26
  -3   1 -11    0.00    0.36
  -3   1 -11   -0.00    0.25
  -3   1 -11    1.30    0.35
  -3   1 -11    1.10    0.22
  -3   1 -11    1.61    0.39
   3  -1  12    0.15    0.31
   3  -1  12    0.00    0.19
   3  -1  12   -0.00    0.22
  -3   1 -12    0.02    0.19
  -3   1 -12    0.41    0.20
  -3   1 -12    0.00    0.20
  -3   1 -12    0.20    0.19
  -3   1 -12    0.28    0.21
   3   0 -13    0.18    0.23
   3   0 -13    0.11    0.23
   3   0 -13   -0.00    0.21
   3   0 -13    0.24    0.38
   3   0 -13    0.03    0.32
  -3   0  13    0.24    0.25
  -3   0  13   -0.00    0.33
  -3   0  13    0.20    0.23
   3   0 -12    0.10    0.31
   3   0 -12    0.15    0.31
   3   0 -12    0.20    0.37
   3   0 -12    0.01    0.31
  -3   0  12    0.23    0.35
  -3   0  12    0.21    0.18
  -3   0  12    0.00    0.19
  -3   0  12    0.46    0.21
   3   0 -11   -0.01    0.12
   3   0 -11    0.00    0.12
   3   0 -11   -0.00    0.19
  -3   0  11    0.00    0.14
  -3   0  11   -0.06    0.11
  -3   0  11   -0.03    0.12
  -3   0  11    0.41    0.21
   3   0 -10    2.65    0.27
   3   0 -10    2.63    0.27
   3   0 -10    3.20    0.50
   3   0 -10    2.59    0.42
  -3   0  10    2.87    0.32
  -3   0  10    2.45    0.39
  -3   0  10    2.52    0.40
  -3   0  10    2.58    0.28
   3   0  -9    6.81    0.34
   3   0  -9    6.80    0.42
   3   0  -9    6.35    0.34
   3   0  -9    6.64    0.50
  -3   0   9    6.65    0.56
  -3   0   9    6.56    0.36
  -3   0   9    6.67    0.35
  -3   0   9    6.52    0.34
   3   0  -8   19.46    0.56
   3   0  -8   19.64    0.56
   3   0  -8   20.05    0.66
   3   0  -8   19.63    0.57
  -3   0   8   19.66    0.62
  -3   0   8   19.89    0.76
  -3   0   8   19.61    0.56
  -3   0   8   19.59    0.57
   3   0  -7    7.36    0.40
   3   0  -7    7.46    0.40
   3   0  -7    7.32    0.36
   3   0  -7    7.13    0.29
  -3   0   7    7.26    0.39
  -3   0   7    7.41    0.30
  -3   0   7    7.40    0.39
  -3   0   7    7.36    0.33
   3   0  -6    0.06    0.08
   3   0  -6    0.00    0.13
   3   0  -6    0.08    0.12
   3   0  -6    0.06    0.14
  -3   0   6    0.05    0.13
  -3   0   6    0.13    0.13
  -3   0   6    0.12    0.09
  -3   0   6    0.11    0.11
   3   0  -5    2.25    0.14
   3   0  -5    2.21    0.14
   3   0  -5    2.67    0.29
   3   0  -5    2.24    0.22
  -3   0   5    2.39    0.13
  -3   0   5    2.08    0.13
  -3   0   5    2.04    0.15
  -3   0   5    2.33    0.18
   3   0  -4    0.25    0.11
   3   0  -4    0.25    0.13
   3   0  -4    0.30    0.11
   3   0  -4    0.31    0.18
  -3   0   4    0.26    0.13
  -3   0   4    0.32    0.07
  -3   0   4    0.29    0.07
  -3   0   4    0.21    0.17
   3   0  -3  100.84    1.77
   3   0  -3  101.16    1.77
   3   0  -3  101.49    1.78
   3   0  -3  100.43    1.91
  -3   0   3  103.11    1.68
  -3   0   3  103.19    1.69
  -3   0   3  100.15    1.79
  -3   0   3  102.38    1.92
   3   0  -2   17.22    0.30
   3   0  -2   16.87    0.39
   3   0  -2   17.31    0.31
  -3   0   2   17.20    0.29
  -3   0   2   17.13    0.29
  -3   0   2   17.29    0.39
  -3   0   2   16.93    0.39
  -3   0   2   16.56    0.33
   3   0  -1   10.71    0.22
   3   0  -1   10.87    0.15
  -3   0   1   10.76    0.15
  -3   0   1   11.21    0.15
  -3   0   1   10.71    0.27
  -3   0   1   11.03    0.27
  -3   0   1   10.63    0.22
   3   0   0    1.76    0.11
  -3   0   0    1.74    0.12
  -3   0   0    1.70    0.16
   3   0   1    8.46    0.22
  -3   0  -1    8.60    0.19
  -3   0  -1    8.55    0.29
  -3   0  -1    9.04    0.24
   3   0   2    2.13    0.12
   3   0   2    1.91    0.06
  -3   0  -2    1.89    0.06
  -3   0  -2    1.98    0.06
  -3   0  -2    1.86    0.12
  -3   0  -2    1.88    0.15
  -3   0  -2    1.91    0.06
  -3   0  -2    1.90    0.10
   3   0   3   11.96    0.20
   3   0   3   11.89    0.29
  -3   0  -3   11.93    0.21
  -3   0  -3   11.87    0.34
  -3   0  -3   11.69    0.20
  -3   0  -3   11.43    0.29
  -3   0  -3   11.87    0.27
  -3   0  -3   11.95    0.23
   3   0   4   10.42    0.28
   3   0   4   11.10    0.27
   3   0   4   11.28    0.38
  -3   0  -4   10.65    0.22
  -3   0  -4   10.27    0.28
  -3   0  -4   10.73    0.22
  -3   0  -4   10.49    0.27
  -3   0  -4   10.62    0.26
   3   0   5    0.25    0.10
   3   0   5    0.27    0.15
   3   0   5    0.14    0.10
  -3   0  -5    0.20    0.10
  -3   0  -5    0.22    0.07
  -3   0  -5    0.21    0.07
  -3   0  -5    0.21    0.07
  -3   0  -5    0.22    0.09
   3   0   6    0.04    0.10
   3   0   6    0.03    0.13
   3   0   6    0.03    0.08
  -3   0  -6    0.02    0.06
  -3   0  -6   -0.05    0.09
  -3   0  -6    0.09    0.06
  -3   0  -6    0.01    0.10
  -3   0  -6    0.02    0.09
   3   0   7    0.37    0.14
   3   0   7    0.39    0.11
   3   0   7    0.42    0.14
  -3   0  -7    0.34    0.11
  -3   0  -7    0.42    0.14
  -3   0  -7    0.48    0.11
  -3   0  -7    0.41    0.11
  -3   0  -7    0.40    0.14
   3   0   8    0.04    0.16
   3   0   8    0.00    0.08
   3   0   8   -0.05    0.16
  -3   0  -8    0.06    0.13
  -3   0  -8   -0.01    0.10
  -3   0  -8    0.11    0.10
  -3   0  -8    0.01    0.13
  -3   0  -8   -0.05    0.08
   3   0   9    0.16    0.16
   3   0   9    0.18    0.14
   3   0   9    0.21    0.16
  -3   0  -9    0.24    0.14
  -3   0  -9    0.09    0.17
  -3   0  -9    0.24    0.16
  -3   0  -9    0.28    0.14
  -3   0  -9    0.28    0.14
   3   0  10    0.43    0.19
   3   0  10    0.44    0.27
   3   0  10    0.35    0.20
  -3   0 -10    0.33    0.21
  -3   0 -10    0.33    0.19
  -3   0 -10    0.42    0.17
  -3   0 -10    0.45    0.17
  -3   0 -10    0.46    0.26
   3   0  11    0.08    0.14
   3   0  11    0.06    0.20
   3   0  11    0.07    0.15
  -3   0 -11    0.06    0.23
  -3   0 -11   -0.10    0.21
  -3   0 -11    0.05    0.21
  -3   0 -11    0.06    0.13
   3   0  12    0.03    0.18
   3   0  12   -0.00    0.16
   3   0  12   -0.04    0.19
  -3   0 -12    0.17    0.19
  -3   0 -12    0.18    0.17
  -3   0 -12    0.14    0.17
  -3   0 -12    0.21    0.29
  -3   0 -12    0.03    0.17
   3   0  13    0.21    0.20
   3   0  13    0.00    0.20
   3   0  13   -0.01    0.37
  -3   0 -13    0.11    0.20
  -3   0 -13    0.31    0.20
  -3   0 -13    0.00    0.22
  -3   0 -13   -0.04    0.19
  -3   0 -13    0.29    0.23
   3   1 -13    0.15    0.25
   3   1 -13    0.10    0.39
   3   1 -13    0.10    0.26
   3   1 -13    0.31    0.22
  -3  -1  13    0.37    0.27
  -3  -1  13    0.16    0.21
  -3  -1  13   -0.01    0.22
  -3  -1  13    0.20    0.24
   3   1 -12    0.07    0.32
   3   1 -12    0.21    0.32
   3   1 -12    0.23    0.24
   3   1 -12    0.37    0.20
  -3  -1  12   -0.00    0.31
  -3  -1  12    0.00    0.22
  -3  -1  12   -0.16    0.30
  -3  -1  12    0.23    0.21
   3   1 -11   -0.08    0.15
   3   1 -11    0.01    0.16
   3   1 -11   -0.01    0.18
   3   1 -11    0.26    0.15
  -3  -1  11   -0.01    0.27
  -3  -1  11    0.04    0.15
  -3  -1  11    0.08    0.16
  -3  -1  11   -0.00    0.15
   3   1 -10   -0.09    0.11
   3   1 -10   -0.06    0.11
   3   1 -10    0.10    0.13
   3   1 -10    0.06    0.11
  -3  -1  10   -0.01    0.13
  -3  -1  10   -0.08    0.11
  -3  -1  10    0.22    0.17
  -3  -1  10    0.00    0.11
   3   1  -9    6.68    0.36
   3   1  -9    6.77    0.43
   3   1  -9    6.56    0.35
   3   1  -9    6.91    0.37
  -3  -1   9    7.13    0.41
  -3  -1   9    6.85    0.35
  -3  -1   9    6.96    0.37
  -3  -1   9    6.91    0.53
   3   1  -8   11.61    0.43
   3   1  -8   12.07    0.43
   3   1  -8   11.97    0.69
   3   1  -8   11.70    0.42
  -3  -1   8   11.96    0.43
  -3  -1   8   11.93    0.43
  -3  -1   8   11.64    0.43
  -3  -1   8   12.01    0.48
   3   1  -7    4.88    0.25
   3   1  -7    4.76    0.25
   3   1  -7    4.75    0.33
   3   1  -7    4.70    0.25
  -3  -1   7    4.63    0.37
  -3  -1   7    4.75    0.25
  -3  -1   7    4.69    0.25
  -3  -1   7    4.91    0.30
   3   1  -6    0.59    0.13
   3   1  -6    0.61    0.13
   3   1  -6    0.73    0.18
   3   1  -6    0.65    0.19
  -3  -1   6    0.68    0.13
  -3  -1   6    0.72    0.12
  -3  -1   6    0.69    0.13
  -3  -1   6    0.62    0.16
   3   1  -5    0.82    0.17
   3   1  -5    0.63    0.17
   3   1  -5    0.73    0.16
   3   1  -5    0.83    0.11
  -3  -1   5    0.84    0.16
  -3  -1   5    0.85    0.11
  -3  -1   5    0.74    0.17
  -3  -1   5    0.86    0.15
   3   1  -4    0.13    0.07
   3   1  -4    0.11    0.07
   3   1  -4    0.08    0.11
   3   1  -4    0.12    0.07
  -3  -1   4    0.14    0.06
  -3  -1   4    0.10    0.07
  -3  -1   4    0.09    0.07
  -3  -1   4    0.12    0.10
   3   1  -3   16.80    0.39
   3   1  -3   17.57    0.40
   3   1  -3   16.89    0.39
   3   1  -3   16.82    0.44
  -3  -1   3   17.24    0.33
  -3  -1   3   17.32    0.40
  -3  -1   3   17.21    0.34
  -3  -1   3   16.82    0.54
   3   1  -2   17.03    0.31
   3   1  -2   16.85    0.34
   3   1  -2   16.92    0.34
  -3  -1   2   16.96    0.33
  -3  -1   2   17.00    0.41
  -3  -1   2   16.88    0.33
  -3  -1   2   16.87    0.31
  -3  -1   2   16.65    0.41
   3   1  -1    0.66    0.08
   3   1  -1    0.52    0.04
  -3  -1   1    0.56    0.04
  -3  -1   1    0.55    0.04
  -3  -1   1    0.60    0.06
  -3  -1   1    0.51    0.16
  -3  -1   1    0.59    0.07
   3   1   0    0.59    0.04
   3   1   0    0.54    0.04
  -3  -1   0    0.56    0.04
  -3  -1   0    0.57    0.07
  -3  -1   0    0.56    0.04
  -3  -1   0    0.50    0.10
  -3  -1   0    0.64    0.04
   3   1   1    4.32    0.18
   3   1   1    4.27    0.08
  -3  -1  -1    4.44    0.13
  -3  -1  -1    4.35    0.08
  -3  -1  -1    4.32    0.13
  -3  -1  -1    4.29    0.08
  -3  -1  -1    4.19    0.17
  -3  -1  -1    4.33    0.08
   3   1   2    3.24    0.16
   3   1   2    3.58    0.09
  -3  -1  -2    3.29    0.10
  -3  -1  -2    3.33    0.09
  -3  -1  -2    3.34    0.07
  -3  -1  -2    3.44    0.24
  -3  -1  -2    3.58    0.14
  -3  -1  -2    3.33    0.09
   3   1   3   75.78    1.42
   3   1   3   75.59    1.18
  -3  -1  -3   74.57    1.41
  -3  -1  -3   75.36    1.23
  -3  -1  -3   74.68    1.25
  -3  -1  -3   76.38    1.18
  -3  -1  -3   75.64    1.22
   3   1   4   17.03    0.43
   3   1   4   17.41    0.51
   3   1   4   17.17    0.36
  -3  -1  -4   16.89    0.36
  -3  -1  -4   16.64    0.41
  -3  -1  -4   16.83    0.37
  -3  -1  -4   17.24    0.42
  -3  -1  -4   17.07    0.36
   3   1   5    2.83    0.18
   3   1   5    2.81    0.15
   3   1   5    2.82    0.12
  -3  -1  -5    2.92    0.17
  -3  -1  -5    2.70    0.26
  -3  -1  -5    2.91    0.18
  -3  -1  -5    2.89    0.12
  -3  -1  -5    2.70    0.21
   3   1   6    0.32    0.12
   3   1   6    0.30    0.08
   3   1   6    0.01    0.16
  -3  -1  -6    0.27    0.08
  -3  -1  -6    0.23    0.12
  -3  -1  -6    0.37    0.09
  -3  -1  -6    0.28    0.08
  -3  -1  -6    0.25    0.15
   3   1   7    0.22    0.10
   3   1   7    0.23    0.22
   3   1   7    0.36    0.12
  -3  -1  -7    0.32    0.16
  -3  -1  -7    0.32    0.12
  -3  -1  -7    0.25    0.16
  -3  -1  -7    0.31    0.14
  -3  -1  -7    0.35    0.10
   3   1   8   38.89    1.03
   3   1   8   42.02    1.02
   3   1   8   39.78    1.12
  -3  -1  -8   39.89    1.00
  -3  -1  -8   38.60    0.92
  -3  -1  -8   40.03    0.92
  -3  -1  -8   38.96    1.03
  -3  -1  -8   39.97    0.92
   3   1   9   24.16    0.91
   3   1   9   22.07    0.78
  -3  -1  -9   22.04    0.79
  -3  -1  -9   22.91    0.71
  -3  -1  -9   21.42    0.81
  -3  -1  -9   22.03    0.79
  -3  -1  -9   22.31    0.77
   3   1  10    4.64    0.50
   3   1  10    4.17    0.43
  -3  -1 -10    3.94    0.29
  -3  -1 -10    4.25    0.34
  -3  -1 -10    3.92    0.31
  -3  -1 -10    4.25    0.30
  -3  -1 -10    4.39    0.42
   3   1  11   -0.07    0.11
   3   1  11    0.01    0.15
  -3  -1 -11   -0.00    0.19
  -3  -1 -11   -0.04    0.10
  -3  -1 -11    0.04    0.10
  -3  -1 -11    0.05    0.15
  -3  -1 -11    0.03    0.10
   3   1  12    0.04    0.19
   3   1  12    0.01    0.17
   3   1  12    0.66    0.30
  -3  -1 -12    0.20    0.18
  -3  -1 -12    0.00    0.33
  -3  -1 -12    0.28    0.19
  -3  -1 -12    0.17    0.18
  -3  -1 -12    0.04    0.17
   3   1  13    0.08    0.26
   3   1  13    0.45    0.24
   3   1  13    0.55    0.26
  -3  -1 -13    0.64    0.28
  -3  -1 -13    0.82    0.25
  -3  -1 -13    0.47    0.25
  -3  -1 -13    0.72    0.24
  -3  -1 -13    0.55    0.25
   3   2 -12    0.23    0.21
   3   2 -12    0.12    0.21
   3   2 -12    0.24    0.38
   3   2 -12   -0.02    0.30
  -3  -2  12   -0.00    0.22
  -3  -2  12    0.11    0.20
  -3  -2  12    0.00    0.20
  -3  -2  12    0.24    0.21
   3   2 -11    0.71    0.23
   3   2 -11    0.73    0.23
   3   2 -11    0.70    0.43
   3   2 -11    0.01    0.21
  -3  -2  11   -0.00    0.27
  -3  -2  11    0.65    0.35
  -3  -2  11    0.03    0.35
  -3  -2  11    0.87    0.23
   3   2 -10    0.04    0.14
   3   2 -10    0.11    0.14
   3   2 -10    0.04    0.28
   3   2 -10    0.04    0.14
  -3  -2  10   -0.01    0.26
  -3  -2  10   -0.06    0.14
  -3  -2  10    0.05    0.14
  -3  -2  10    0.09    0.23
   3   2  -9    0.07    0.16
   3   2  -9    0.07    0.16
   3   2  -9    0.33    0.20
   3   2  -9    0.19    0.15
  -3  -2   9    0.34    0.19
  -3  -2   9    0.23    0.16
  -3  -2   9    0.06    0.16
  -3  -2   9    0.18    0.16
   3   2  -8    0.30    0.16
   3   2  -8    0.28    0.16
   3   2  -8    0.34    0.21
   3   2  -8    0.42    0.15
  -3  -2   8    0.28    0.16
  -3  -2   8    0.25    0.16
  -3  -2   8    0.37    0.25
  -3  -2   8    0.37    0.19
   3   2  -7    2.79    0.22
   3   2  -7    2.96    0.22
   3   2  -7    2.28    0.29
   3   2  -7    2.82    0.20
  -3  -2   7    2.48    0.21
  -3  -2   7    2.55    0.22
  -3  -2   7    2.55    0.21
  -3  -2   7    2.90    0.26
   3   2  -6    1.39    0.26
   3   2  -6    1.68    0.26
   3   2  -6    1.70    0.23
   3   2  -6    1.66    0.15
  -3  -2   6    1.80    0.26
  -3  -2   6    1.77    0.25
  -3  -2   6    1.60    0.22
  -3  -2   6    1.72    0.24
   3   2  -5    0.17    0.10
   3   2  -5    0.19    0.22
   3   2  -5    0.15    0.14
   3   2  -5    0.17    0.10
  -3  -2   5    0.20    0.10
  -3  -2   5    0.30    0.10
  -3  -2   5    0.23    0.13
  -3  -2   5    0.22    0.09
   3   2  -4    1.84    0.20
   3   2  -4    1.73    0.19
   3   2  -4    1.57    0.16
   3   2  -4    1.68    0.20
  -3  -2   4    1.84    0.17
  -3  -2   4    1.70    0.13
  -3  -2   4    1.67    0.13
  -3  -2   4    1.84    0.28
   3   2  -3    0.24    0.08
   3   2  -3    0.25    0.13
   3   2  -3    0.23    0.08
   3   2  -3    0.30    0.10
  -3  -2   3    0.34    0.10
  -3  -2   3    0.34    0.07
  -3  -2   3    0.30    0.07
  -3  -2   3    0.30    0.12
   3   2  -2    0.13    0.04
   3   2  -2    0.10    0.08
   3   2  -2    0.05    0.09
  -3  -2   2    0.09    0.08
  -3  -2   2    0.10    0.06
  -3  -2   2    0.18    0.10
  -3  -2   2    0.10    0.08
  -3  -2   2    0.14    0.16
   3   2  -1    3.42    0.10
   3   2  -1    3.40    0.15
  -3  -2   1    3.45    0.15
  -3  -2   1    3.26    0.10
  -3  -2   1    3.37    0.10
  -3  -2   1    3.40    0.10
  -3  -2   1    3.29    0.19
  -3  -2   1    3.45    0.27
   3   2   0    0.03    0.02
   3   2   0    0.01    0.05
  -3  -2   0    0.00    0.07
  -3  -2   0    0.01    0.03
  -3  -2   0    0.00    0.07
  -3  -2   0   -0.01    0.04
  -3  -2   0    0.00    0.02
  -3  -2   0    0.03    0.03
   3   2   1    1.92    0.22
   3   2   1    2.02    0.07
  -3  -2  -1    2.08    0.06
  -3  -2  -1    2.11    0.06
  -3  -2  -1    2.12    0.22
  -3  -2  -1    2.21    0.09
  -3  -2  -1    2.03    0.09
  -3  -2  -1    2.04    0.09
   3   2   2    2.54    0.24
   3   2   2    2.59    0.11
   3   2   2    2.68    0.11
  -3  -2  -2    2.58    0.08
  -3  -2  -2    2.68    0.24
  -3  -2  -2    2.67    0.11
  -3  -2  -2    2.60    0.08
  -3  -2  -2    2.65    0.11
   3   2   3   12.02    0.27
   3   2   3   11.51    0.22
   3   2   3   11.63    0.22
   3   2   3   12.27    0.33
  -3  -2  -3   12.10    0.44
  -3  -2  -3   11.98    0.27
  -3  -2  -3   11.98    0.23
  -3  -2  -3   11.72    0.24
   3   2   4    4.22    0.14
   3   2   4    4.42    0.20
   3   2   4    4.26    0.13
  -3  -2  -4    4.26    0.13
  -3  -2  -4    4.30    0.18
  -3  -2  -4    4.29    0.30
  -3  -2  -4    4.18    0.18
  -3  -2  -4    4.29    0.13
   3   2   5    5.41    0.24
   3   2   5    5.24    0.17
   3   2   5    5.41    0.23
  -3  -2  -5    5.22    0.23
  -3  -2  -5    5.27    0.23
  -3  -2  -5    5.29    0.24
  -3  -2  -5    5.17    0.23
  -3  -2  -5    5.21    0.22
   3   2   6    0.06    0.11
   3   2   6    0.08    0.07
   3   2   6    0.13    0.12
  -3  -2  -6    0.10    0.11
  -3  -2  -6    0.09    0.08
  -3  -2  -6    0.25    0.17
  -3  -2  -6    0.10    0.07
  -3  -2  -6    0.11    0.07
   3   2   7   -0.02    0.08
   3   2   7    0.02    0.11
   3   2   7   -0.00    0.10
  -3  -2  -7    0.01    0.11
  -3  -2  -7    0.05    0.10
  -3  -2  -7    0.06    0.11
  -3  -2  -7    0.06    0.12
  -3  -2  -7    0.03    0.11
   3   2   8   13.02    0.42
   3   2   8   13.94    0.68
   3   2   8   13.14    0.41
  -3  -2  -8   12.88    0.40
  -3  -2  -8   12.68    0.49
  -3  -2  -8   12.68    0.42
  -3  -2  -8   12.62    0.41
  -3  -2  -8   13.15    0.42
   3   2   9   12.10    0.45
   3   2   9   12.07    0.51
   3   2   9   12.74    0.60
  -3  -2  -9   11.85    0.44
  -3  -2  -9   12.34    0.51
  -3  -2  -9   12.34    0.44
  -3  -2  -9   12.24    0.60
  -3  -2  -9   12.59    0.44
   3   2  10    4.58    0.31
   3   2  10    4.45    0.36
   3   2  10    4.62    0.44
  -3  -2 -10    4.59    0.43
  -3  -2 -10    4.88    0.36
  -3  -2 -10    4.74    0.45
  -3  -2 -10    4.47    0.31
  -3  -2 -10    4.81    0.43
   3   2  11    0.56    0.18
   3   2  11    0.41    0.21
   3   2  11    0.31    0.28
  -3  -2 -11    0.00    0.21
  -3  -2 -11    0.30    0.29
  -3  -2 -11    0.25    0.18
  -3  -2 -11    0.42    0.18
  -3  -2 -11    0.30    0.28
   3   2  12    0.42    0.19
   3   2  12    0.05    0.32
   3   2  12   -0.00    0.28
  -3  -2 -12    0.01    0.35
  -3  -2 -12    0.02    0.29
  -3  -2 -12    0.27    0.30
  -3  -2 -12    0.14    0.29
  -3  -2 -12    0.32    0.19
   3   2  13    0.12    0.18
   3   2  13   -0.04    0.31
   3   2  13    0.06    0.18
  -3  -2 -13   -0.02    0.22
  -3  -2 -13    0.16    0.19
  -3  -2 -13   -0.07    0.19
  -3  -2 -13    0.16    0.18
  -3  -2 -13    0.24    0.29
   3   3 -12    0.01    0.19
   3   3 -12   -0.03    0.20
   3   3 -12    0.00    0.16
   3   3 -12    0.18    0.19
  -3  -3  12    0.00    0.20
  -3  -3  12   -0.09    0.17
  -3  -3  12    0.09    0.18
  -3  -3  12    0.01    0.17
   3   3 -11    0.01    0.15
   3   3 -11   -0.10    0.18
   3   3 -11   -0.01    0.14
   3   3 -11    0.08    0.15
  -3  -3  11   -0.00    0.17
  -3  -3  11    0.02    0.15
  -3  -3  11    0.06    0.15
  -3  -3  11   -0.00    0.15
   3   3 -10   -0.00    0.14
   3   3 -10    0.03    0.19
   3   3 -10   -0.10    0.16
   3   3 -10    0.07    0.13
  -3  -3  10    0.01    0.15
  -3  -3  10    0.05    0.13
  -3  -3  10    0.00    0.13
  -3  -3  10   -0.05    0.21
   3   3  -9    1.72    0.25
   3   3  -9    1.42    0.22
   3   3  -9    1.52    0.30
   3   3  -9    1.32    0.25
  -3  -3   9    1.14    0.37
  -3  -3   9    1.27    0.38
  -3  -3   9    1.34    0.23
  -3  -3   9    0.00    0.43
   3   3  -8    0.39    0.18
   3   3  -8    0.45    0.15
   3   3  -8    0.41    0.34
   3   3  -8    0.40    0.18
  -3  -3   8    0.39    0.17
  -3  -3   8    0.32    0.16
  -3  -3   8    0.29    0.17
  -3  -3   8    0.37    0.31
   3   3  -7    0.40    0.16
   3   3  -7    0.45    0.21
   3   3  -7    0.52    0.14
   3   3  -7    0.50    0.16
  -3  -3   7    0.33    0.22
  -3  -3   7    0.60    0.16
  -3  -3   7    0.48    0.16
  -3  -3   7    0.50    0.20
   3   3  -6    2.90    0.31
   3   3  -6    2.71    0.28
   3   3  -6    2.66    0.18
   3   3  -6    2.60    0.32
  -3  -3   6    2.44    0.30
  -3  -3   6    2.41    0.31
  -3  -3   6    2.66    0.19
  -3  -3   6    2.59    0.39
   3   3  -5    2.19    0.24
   3   3  -5    2.30    0.22
   3   3  -5    2.37    0.18
   3   3  -5    2.42    0.18
  -3  -3   5    2.11    0.17
  -3  -3   5    2.11    0.18
  -3  -3   5    2.21    0.15
  -3  -3   5    1.67    0.34
   3   3  -4    2.07    0.16
   3   3  -4    2.10    0.21
   3   3  -4    1.97    0.11
   3   3  -4    2.05    0.16
  -3  -3   4    2.00    0.15
  -3  -3   4    2.02    0.15
  -3  -3   4    2.00    0.12
  -3  -3   4    2.14    0.21
   3   3  -3    8.40    0.25
   3   3  -3    8.51    0.24
   3   3  -3    8.26    0.25
  -3  -3   3    8.35    0.32
  -3  -3   3    8.56    0.33
  -3  -3   3    8.42    0.20
  -3  -3   3    8.70    0.32
  -3  -3   3    8.71    0.33
   3   3  -2    0.01    0.05
   3   3  -2    0.00    0.08
   3   3  -2    0.01    0.04
  -3  -3   2   -0.00    0.05
  -3  -3   2    0.06    0.05
  -3  -3   2    0.01    0.03
  -3  -3   2   -0.04    0.08
  -3  -3   2    0.07    0.13
   3   3  -1    5.78    0.10
   3   3  -1    5.86    0.23
  -3  -3   1    5.83    0.25
  -3  -3   1    5.86    0.22
  -3  -3   1    5.82    0.12
  -3  -3   1    5.73    0.25
  -3  -3   1    5.85    0.17
  -3  -3   1    5.92    0.22
   3   3   0   10.07    0.27
  -3  -3   0   10.26    0.22
  -3  -3   0   10.27    0.27
  -3  -3   0   10.26    0.31
  -3  -3   0   10.13    0.32
  -3  -3   0   10.33    0.22
   3   3   1    3.52    0.18
   3   3   1    3.23    0.11
  -3  -3  -1    3.26    0.11
  -3  -3  -1    3.38    0.19
  -3  -3  -1    3.35    0.11
  -3  -3  -1    3.21    0.11
   3   3   2   12.58    0.35
   3   3   2   12.58    0.29
   3   3   2   12.22    0.25
  -3  -3  -2   12.48    0.35
  -3  -3  -2   12.61    0.30
  -3  -3  -2   12.64    0.25
   3   3   3   12.25    0.45
   3   3   3   12.86    0.31
   3   3   3   12.66    0.26
  -3  -3  -3   13.45    0.37
  -3  -3  -3   12.61    0.26
  -3  -3  -3   12.78    0.21
  -3  -3  -3   12.94    0.32
   3   3   4    0.17    0.04
   3   3   4    0.15    0.10
   3   3   4    0.07    0.09
   3   3   4    0.15    0.06
  -3  -3  -4    0.13    0.04
  -3  -3  -4    0.17    0.16
  -3  -3  -4    0.08    0.10
  -3  -3  -4    0.17    0.06
   3   3   5    2.26    0.15
   3   3   5    1.97    0.12
   3   3   5    2.11    0.18
  -3  -3  -5    2.15    0.12
  -3  -3  -5    2.27    0.18
  -3  -3  -5    2.23    0.10
  -3  -3  -5    2.16    0.12
  -3  -3  -5    2.19    0.18
   3   3   6    0.83    0.15
   3   3   6    0.93    0.16
   3   3   6    0.87    0.11
  -3  -3  -6    0.77    0.16
  -3  -3  -6    0.76    0.24
  -3  -3  -6    0.91    0.17
  -3  -3  -6    0.81    0.10
  -3  -3  -6    0.80    0.11
   3   3   7    2.13    0.15
   3   3   7    2.18    0.21
   3   3   7    2.03    0.16
  -3  -3  -7    2.03    0.16
  -3  -3  -7    2.12    0.22
  -3  -3  -7    1.97    0.16
  -3  -3  -7    2.12    0.15
  -3  -3  -7    1.91    0.16
   3   3   8   21.88    0.56
   3   3   8   22.49    0.66
   3   3   8   21.26    0.69
  -3  -3  -8   21.10    0.66
  -3  -3  -8   21.06    0.68
  -3  -3  -8   21.37    0.65
  -3  -3  -8   21.11    0.69
  -3  -3  -8   21.43    0.70
   3   3   9   39.74    0.96
   3   3   9   40.00    0.97
   3   3   9   41.99    1.11
  -3  -3  -9   38.12    1.10
  -3  -3  -9   39.99    1.07
  -3  -3  -9   37.87    1.12
  -3  -3  -9   38.70    0.93
  -3  -3  -9   39.53    0.97
   3   3  10    0.16    0.13
   3   3  10    0.07    0.26
   3   3  10    0.10    0.13
  -3  -3 -10    0.15    0.13
  -3  -3 -10    0.08    0.17
  -3  -3 -10    0.06    0.14
  -3  -3 -10    0.07    0.13
  -3  -3 -10    0.03    0.14
   3   3  11    6.35    0.36
   3   3  11    6.27    0.42
   3   3  11    6.35    0.51
  -3  -3 -11    6.31    0.37
  -3  -3 -11    5.97    0.42
  -3  -3 -11    6.00    0.51
  -3  -3 -11    6.03    0.51
  -3  -3 -11    6.03    0.37
   3   3  12   -0.10    0.15
   3   3  12    0.08    0.18
   3   3  12    0.12    0.24
  -3  -3 -12    0.54    0.25
  -3  -3 -12   -0.05    0.19
  -3  -3 -12    0.00    0.25
  -3  -3 -12    0.08    0.15
  -3  -3 -12    0.17    0.25
   3   3  13    0.65    0.35
   3   3  13    0.68    0.36
   3   3  13    0.32    0.26
  -3  -3 -13    0.02    0.44
  -3  -3 -13    0.51    0.23
  -3  -3 -13   -0.00    0.24
  -3  -3 -13    0.60    0.23
  -3  -3 -13    0.75    0.36
   3   3  14    5.47    0.47
   3   3  14    5.60    0.50
   3   3  14    5.72    0.69
  -3  -3 -14    5.96    0.55
  -3  -3 -14    5.59    0.48
  -3  -3 -14    5.65    0.49
  -3  -3 -14    5.34    0.68
  -3  -3 -14    5.47    0.69
   3   4 -11    0.01    0.16
   3   4 -11   -0.01    0.18
   3   4 -11   -0.00    0.14
   3   4 -11   -0.04    0.16
  -3  -4  11    0.00    0.17
  -3  -4  11    0.04    0.14
  -3  -4  11    0.02    0.14
  -3  -4  11    0.00    0.15
   3   4 -10   -0.01    0.14
   3   4 -10    0.01    0.17
   3   4 -10   -0.01    0.13
   3   4 -10    0.05    0.14
  -3  -4  10   -0.01    0.16
  -3  -4  10    0.01    0.13
  -3  -4  10    0.06    0.22
  -3  -4  10   -0.00    0.22
   3   4  -9   -0.01    0.18
   3   4  -9    0.02    0.22
   3   4  -9    0.16    0.16
   3   4  -9    0.38    0.18
  -3  -4   9    0.23    0.16
  -3  -4   9    0.22    0.26
  -3  -4   9    0.01    0.17
  -3  -4   9   -0.01    0.19
   3   4  -8   -0.00    0.12
   3   4  -8   -0.00    0.14
   3   4  -8   -0.03    0.16
   3   4  -8   -0.03    0.12
  -3  -4   8   -0.01    0.12
  -3  -4   8    0.02    0.11
  -3  -4   8    0.08    0.12
  -3  -4   8    0.05    0.21
   3   4  -7    0.28    0.16
   3   4  -7    0.32    0.21
   3   4  -7    0.47    0.31
   3   4  -7    0.35    0.16
  -3  -4   7    0.31    0.25
  -3  -4   7    0.19    0.14
  -3  -4   7    0.20    0.25
  -3  -4   7    0.26    0.29
   3   4  -6    1.09    0.29
   3   4  -6    1.05    0.15
   3   4  -6    1.08    0.23
   3   4  -6    0.99    0.19
  -3  -4   6    1.09    0.18
  -3  -4   6    0.98    0.18
  -3  -4   6    1.11    0.15
  -3  -4   6    1.17    0.34
   3   4  -5    1.15    0.16
   3   4  -5    0.98    0.12
   3   4  -5    1.07    0.33
   3   4  -5    1.04    0.17
  -3  -4   5    1.23    0.17
  -3  -4   5    1.30    0.17
  -3  -4   5    1.06    0.13
  -3  -4   5    0.92    0.32
   3   4  -4    2.06    0.17
   3   4  -4    1.95    0.23
   3   4  -4    1.96    0.18
   3   4  -4    1.83    0.17
  -3  -4   4    1.99    0.17
  -3  -4   4    1.87    0.12
  -3  -4   4    1.93    0.17
  -3  -4   4    2.06    0.22
   3   4  -3    2.16    0.15
   3   4  -3    2.12    0.10
   3   4  -3    2.14    0.16
  -3  -4   3    2.06    0.23
  -3  -4   3    2.13    0.15
  -3  -4   3    2.10    0.23
  -3  -4   3    2.28    0.20
  -3  -4   3    2.22    0.22
   3   4  -2    1.50    0.07
   3   4  -2    1.51    0.13
  -3  -4   2    1.57    0.13
  -3  -4   2    1.62    0.10
  -3  -4   2    1.50    0.13
  -3  -4   2    1.65    0.18
  -3  -4   2    1.51    0.13
  -3  -4   2    1.84    0.29
   3   4  -1    0.12    0.07
   3   4  -1    0.10    0.03
  -3  -4   1    0.13    0.04
  -3  -4   1    0.08    0.11
  -3  -4   1    0.13    0.17
  -3  -4   1    0.10    0.07
  -3  -4   1    0.12    0.11
  -3  -4   1    0.06    0.11
   3   4   0    0.29    0.08
  -3  -4   0    0.02    0.12
  -3  -4   0    0.33    0.08
  -3  -4   0    0.38    0.12
  -3  -4   0    0.38    0.12
  -3  -4   0    0.25    0.12
   3   4   1    7.88    0.38
   3   4   1    7.38    0.20
  -3  -4  -1    7.46    0.20
  -3  -4  -1    7.50    0.39
  -3  -4  -1    7.64    0.20
  -3  -4  -1    7.43    0.20
   3   4   2    5.09    0.23
   3   4   2    4.79    0.22
   3   4   2    4.72    0.21
  -3  -4  -2    4.64    0.23
  -3  -4  -2    4.66    0.22
  -3  -4  -2    4.80    0.22
   3   4   3    5.90    0.18
   3   4   3    5.62    0.18
   3   4   3    5.91    0.25
  -3  -4  -3    5.94    0.09
  -3  -4  -3    5.90    0.26
  -3  -4  -3    5.63    0.18
  -3  -4  -3    5.55    0.08
  -3  -4  -3    5.95    0.18
   3   4   4    3.72    0.22
   3   4   4    3.55    0.15
   3   4   4    3.32    0.15
   3   4   4    3.37    0.11
  -3  -4  -4    3.29    0.15
  -3  -4  -4    3.46    0.22
  -3  -4  -4    3.42    0.10
  -3  -4  -4    3.40    0.15
   3   4   5    1.85    0.09
   3   4   5    2.04    0.28
   3   4   5    1.96    0.13
   3   4   5    1.88    0.13
  -3  -4  -5    1.98    0.19
  -3  -4  -5    1.91    0.13
  -3  -4  -5    1.90    0.12
  -3  -4  -5    2.03    0.13
   3   4   6    0.40    0.11
   3   4   6    0.41    0.21
   3   4   6    0.35    0.16
   3   4   6    0.05    0.10
  -3  -4  -6    0.39    0.14
  -3  -4  -6    0.39    0.11
  -3  -4  -6    0.42    0.10
  -3  -4  -6    0.40    0.16
  -3  -4  -6    0.39    0.10
   3   4   7    0.02    0.09
   3   4   7    0.02    0.05
   3   4   7   -0.05    0.11
  -3  -4  -7   -0.04    0.07
  -3  -4  -7   -0.01    0.07
  -3  -4  -7    0.02    0.09
  -3  -4  -7   -0.05    0.08
  -3  -4  -7    0.07    0.11
   3   4   8    2.14    0.25
   3   4   8    2.39    0.17
   3   4   8    2.10    0.20
  -3  -4  -8    2.13    0.19
  -3  -4  -8    2.34    0.26
  -3  -4  -8    2.34    0.20
  -3  -4  -8    2.11    0.16
  -3  -4  -8    2.04    0.20
   3   4   9   -0.03    0.21
   3   4   9    0.02    0.09
   3   4   9    0.02    0.11
  -3  -4  -9   -0.02    0.10
  -3  -4  -9    0.01    0.14
  -3  -4  -9    0.01    0.11
  -3  -4  -9    0.00    0.09
  -3  -4  -9    0.10    0.10
   3   4  10    2.61    0.30
   3   4  10    2.73    0.23
   3   4  10    2.31    0.25
  -3  -4 -10    2.32    0.24
  -3  -4 -10    2.29    0.30
  -3  -4 -10    2.45    0.25
  -3  -4 -10    2.60    0.34
  -3  -4 -10    2.63    0.25
   3   4  11    0.57    0.30
   3   4  11    0.73    0.25
   3   4  11    0.61    0.34
  -3  -4 -11    0.69    0.25
  -3  -4 -11    0.68    0.22
  -3  -4 -11    0.54    0.30
  -3  -4 -11    2.59    0.34
   3   4  12    0.16    0.26
   3   4  12    0.22    0.24
   3   4  12    0.07    0.31
  -3  -4 -12    0.11    0.20
  -3  -4 -12   -0.00    0.27
  -3  -4 -12    0.08    0.16
  -3  -4 -12    0.14    0.26
   3   4  13   -0.07    0.12
   3   4  13   -0.06    0.24
   3   4  13   -0.00    0.20
  -3  -4 -13    0.01    0.15
  -3  -4 -13    0.06    0.13
  -3  -4 -13   -0.01    0.13
  -3  -4 -13   -0.06    0.12
  -3  -4 -13    0.33    0.20
   3   4  14    0.33    0.26
   3   4  14    2.26    0.45
   3   4  14    0.24    0.45
  -3  -4 -14    0.03    0.52
  -3  -4 -14    0.77    0.29
  -3  -4 -14   -0.00    0.29
  -3  -4 -14    0.47    0.42
  -3  -4 -14    2.67    0.46
   3   5 -11    0.01    0.25
   3   5 -11    1.12    0.31
  -3  -5  11    0.03    0.28
  -3  -5  11    0.86    0.28
  -3  -5  11   -0.00    0.29
  -3  -5  11    0.75    0.26
   3   5 -10   -0.03    0.18
   3   5 -10   -0.08    0.21
   3   5 -10    0.02    0.24
  -3  -5  10    0.01    0.19
  -3  -5  10    0.00    0.17
   3   5  -9    2.75    0.34
   3   5  -9    2.85    0.29
   3   5  -9    0.01    0.60
   3   5  -9    2.99    0.35
  -3  -5   9    2.95    0.48
  -3  -5   9    0.01    0.49
  -3  -5   9    3.12    0.46
  -3  -5   9    3.12    0.37
   3   5  -8    0.01    0.13
   3   5  -8   -0.01    0.11
   3   5  -8    0.00    0.16
   3   5  -8   -0.05    0.13
  -3  -5   8   -0.04    0.13
  -3  -5   8   -0.02    0.13
  -3  -5   8   -0.00    0.18
  -3  -5   8    0.01    0.15
   3   5  -7    0.25    0.16
   3   5  -7    0.24    0.20
   3   5  -7    0.03    0.20
   3   5  -7    0.22    0.16
  -3  -5   7    0.17    0.16
  -3  -5   7    0.16    0.16
  -3  -5   7    0.15    0.21
  -3  -5   7    0.19    0.29
   3   5  -6    0.23    0.25
   3   5  -6    0.16    0.18
   3   5  -6    0.36    0.19
   3   5  -6    0.28    0.25
  -3  -5   6    0.20    0.15
  -3  -5   6    0.24    0.16
  -3  -5   6    0.15    0.19
  -3  -5   6    0.30    0.29
   3   5  -5   -0.02    0.10
   3   5  -5    0.05    0.07
   3   5  -5   -0.01    0.13
   3   5  -5    0.04    0.10
  -3  -5   5    0.01    0.10
  -3  -5   5    0.02    0.10
  -3  -5   5    0.03    0.08
  -3  -5   5   -0.05    0.13
   3   5  -4    0.16    0.11
   3   5  -4    0.09    0.07
   3   5  -4    0.04    0.15
   3   5  -4    0.15    0.11
  -3  -5   4    0.17    0.12
  -3  -5   4    0.11    0.11
  -3  -5   4    0.10    0.14
  -3  -5   4    0.12    0.08
   3   5  -3    4.35    0.20
   3   5  -3    4.27    0.23
  -3  -5   3    4.23    0.23
  -3  -5   3    4.40    0.22
  -3  -5   3    4.19    0.15
  -3  -5   3    4.21    0.40
  -3  -5   3    4.32    0.23
  -3  -5   3    4.37    0.28
   3   5  -2    0.41    0.08
   3   5  -2    0.39    0.11
  -3  -5   2    0.34    0.17
  -3  -5   2    0.31    0.05
  -3  -5   2    0.38    0.17
  -3  -5   2   -0.02    0.11
  -3  -5   2    0.35    0.15
  -3  -5   2    0.32    0.22
   3   5  -1    0.57    0.06
   3   5  -1    0.59    0.18
  -3  -5   1    0.57    0.04
  -3  -5   1    0.65    0.11
  -3  -5   1    0.56    0.24
  -3  -5   1    0.00    0.18
  -3  -5   1    0.61    0.16
  -3  -5   1    0.68    0.11
   3   5   0    1.18    0.13
  -3  -5   0    1.16    0.18
  -3  -5   0    1.28    0.17
  -3  -5   0    1.19    0.12
  -3  -5   0    1.17    0.17
  -3  -5   0    1.17    0.12
   3   5   1    5.27    0.25
   3   5   1    5.34    0.20
  -3  -5  -1    5.14    0.26
  -3  -5  -1    5.30    0.20
  -3  -5  -1    5.62    0.39
  -3  -5  -1    5.22    0.27
   3   5   2    1.06    0.24
   3   5   2    0.78    0.17
   3   5   2    0.92    0.11
  -3  -5  -2    0.96    0.16
  -3  -5  -2    0.98    0.17
  -3  -5  -2    1.04    0.11
   3   5   3    0.15    0.11
   3   5   3    0.11    0.12
   3   5   3    0.06    0.07
  -3  -5  -3    0.16    0.18
  -3  -5  -3    0.13    0.12
  -3  -5  -3    0.16    0.07
   3   5   4    0.01    0.02
   3   5   4   -0.03    0.13
   3   5   4   -0.06    0.09
   3   5   4    0.03    0.06
  -3  -5  -4    0.02    0.03
  -3  -5  -4    0.10    0.08
  -3  -5  -4    0.01    0.09
  -3  -5  -4   -0.05    0.06
   3   5   5    0.54    0.16
   3   5   5    0.33    0.07
   3   5   5    0.54    0.22
   3   5   5    0.46    0.15
  -3  -5  -5    0.36    0.22
  -3  -5  -5    0.00    0.15
  -3  -5  -5    0.38    0.16
  -3  -5  -5    0.37    0.05
   3   5   6    0.66    0.26
   3   5   6    0.78    0.12
   3   5   6    0.65    0.07
   3   5   6    0.68    0.12
  -3  -5  -6    0.75    0.17
  -3  -5  -6    0.71    0.12
  -3  -5  -6    0.80    0.13
  -3  -5  -6    0.63    0.11
   3   5   7    0.36    0.26
   3   5   7    0.55    0.13
   3   5   7    0.40    0.12
   3   5   7    0.39    0.09
  -3  -5  -7    0.29    0.17
  -3  -5  -7    0.26    0.20
  -3  -5  -7    0.48    0.13
   3   5   8    3.35    0.28
   3   5   8    3.12    0.22
   3   5   8    3.14    0.17
  -3  -5  -8    2.96    0.22
  -3  -5  -8    2.88    0.41
  -3  -5  -8    3.18    0.23
  -3  -5  -8    3.17    0.17
  -3  -5  -8    3.13    0.23
   3   5   9    1.72    0.25
   3   5   9    1.56    0.31
   3   5   9    1.59    0.16
  -3  -5  -9    1.60    0.21
  -3  -5  -9    1.36    0.39
  -3  -5  -9    1.45    0.21
  -3  -5  -9    1.65    0.32
  -3  -5  -9    1.39    0.16
   3   5  10   -0.08    0.12
   3   5  10   -0.02    0.10
   3   5  10    0.13    0.12
  -3  -5 -10    0.00    0.09
  -3  -5 -10   -0.03    0.19
  -3  -5 -10    0.01    0.10
  -3  -5 -10   -0.01    0.10
  -3  -5 -10    0.00    0.08
   3   5  11    0.11    0.24
   3   5  11    0.03    0.17
   3   5  11    0.03    0.21
  -3  -5 -11    0.01    0.25
  -3  -5 -11    0.09    0.21
  -3  -5 -11    0.03    0.21
  -3  -5 -11   -0.02    0.11
   3   5  12   -0.05    0.17
   3   5  12    0.30    0.22
   3   5  12   -0.01    0.13
  -3  -5 -12    0.08    0.28
  -3  -5 -12    0.01    0.24
  -3  -5 -12   -0.02    0.23
  -3  -5 -12    0.05    0.13
   3   5  13    0.13    0.21
   3   5  13    0.15    0.16
   3   5  13    0.20    0.17
  -3  -5 -13   -0.00    0.22
  -3  -5 -13   -0.00    0.18
  -3  -5 -13    0.02    0.17
  -3  -5 -13    0.01    0.16
   3   5  14    0.87    0.36
   3   5  14    0.47    0.26
   3   5  14    0.71    0.24
  -3  -5 -14   -0.03    0.29
  -3  -5 -14    0.52    0.26
  -3  -5 -14    0.14    0.25
  -3  -5 -14    0.33    0.23
  -3  -5 -14    0.00    0.26
   3   6 -10   -0.02    0.16
   3   6 -10   -0.02    0.21
  -3  -6  10   -0.02    0.18
  -3  -6  10    0.18    0.18
  -3  -6  10    0.05    0.17
  -3  -6  10    0.01    0.18
   3   6  -9   -0.04    0.20
  -3  -6   9    0.01    0.16
  -3  -6   9    0.05    0.15
  -3  -6   9   -0.00    0.18
   3   6  -8    0.01    0.19
   3   6  -8    0.18    0.23
   3   6  -8    0.04    0.22
   3   6  -8   -0.02    0.19
  -3  -6   8    0.29    0.18
  -3  -6   8    0.01    0.18
  -3  -6   8    0.31    0.16
  -3  -6   8    0.01    0.20
   3   6  -7    0.01    0.13
   3   6  -7    0.02    0.10
   3   6  -7   -0.05    0.24
   3   6  -7   -0.00    0.13
  -3  -6   7    0.01    0.19
  -3  -6   7    0.02    0.10
  -3  -6   7   -0.04    0.20
  -3  -6   7    0.03    0.15
   3   6  -6    0.21    0.26
   3   6  -6    0.28    0.12
   3   6  -6   -0.01    0.21
   3   6  -6    0.10    0.27
  -3  -6   6    0.11    0.26
  -3  -6   6    0.31    0.26
  -3  -6   6    0.22    0.13
  -3  -6   6    0.25    0.30
   3   6  -5    0.27    0.16
   3   6  -5    0.36    0.17
   3   6  -5    0.20    0.20
   3   6  -5    0.27    0.16
  -3  -6   5    0.29    0.16
  -3  -6   5    0.25    0.11
  -3  -6   5    0.34    0.16
  -3  -6   5    0.24    0.19
   3   6  -4    6.92    0.24
   3   6  -4    7.09    0.48
  -3  -6   4    6.86    0.46
  -3  -6   4    6.82    0.25
  -3  -6   4    6.83    0.33
  -3  -6   4    6.88    0.38
  -3  -6   4    7.14    0.39
   3   6  -3    5.05    0.17
   3   6  -3    5.19    0.40
  -3  -6   3    4.73    0.38
  -3  -6   3    4.86    0.38
  -3  -6   3    5.32    0.33
  -3  -6   3    5.00    0.39
  -3  -6   3    5.23    0.26
  -3  -6   3    5.10    0.33
   3   6  -2    1.12    0.08
   3   6  -2    0.98    0.25
  -3  -6   2    1.22    0.16
  -3  -6   2    0.75    0.25
  -3  -6   2    1.16    0.21
  -3  -6   2    1.04    0.12
  -3  -6   2    1.38    0.20
  -3  -6   2    1.12    0.16
   3   6  -1    1.91    0.07
   3   6  -1    1.86    0.10
   3   6  -1    1.80    0.17
  -3  -6   1    1.89    0.17
  -3  -6   1    2.09    0.17
  -3  -6   1    2.06    0.22
  -3  -6   1    2.11    0.34
  -3  -6   1    1.97    0.17
   3   6   0    0.73    0.05
   3   6   0    0.83    0.05
   3   6   0    0.91    0.14
  -3  -6   0    0.86    0.13
  -3  -6   0    0.96    0.17
  -3  -6   0    0.92    0.17
  -3  -6   0    0.92    0.13
   3   6   1   11.26    0.34
  -3  -6  -1   11.42    0.44
  -3  -6  -1   11.58    0.41
  -3  -6  -1   11.39    0.35
  -3  -6  -1   11.11    0.44
   3   6   2    9.95    0.30
   3   6   2   10.38    0.37
   3   6   2    9.67    0.30
  -3  -6  -2   10.01    0.36
  -3  -6  -2    9.79    0.31
  -3  -6  -2    9.62    0.31
   3   6   3    3.22    0.23
   3   6   3    3.37    0.18
   3   6   3    3.13    0.26
  -3  -6  -3    3.43    0.24
  -3  -6  -3    3.13    0.26
  -3  -6  -3    3.25    0.19
   3   6   4    0.32    0.22
   3   6   4    0.37    0.17
   3   6   4    0.38    0.04
   3   6   4    0.42    0.11
  -3  -6  -4    0.38    0.23
  -3  -6  -4    0.34    0.04
  -3  -6  -4   -0.00    0.17
  -3  -6  -4    0.42    0.17
   3   6   5   -0.03    0.10
   3   6   5    0.01    0.08
   3   6   5    0.04    0.04
   3   6   5   -0.00    0.07
  -3  -6  -5    0.03    0.03
  -3  -6  -5   -0.09    0.10
  -3  -6  -5    0.00    0.08
  -3  -6  -5   -0.02    0.08
   3   6   6    0.06    0.10
   3   6   6   -0.03    0.12
   3   6   6   -0.04    0.07
   3   6   6    0.02    0.06
  -3  -6  -6    0.14    0.15
  -3  -6  -6   -0.00    0.07
  -3  -6  -6   -0.02    0.12
  -3  -6  -6    0.01    0.06
   3   6   7    0.02    0.13
   3   6   7    0.10    0.11
   3   6   7    0.13    0.10
   3   6   7    0.11    0.07
  -3  -6  -7    0.07    0.14
  -3  -6  -7    0.11    0.11
  -3  -6  -7    0.10    0.11
  -3  -6  -7    0.07    0.06
   3   6   8    0.64    0.32
   3   6   8    1.02    0.27
   3   6   8    0.90    0.16
   3   6   8    0.94    0.11
  -3  -6  -8    0.78    0.21
  -3  -6  -8    0.90    0.27
  -3  -6  -8    1.10    0.27
  -3  -6  -8    0.72    0.11
   3   6   9    0.02    0.15
   3   6   9    0.00    0.19
   3   6   9    0.10    0.09
  -3  -6  -9    0.01    0.19
  -3  -6  -9    0.02    0.16
  -3  -6  -9    0.06    0.19
  -3  -6  -9    0.11    0.20
  -3  -6  -9    0.03    0.14
   3   6  10    2.04    0.44
   3   6  10    1.98    0.24
   3   6  10    2.23    0.29
  -3  -6 -10    2.05    0.31
  -3  -6 -10    1.77    0.38
  -3  -6 -10    2.19    0.25
  -3  -6 -10    2.06    0.19
   3   6  11    0.81    0.31
   3   6  11    0.77    0.24
   3   6  11    0.40    0.17
  -3  -6 -11    0.49    0.25
  -3  -6 -11    0.58    0.31
  -3  -6 -11    0.64    0.20
  -3  -6 -11    0.61    0.17
   3   6  12    0.21    0.20
   3   6  12   -0.13    0.27
   3   6  12    0.09    0.14
  -3  -6 -12    0.11    0.21
  -3  -6 -12    0.01    0.28
  -3  -6 -12   -0.02    0.28
  -3  -6 -12    0.21    0.15
   3   6  13    0.30    0.38
   3   6  13    0.14    0.28
   3   6  13    0.07    0.21
  -3  -6 -13    0.20    0.25
  -3  -6 -13   -0.00    0.21
  -3  -6 -13    0.42    0.21
  -3  -6 -13    0.32    0.18
   3   6  14    0.17    0.36
   3   6  14    0.08    0.19
   3   6  14    0.17    0.21
  -3  -6 -14    0.25    0.41
  -3  -6 -14    0.00    0.23
  -3  -6 -14    0.14    0.23
  -3  -6 -14    0.30    0.19
   3   7  -9    0.03    0.28
   3   7  -9    0.04    0.41
  -3  -7   9    0.57    0.21
  -3  -7   9    0.03    0.19
  -3  -7   9    0.01    0.22
  -3  -7   9    0.00    0.22
   3   7  -8    0.44    0.17
   3   7  -8    0.01    0.25
  -3  -7   8    0.53    0.21
  -3  -7   8    0.00    0.18
  -3  -7   8    0.01    0.21
  -3  -7   8    0.02    0.23
   3   7  -7    0.01    0.16
   3   7  -7    0.01    0.18
   3   7  -7    0.05    0.19
   3   7  -7    0.01    0.16
  -3  -7   7   -0.02    0.15
  -3  -7   7    0.10    0.12
  -3  -7   7   -0.00    0.16
  -3  -7   7    0.21    0.27
   3   7  -6    3.51    0.32
   3   7  -6    3.19    0.24
   3   7  -6    3.22    0.32
  -3  -7   6    3.25    0.31
  -3  -7   6    3.22    0.36
  -3  -7   6    3.42    0.32
  -3  -7   6    3.56    0.53
   3   7  -5    0.27    0.12
   3   7  -5    0.25    0.18
  -3  -7   5    0.15    0.28
  -3  -7   5    0.33    0.27
  -3  -7   5    0.23    0.19
  -3  -7   5    0.29    0.13
  -3  -7   5    0.30    0.32
   3   7  -4    2.17    0.23
   3   7  -4    2.23    0.25
  -3  -7   4    1.98    0.37
  -3  -7   4    2.02    0.37
  -3  -7   4    1.88    0.39
  -3  -7   4    2.20    0.25
  -3  -7   4    2.36    0.29
  -3  -7   4    2.10    0.42
   3   7  -3    0.15    0.07
   3   7  -3    0.10    0.14
  -3  -7   3    0.15    0.13
  -3  -7   3    0.03    0.13
  -3  -7   3    0.05    0.16
  -3  -7   3    0.08    0.14
  -3  -7   3   -0.00    0.16
  -3  -7   3    0.10    0.12
   3   7  -2    3.98    0.19
   3   7  -2    3.80    0.14
   3   7  -2    4.01    0.27
  -3  -7   2    4.21    0.31
  -3  -7   2    4.03    0.26
  -3  -7   2    4.15    0.27
  -3  -7   2    4.15    0.31
  -3  -7   2    4.03    0.26
   3   7  -1    0.06    0.04
   3   7  -1    0.04    0.06
   3   7  -1    0.12    0.11
  -3  -7   1    0.14    0.11
  -3  -7   1    0.12    0.11
  -3  -7   1   -0.04    0.13
  -3  -7   1    0.06    0.14
  -3  -7   1    0.05    0.11
   3   7   0    5.91    0.15
   3   7   0    6.08    0.13
   3   7   0    6.57    0.41
  -3  -7   0    6.71    0.40
  -3  -7   0    6.67    0.41
  -3  -7   0    6.34    0.48
  -3  -7   0    6.53    0.32
  -3  -7   0    6.79    0.41
   3   7   1    5.66    0.11
   3   7   1    5.76    0.10
   3   7   1    6.62    0.29
  -3  -7  -1    6.23    0.28
  -3  -7  -1    6.59    0.49
  -3  -7  -1    6.53    0.29
  -3  -7  -1    6.69    0.34
  -3  -7  -1    6.39    0.28
   3   7   2    5.25    0.30
   3   7   2    5.33    0.25
   3   7   2    5.86    0.37
  -3  -7  -2    5.25    0.30
  -3  -7  -2    5.38    0.37
  -3  -7  -2    5.24    0.26
   3   7   3    3.31    0.07
   3   7   3    3.37    0.06
   3   7   3    3.88    0.39
   3   7   3    3.73    0.22
   3   7   3    4.11    0.22
  -3  -7  -3    3.74    0.27
  -3  -7  -3    3.99    0.23
  -3  -7  -3    3.92    0.23
   3   7   4    1.03    0.06
   3   7   4    1.11    0.19
   3   7   4    1.05    0.24
   3   7   4    1.09    0.15
  -3  -7  -4   -0.00    0.24
  -3  -7  -4    1.10    0.20
  -3  -7  -4    0.90    0.06
  -3  -7  -4    1.10    0.15
   3   7   5    0.01    0.04
   3   7   5   -0.04    0.09
   3   7   5   -0.00    0.07
   3   7   5    0.03    0.08
  -3  -7  -5    0.00    0.04
  -3  -7  -5   -0.08    0.10
  -3  -7  -5    0.00    0.08
  -3  -7  -5   -0.10    0.08
   3   7   6    0.07    0.04
   3   7   6    0.09    0.16
   3   7   6    0.08    0.10
   3   7   6    0.06    0.13
  -3  -7  -6    0.03    0.07
  -3  -7  -6   -0.03    0.13
  -3  -7  -6    0.04    0.16
  -3  -7  -6   -0.00    0.10
   3   7   7    1.18    0.15
   3   7   7    0.98    0.22
   3   7   7    1.20    0.17
   3   7   7    1.09    0.27
  -3  -7  -7    1.11    0.15
  -3  -7  -7    0.90    0.21
  -3  -7  -7    1.12    0.28
   3   7   8    0.03    0.14
   3   7   8   -0.05    0.19
   3   7   8    0.14    0.18
   3   7   8    0.07    0.07
  -3  -7  -8    0.08    0.23
  -3  -7  -8    0.14    0.19
  -3  -7  -8    0.03    0.19
  -3  -7  -8    0.06    0.07
   3   7   9    0.61    0.18
   3   7   9    0.65    0.20
   3   7   9    0.13    0.17
   3   7   9    0.47    0.18
  -3  -7  -9    0.52    0.32
  -3  -7  -9    0.56    0.28
  -3  -7  -9    0.61    0.18
  -3  -7  -9    0.48    0.18
   3   7  10    0.19    0.19
   3   7  10    0.28    0.17
   3   7  10    0.22    0.12
  -3  -7 -10    0.13    0.31
  -3  -7 -10    0.15    0.26
  -3  -7 -10    0.17    0.17
  -3  -7 -10    0.21    0.12
   3   7  11   -0.02    0.11
   3   7  11    0.21    0.13
   3   7  11   -0.04    0.08
  -3  -7 -11   -0.11    0.20
  -3  -7 -11    0.12    0.17
  -3  -7 -11   -0.05    0.11
  -3  -7 -11   -0.04    0.12
   3   7  12    0.90    0.47
   3   7  12    1.51    0.25
   3   7  12    0.98    0.32
  -3  -7 -12    1.09    0.30
  -3  -7 -12    1.19    0.41
  -3  -7 -12    1.32    0.25
  -3  -7 -12    0.93    0.21
   3   7  13    0.75    0.28
   3   7  13    0.85    0.24
   3   7  13    0.57    0.20
  -3  -7 -13    0.60    0.29
  -3  -7 -13   -0.00    0.25
  -3  -7 -13    0.65    0.25
  -3  -7 -13    0.42    0.20
   3   7  14    0.08    0.21
   3   7  14    0.12    0.20
   3   7  14    0.60    0.26
  -3  -7 -14   -0.11    0.24
  -3  -7 -14   -0.00    0.21
  -3  -7 -14    0.02    0.20
  -3  -7 -14    0.08    0.17
   3   8  -8    0.02    0.16
   3   8  -8    0.01    0.12
   3   8  -8   -0.02    0.17
  -3  -8   8   -0.02    0.14
  -3  -8   8   -0.01    0.15
  -3  -8   8   -0.00    0.13
  -3  -8   8   -0.01    0.24
   3   8  -7   -0.05    0.11
   3   8  -7    0.03    0.15
  -3  -8   7    0.08    0.14
  -3  -8   7   -0.01    0.14
  -3  -8   7   -0.08    0.15
  -3  -8   7    0.00    0.12
  -3  -8   7   -0.02    0.25
   3   8  -6    0.74    0.18
   3   8  -6   -0.04    0.25
  -3  -8   6    1.00    0.24
  -3  -8   6    0.76    0.24
  -3  -8   6    0.95    0.26
  -3  -8   6   -0.00    0.27
  -3  -8   6    0.82    0.41
   3   8  -5    0.19    0.12
   3   8  -5    0.02    0.29
  -3  -8   5    0.31    0.18
  -3  -8   5    0.38    0.18
  -3  -8   5   -0.00    0.13
  -3  -8   5    0.54    0.31
  -3  -8   5    0.41    0.32
   3   8  -4    0.68    0.12
   3   8  -4    0.65    0.21
  -3  -8   4    0.67    0.21
  -3  -8   4   -0.00    0.14
  -3  -8   4    0.87    0.21
  -3  -8   4    0.95    0.23
  -3  -8   4    0.72    0.35
   3   8  -3    0.86    0.11
   3   8  -3    0.95    0.12
   3   8  -3    0.78    0.22
  -3  -8   3    0.84    0.21
  -3  -8   3    0.90    0.21
  -3  -8   3    0.87    0.24
  -3  -8   3    0.87    0.22
  -3  -8   3    0.95    0.37
   3   8  -2    0.71    0.14
   3   8  -2    0.43    0.14
   3   8  -2    0.58    0.31
  -3  -8   2    0.78    0.19
  -3  -8   2    0.71    0.34
  -3  -8   2    0.48    0.30
  -3  -8   2    0.86    0.35
  -3  -8   2    0.84    0.19
   3   8  -1    1.18    0.09
   3   8  -1    1.32    0.13
   3   8  -1    1.07    0.32
  -3  -8   1    0.96    0.31
  -3  -8   1    1.40    0.20
  -3  -8   1    1.32    0.24
  -3  -8   1    1.49    0.37
  -3  -8   1    1.51    0.20
   3   8   0   12.04    0.24
   3   8   0   12.37    0.29
   3   8   0   13.10    0.61
  -3  -8   0   12.31    0.60
  -3  -8   0   12.87    0.66
  -3  -8   0   13.14    0.52
  -3  -8   0   12.56    0.59
  -3  -8   0   13.14    0.60
   3   8   1    1.45    0.09
   3   8   1    1.75    0.23
   3   8   1    1.60    0.09
  -3  -8  -1    1.77    0.21
  -3  -8  -1    1.88    0.22
  -3  -8  -1    1.83    0.24
  -3  -8  -1    1.78    0.22
   3   8   2   84.22    1.92
   3   8   2   73.58    1.24
   3   8   2   83.83    1.90
   3   8   2   74.50    1.26
  -3  -8  -2   81.72    1.81
  -3  -8  -2   84.23    1.93
  -3  -8  -2   84.04    1.87
  -3  -8  -2   81.66    1.83
   3   8   3    6.51    0.47
   3   8   3    5.81    0.35
   3   8   3    6.37    0.46
  -3  -8  -3    6.35    0.36
  -3  -8  -3    6.49    0.48
  -3  -8  -3    6.32    0.48
   3   8   4    9.05    0.20
   3   8   4    8.66    0.19
   3   8   4   10.07    0.42
   3   8   4    9.62    0.37
   3   8   4    9.25    0.36
  -3  -8  -4    9.50    0.37
  -3  -8  -4    9.79    0.42
  -3  -8  -4    9.79    0.38
   3   8   5    0.10    0.12
   3   8   5    0.09    0.06
   3   8   5    0.18    0.15
   3   8   5    0.15    0.19
  -3  -8  -5    0.22    0.25
  -3  -8  -5    0.16    0.06
  -3  -8  -5   -0.01    0.20
  -3  -8  -5    0.20    0.13
   3   8   6    0.01    0.06
   3   8   6    0.06    0.15
   3   8   6    0.13    0.11
   3   8   6   -0.02    0.09
  -3  -8  -6   -0.04    0.12
  -3  -8  -6   -0.02    0.09
  -3  -8  -6    0.00    0.04
  -3  -8  -6    0.03    0.15
   3   8   7    8.57    0.30
   3   8   7    8.74    0.43
   3   8   7    8.85    0.38
  -3  -8  -7    8.46    0.24
  -3  -8  -7    8.44    0.43
  -3  -8  -7    8.19    0.38
  -3  -8  -7    8.54    0.52
   3   8   8    0.53    0.10
   3   8   8    0.66    0.29
   3   8   8    0.60    0.22
   3   8   8    0.57    0.27
  -3  -8  -8    0.80    0.16
  -3  -8  -8    0.80    0.21
  -3  -8  -8   -0.01    0.29
  -3  -8  -8    0.85    0.29
   3   8   9    0.17    0.13
   3   8   9    0.05    0.25
   3   8   9    0.13    0.22
   3   8   9    0.04    0.15
  -3  -8  -9    0.01    0.14
  -3  -8  -9    0.01    0.16
  -3  -8  -9    0.15    0.23
  -3  -8  -9    0.11    0.14
   3   8  10   -0.09    0.12
   3   8  10    0.01    0.10
   3   8  10    0.00    0.07
  -3  -8 -10   -0.01    0.11
  -3  -8 -10    0.00    0.12
  -3  -8 -10    0.03    0.10
  -3  -8 -10    0.02    0.11
   3   8  11    0.92    0.36
   3   8  11   -0.01    0.20
   3   8  11    0.42    0.22
  -3  -8 -11   -0.01    0.24
  -3  -8 -11    0.63    0.20
  -3  -8 -11    0.89    0.20
  -3  -8 -11    0.01    0.14
   3   8  12    0.03    0.19
   3   8  12   -0.02    0.17
   3   8  12    0.01    0.13
  -3  -8 -12    0.00    0.19
  -3  -8 -12    0.11    0.27
  -3  -8 -12    0.31    0.17
  -3  -8 -12   -0.02    0.20
   3   8  13    0.15    0.23
   3   8  13    0.15    0.21
   3   8  13    0.07    0.25
  -3  -8 -13    0.03    0.22
  -3  -8 -13    0.04    0.33
  -3  -8 -13    0.29    0.20
  -3  -8 -13    0.01    0.26
   3   9  -7    0.21    0.16
  -3  -9   7    0.05    0.21
  -3  -9   7    0.01    0.21
  -3  -9   7   -0.07    0.24
  -3  -9   7    0.24    0.26
  -3  -9   7    0.01    0.33
   3   9  -6    0.01    0.18
   3   9  -6   -0.01    0.18
  -3  -9   6    0.04    0.16
  -3  -9   6    0.00    0.13
  -3  -9   6    0.05    0.16
  -3  -9   6    0.03    0.17
  -3  -9   6    0.02    0.17
   3   9  -5    0.25    0.14
   3   9  -5   -0.01    0.22
  -3  -9   5    0.43    0.20
  -3  -9   5   -0.00    0.15
  -3  -9   5    0.22    0.20
  -3  -9   5    0.44    0.22
  -3  -9   5    0.37    0.22
   3   9  -4    0.02    0.13
   3   9  -4    0.00    0.09
   3   9  -4   -0.01    0.23
  -3  -9   4    0.09    0.14
  -3  -9   4   -0.01    0.14
  -3  -9   4    0.12    0.24
  -3  -9   4    0.00    0.16
   3   9  -3    0.66    0.18
   3   9  -3    0.73    0.12
   3   9  -3    0.03    0.23
  -3  -9   3    0.76    0.21
  -3  -9   3    0.61    0.22
  -3  -9   3    0.82    0.24
  -3  -9   3    0.77    0.24
   3   9  -2    0.45    0.10
   3   9  -2    0.60    0.15
   3   9  -2    0.52    0.20
  -3  -9   2    0.41    0.20
  -3  -9   2    0.43    0.20
  -3  -9   2    0.48    0.22
  -3  -9   2    0.64    0.34
  -3  -9   2    0.51    0.20
   3   9  -1    0.90    0.09
   3   9  -1    0.79    0.09
   3   9  -1    0.87    0.22
  -3  -9   1    1.04    0.21
  -3  -9   1    0.71    0.22
  -3  -9   1    0.73    0.21
  -3  -9   1    0.78    0.37
  -3  -9   1    0.94    0.21
   3   9   0    0.22    0.09
   3   9   0    0.21    0.16
   3   9   0   -0.00    0.09
  -3  -9   0    0.27    0.15
  -3  -9   0    0.28    0.18
  -3  -9   0    0.27    0.16
  -3  -9   0    0.24    0.28
  -3  -9   0    0.19    0.15
   3   9   1    2.04    0.13
   3   9   1    2.04    0.09
   3   9   1    2.31    0.26
  -3  -9  -1    2.21    0.25
  -3  -9  -1    2.32    0.28
  -3  -9  -1    2.32    0.28
  -3  -9  -1    2.30    0.36
  -3  -9  -1    2.32    0.38
   3   9   2    0.58    0.08
   3   9   2    0.51    0.18
   3   9   2    0.19    0.07
  -3  -9  -2    0.60    0.17
  -3  -9  -2    0.64    0.18
  -3  -9  -2    0.54    0.20
  -3  -9  -2    0.78    0.21
  -3  -9  -2    0.48    0.18
   3   9   3    0.02    0.05
   3   9   3   -0.08    0.11
   3   9   3   -0.00    0.13
   3   9   3   -0.06    0.18
  -3  -9  -3    0.07    0.18
  -3  -9  -3    0.06    0.13
  -3  -9  -3    0.10    0.11
   3   9   4    1.67    0.11
   3   9   4    1.68    0.38
   3   9   4    1.69    0.23
   3   9   4    1.65    0.07
   3   9   4    1.87    0.22
  -3  -9  -4    1.89    0.26
  -3  -9  -4    1.83    0.22
  -3  -9  -4    1.98    0.23
   3   9   5    0.56    0.27
   3   9   5    0.08    0.31
   3   9   5    0.49    0.17
  -3  -9  -5    0.59    0.20
  -3  -9  -5    0.49    0.18
  -3  -9  -5    0.48    0.09
  -3  -9  -5    0.50    0.27
   3   9   6    1.30    0.08
   3   9   6    0.42    0.37
   3   9   6    1.40    0.33
   3   9   6    1.25    0.21
  -3  -9  -6    1.32    0.39
  -3  -9  -6    1.35    0.13
  -3  -9  -6    1.72    0.22
  -3  -9  -6    1.61    0.33
   3   9   7    0.00    0.04
   3   9   7    0.04    0.11
   3   9   7   -0.05    0.16
   3   9   7   -0.07    0.16
  -3  -9  -7    0.01    0.16
  -3  -9  -7   -0.01    0.18
  -3  -9  -7    0.02    0.07
  -3  -9  -7   -0.04    0.17
   3   9   8    3.93    0.18
   3   9   8    4.26    0.36
   3   9   8    4.11    0.45
   3   9   8    3.76    0.30
  -3  -9  -8    3.82    0.25
  -3  -9  -8    4.18    0.51
  -3  -9  -8    3.92    0.31
  -3  -9  -8    4.42    0.47
   3   9   9    0.00    0.11
   3   9   9    0.04    0.15
   3   9   9   -0.01    0.13
   3   9   9    0.04    0.14
  -3  -9  -9    0.06    0.08
  -3  -9  -9    0.00    0.15
  -3  -9  -9   -0.01    0.13
  -3  -9  -9    0.04    0.14
   3   9  10    0.00    0.09
   3   9  10   -0.05    0.27
   3   9  10    0.18    0.15
   3   9  10    0.01    0.15
  -3  -9 -10    0.10    0.10
  -3  -9 -10    0.02    0.17
  -3  -9 -10    0.09    0.16
  -3  -9 -10    0.04    0.15
   3   9  11    0.01    0.25
   3   9  11    0.15    0.18
   3   9  11   -0.00    0.11
  -3  -9 -11    0.16    0.17
  -3  -9 -11    0.03    0.29
  -3  -9 -11   -0.01    0.16
  -3  -9 -11    0.10    0.26
   3   9  12    0.49    0.22
   3   9  12    0.01    0.20
   3   9  12   -0.00    0.15
  -3  -9 -12    0.04    0.15
  -3  -9 -12   -0.01    0.35
  -3  -9 -12    0.31    0.21
  -3  -9 -12    0.55    0.20
   3   9  13    1.41    0.49
   3   9  13    1.30    0.21
   3   9  13   -0.00    0.27
  -3  -9 -13    0.01    0.22
  -3  -9 -13    0.05    0.29
  -3  -9 -13    1.22    0.29
  -3  -9 -13    0.88    0.28
   3  10  -6    0.16    0.17
   3  10  -6    0.25    0.16
   3  10  -6   -0.02    0.44
  -3 -10   6    0.23    0.23
  -3 -10   6    0.21    0.25
  -3 -10   6    0.12    0.27
  -3 -10   6    0.36    0.25
   3  10  -5    0.03    0.17
   3  10  -5    0.04    0.17
   3  10  -5   -0.00    0.18
  -3 -10   5    0.05    0.16
  -3 -10   5   -0.13    0.16
  -3 -10   5    0.02    0.17
  -3 -10   5    0.14    0.17
   3  10  -4    0.31    0.13
   3  10  -4    0.20    0.13
   3  10  -4   -0.01    0.23
  -3 -10   4    0.38    0.21
  -3 -10   4    0.27    0.21
  -3 -10   4    0.35    0.23
  -3 -10   4    0.23    0.23
   3  10  -3    0.09    0.16
   3  10  -3    0.15    0.10
   3  10  -3    0.30    0.19
  -3 -10   3    0.08    0.18
  -3 -10   3    0.16    0.18
  -3 -10   3    0.05    0.20
  -3 -10   3    0.10    0.20
   3  10  -2   -0.01    0.10
   3  10  -2    0.01    0.10
   3  10  -2    0.10    0.20
  -3 -10   2   -0.07    0.21
  -3 -10   2   -0.08    0.12
  -3 -10   2    0.07    0.14
  -3 -10   2   -0.03    0.12
   3  10  -1    0.13    0.08
   3  10  -1    0.18    0.08
   3  10  -1    0.02    0.18
  -3 -10   1    0.16    0.17
  -3 -10   1    0.26    0.18
  -3 -10   1    0.14    0.19
  -3 -10   1    0.17    0.17
   3  10   0    1.49    0.11
   3  10   0    1.35    0.26
   3  10   0    1.54    0.11
  -3 -10   0    1.58    0.26
  -3 -10   0    1.51    0.27
  -3 -10   0    1.99    0.28
  -3 -10   0    1.45    0.26
   3  10   1    2.40    0.12
   3  10   1    2.33    0.16
   3  10   1    2.65    0.30
  -3 -10  -1    2.85    0.28
  -3 -10  -1    2.80    0.30
  -3 -10  -1    3.11    0.30
  -3 -10  -1    3.08    0.31
  -3 -10  -1    2.81    0.29
   3  10   2    1.62    0.12
   3  10   2    1.54    0.09
   3  10   2    1.95    0.25
  -3 -10  -2    1.81    0.25
  -3 -10  -2    1.68    0.26
  -3 -10  -2    1.59    0.43
  -3 -10  -2    1.82    0.25
  -3 -10  -2    1.88    0.25
   3  10   3    2.76    0.11
   3  10   3    3.42    0.29
   3  10   3    2.88    0.14
  -3 -10  -3    3.49    0.28
  -3 -10  -3    3.53    0.32
  -3 -10  -3    3.42    0.30
  -3 -10  -3    3.38    0.43
   3  10   4    0.12    0.16
   3  10   4    0.13    0.07
   3  10   4    0.14    0.23
   3  10   4   -0.00    0.06
   3  10   4    0.22    0.23
  -3 -10  -4    0.14    0.16
  -3 -10  -4    0.05    0.23
   3  10   5    0.04    0.05
   3  10   5    0.11    0.13
   3  10   5   -0.00    0.07
   3  10   5    0.11    0.14
   3  10   5    0.11    0.20
  -3 -10  -5   -0.05    0.14
  -3 -10  -5   -0.01    0.21
   3  10   6    0.00    0.05
   3  10   6    0.11    0.16
   3  10   6    0.20    0.14
   3  10   6    0.23    0.14
  -3 -10  -6    0.23    0.16
  -3 -10  -6    0.06    0.08
  -3 -10  -6    0.07    0.15
  -3 -10  -6    0.10    0.23
   3  10   7    3.32    0.15
   3  10   7    4.13    0.47
   3  10   7    3.95    0.50
   3  10   7    3.49    0.31
  -3 -10  -7    4.22    0.34
  -3 -10  -7    3.47    0.21
  -3 -10  -7    3.67    0.32
  -3 -10  -7    3.84    0.48
   3  10   8    3.05    0.34
   3  10   8    2.97    0.16
   3  10   8    3.34    0.47
   3  10   8    3.38    0.31
  -3 -10  -8    3.89    0.50
  -3 -10  -8    2.94    0.24
  -3 -10  -8    3.35    0.32
  -3 -10  -8    3.16    0.48
   3  10   9    0.00    0.10
   3  10   9    0.00    0.14
   3  10   9   -0.00    0.12
   3  10   9   -0.02    0.12
  -3 -10  -9   -0.09    0.07
  -3 -10  -9   -0.07    0.22
  -3 -10  -9    0.08    0.12
  -3 -10  -9    0.17    0.12
   3  10  10   -0.01    0.24
   3  10  10    0.01    0.22
   3  10  10    0.85    0.26
   3  10  10    0.84    0.23
  -3 -10 -10    0.81    0.15
  -3 -10 -10    1.04    0.40
  -3 -10 -10    1.12    0.25
  -3 -10 -10    1.11    0.25
   3  10  11   -0.00    0.15
   3  10  11    0.82    0.26
   3  10  11   -0.00    0.37
   3  10  11    0.51    0.23
  -3 -10 -11    0.56    0.16
  -3 -10 -11    0.01    0.26
  -3 -10 -11    1.06    0.24
  -3 -10 -11    1.14    0.37
   3  10  12    0.37    0.32
   3  10  12   -0.00    0.20
   3  10  12    0.00    0.20
  -3 -10 -12   -0.03    0.21
  -3 -10 -12    0.10    0.19
  -3 -10 -12    0.01    0.21
  -3 -10 -12    0.22    0.19
   3  10  13    0.75    0.31
   3  10  13   -0.01    0.27
   3  10  13    0.54    0.20
  -3 -10 -13    0.55    0.21
  -3 -10 -13    0.03    0.30
  -3 -10 -13    0.79    0.29
  -3 -10 -13    0.94    0.28
   3  11  -5    0.37    0.30
   3  11  -5    0.67    0.29
   3  11  -5    0.03    0.53
  -3 -11   5    0.68    0.30
  -3 -11   5    0.83    0.30
  -3 -11   5    0.83    0.33
  -3 -11   5    0.81    0.30
   3  11  -4    0.03    0.11
   3  11  -4    0.14    0.17
   3  11  -4    0.02    0.19
  -3 -11   4   -0.01    0.18
  -3 -11   4    0.11    0.18
  -3 -11   4   -0.11    0.30
  -3 -11   4   -0.05    0.19
   3  11  -3    0.05    0.11
   3  11  -3    0.10    0.11
   3  11  -3    0.28    0.19
  -3 -11   3   -0.03    0.19
  -3 -11   3    0.03    0.19
  -3 -11   3    0.08    0.19
  -3 -11   3    0.04    0.30
   3  11  -2    0.06    0.15
   3  11  -2    0.22    0.15
   3  11  -2    0.09    0.20
  -3 -11   2    0.20    0.19
  -3 -11   2    0.11    0.19
  -3 -11   2   -0.03    0.31
  -3 -11   2    0.05    0.19
   3  11  -1    0.03    0.12
   3  11  -1    0.09    0.12
   3  11  -1    0.29    0.27
  -3 -11   1   -0.02    0.17
  -3 -11   1    0.10    0.27
  -3 -11   1   -0.00    0.28
  -3 -11   1    0.01    0.16
   3  11   0    1.38    0.17
   3  11   0    1.87    0.40
   3  11   0    1.44    0.17
  -3 -11   0    0.07    0.25
  -3 -11   0    1.54    0.41
  -3 -11   0   -0.00    0.42
  -3 -11   0    0.10    0.26
   3  11   1    0.16    0.07
   3  11   1    0.19    0.11
   3  11   1    0.55    0.20
  -3 -11  -1    0.33    0.18
  -3 -11  -1    0.27    0.19
  -3 -11  -1   -0.02    0.20
  -3 -11  -1    0.27    0.20
  -3 -11  -1    0.20    0.19
   3  11   2    1.07    0.14
   3  11   2    0.97    0.09
   3  11   2    1.29    0.25
  -3 -11  -2    0.93    0.24
  -3 -11  -2    1.31    0.24
  -3 -11  -2    0.02    0.25
  -3 -11  -2    1.14    0.25
  -3 -11  -2    0.94    0.24
   3  11   3    0.73    0.12
   3  11   3    0.91    0.22
   3  11   3    0.61    0.12
  -3 -11  -3    0.77    0.22
  -3 -11  -3    0.99    0.23
  -3 -11  -3    0.06    0.23
  -3 -11  -3    0.87    0.24
  -3 -11  -3    0.88    0.23
   3  11   4    0.99    0.12
   3  11   4    0.77    0.23
   3  11   4    0.93    0.23
   3  11   4    0.88    0.24
  -3 -11  -4    1.18    0.24
  -3 -11  -4    0.79    0.24
  -3 -11  -4    0.71    0.23
   3  11   5    0.08    0.08
   3  11   5    0.14    0.16
   3  11   5    0.13    0.15
   3  11   5   -0.00    0.08
   3  11   5    0.17    0.24
  -3 -11  -5    0.03    0.24
  -3 -11  -5    0.11    0.16
  -3 -11  -5    0.02    0.16
   3  11   6    0.01    0.05
   3  11   6    0.05    0.13
   3  11   6   -0.03    0.07
   3  11   6   -0.01    0.12
   3  11   6    0.15    0.19
  -3 -11  -6    0.09    0.13
  -3 -11  -6    0.00    0.05
  -3 -11  -6   -0.02    0.19
  -3 -11  -6   -0.05    0.12
   3  11   7    0.34    0.08
   3  11   7    0.00    0.21
   3  11   7    0.33    0.19
   3  11   7    0.31    0.30
  -3 -11  -7    0.42    0.20
  -3 -11  -7    0.19    0.08
  -3 -11  -7    0.36    0.31
  -3 -11  -7    0.18    0.19
   3  11   8   -0.00    0.06
   3  11   8   -0.00    0.21
   3  11   8    0.03    0.20
   3  11   8    0.00    0.21
  -3 -11  -8   -0.06    0.14
  -3 -11  -8    0.07    0.10
  -3 -11  -8    0.01    0.21
  -3 -11  -8    0.02    0.21
   3  11   9   -0.00    0.07
   3  11   9   -0.02    0.22
   3  11   9   -0.01    0.13
   3  11   9   -0.00    0.15
  -3 -11  -9    0.06    0.15
  -3 -11  -9    0.05    0.08
  -3 -11  -9    0.03    0.14
  -3 -11  -9   -0.05    0.15
   3  11  10    0.00    0.09
   3  11  10   -0.00    0.18
   3  11  10   -0.04    0.16
   3  11  10    0.14    0.16
  -3 -11 -10    0.05    0.17
  -3 -11 -10    0.10    0.15
  -3 -11 -10    0.00    0.17
  -3 -11 -10    0.09    0.17
   3  11  11   -0.01    0.33
   3  11  11    0.00    0.35
   3  11  11    0.00    0.19
   3  11  11    0.21    0.20
  -3 -11 -11   -0.01    0.22
  -3 -11 -11    0.08    0.20
  -3 -11 -11    0.40    0.21
  -3 -11 -11    0.31    0.33
   3  11  12   -0.00    0.13
   3  11  12   -0.03    0.23
   3  11  12    0.01    0.20
   3  11  12   -0.04    0.21
  -3 -11 -12    0.04    0.22
  -3 -11 -12    0.07    0.13
  -3 -11 -12    0.14    0.33
  -3 -11 -12    0.56    0.21
   3  12  -3    0.03    0.12
   3  12  -3    0.07    0.11
   3  12  -3    0.07    0.20
  -3 -12   3   -0.02    0.20
  -3 -12   3   -0.06    0.31
  -3 -12   3    0.10    0.20
  -3 -12   3    0.07    0.20
   3  12  -2    0.10    0.17
   3  12  -2    0.07    0.11
   3  12  -2    0.64    0.35
  -3 -12   2   -0.04    0.31
  -3 -12   2    0.09    0.29
  -3 -12   2   -0.07    0.20
  -3 -12   2   -0.01    0.31
   3  12  -1    0.03    0.13
   3  12  -1   -0.01    0.12
   3  12  -1   -0.01    0.17
  -3 -12   1   -0.11    0.25
  -3 -12   1   -0.05    0.16
  -3 -12   1   -0.08    0.17
  -3 -12   1    0.03    0.25
   3  12   0    0.57    0.17
   3  12   0    1.12    0.26
   3  12   0    0.47    0.17
  -3 -12   0   -0.02    0.38
  -3 -12   0    0.83    0.24
  -3 -12   0    0.01    0.26
  -3 -12   0   -0.01    0.25
  -3 -12   0    0.06    0.37
   3  12   1    0.32    0.14
   3  12   1    0.40    0.14
   3  12   1    0.57    0.35
  -3 -12  -1   -0.00    0.21
  -3 -12  -1    0.58    0.32
  -3 -12  -1    0.02    0.35
  -3 -12  -1   -0.00    0.23
  -3 -12  -1    0.02    0.33
   3  12   2   -0.00    0.04
   3  12   2   -0.01    0.06
   3  12   2   -0.06    0.17
  -3 -12  -2    0.03    0.10
  -3 -12  -2    0.08    0.16
  -3 -12  -2    0.00    0.17
  -3 -12  -2    0.00    0.11
  -3 -12  -2   -0.04    0.17
   3  12   3    0.01    0.06
   3  12   3    0.38    0.16
   3  12   3    0.00    0.06
  -3 -12  -3    0.04    0.15
  -3 -12  -3    0.04    0.16
  -3 -12  -3   -0.02    0.16
  -3 -12  -3   -0.00    0.15
  -3 -12  -3    0.09    0.24
   3  12   4    0.01    0.14
   3  12   4    0.02    0.05
   3  12   4   -0.01    0.05
  -3 -12  -4    0.01    0.14
  -3 -12  -4    0.11    0.14
  -3 -12  -4   -0.01    0.14
  -3 -12  -4   -0.01    0.15
  -3 -12  -4    0.04    0.14
   3  12   5    0.12    0.11
   3  12   5    0.00    0.18
   3  12   5    0.27    0.18
   3  12   5    0.16    0.10
  -3 -12  -5    0.12    0.19
  -3 -12  -5    0.03    0.18
  -3 -12  -5    0.02    0.18
   3  12   6    0.11    0.10
   3  12   6    0.00    0.17
   3  12   6    0.15    0.17
   3  12   6    0.03    0.06
   3  12   6    0.02    0.17
  -3 -12  -6    0.10    0.17
  -3 -12  -6   -0.02    0.17
  -3 -12  -6    0.11    0.17
   3  12   7    0.00    0.17
   3  12   7    0.07    0.11
   3  12   7    0.00    0.16
   3  12   7    0.31    0.16
  -3 -12  -7   -0.02    0.17
  -3 -12  -7    0.01    0.17
  -3 -12  -7    0.01    0.11
  -3 -12  -7   -0.03    0.17
   3  12   8    0.13    0.12
   3  12   8   -0.00    0.18
   3  12   8    0.25    0.17
   3  12   8    0.04    0.17
  -3 -12  -8   -0.03    0.18
  -3 -12  -8    0.09    0.17
  -3 -12  -8    0.01    0.08
  -3 -12  -8    0.00    0.17
   3  12   9   -0.00    0.10
   3  12   9    0.00    0.23
   3  12   9    0.05    0.22
   3  12   9    0.07    0.14
  -3 -12  -9   -0.10    0.14
  -3 -12  -9    0.02    0.11
  -3 -12  -9   -0.07    0.14
  -3 -12  -9    0.20    0.22
   3  12  10   -0.00    0.08
   3  12  10   -0.00    0.16
   3  12  10   -0.05    0.15
   3  12  10    0.00    0.16
  -3 -12 -10   -0.04    0.17
  -3 -12 -10   -0.04    0.09
  -3 -12 -10    0.10    0.16
  -3 -12 -10   -0.04    0.16
   3  12  11   -0.00    0.10
   3  12  11   -0.00    0.18
   3  12  11    0.07    0.17
   3  12  11    0.03    0.17
  -3 -12 -11   -0.02    0.19
  -3 -12 -11    0.01    0.10
  -3 -12 -11    0.00    0.17
  -3 -12 -11    0.04    0.17
   3  13  -1   -0.01    0.14
   3  13  -1    0.01    0.09
   3  13  -1    0.04    0.30
  -3 -13   1   -0.17    0.18
  -3 -13   1    0.08    0.26
  -3 -13   1   -0.00    0.27
  -3 -13   1   -0.00    0.18
   3  13   0    0.35    0.13
   3  13   0    0.99    0.30
   3  13   0    0.28    0.20
  -3 -13   0    0.01    0.26
  -3 -13   0    0.64    0.24
  -3 -13   0    0.08    0.28
  -3 -13   0    0.97    0.40
  -3 -13   0    0.13    0.26
   3  13   1   -0.07    0.12
   3  13   1   -0.01    0.12
   3  13   1   -0.07    0.18
  -3 -13  -1    0.00    0.17
  -3 -13  -1   -0.10    0.16
  -3 -13  -1   -0.04    0.18
  -3 -13  -1    0.34    0.28
  -3 -13  -1    0.00    0.17
   3  13   2    0.00    0.09
   3  13   2   -0.00    0.09
  -3 -13  -2   -0.01    0.14
  -3 -13  -2   -0.01    0.14
  -3 -13  -2    0.06    0.24
  -3 -13  -2    0.04    0.15
   3  13   3   -0.00    0.10
   3  13   3    0.00    0.06
  -3 -13  -3    0.02    0.16
  -3 -13  -3   -0.23    0.16
   3  13   4    0.02    0.06
   3  13   4   -0.00    0.09
  -3 -13  -4    0.02    0.16
   3  13   5   -0.09    0.15
   3  13   5    0.09    0.09
   3  13   5   -0.15    0.15
   3  13   5    0.03    0.05
  -3 -13  -5   -0.01    0.15
  -3 -13  -5   -0.03    0.15
  -3 -13  -5    0.01    0.15
   3  13   6    0.22    0.15
   3  13   6    0.24    0.33
   3  13   6    0.17    0.13
   3  13   6    0.28    0.23
  -3 -13  -6    0.30    0.22
  -3 -13  -6    0.29    0.23
   3  13   7    0.16    0.10
   3  13   7    0.32    0.14
   3  13   7    0.28    0.22
   3  13   7    0.29    0.22
  -3 -13  -7    0.18    0.22
  -3 -13  -7    0.28    0.22
  -3 -13  -7    0.10    0.23
   3  13   8   -0.00    0.18
   3  13   8    0.06    0.08
   3  13   8    0.10    0.18
   3  13   8   -0.08    0.18
  -3 -13  -8   -0.05    0.17
  -3 -13  -8    0.03    0.18
  -3 -13  -8    0.09    0.18
   3  13   9    0.10    0.18
   3  13   9    0.00    0.09
   3  13   9    0.00    0.18
   3  13   9    0.00    0.19
  -3 -13  -9    0.14    0.19
  -3 -13  -9    0.02    0.20
  -3 -13  -9    0.09    0.18
   3  13  10    0.00    0.16
   3  13  10    0.00    0.21
   3  13  10    0.11    0.29
   3  13  10    0.02    0.21
  -3 -13 -10   -0.09    0.21
  -3 -13 -10   -0.29    0.20
  -3 -13 -10    0.07    0.32
   3  14   2    0.12    0.19
  -3 -14  -2   -0.03    0.27
  -3 -14  -2   -0.04    0.17
  -3 -14  -2   -0.02    0.18
  -3 -14  -2    0.05    0.17
  -3 -14  -2   -0.09    0.28
  -3 -14  -3   -0.00    0.21
  -3 -14  -3    0.24    0.21
  -3 -14  -3    0.02    0.34
  -3 -14  -4   -0.02    0.21
  -3 -14  -4    0.24    0.21
  -3 -14  -4    0.06    0.21
   3  14   5    0.42    0.22
  -3 -14  -5    0.00    0.20
  -3 -14  -5    0.03    0.21
  -3 -14  -5   -0.13    0.20
   3  14   6    0.32    0.25
   3  14   6    0.40    0.29
  -3 -14  -6    0.21    0.27
   3  14   7    0.14    0.41
   3  14   7    0.02    0.37
   3  14   7    0.88    0.28
  -3 -14  -7    0.19    0.26
  -3 -14  -7    0.24    0.27
   3  14   8   -0.03    0.20
   3  14   8   -0.01    0.22
   3  14   8   -0.02    0.31
  -3 -14  -8   -0.08    0.21
  -3 -14  -8    0.02    0.21
  -3 -14  -8   -0.17    0.22
   4 -12  -8    0.44    0.30
   4 -12  -8    0.39    0.40
   4 -12  -8    0.47    0.23
  -4  12   8    0.52    0.21
  -4  12   8    0.34    0.32
  -4  12   8   -0.00    0.47
   4 -12  -7    0.29    0.25
   4 -12  -7    0.36    0.22
   4 -12  -7   -0.01    0.18
  -4  12   7    0.04    0.17
  -4  12   7    0.37    0.26
  -4  12   7    0.00    0.39
   4 -12  -6    0.28    0.23
   4 -12  -6    0.26    0.21
   4 -12  -6   -0.10    0.17
  -4  12   6    0.09    0.15
  -4  12   6    0.21    0.23
  -4  12   6   -0.00    0.23
   4 -12  -5   -0.00    0.18
   4 -12  -5    0.50    0.25
   4 -12  -5    0.32    0.18
  -4  12   5    0.00    0.25
  -4  12   5    0.46    0.26
   4 -12  -4    0.00    0.13
   4 -12  -4   -0.09    0.14
  -4  12   4   -0.02    0.21
  -4  12   4   -0.06    0.21
   4 -12  -3   -0.00    0.15
   4 -12  -3    0.00    0.17
   4 -12  -2   -0.00    0.22
   4 -12  -2    0.03    0.20
   4 -12  -2    0.02    0.21
  -4  12   2    0.26    0.21
  -4  12   2   -0.14    0.21
   4 -12  -1   -0.03    0.20
   4 -12  -1   -0.14    0.19
   4 -12  -1    0.06    0.13
  -4  12   1   -0.01    0.19
  -4  12   1   -0.06    0.21
  -4  12   1    0.23    0.20
   4 -11  -9   -0.01    0.15
   4 -11  -9    0.10    0.15
   4 -11  -9    0.21    0.20
   4 -11  -9   -0.01    0.18
  -4  11   9    0.21    0.16
  -4  11   9    0.00    0.35
   4 -11  -8    0.25    0.22
   4 -11  -8    0.01    0.15
   4 -11  -8   -0.02    0.16
  -4  11   8    0.12    0.15
  -4  11   8    0.16    0.15
  -4  11   8    0.01    0.21
   4 -11  -7    0.39    0.16
   4 -11  -7    0.34    0.39
   4 -11  -7    0.33    0.18
  -4  11   7    0.37    0.17
  -4  11   7    0.27    0.16
  -4  11   7   -0.00    0.26
   4 -11  -6    0.03    0.12
   4 -11  -6   -0.09    0.20
   4 -11  -6    0.23    0.14
  -4  11   6    0.09    0.13
  -4  11   6    0.05    0.13
  -4  11   6    0.01    0.20
   4 -11  -5   -0.00    0.12
   4 -11  -5    0.05    0.12
   4 -11  -5   -0.05    0.19
   4 -11  -5    0.10    0.20
  -4  11   5    0.01    0.19
  -4  11   5    0.14    0.12
   4 -11  -4    0.00    0.22
   4 -11  -4    0.10    0.13
   4 -11  -4    0.10    0.21
   4 -11  -4    0.23    0.22
  -4  11   4    0.24    0.23
  -4  11   4    0.14    0.13
   4 -11  -3    0.00    0.17
   4 -11  -3    0.56    0.25
   4 -11  -3    0.60    0.17
  -4  11   3    1.05    0.28
  -4  11   3    0.77    0.27
  -4  11   3    0.41    0.16
   4 -11  -2   -0.00    0.13
   4 -11  -2    0.00    0.20
   4 -11  -2    0.16    0.14
  -4  11   2    0.18    0.21
  -4  11   2    0.25    0.22
   4 -11  -1    0.00    0.19
   4 -11  -1    0.00    0.18
   4 -11  -1    0.08    0.19
  -4  11   1    0.17    0.20
  -4  11   1   -0.03    0.19
   4 -11   0    0.10    0.23
   4 -11   0    0.16    0.22
   4 -11   0    0.00    0.22
  -4  11   0    0.61    0.35
  -4  11   0   -0.02    0.23
  -4  11   0    0.12    0.23
   4 -11   1    0.00    0.24
   4 -11   1    0.17    0.16
   4 -11   1    0.00    0.23
  -4  11  -1    0.42    0.24
  -4  11  -1   -0.16    0.39
  -4  11  -1    0.14    0.24
   4 -11   2    0.01    0.21
   4 -11   2    0.53    0.21
   4 -11   2    0.96    0.31
  -4  11  -2    0.70    0.31
  -4  11  -2    0.90    0.49
  -4  11  -2    0.67    0.32
   4 -10 -11    0.45    0.42
   4 -10 -10    0.01    0.23
   4 -10 -10    0.05    0.24
   4 -10 -10    0.40    0.22
   4 -10 -10    0.01    0.18
  -4  10  10    0.03    0.26
  -4  10  10    0.02    0.22
   4 -10  -9    0.03    0.23
   4 -10  -9    0.12    0.34
   4 -10  -9    0.31    0.23
   4 -10  -9    0.24    0.17
  -4  10   9    0.06    0.15
  -4  10   9    0.01    0.23
   4 -10  -8    0.09    0.19
   4 -10  -8   -0.05    0.19
   4 -10  -8    0.07    0.14
  -4  10   8    0.14    0.13
  -4  10   8   -0.00    0.19
   4 -10  -7    0.08    0.20
   4 -10  -7    0.11    0.20
   4 -10  -7    0.18    0.13
  -4  10   7    0.01    0.12
  -4  10   7    0.13    0.13
  -4  10   7   -0.00    0.20
   4 -10  -6    0.29    0.21
   4 -10  -6    0.22    0.15
  -4  10   6    0.30    0.14
  -4  10   6    0.26    0.21
  -4  10   6   -0.00    0.22
   4 -10  -5    0.04    0.17
   4 -10  -5    0.12    0.18
  -4  10   5   -0.00    0.18
  -4  10   5    0.00    0.17
  -4  10   5    0.18    0.17
   4 -10  -4   -0.00    0.08
   4 -10  -4   -0.01    0.08
   4 -10  -4    0.05    0.08
  -4  10   4    0.10    0.13
  -4  10   4   -0.05    0.08
   4 -10  -3    0.00    0.21
   4 -10  -3    0.23    0.13
   4 -10  -3    0.57    0.21
   4 -10  -3    0.50    0.21
  -4  10   3    0.24    0.22
  -4  10   3    0.19    0.13
   4 -10  -2   -0.00    0.15
   4 -10  -2    0.75    0.23
   4 -10  -2    0.90    0.24
  -4  10   2    1.19    0.26
  -4  10   2    0.68    0.15
   4 -10  -1   -0.00    0.17
   4 -10  -1   -0.00    0.24
   4 -10  -1    1.07    0.17
  -4  10   1    1.69    0.43
  -4  10   1    0.69    0.25
  -4  10   1    1.59    0.27
   4 -10   0    0.03    0.14
   4 -10   0   -0.02    0.14
   4 -10   0   -0.00    0.09
  -4  10   0    0.12    0.15
  -4  10   0   -0.05    0.16
  -4  10   0   -0.03    0.14
   4 -10   1    0.00    0.18
   4 -10   1   -0.04    0.18
   4 -10   1    0.00    0.11
  -4  10  -1   -0.31    0.19
  -4  10  -1   -0.05    0.19
  -4  10  -1   -0.01    0.12
   4 -10   2   -0.00    0.12
   4 -10   2    0.03    0.12
   4 -10   2    0.00    0.12
  -4  10  -2   -0.00    0.19
  -4  10  -2   -0.03    0.19
  -4  10  -2    0.15    0.12
   4 -10   3    0.00    0.15
   4 -10   3    0.10    0.15
   4 -10   3    0.17    0.14
  -4  10  -3    0.00    0.24
  -4  10  -3    0.20    0.24
  -4  10  -3    0.28    0.23
   4 -10   4    0.27    0.18
   4 -10   4    0.14    0.19
   4 -10   4    0.29    0.26
   4  -9 -11    0.01    0.17
   4  -9 -11    0.45    0.24
   4  -9 -11    0.36    0.18
   4  -9 -11   -0.00    0.31
  -4   9  11    0.02    0.13
  -4   9  11   -0.03    0.29
  -4   9  11    0.61    0.25
   4  -9 -10   -0.00    0.14
   4  -9 -10    0.37    0.21
   4  -9 -10    0.18    0.15
   4  -9 -10    0.10    0.10
   4  -9 -10    0.09    0.17
  -4   9  10   -0.00    0.14
  -4   9  10    0.14    0.15
  -4   9  10   -0.03    0.20
   4  -9  -9   -0.01    0.19
   4  -9  -9    0.14    0.18
   4  -9  -9    0.13    0.12
   4  -9  -9    0.03    0.12
   4  -9  -9    0.01    0.13
  -4   9   9    0.02    0.13
  -4   9   9    0.01    0.19
   4  -9  -8   -0.23    0.29
   4  -9  -8    0.13    0.18
   4  -9  -8    0.07    0.19
   4  -9  -8    0.10    0.06
   4  -9  -8    0.10    0.13
  -4   9   8    0.12    0.13
  -4   9   8   -0.00    0.19
   4  -9  -7   -0.01    0.13
   4  -9  -7    0.02    0.14
   4  -9  -7    0.06    0.09
  -4   9   7    0.04    0.09
  -4   9   7   -0.07    0.09
  -4   9   7   -0.00    0.14
   4  -9  -6    0.11    0.10
   4  -9  -6    0.05    0.18
   4  -9  -6    0.08    0.11
  -4   9   6    0.06    0.11
  -4   9   6    0.19    0.16
  -4   9   6    0.00    0.18
   4  -9  -5   -0.04    0.07
   4  -9  -5    0.03    0.12
   4  -9  -5   -0.01    0.12
  -4   9   5    0.00    0.12
  -4   9   5    0.05    0.11
  -4   9   5    0.01    0.07
   4  -9  -4    0.28    0.12
   4  -9  -4    0.51    0.21
   4  -9  -4    0.28    0.12
  -4   9   4    0.36    0.22
  -4   9   4    0.32    0.12
  -4   9   4    0.42    0.12
   4  -9  -3   -0.00    0.12
   4  -9  -3    0.64    0.22
   4  -9  -3    0.63    0.18
   4  -9  -3    0.57    0.19
  -4   9   3    0.62    0.22
  -4   9   3    0.44    0.18
   4  -9  -2   -0.00    0.18
   4  -9  -2    0.32    0.12
   4  -9  -2    0.42    0.19
  -4   9   2    0.47    0.23
  -4   9   2    0.68    0.22
  -4   9   2    0.45    0.12
   4  -9  -1   -0.00    0.09
   4  -9  -1    0.00    0.14
   4  -9  -1    0.05    0.09
  -4   9   1    0.37    0.27
  -4   9   1    0.05    0.14
  -4   9   1    0.32    0.17
   4  -9   0   -0.04    0.14
   4  -9   0   -0.05    0.13
   4  -9   0   -0.00    0.08
  -4   9   0   -0.24    0.24
  -4   9   0    0.41    0.16
  -4   9   0    0.01    0.09
   4  -9   1    0.00    0.15
   4  -9   1   -0.00    0.10
   4  -9   1    0.02    0.16
  -4   9  -1    0.41    0.18
  -4   9  -1    0.21    0.17
  -4   9  -1   -0.03    0.10
   4  -9   2    0.00    0.15
   4  -9   2   -0.00    0.16
   4  -9   2    0.86    0.15
  -4   9  -2    1.31    0.26
  -4   9  -2    1.01    0.16
   4  -9   3   -0.00    0.15
   4  -9   3    0.31    0.15
   4  -9   3    0.28    0.14
  -4   9  -3    0.49    0.15
  -4   9  -3    0.44    0.23
   4  -9   4    0.00    0.14
   4  -9   4    0.12    0.14
   4  -9   4    0.22    0.14
  -4   9  -4   -0.11    0.21
  -4   9  -4    0.11    0.14
   4  -9   5    0.00    0.15
   4  -9   5    0.10    0.14
   4  -9   5    0.13    0.15
  -4   9  -5    0.06    0.33
  -4   9  -5    0.00    0.14
   4  -8 -12    0.03    0.41
   4  -8 -12    2.49    0.52
   4  -8 -12    1.73    0.42
   4  -8 -12    2.07    0.29
   4  -8 -12    1.72    0.26
  -4   8  12    2.15    0.30
  -4   8  12   -0.01    0.36
  -4   8  12    2.00    0.57
   4  -8 -11    0.02    0.20
   4  -8 -11    0.96    0.28
   4  -8 -11    0.78    0.20
   4  -8 -11    1.04    0.33
   4  -8 -11    0.78    0.27
  -4   8  11   -0.01    0.26
  -4   8  11   -0.01    0.34
  -4   8  11    1.13    0.44
   4  -8 -10    0.17    0.15
   4  -8 -10    0.76    0.33
   4  -8 -10    0.14    0.15
   4  -8 -10    0.13    0.19
   4  -8 -10    0.18    0.16
  -4   8  10    0.01    0.18
  -4   8  10    0.12    0.16
  -4   8  10   -0.07    0.34
   4  -8  -9    0.07    0.12
   4  -8  -9   -0.08    0.19
   4  -8  -9    0.22    0.12
   4  -8  -9    0.10    0.14
   4  -8  -9    0.06    0.13
  -4   8   9    0.10    0.13
  -4   8   9    0.00    0.08
  -4   8   9    0.18    0.19
   4  -8  -8    0.25    0.20
   4  -8  -8    0.49    0.32
   4  -8  -8    0.19    0.13
   4  -8  -8    0.24    0.13
   4  -8  -8    0.28    0.22
  -4   8   8    0.18    0.12
  -4   8   8    0.26    0.14
  -4   8   8   -0.01    0.20
   4  -8  -7   -0.06    0.17
   4  -8  -7   -0.04    0.09
   4  -8  -7    0.01    0.06
   4  -8  -7    0.02    0.03
   4  -8  -7    0.01    0.07
  -4   8   7   -0.03    0.04
  -4   8   7   -0.02    0.06
  -4   8   7   -0.00    0.11
   4  -8  -6    0.22    0.10
   4  -8  -6    0.35    0.18
   4  -8  -6    0.33    0.11
  -4   8   6    0.07    0.04
  -4   8   6    0.34    0.10
  -4   8   6    0.08    0.05
  -4   8   6    0.33    0.11
  -4   8   6   -0.01    0.29
   4  -8  -5    0.20    0.10
   4  -8  -5    0.29    0.18
   4  -8  -5    0.13    0.16
  -4   8   5    0.19    0.15
  -4   8   5    0.19    0.10
  -4   8   5   -0.01    0.28
   4  -8  -4    1.16    0.20
   4  -8  -4    1.44    0.25
   4  -8  -4    1.52    0.22
  -4   8   4    1.36    0.20
  -4   8   4    1.56    0.21
   4  -8  -3    0.37    0.10
   4  -8  -3    0.38    0.10
   4  -8  -3    0.29    0.20
   4  -8  -3    0.27    0.10
  -4   8   3    0.41    0.10
   4  -8  -2    3.54    0.18
   4  -8  -2    3.55    0.26
   4  -8  -2    3.72    0.33
   4  -8  -2    3.67    0.18
  -4   8   2    4.00    0.33
  -4   8   2    3.57    0.25
   4  -8  -1    1.19    0.20
   4  -8  -1    1.45    0.13
   4  -8  -1    1.09    0.20
  -4   8   1    1.35    0.44
  -4   8   1    1.88    0.27
  -4   8   1    1.25    0.13
   4  -8   0    1.96    0.22
   4  -8   0    1.81    0.23
   4  -8   0    1.95    0.15
  -4   8   0    2.13    0.46
  -4   8   0    1.71    0.23
  -4   8   0    1.92    0.44
   4  -8   1    0.00    0.07
   4  -8   1   -0.02    0.07
   4  -8   1    0.00    0.07
  -4   8  -1    0.02    0.21
  -4   8  -1    0.34    0.22
  -4   8  -1    0.02    0.07
   4  -8   2   -0.00    0.08
   4  -8   2    0.06    0.09
   4  -8   2   -0.03    0.13
  -4   8  -2    0.48    0.25
  -4   8  -2    0.05    0.14
   4  -8   3   -0.00    0.10
   4  -8   3    0.07    0.10
   4  -8   3    0.07    0.09
  -4   8  -3   -0.01    0.26
  -4   8  -3   -0.05    0.16
   4  -8   4    0.00    0.13
   4  -8   4    0.18    0.13
   4  -8   4    0.16    0.13
  -4   8  -4    0.25    0.34
  -4   8  -4    0.57    0.21
   4  -8   5    0.00    0.14
   4  -8   5    0.09    0.14
   4  -8   5    0.37    0.21
  -4   8  -5    0.25    0.34
  -4   8  -5    0.12    0.22
   4  -8   6    0.09    0.15
   4  -8   6    0.10    0.15
   4  -8   6    0.13    0.14
  -4   8  -6    0.35    0.36
  -4   8  -6    0.02    0.16
   4  -7 -12    2.38    0.29
   4  -7 -12    2.47    0.39
   4  -7 -12    2.03    0.29
   4  -7 -12    2.09    0.31
   4  -7 -12    2.39    0.44
  -4   7  12    2.45    0.29
  -4   7  12    2.18    0.40
  -4   7  12    2.51    0.32
   4  -7 -11    0.02    0.33
   4  -7 -11    1.55    0.30
   4  -7 -11    1.20    0.34
   4  -7 -11    0.87    0.23
   4  -7 -11    0.88    0.32
  -4   7  11    1.10    0.20
  -4   7  11    0.92    0.36
  -4   7  11    1.34    0.30
   4  -7 -10    0.28    0.16
   4  -7 -10    0.35    0.36
   4  -7 -10    0.23    0.16
   4  -7 -10    0.32    0.17
   4  -7 -10    0.51    0.23
  -4   7  10    0.40    0.14
  -4   7  10    0.42    0.17
  -4   7  10    0.48    0.23
   4  -7  -9    0.02    0.11
   4  -7  -9   -0.09    0.16
   4  -7  -9   -0.04    0.11
   4  -7  -9    0.10    0.17
   4  -7  -9    0.01    0.09
  -4   7   9    0.07    0.09
  -4   7   9    0.03    0.17
  -4   7   9    0.29    0.16
   4  -7  -8    0.18    0.19
   4  -7  -8    0.26    0.19
   4  -7  -8    0.28    0.12
   4  -7  -8    0.27    0.10
   4  -7  -8    0.21    0.20
  -4   7   8    0.22    0.09
  -4   7   8    0.25    0.20
  -4   7   8   -0.00    0.19
   4  -7  -7    1.16    0.22
   4  -7  -7    1.06    0.22
   4  -7  -7    1.19    0.37
   4  -7  -7    1.17    0.10
   4  -7  -7    1.11    0.23
  -4   7   7    1.14    0.14
  -4   7   7    0.63    0.23
  -4   7   7   -0.00    0.24
   4  -7  -6    7.58    0.35
   4  -7  -6    8.29    0.60
   4  -7  -6    7.65    0.36
   4  -7  -6    7.55    0.19
   4  -7  -6    7.57    0.28
  -4   7   6    7.50    0.21
  -4   7   6    7.87    0.27
  -4   7   6    7.91    0.43
   4  -7  -5    0.40    0.09
   4  -7  -5    0.24    0.28
   4  -7  -5    0.44    0.15
  -4   7   5    0.22    0.04
  -4   7   5    0.18    0.04
  -4   7   5    0.19    0.14
  -4   7   5    0.33    0.09
  -4   7   5    0.32    0.18
   4  -7  -4    0.62    0.15
   4  -7  -4    0.71    0.32
   4  -7  -4    0.58    0.16
  -4   7   4    0.68    0.21
  -4   7   4    0.44    0.15
  -4   7   4    0.73    0.10
   4  -7  -3    0.73    0.09
   4  -7  -3    0.74    0.32
   4  -7  -3    0.57    0.15
  -4   7   3    0.84    0.33
  -4   7   3    0.69    0.09
   4  -7  -2    1.20    0.15
   4  -7  -2    1.12    0.15
   4  -7  -2    1.12    0.22
   4  -7  -2    0.63    0.15
  -4   7   2    0.88    0.34
  -4   7   2    0.90    0.15
   4  -7  -1    1.52    0.17
   4  -7  -1    1.37    0.16
   4  -7  -1    1.41    0.17
  -4   7   1    1.30    0.25
  -4   7   1    1.44    0.17
  -4   7   1    1.46    0.26
   4  -7   0    1.50    0.18
   4  -7   0    1.50    0.17
   4  -7   0    1.61    0.18
  -4   7   0    1.33    0.25
  -4   7   0    1.57    0.18
  -4   7   0    1.32    0.25
   4  -7   1    0.11    0.08
   4  -7   1    0.15    0.08
   4  -7   1    0.19    0.12
  -4   7  -1    0.08    0.26
  -4   7  -1    0.04    0.17
  -4   7  -1    0.10    0.08
   4  -7   2   -0.00    0.18
   4  -7   2    0.82    0.17
   4  -7   2    0.78    0.11
  -4   7  -2    0.79    0.36
  -4   7  -2    0.82    0.35
  -4   7  -2    0.83    0.12
   4  -7   3   -0.00    0.13
   4  -7   3    0.22    0.13
   4  -7   3    0.11    0.08
  -4   7  -3    0.07    0.25
  -4   7  -3   -0.04    0.09
   4  -7   4    0.00    0.14
   4  -7   4    0.14    0.13
   4  -7   4    0.15    0.14
   4  -7   4    0.01    0.05
  -4   7  -4   -0.14    0.23
  -4   7  -4   -0.02    0.09
   4  -7   5    0.79    0.22
   4  -7   5    0.54    0.22
   4  -7   5    0.29    0.11
   4  -7   5    0.37    0.14
  -4   7  -5    0.72    0.36
  -4   7  -5    0.00    0.15
   4  -7   6    0.27    0.20
   4  -7   6    0.22    0.20
   4  -7   6   -0.01    0.13
  -4   7  -6    0.12    0.31
  -4   7  -6   -0.00    0.13
   4  -7   7    0.15    0.15
   4  -7   7   -0.02    0.23
   4  -7   7    0.24    0.16
  -4   7  -7    0.09    0.22
  -4   7  -7   -0.11    0.25
   4  -6 -12    0.71    0.21
   4  -6 -12    0.92    0.28
   4  -6 -12    0.54    0.22
   4  -6 -12    0.73    0.24
   4  -6 -12    0.54    0.35
  -4   6  12    0.37    0.23
  -4   6  12    0.67    0.30
  -4   6  12    0.85    0.24
   4  -6 -11   -0.04    0.23
   4  -6 -11    0.30    0.31
   4  -6 -11    0.06    0.16
   4  -6 -11   -0.19    0.24
  -4   6  11    0.20    0.15
  -4   6  11    0.22    0.16
  -4   6  11    0.08    0.20
   4  -6 -10    0.06    0.12
   4  -6 -10    0.09    0.18
   4  -6 -10    0.10    0.13
   4  -6 -10    0.06    0.21
   4  -6 -10    0.04    0.13
  -4   6  10    0.05    0.19
  -4   6  10    0.05    0.21
  -4   6  10    0.28    0.18
   4  -6  -9   -0.03    0.09
   4  -6  -9    0.14    0.21
   4  -6  -9    0.00    0.09
   4  -6  -9   -0.06    0.09
   4  -6  -9    0.02    0.09
  -4   6   9   -0.02    0.13
  -4   6   9   -0.02    0.09
  -4   6   9   -0.02    0.14
   4  -6  -8   -0.02    0.11
   4  -6  -8   -0.08    0.12
   4  -6  -8    0.06    0.12
   4  -6  -8   -0.05    0.07
   4  -6  -8   -0.04    0.08
  -4   6   8    0.06    0.06
  -4   6   8    0.02    0.08
  -4   6   8   -0.01    0.11
   4  -6  -7    4.99    0.31
   4  -6  -7    5.13    0.35
   4  -6  -7    5.13    0.33
   4  -6  -7    5.34    0.28
   4  -6  -7    4.89    0.24
  -4   6   7    4.99    0.19
  -4   6   7    5.09    0.23
  -4   6   7    4.94    0.35
   4  -6  -6    0.00    0.12
   4  -6  -6    0.04    0.12
   4  -6  -6    0.07    0.14
   4  -6  -6    0.04    0.06
   4  -6  -6    0.08    0.12
  -4   6   6    0.12    0.08
  -4   6   6    0.06    0.12
  -4   6   6    0.00    0.14
   4  -6  -5    2.30    0.19
   4  -6  -5    2.33    0.19
   4  -6  -5    2.57    0.25
   4  -6  -5    2.37    0.14
  -4   6   5    2.15    0.09
  -4   6   5    2.36    0.13
  -4   6   5    2.25    0.12
  -4   6   5    2.54    0.38
   4  -6  -4    0.35    0.07
   4  -6  -4    0.37    0.17
   4  -6  -4    0.36    0.08
  -4   6   4    0.43    0.17
  -4   6   4    0.28    0.04
  -4   6   4    0.29    0.04
  -4   6   4    0.35    0.07
  -4   6   4    0.35    0.07
   4  -6  -3    0.54    0.12
   4  -6  -3    0.72    0.18
   4  -6  -3    0.68    0.12
  -4   6   3    0.62    0.18
  -4   6   3    0.60    0.12
  -4   6   3    0.70    0.12
   4  -6  -2    1.79    0.14
   4  -6  -2    1.59    0.14
   4  -6  -2    1.77    0.23
   4  -6  -2    1.73    0.10
  -4   6   2    1.82    0.23
  -4   6   2    1.60    0.14
   4  -6  -1    0.40    0.10
   4  -6  -1    0.44    0.11
   4  -6  -1    0.38    0.11
  -4   6   1    0.51    0.28
  -4   6   1    0.35    0.10
  -4   6   1   -0.08    0.19
   4  -6   0   12.80    0.29
   4  -6   0   12.82    0.29
   4  -6   0   12.73    0.29
  -4   6   0   13.34    0.50
  -4   6   0   12.64    0.29
  -4   6   0   13.05    0.49
   4  -6   1    1.72    0.15
   4  -6   1    1.75    0.16
   4  -6   1    1.69    0.11
  -4   6  -1    2.06    0.24
  -4   6  -1    1.93    0.25
  -4   6  -1    1.70    0.11
   4  -6   2    0.00    0.05
   4  -6   2   -0.00    0.05
   4  -6   2    0.01    0.05
  -4   6  -2   -0.04    0.11
  -4   6  -2   -0.04    0.11
  -4   6  -2    0.03    0.05
   4  -6   3   -0.01    0.10
   4  -6   3    0.02    0.10
   4  -6   3    0.02    0.06
   4  -6   3    0.01    0.04
  -4   6  -3   -0.07    0.20
  -4   6  -3   -0.10    0.20
  -4   6  -3   -0.00    0.04
  -4   6  -3    0.16    0.10
   4  -6   4   -0.00    0.17
   4  -6   4    0.74    0.18
   4  -6   4    0.60    0.06
   4  -6   4    0.68    0.11
  -4   6  -4    0.55    0.31
  -4   6  -4    0.00    0.10
  -4   6  -4    0.00    0.12
   4  -6   5    0.07    0.09
   4  -6   5    0.00    0.09
   4  -6   5   -0.01    0.09
   4  -6   5    0.07    0.09
  -4   6  -5    0.20    0.24
  -4   6  -5    0.03    0.06
  -4   6  -5   -0.00    0.09
   4  -6   6    0.03    0.12
   4  -6   6    0.23    0.11
   4  -6   6    0.09    0.12
   4  -6   6    0.18    0.13
  -4   6  -6    0.30    0.29
  -4   6  -6    0.07    0.09
  -4   6  -6    0.00    0.12
   4  -6   7   -0.10    0.11
   4  -6   7    0.21    0.17
   4  -6   7    0.05    0.08
  -4   6  -7   -0.05    0.11
  -4   6  -7    0.13    0.16
  -4   6  -7    0.02    0.09
  -4   6  -7    0.00    0.17
   4  -6   8    0.15    0.22
   4  -6   8    0.05    0.18
   4  -6   8    0.03    0.23
  -4   6  -8    0.02    0.14
  -4   6  -8   -0.01    0.20
  -4   6  -8    0.01    0.12
  -4   6  -8    0.17    0.14
   4  -5 -13    0.11    0.30
   4  -5 -13    0.16    0.23
   4  -5 -13    0.18    0.29
   4  -5 -13    0.15    0.30
   4  -5 -13    0.02    0.33
  -4   5  13    0.36    0.32
  -4   5  13   -0.00    0.24
  -4   5  13    0.31    0.31
   4  -5 -12    0.23    0.20
   4  -5 -12    0.82    0.38
   4  -5 -12    0.45    0.20
   4  -5 -12    0.40    0.21
   4  -5 -12    0.05    0.34
  -4   5  12    0.61    0.21
  -4   5  12    0.19    0.40
  -4   5  12    0.30    0.21
   4  -5 -11    0.18    0.22
   4  -5 -11    0.10    0.19
   4  -5 -11    0.14    0.23
   4  -5 -11    0.06    0.15
   4  -5 -11    0.08    0.25
  -4   5  11    0.10    0.24
  -4   5  11    0.25    0.31
  -4   5  11    0.10    0.15
   4  -5 -10    0.01    0.12
   4  -5 -10    0.12    0.17
   4  -5 -10    0.11    0.13
   4  -5 -10    0.06    0.13
   4  -5 -10    0.08    0.14
  -4   5  10    0.04    0.21
  -4   5  10    0.11    0.13
  -4   5  10    0.11    0.27
   4  -5  -9    0.34    0.21
   4  -5  -9    0.27    0.30
   4  -5  -9    0.38    0.21
   4  -5  -9    0.35    0.14
   4  -5  -9    0.31    0.15
  -4   5   9    0.22    0.14
  -4   5   9    0.35    0.14
  -4   5   9    0.12    0.19
   4  -5  -8    0.07    0.08
   4  -5  -8   -0.05    0.13
   4  -5  -8    0.01    0.08
   4  -5  -8   -0.03    0.13
   4  -5  -8   -0.01    0.09
  -4   5   8   -0.01    0.12
  -4   5   8    0.03    0.13
  -4   5   8    0.10    0.19
   4  -5  -7    1.60    0.14
   4  -5  -7    1.61    0.24
   4  -5  -7    1.51    0.14
   4  -5  -7    1.66    0.22
   4  -5  -7    1.59    0.22
  -4   5   7    1.56    0.22
  -4   5   7    1.34    0.22
   4  -5  -6    6.27    0.29
   4  -5  -6    6.69    0.35
   4  -5  -6    6.25    0.21
   4  -5  -6    6.60    0.31
   4  -5  -6    6.51    0.30
  -4   5   6    6.73    0.21
  -4   5   6    6.52    0.30
  -4   5   6    6.40    0.49
   4  -5  -5    1.17    0.15
   4  -5  -5    1.21    0.15
   4  -5  -5    1.27    0.20
   4  -5  -5    1.34    0.16
  -4   5   5    1.05    0.09
  -4   5   5    1.22    0.15
  -4   5   5    1.09    0.20
   4  -5  -4    0.24    0.09
   4  -5  -4    0.23    0.06
   4  -5  -4    0.28    0.14
   4  -5  -4    0.27    0.10
  -4   5   4    0.31    0.07
  -4   5   4    0.23    0.09
  -4   5   4    0.21    0.07
  -4   5   4    0.24    0.15
   4  -5  -3    0.06    0.10
   4  -5  -3    0.01    0.06
   4  -5  -3    0.03    0.06
  -4   5   3    0.02    0.06
  -4   5   3    0.03    0.03
  -4   5   3   -0.01    0.17
  -4   5   3    0.02    0.03
   4  -5  -2    0.58    0.06
   4  -5  -2    0.66    0.08
   4  -5  -2    0.62    0.26
   4  -5  -2    0.50    0.09
  -4   5   2    0.56    0.17
  -4   5   2    0.57    0.05
   4  -5  -1  101.98    1.74
   4  -5  -1  101.21    1.73
   4  -5  -1  105.69    2.28
   4  -5  -1  101.26    1.73
  -4   5   1  101.01    2.21
  -4   5   1   99.33    1.75
   4  -5   0    4.75    0.17
   4  -5   0    4.61    0.17
   4  -5   0    4.58    0.13
  -4   5   0    4.38    0.49
  -4   5   0    4.63    0.17
  -4   5   0    5.48    0.49
   4  -5   1   15.99    0.36
   4  -5   1   16.00    0.36
   4  -5   1   16.11    0.32
  -4   5  -1   16.49    0.54
  -4   5  -1   17.14    0.55
  -4   5  -1   15.53    0.36
   4  -5   2    0.76    0.12
   4  -5   2    0.90    0.12
   4  -5   2    0.61    0.12
   4  -5   2    0.74    0.06
  -4   5  -2    0.86    0.19
  -4   5  -2    0.70    0.19
  -4   5  -2    0.77    0.12
  -4   5  -2    0.73    0.06
   4  -5   3    0.02    0.09
   4  -5   3    0.08    0.09
   4  -5   3    0.07    0.06
   4  -5   3    0.04    0.09
  -4   5  -3    0.12    0.13
  -4   5  -3   -0.00    0.21
  -4   5  -3    0.02    0.06
  -4   5  -3    0.04    0.04
   4  -5   4    3.01    0.22
   4  -5   4    2.89    0.23
   4  -5   4    3.01    0.12
   4  -5   4    3.04    0.17
  -4   5  -4    3.07    0.43
  -4   5  -4    3.11    0.44
  -4   5  -4    2.99    0.17
  -4   5  -4    2.93    0.17
   4  -5   5    0.28    0.09
   4  -5   5    0.30    0.10
   4  -5   5    0.21    0.12
   4  -5   5   -0.01    0.09
  -4   5  -5    0.14    0.27
  -4   5  -5    0.00    0.10
  -4   5  -5   -0.01    0.12
   4  -5   6    0.76    0.13
   4  -5   6    0.44    0.14
   4  -5   6    0.47    0.17
  -4   5  -6    0.43    0.13
  -4   5  -6    0.50    0.34
  -4   5  -6    0.00    0.21
  -4   5  -6    0.45    0.11
   4  -5   7    0.12    0.15
   4  -5   7    0.03    0.09
   4  -5   7    0.14    0.16
  -4   5  -7   -0.06    0.15
  -4   5  -7   -0.04    0.23
  -4   5  -7    0.00    0.10
  -4   5  -7   -0.02    0.09
   4  -5   8   -0.09    0.10
   4  -5   8    0.03    0.15
   4  -5   8   -0.08    0.11
  -4   5  -8    0.04    0.11
  -4   5  -8    0.19    0.15
  -4   5  -8   -0.04    0.15
  -4   5  -8    0.00    0.17
   4  -5   9    0.14    0.22
   4  -5   9    0.05    0.23
   4  -5   9    0.00    0.13
  -4   5  -9    0.07    0.14
  -4   5  -9   -0.00    0.19
  -4   5  -9    0.08    0.13
  -4   5  -9   -0.00    0.14
   4  -4 -13   -0.04    0.23
   4  -4 -13    0.01    0.28
   4  -4 -13    0.15    0.15
   4  -4 -13    0.29    0.24
   4  -4 -13   -0.04    0.17
  -4   4  13   -0.16    0.17
  -4   4  13    0.00    0.19
  -4   4  13    0.05    0.25
   4  -4 -12    0.29    0.17
   4  -4 -12    0.14    0.18
   4  -4 -12    0.27    0.21
   4  -4 -12    0.28    0.29
   4  -4 -12    0.07    0.21
  -4   4  12    0.18    0.20
  -4   4  12    0.00    0.22
  -4   4  12    0.30    0.29
   4  -4 -11    0.13    0.24
   4  -4 -11    0.19    0.19
   4  -4 -11    0.09    0.24
   4  -4 -11    0.09    0.16
   4  -4 -11    0.07    0.18
  -4   4  11    0.24    0.17
  -4   4  11    0.23    0.16
  -4   4  11    0.42    0.32
   4  -4 -10    0.93    0.19
   4  -4 -10    0.89    0.24
   4  -4 -10    0.92    0.19
   4  -4 -10    0.83    0.19
   4  -4 -10    1.03    0.22
  -4   4  10    0.81    0.21
  -4   4  10    0.95    0.19
  -4   4  10    1.04    0.38
   4  -4  -9    0.69    0.26
   4  -4  -9    1.05    0.24
   4  -4  -9    0.72    0.27
   4  -4  -9    1.31    0.18
   4  -4  -9    1.22    0.31
  -4   4   9    1.05    0.20
  -4   4   9    1.29    0.27
  -4   4   9    1.13    0.36
   4  -4  -8    4.08    0.22
   4  -4  -8    4.34    0.45
   4  -4  -8    3.94    0.22
   4  -4  -8    3.76    0.22
   4  -4  -8    4.06    0.26
  -4   4   8    3.75    0.35
  -4   4   8    3.84    0.45
  -4   4   8    3.89    0.22
   4  -4  -7   -0.01    0.11
   4  -4  -7   -0.03    0.11
   4  -4  -7    0.07    0.11
   4  -4  -7   -0.00    0.13
   4  -4  -7    0.03    0.11
  -4   4   7    0.07    0.08
  -4   4   7   -0.04    0.11
  -4   4   7   -0.01    0.17
   4  -4  -6    0.92    0.10
   4  -4  -6    0.83    0.18
   4  -4  -6    0.97    0.11
   4  -4  -6    0.98    0.19
   4  -4  -6    0.72    0.16
  -4   4   6    1.11    0.12
  -4   4   6    0.91    0.11
  -4   4   6    0.80    0.18
   4  -4  -5    0.23    0.10
   4  -4  -5    0.35    0.14
   4  -4  -5    0.30    0.10
   4  -4  -5    0.21    0.08
   4  -4  -5    0.22    0.11
  -4   4   5    0.32    0.13
  -4   4   5    0.35    0.11
  -4   4   5    0.26    0.14
   4  -4  -4    2.01    0.12
   4  -4  -4    2.15    0.13
   4  -4  -4    2.21    0.20
   4  -4  -4    2.23    0.14
  -4   4   4    2.15    0.11
  -4   4   4    2.10    0.14
  -4   4   4    2.22    0.11
  -4   4   4    2.39    0.30
   4  -4  -3    0.32    0.06
   4  -4  -3    0.38    0.07
   4  -4  -3    0.39    0.21
   4  -4  -3    0.41    0.04
  -4   4   3    0.37    0.14
  -4   4   3    0.37    0.04
  -4   4   3    0.32    0.05
  -4   4   3    0.32    0.05
   4  -4  -2    5.00    0.12
   4  -4  -2    5.00    0.12
   4  -4  -2    4.99    0.13
   4  -4  -2    5.45    0.26
   4  -4  -2    4.88    0.12
  -4   4   2    5.18    0.38
  -4   4   2    5.14    0.14
  -4   4   2    5.08    0.14
   4  -4  -1    0.04    0.03
   4  -4  -1    0.03    0.03
   4  -4  -1    0.02    0.03
   4  -4  -1    0.02    0.15
  -4   4   1   -0.08    0.10
  -4   4   1    0.01    0.04
  -4   4   1    0.03    0.03
  -4   4   1    0.04    0.04
   4  -4   0   27.74    0.44
   4  -4   0   27.94    0.44
   4  -4   0   29.32    0.45
  -4   4   0   27.52    0.45
  -4   4   0   28.73    0.86
  -4   4   0   28.10    0.43
  -4   4   0   27.50    0.46
  -4   4   0   29.44    0.75
   4  -4   1    5.76    0.12
   4  -4   1    5.74    0.12
   4  -4   1    5.88    0.12
  -4   4  -1    5.77    0.15
  -4   4  -1    6.09    0.29
  -4   4  -1    5.64    0.15
  -4   4  -1    6.15    0.30
  -4   4  -1    5.72    0.15
   4  -4   2    0.26    0.07
   4  -4   2    0.31    0.05
   4  -4   2    0.34    0.05
   4  -4   2    0.23    0.07
  -4   4  -2    0.22    0.07
  -4   4  -2    0.28    0.15
  -4   4  -2    0.31    0.14
  -4   4  -2    0.29    0.07
   4  -4   3    0.02    0.05
   4  -4   3    0.07    0.05
   4  -4   3    0.05    0.05
   4  -4   3    0.07    0.05
  -4   4  -3    0.07    0.08
  -4   4  -3    0.20    0.19
  -4   4  -3    0.06    0.12
  -4   4  -3    0.11    0.05
   4  -4   4    0.08    0.09
   4  -4   4    0.08    0.09
   4  -4   4    0.05    0.06
   4  -4   4    0.00    0.06
  -4   4  -4    0.10    0.09
  -4   4  -4    0.16    0.20
  -4   4  -4    0.11    0.13
  -4   4  -4    0.07    0.10
   4  -4   5    8.52    0.26
   4  -4   5    8.68    0.27
   4  -4   5    8.96    0.35
  -4   4  -5    8.46    0.26
  -4   4  -5    8.12    0.27
  -4   4  -5    9.19    0.42
  -4   4  -5    9.11    0.43
  -4   4  -5    8.33    0.27
   4  -4   6    0.61    0.11
   4  -4   6    0.48    0.12
   4  -4   6    0.45    0.17
  -4   4  -6    0.47    0.12
  -4   4  -6    0.45    0.19
  -4   4  -6   -0.00    0.12
  -4   4  -6    0.01    0.11
   4  -4   7    0.63    0.14
   4  -4   7    0.56    0.15
   4  -4   7    0.78    0.15
  -4   4  -7    0.52    0.22
  -4   4  -7    0.42    0.22
  -4   4  -7    0.00    0.22
  -4   4  -7    0.00    0.22
   4  -4   8    0.09    0.10
   4  -4   8   -0.04    0.16
   4  -4   8    0.01    0.10
  -4   4  -8    0.02    0.10
  -4   4  -8   -0.00    0.23
  -4   4  -8   -0.03    0.10
  -4   4  -8   -0.01    0.10
   4  -4   9    0.11    0.12
   4  -4   9    0.03    0.19
   4  -4   9    0.05    0.13
   4  -4   9    0.01    0.13
  -4   4  -9   -0.02    0.13
  -4   4  -9   -0.00    0.28
  -4   4  -9    0.04    0.13
  -4   4  -9   -0.02    0.19
   4  -4  10    1.09    0.34
   4  -4  10    0.51    0.23
   4  -4  10   -0.07    0.34
   4  -4  10    0.93    0.35
  -4   4 -10    0.80    0.22
  -4   4 -10    0.70    0.22
  -4   4 -10   -0.00    0.28
  -4   4 -10    0.67    0.22
   4  -3 -13    0.25    0.17
   4  -3 -13   -0.01    0.20
   4  -3 -13    0.12    0.17
   4  -3 -13   -0.52    0.29
   4  -3 -13   -0.09    0.22
  -4   3  13    0.37    0.21
  -4   3  13    0.19    0.20
  -4   3  13   -0.17    0.18
   4  -3 -12    0.11    0.17
   4  -3 -12    0.02    0.20
   4  -3 -12    0.18    0.17
   4  -3 -12    0.28    0.28
   4  -3 -12    0.07    0.21
  -4   3  12    0.25    0.31
  -4   3  12    0.20    0.21
  -4   3  12    0.24    0.28
   4  -3 -11    0.07    0.22
   4  -3 -11    0.01    0.17
   4  -3 -11    0.50    0.23
   4  -3 -11    0.01    0.23
   4  -3 -11    0.01    0.17
  -4   3  11    0.28    0.17
  -4   3  11   -0.16    0.17
  -4   3  11    0.04    0.23
   4  -3 -10    0.06    0.13
   4  -3 -10    0.12    0.25
   4  -3 -10    0.07    0.13
   4  -3 -10    0.05    0.21
   4  -3 -10    0.15    0.16
  -4   3  10    0.09    0.23
  -4   3  10   -0.02    0.26
  -4   3  10    0.09    0.13
   4  -3  -9    3.89    0.24
   4  -3  -9    3.84    0.31
   4  -3  -9    3.71    0.25
   4  -3  -9    3.48    0.25
   4  -3  -9    4.13    0.45
  -4   3   9    3.54    0.28
  -4   3   9    4.10    0.47
  -4   3   9    3.57    0.25
   4  -3  -8    1.06    0.23
   4  -3  -8    1.07    0.33
   4  -3  -8    1.16    0.24
   4  -3  -8    1.23    0.16
   4  -3  -8    1.28    0.20
  -4   3   8    1.29    0.19
  -4   3   8    1.16    0.16
  -4   3   8    1.10    0.34
   4  -3  -7    0.09    0.07
   4  -3  -7   -0.02    0.11
   4  -3  -7    0.11    0.08
   4  -3  -7   -0.01    0.08
   4  -3  -7   -0.04    0.16
  -4   3   7    0.09    0.15
  -4   3   7   -0.01    0.08
  -4   3   7   -0.02    0.18
   4  -3  -6    0.30    0.08
   4  -3  -6    0.35    0.14
   4  -3  -6    0.32    0.08
   4  -3  -6    0.37    0.17
   4  -3  -6    0.28    0.13
  -4   3   6    0.39    0.11
  -4   3   6    0.21    0.13
  -4   3   6    0.25    0.14
   4  -3  -5    0.13    0.09
   4  -3  -5    0.08    0.12
   4  -3  -5    0.11    0.09
   4  -3  -5    0.18    0.13
   4  -3  -5    0.14    0.06
  -4   3   5    0.11    0.06
  -4   3   5    0.13    0.11
  -4   3   5    0.17    0.08
   4  -3  -4    0.67    0.09
   4  -3  -4    0.57    0.09
   4  -3  -4    0.46    0.21
   4  -3  -4    0.68    0.06
  -4   3   4    0.58    0.09
  -4   3   4    0.62    0.14
  -4   3   4    0.29    0.21
  -4   3   4    0.51    0.09
   4  -3  -3    4.92    0.13
   4  -3  -3    4.86    0.13
   4  -3  -3    4.96    0.23
   4  -3  -3    4.78    0.13
  -4   3   3    4.94    0.22
  -4   3   3    4.78    0.12
  -4   3   3    4.77    0.21
  -4   3   3    4.98    0.23
   4  -3  -2    2.98    0.06
   4  -3  -2    2.92    0.06
   4  -3  -2    2.91    0.06
   4  -3  -2    3.37    0.29
   4  -3  -2    2.93    0.06
  -4   3   2    3.18    0.20
  -4   3   2    3.16    0.16
  -4   3   2    3.07    0.11
   4  -3  -1    2.44    0.18
  -4   3   1    2.52    0.27
  -4   3   1    2.39    0.13
  -4   3   1    2.38    0.13
  -4   3   0    0.90    0.14
  -4   3   0    0.90    0.06
  -4   3   0    0.86    0.07
  -4   3   0    1.01    0.15
   4  -3   1    1.03    0.03
   4  -3   1    1.10    0.03
   4  -3   1    1.29    0.07
   4  -3   1    1.11    0.03
  -4   3  -1    1.13    0.07
  -4   3  -1    1.41    0.24
  -4   3  -1    0.67    0.25
   4  -3   2    0.14    0.04
   4  -3   2    0.13    0.04
   4  -3   2    0.20    0.08
   4  -3   2    0.15    0.04
  -4   3  -2    0.16    0.11
  -4   3  -2    0.14    0.05
  -4   3  -2    0.14    0.11
  -4   3  -2    0.14    0.03
   4  -3   3    0.06    0.06
   4  -3   3    0.03    0.06
   4  -3   3    0.08    0.06
   4  -3   3    0.05    0.04
  -4   3  -3    0.06    0.09
  -4   3  -3    0.08    0.11
  -4   3  -3    0.05    0.06
   4  -3   4    2.90    0.16
   4  -3   4    2.86    0.17
   4  -3   4    2.81    0.14
  -4   3  -4    2.86    0.23
  -4   3  -4    2.98    0.15
  -4   3  -4    2.67    0.12
  -4   3  -4    2.90    0.23
  -4   3  -4    2.74    0.12
   4  -3   5    1.74    0.17
   4  -3   5    1.78    0.18
   4  -3   5    1.83    0.14
  -4   3  -5    1.91    0.14
  -4   3  -5    1.73    0.19
  -4   3  -5    1.76    0.22
  -4   3  -5    1.91    0.23
  -4   3  -5    1.80    0.13
   4  -3   6    3.31    0.18
   4  -3   6    3.38    0.18
   4  -3   6    3.40    0.20
  -4   3  -6    3.56    0.21
  -4   3  -6    3.24    0.18
  -4   3  -6    3.17    0.29
  -4   3  -6    3.40    0.28
  -4   3  -6    3.38    0.19
   4  -3   7    0.04    0.09
   4  -3   7    0.11    0.15
   4  -3   7    0.04    0.11
   4  -3   7   -0.02    0.09
  -4   3  -7    0.04    0.16
  -4   3  -7    0.10    0.14
  -4   3  -7    0.17    0.15
  -4   3  -7    0.08    0.15
   4  -3   8    0.57    0.24
   4  -3   8    0.64    0.23
   4  -3   8   -0.00    0.24
   4  -3   8    0.71    0.18
  -4   3  -8    0.58    0.26
  -4   3  -8    0.61    0.16
  -4   3  -8    0.70    0.22
  -4   3  -8    0.71    0.16
   4  -3   9    0.70    0.17
   4  -3   9    0.62    0.29
   4  -3   9   -0.06    0.26
   4  -3   9    0.57    0.18
  -4   3  -9    0.58    0.18
  -4   3  -9    0.95    0.23
  -4   3  -9    0.64    0.18
  -4   3  -9    0.00    0.19
   4  -3  10    0.67    0.23
   4  -3  10    0.01    0.29
   4  -3  10    0.71    0.34
  -4   3 -10    0.93    0.21
  -4   3 -10   -0.01    0.20
  -4   3 -10    1.16    0.41
  -4   3 -10    0.84    0.34
  -4   3 -10    1.00    0.21
   4  -2 -12    0.36    0.32
   4  -2 -12    0.21    0.18
   4  -2 -12    0.00    0.18
   4  -2 -12    0.20    0.29
   4  -2 -12    0.11    0.34
  -4   2  12    0.06    0.23
  -4   2  12    0.29    0.21
  -4   2  12    0.27    0.29
   4  -2 -11    0.16    0.24
   4  -2 -11    0.06    0.29
   4  -2 -11    0.30    0.25
   4  -2 -11    0.01    0.25
   4  -2 -11    0.04    0.31
  -4   2  11    0.27    0.18
  -4   2  11    0.12    0.19
  -4   2  11    0.02    0.25
   4  -2 -10    0.42    0.17
   4  -2 -10    0.38    0.20
   4  -2 -10    0.42    0.17
   4  -2 -10    0.38    0.26
   4  -2 -10    0.07    0.33
  -4   2  10    0.46    0.20
  -4   2  10    0.38    0.31
   4  -2  -9    0.68    0.17
   4  -2  -9    0.69    0.21
   4  -2  -9    0.73    0.16
   4  -2  -9    0.39    0.26
   4  -2  -9    0.74    0.21
  -4   2   9    0.70    0.21
  -4   2   9    0.70    0.32
  -4   2   9    0.32    0.25
   4  -2  -8    0.31    0.19
   4  -2  -8    0.35    0.16
   4  -2  -8    0.43    0.20
   4  -2  -8    0.30    0.19
   4  -2  -8    0.40    0.17
  -4   2   8    0.38    0.25
  -4   2   8    0.40    0.26
  -4   2   8    0.29    0.20
   4  -2  -7    0.45    0.18
   4  -2  -7    0.62    0.25
   4  -2  -7    0.62    0.18
   4  -2  -7    0.59    0.12
   4  -2  -7    0.81    0.16
  -4   2   7    0.68    0.24
  -4   2   7    0.59    0.12
  -4   2   7    0.70    0.26
   4  -2  -6    0.02    0.10
   4  -2  -6    0.05    0.10
   4  -2  -6    0.04    0.10
   4  -2  -6    0.03    0.10
   4  -2  -6    0.06    0.16
  -4   2   6    0.04    0.10
  -4   2   6    0.07    0.16
  -4   2   6    0.10    0.10
   4  -2  -5    2.56    0.17
   4  -2  -5    2.56    0.19
   4  -2  -5    2.51    0.17
   4  -2  -5    2.92    0.26
   4  -2  -5    2.72    0.17
  -4   2   5    2.63    0.17
  -4   2   5    2.64    0.19
  -4   2   5    2.41    0.17
   4  -2  -4    0.85    0.06
   4  -2  -4    0.95    0.06
   4  -2  -4    1.00    0.21
   4  -2  -4    0.77    0.06
  -4   2   4    0.84    0.06
  -4   2   4    0.82    0.11
  -4   2   4    1.01    0.13
  -4   2   4    0.72    0.18
   4  -2  -3    0.17    0.03
   4  -2  -3    0.18    0.03
   4  -2  -3    0.25    0.10
   4  -2  -3    0.22    0.05
  -4   2   3    0.20    0.04
  -4   2   3    0.20    0.07
  -4   2   3    0.18    0.08
  -4   2   3    0.24    0.10
   4  -2  -2    0.20    0.09
  -4   2   2    0.16    0.13
  -4   2   2    0.08    0.06
  -4   2   2    0.07    0.10
   4  -2  -1    7.87    0.25
  -4   2   1    7.43    0.33
  -4   2   1    7.33    0.25
  -4   2   1    7.58    0.26
  -4   2   0    0.44    0.19
  -4   2   0    1.30    0.13
  -4   2   0    1.19    0.09
  -4   2   0    1.30    0.13
   4  -2   1    0.51    0.11
  -4   2  -1    0.74    0.12
  -4   2  -1    0.69    0.07
  -4   2  -1    0.59    0.19
   4  -2   2    0.53    0.02
   4  -2   2    0.69    0.08
   4  -2   2    0.55    0.02
  -4   2  -2    0.71    0.19
  -4   2  -2    0.60    0.12
  -4   2  -2    0.57    0.12
   4  -2   3    0.55    0.06
   4  -2   3    0.53    0.09
   4  -2   3    0.55    0.04
  -4   2  -3    0.42    0.14
  -4   2  -3    0.65    0.13
  -4   2  -3    0.54    0.06
  -4   2  -3    0.56    0.13
  -4   2  -3    0.49    0.06
   4  -2   4   -0.00    0.10
   4  -2   4    0.02    0.06
  -4   2  -4    0.07    0.14
  -4   2  -4    0.10    0.09
  -4   2  -4    0.02    0.07
  -4   2  -4    0.04    0.06
  -4   2  -4    0.02    0.04
  -4   2  -4    0.03    0.06
   4  -2   5    0.34    0.11
   4  -2   5    0.49    0.10
  -4   2  -5    0.49    0.10
  -4   2  -5    0.38    0.07
  -4   2  -5    0.34    0.22
  -4   2  -5    0.15    0.22
  -4   2  -5    0.10    0.07
  -4   2  -5    0.31    0.11
   4  -2   6    0.15    0.13
   4  -2   6    0.20    0.10
  -4   2  -6    0.21    0.11
  -4   2  -6    0.19    0.13
  -4   2  -6    0.19    0.21
  -4   2  -6    0.20    0.14
  -4   2  -6    0.03    0.08
  -4   2  -6    0.13    0.13
   4  -2   7    1.07    0.22
   4  -2   7    1.33    0.24
   4  -2   7    1.45    0.27
  -4   2  -7    1.40    0.18
  -4   2  -7    1.35    0.15
  -4   2  -7    1.30    0.35
  -4   2  -7    1.34    0.15
   4  -2   8    0.44    0.16
   4  -2   8    0.56    0.20
   4  -2   8    0.42    0.22
  -4   2  -8    0.44    0.17
  -4   2  -8    0.43    0.21
  -4   2  -8    0.00    0.13
  -4   2  -8    0.42    0.19
  -4   2  -8    0.44    0.13
   4  -2   9    0.47    0.18
   4  -2   9    0.46    0.33
   4  -2   9    0.46    0.17
  -4   2  -9    0.52    0.19
  -4   2  -9    0.54    0.25
  -4   2  -9   -0.00    0.16
  -4   2  -9    0.66    0.20
  -4   2  -9    0.47    0.24
   4  -2  10    0.51    0.31
   4  -2  10    0.67    0.23
   4  -2  10    0.46    0.19
  -4   2 -10    0.75    0.32
  -4   2 -10    0.57    0.23
  -4   2 -10    0.49    0.28
  -4   2 -10    0.00    0.18
  -4   2 -10    0.49    0.28
   4  -2  11    2.50    0.31
   4  -2  11    2.17    0.39
   4  -2  11   -0.00    0.47
  -4   2 -11    2.49    0.52
  -4   2 -11    2.54    0.45
  -4   2 -11    2.22    0.43
  -4   2 -11    2.48    0.30
  -4   2 -11    2.45    0.33
   4  -1 -12   -0.00    0.35
   4  -1 -12    0.79    0.24
   4  -1 -12    0.58    0.36
   4  -1 -12    0.69    0.23
   4  -1 -12    0.69    0.29
  -4   1  12   -0.01    0.40
  -4   1  12    0.00    0.24
  -4   1  12    0.73    0.26
   4  -1 -11    0.22    0.20
   4  -1 -11    0.55    0.28
   4  -1 -11    0.10    0.28
   4  -1 -11    0.26    0.30
   4  -1 -11    0.31    0.24
  -4   1  11    0.48    0.22
  -4   1  11    0.33    0.22
  -4   1  11    0.08    0.30
   4  -1 -10    0.04    0.13
   4  -1 -10    0.03    0.11
   4  -1 -10   -0.01    0.12
   4  -1 -10   -0.04    0.12
   4  -1 -10    0.07    0.15
  -4   1  10    0.04    0.14
  -4   1  10    0.11    0.22
  -4   1  10   -0.01    0.19
   4  -1  -9    6.09    0.50
   4  -1  -9    6.03    0.31
   4  -1  -9    5.96    0.32
   4  -1  -9    5.89    0.32
   4  -1  -9    5.75    0.39
  -4   1   9    6.01    0.55
  -4   1   9    6.00    0.35
  -4   1   9    6.25    0.32
   4  -1  -8    1.00    0.17
   4  -1  -8    1.08    0.20
   4  -1  -8    1.12    0.17
   4  -1  -8    0.90    0.17
   4  -1  -8    1.09    0.35
  -4   1   8    1.15    0.32
  -4   1   8    1.06    0.20
  -4   1   8    0.95    0.17
   4  -1  -7    0.43    0.12
   4  -1  -7    0.37    0.23
   4  -1  -7    0.44    0.12
   4  -1  -7    0.39    0.11
   4  -1  -7    0.32    0.17
  -4   1   7    0.32    0.15
  -4   1   7    0.32    0.12
  -4   1   7    0.39    0.16
   4  -1  -6    3.97    0.18
   4  -1  -6    3.99    0.23
   4  -1  -6    3.82    0.18
   4  -1  -6    3.95    0.25
   4  -1  -6    3.85    0.25
  -4   1   6    4.16    0.25
  -4   1   6    3.90    0.23
  -4   1   6    4.05    0.24
   4  -1  -5   -0.02    0.08
   4  -1  -5    0.04    0.08
   4  -1  -5    0.00    0.08
   4  -1  -5    0.05    0.14
   4  -1  -5   -0.00    0.05
  -4   1   5    0.03    0.12
  -4   1   5    0.07    0.08
  -4   1   5    0.02    0.05
   4  -1  -4    1.01    0.11
   4  -1  -4    1.07    0.11
   4  -1  -4    1.05    0.19
   4  -1  -4    1.03    0.10
  -4   1   4    0.97    0.07
  -4   1   4    0.97    0.13
  -4   1   4    1.03    0.12
  -4   1   4    1.04    0.21
   4  -1  -3    5.66    0.12
   4  -1  -3    5.69    0.21
   4  -1  -3    5.61    0.14
   4  -1  -3    5.61    0.12
  -4   1   3    5.64    0.29
  -4   1   3    5.41    0.20
  -4   1   3    5.33    0.13
  -4   1   3    5.47    0.22
   4  -1  -2    0.51    0.09
  -4   1   2    0.57    0.09
  -4   1   2    0.29    0.15
  -4   1   2    0.39    0.09
   4  -1  -1    6.11    0.26
  -4   1   1    6.10    0.26
  -4   1   1    6.32    0.26
  -4   1   1    6.15    0.20
  -4   1   0    6.61    0.26
  -4   1   0    6.55    0.20
  -4   1   0    6.47    0.26
  -4   1   0    6.31    0.20
   4  -1   1    0.64    0.14
  -4   1  -1    0.69    0.14
  -4   1  -1    0.52    0.09
  -4   1  -1    0.70    0.10
   4  -1   2    1.89    0.18
  -4   1  -2    1.94    0.18
  -4   1  -2    1.99    0.19
  -4   1  -2    1.71    0.13
   4  -1   3    8.82    0.14
   4  -1   3    9.41    0.35
  -4   1  -3    9.09    0.17
  -4   1  -3    8.96    0.34
  -4   1  -3    9.56    0.37
  -4   1  -3    9.01    0.16
  -4   1  -3    8.89    0.37
  -4   1  -3    9.15    0.17
   4  -1   4    0.97    0.09
   4  -1   4    1.08    0.12
  -4   1  -4    1.09    0.13
  -4   1  -4    0.99    0.09
  -4   1  -4    1.07    0.14
  -4   1  -4    1.06    0.14
  -4   1  -4    1.00    0.09
  -4   1  -4    1.01    0.09
   4  -1   5    0.57    0.18
  -4   1  -5    0.58    0.19
  -4   1  -5    0.38    0.11
  -4   1  -5    0.50    0.13
  -4   1  -5    0.46    0.13
  -4   1  -5    0.39    0.10
  -4   1  -5    0.39    0.11
   4  -1   6    0.40    0.15
   4  -1   6    0.63    0.20
   4  -1   6    0.34    0.09
  -4   1  -6    0.46    0.20
  -4   1  -6    0.38    0.13
  -4   1  -6    0.33    0.09
  -4   1  -6    0.37    0.14
  -4   1  -6    0.46    0.13
   4  -1   7    0.78    0.16
   4  -1   7    0.62    0.12
   4  -1   7    0.72    0.29
  -4   1  -7    0.61    0.18
  -4   1  -7    0.75    0.17
  -4   1  -7    0.71    0.18
  -4   1  -7    0.63    0.12
  -4   1  -7    0.54    0.18
   4  -1   8    3.28    0.39
   4  -1   8    3.15    0.28
   4  -1   8    3.05    0.21
  -4   1  -8    3.32    0.31
  -4   1  -8    3.15    0.39
  -4   1  -8    3.13    0.21
  -4   1  -8    3.10    0.20
  -4   1  -8    3.21    0.28
   4  -1   9    1.10    0.22
   4  -1   9    0.95    0.24
   4  -1   9    1.00    0.18
  -4   1  -9    0.91    0.28
  -4   1  -9    0.97    0.24
  -4   1  -9    0.93    0.34
  -4   1  -9    1.27    0.18
  -4   1  -9    1.29    0.18
   4  -1  10    0.00    0.14
   4  -1  10    0.42    0.24
   4  -1  10    0.01    0.12
  -4   1 -10    0.09    0.19
  -4   1 -10   -0.08    0.15
  -4   1 -10    0.18    0.24
  -4   1 -10   -0.01    0.19
  -4   1 -10    0.00    0.12
   4  -1  11    0.07    0.33
   4  -1  11    0.03    0.30
   4  -1  11    0.07    0.17
  -4   1 -11    0.07    0.19
  -4   1 -11    0.30    0.20
  -4   1 -11    0.55    0.25
  -4   1 -11   -0.00    0.16
  -4   1 -11    0.07    0.25
   4   0 -12    0.01    0.36
   4   0 -12    0.52    0.36
   4   0 -12    0.63    0.24
   4   0 -12    0.60    0.33
   4   0 -12    0.56    0.25
  -4   0  12   -0.01    0.26
  -4   0  12    0.00    0.24
  -4   0  12    0.86    0.26
   4   0 -11    0.01    0.16
   4   0 -11   -0.05    0.16
   4   0 -11    0.27    0.16
   4   0 -11    0.11    0.21
   4   0 -11    0.16    0.17
  -4   0  11   -0.01    0.20
  -4   0  11   -0.00    0.26
  -4   0  11    0.13    0.27
   4   0 -10    0.06    0.13
   4   0 -10    0.04    0.13
   4   0 -10   -0.04    0.17
   4   0 -10    0.11    0.22
  -4   0  10    0.01    0.26
  -4   0  10    0.02    0.13
  -4   0  10    0.09    0.20
  -4   0  10    0.02    0.15
   4   0  -9    3.38    0.27
   4   0  -9    3.00    0.41
   4   0  -9    3.09    0.27
   4   0  -9    3.07    0.51
  -4   0   9    3.16    0.32
  -4   0   9    3.22    0.29
  -4   0   9    3.10    0.25
  -4   0   9    2.90    0.26
   4   0  -8   24.49    0.68
   4   0  -8   23.47    0.68
   4   0  -8   23.67    0.67
   4   0  -8   24.46    0.80
  -4   0   8   23.12    0.63
  -4   0   8   23.60    0.68
  -4   0   8   23.58    0.65
  -4   0   8   23.88    0.76
   4   0  -7   14.39    0.43
   4   0  -7   14.31    0.60
   4   0  -7   14.84    0.44
   4   0  -7   14.93    0.74
  -4   0   7   13.78    0.53
  -4   0   7   13.87    0.60
  -4   0   7   14.00    0.42
  -4   0   7   14.29    0.52
   4   0  -6    4.26    0.28
   4   0  -6    4.11    0.23
   4   0  -6    4.32    0.28
   4   0  -6    4.18    0.28
  -4   0   6    4.12    0.27
  -4   0   6    4.38    0.34
  -4   0   6    4.08    0.27
  -4   0   6    4.12    0.28
   4   0  -5    0.59    0.09
   4   0  -5    0.51    0.11
   4   0  -5    0.52    0.09
   4   0  -5    0.50    0.15
  -4   0   5    0.41    0.13
  -4   0   5    0.41    0.13
  -4   0   5    0.49    0.18
  -4   0   5    0.54    0.15
   4   0  -4    0.80    0.08
   4   0  -4    0.84    0.17
   4   0  -4    0.88    0.08
  -4   0   4    0.87    0.07
  -4   0   4    0.82    0.07
  -4   0   4    0.93    0.11
  -4   0   4    0.83    0.14
  -4   0   4    0.93    0.15
   4   0  -3    0.07    0.05
   4   0  -3    0.07    0.10
   4   0  -3    0.00    0.03
   4   0  -3    0.05    0.05
  -4   0   3    0.07    0.05
  -4   0   3    0.09    0.08
  -4   0   3    0.07    0.10
  -4   0   3    0.11    0.14
   4   0  -2    1.68    0.15
   4   0  -2    1.55    0.06
   4   0  -2    1.64    0.07
  -4   0   2    1.59    0.06
  -4   0   2    1.65    0.15
  -4   0   2    1.62    0.06
  -4   0   2    1.78    0.15
  -4   0   2    1.64    0.10
   4   0  -1    2.82    0.12
  -4   0   1    2.88    0.24
  -4   0   1    2.85    0.17
  -4   0   1    2.76    0.16
  -4   0   0    3.40    0.13
  -4   0   0    3.67    0.24
  -4   0   0    3.44    0.13
  -4   0   0    3.42    0.25
   4   0   1    0.88    0.17
  -4   0  -1    0.83    0.13
  -4   0  -1    0.94    0.11
  -4   0  -1    0.85    0.08
   4   0   2   -0.01    0.09
  -4   0  -2   -0.05    0.06
  -4   0  -2    0.01    0.05
  -4   0  -2    0.01    0.07
   4   0   3    0.20    0.03
   4   0   3    0.27    0.09
  -4   0  -3    0.27    0.08
  -4   0  -3    0.15    0.03
  -4   0  -3    0.27    0.09
  -4   0  -3    0.27    0.08
  -4   0  -3    0.20    0.03
  -4   0  -3    0.21    0.03
   4   0   4    1.46    0.21
   4   0   4    1.07    0.09
  -4   0  -4    1.18    0.09
  -4   0  -4    1.18    0.09
  -4   0  -4    1.29    0.21
  -4   0  -4    1.21    0.18
  -4   0  -4    1.18    0.12
  -4   0  -4    1.14    0.09
   4   0   5    0.22    0.10
   4   0   5    0.13    0.06
  -4   0  -5    0.15    0.05
  -4   0  -5    0.25    0.09
  -4   0  -5    0.16    0.11
  -4   0  -5    0.13    0.06
  -4   0  -5    0.24    0.10
  -4   0  -5    0.18    0.05
   4   0   6   -0.03    0.11
   4   0   6    0.17    0.10
   4   0   6    0.09    0.06
  -4   0  -6    0.06    0.10
  -4   0  -6    0.16    0.11
  -4   0  -6    0.05    0.10
  -4   0  -6    0.06    0.06
  -4   0  -6    0.02    0.10
   4   0   7    0.88    0.26
   4   0   7    0.85    0.16
   4   0   7    0.61    0.17
  -4   0  -7    0.62    0.17
  -4   0  -7    0.75    0.26
  -4   0  -7    0.69    0.17
  -4   0  -7    0.60    0.17
  -4   0  -7    0.73    0.16
   4   0   8    1.15    0.20
   4   0   8    1.17    0.30
   4   0   8    0.83    0.15
  -4   0  -8    0.91    0.15
  -4   0  -8    0.99    0.30
  -4   0  -8    1.23    0.32
  -4   0  -8    1.21    0.15
  -4   0  -8    1.16    0.15
   4   0   9    0.12    0.15
   4   0   9    0.12    0.23
   4   0   9    0.03    0.11
  -4   0  -9    0.09    0.11
  -4   0  -9    0.02    0.22
  -4   0  -9    0.07    0.23
  -4   0  -9    0.05    0.11
  -4   0  -9    0.04    0.10
   4   0  10   -0.11    0.13
   4   0  10    0.04    0.12
   4   0  10    0.01    0.10
  -4   0 -10   -0.04    0.10
  -4   0 -10    0.07    0.12
  -4   0 -10    0.08    0.12
  -4   0 -10   -0.02    0.10
  -4   0 -10    0.04    0.09
   4   0  11    0.66    0.24
   4   0  11    0.51    0.23
   4   0  11    0.35    0.20
  -4   0 -11    0.67    0.30
  -4   0 -11    0.68    0.25
  -4   0 -11    0.52    0.30
  -4   0 -11    0.48    0.23
  -4   0 -11    0.41    0.19
   4   0  12   -0.10    0.19
   4   0  12    0.17    0.19
   4   0  12    0.00    0.15
  -4   0 -12   -0.00    0.16
  -4   0 -12    0.12    0.19
  -4   0 -12   -0.12    0.16
  -4   0 -12    0.23    0.18
  -4   0 -12    0.10    0.15
   4   1 -12   -0.00    0.31
   4   1 -12    0.46    0.30
   4   1 -12    0.18    0.39
   4   1 -12    0.21    0.31
  -4  -1  12    0.00    0.36
  -4  -1  12    0.03    0.19
  -4  -1  12    0.00    0.20
  -4  -1  12    0.14    0.21
   4   1 -11    0.01    0.20
   4   1 -11    0.59    0.20
   4   1 -11    0.56    0.42
   4   1 -11    0.60    0.33
  -4  -1  11    0.00    0.25
  -4  -1  11    0.48    0.20
  -4  -1  11   -0.00    0.21
  -4  -1  11    0.63    0.34
   4   1 -10    0.00    0.19
   4   1 -10    0.47    0.18
   4   1 -10    0.41    0.25
   4   1 -10    0.62    0.30
  -4  -1  10    0.00    0.23
  -4  -1  10    0.30    0.29
  -4  -1  10    0.43    0.30
  -4  -1  10    0.66    0.20
   4   1  -9    1.83    0.23
   4   1  -9    1.41    0.23
   4   1  -9    1.55    0.31
   4   1  -9    1.93    0.24
  -4  -1   9    1.89    0.23
  -4  -1   9    1.57    0.24
  -4  -1   9    1.92    0.24
  -4  -1   9   -0.00    0.44
   4   1  -8    6.92    0.34
   4   1  -8    6.46    0.34
   4   1  -8    6.53    0.44
   4   1  -8    6.58    0.34
  -4  -1   8    6.61    0.47
  -4  -1   8    6.11    0.48
  -4  -1   8    6.51    0.49
  -4  -1   8    6.21    0.61
   4   1  -7   12.81    0.57
   4   1  -7   13.19    0.57
   4   1  -7   12.87    0.57
   4   1  -7   13.63    0.55
  -4  -1   7   13.04    0.45
  -4  -1   7   12.91    0.42
  -4  -1   7   12.69    0.43
  -4  -1   7   12.70    0.53
   4   1  -6    4.93    0.24
   4   1  -6    4.90    0.23
   4   1  -6    5.12    0.33
   4   1  -6    5.19    0.23
  -4  -1   6    5.13    0.23
  -4  -1   6    5.27    0.24
  -4  -1   6    4.97    0.23
  -4  -1   6    5.04    0.32
   4   1  -5    0.12    0.09
   4   1  -5    0.20    0.13
   4   1  -5    0.15    0.14
   4   1  -5    0.13    0.13
  -4  -1   5    0.13    0.12
  -4  -1   5    0.09    0.14
  -4  -1   5    0.15    0.13
  -4  -1   5    0.20    0.21
   4   1  -4   -0.01    0.10
   4   1  -4    0.01    0.09
   4   1  -4    0.07    0.09
  -4  -1   4    0.01    0.09
  -4  -1   4    0.08    0.09
  -4  -1   4    0.08    0.10
  -4  -1   4    0.09    0.10
  -4  -1   4    0.05    0.16
   4   1  -3    1.32    0.08
   4   1  -3    1.21    0.10
   4   1  -3    1.24    0.08
  -4  -1   3    1.29    0.08
  -4  -1   3    1.33    0.08
  -4  -1   3    1.27    0.10
  -4  -1   3    1.31    0.17
  -4  -1   3    1.20    0.17
   4   1  -2    7.58    0.24
   4   1  -2    7.77    0.19
  -4  -1   2    7.35    0.15
  -4  -1   2    7.35    0.15
  -4  -1   2    8.03    0.40
  -4  -1   2    7.47    0.15
  -4  -1   2    7.53    0.24
  -4  -1   2    7.57    0.29
   4   1  -1    0.88    0.10
   4   1  -1    0.92    0.05
  -4  -1   1    0.88    0.05
  -4  -1   1    0.91    0.05
  -4  -1   1    0.88    0.13
  -4  -1   1    0.93    0.04
  -4  -1   1    0.96    0.14
  -4  -1   1    0.95    0.09
  -4  -1   0    0.01    0.08
  -4  -1   0    0.04    0.04
  -4  -1   0    0.05    0.12
  -4  -1   0    0.02    0.05
   4   1   1    1.32    0.21
  -4  -1  -1    1.51    0.07
  -4  -1  -1    1.54    0.08
  -4  -1  -1    1.54    0.14
   4   1   2    3.97    0.20
  -4  -1  -2    3.77    0.15
  -4  -1  -2    3.81    0.12
  -4  -1  -2    3.61    0.29
   4   1   3    3.71    0.19
   4   1   3    3.75    0.10
  -4  -1  -3    3.65    0.10
  -4  -1  -3    3.70    0.10
  -4  -1  -3    4.06    0.29
  -4  -1  -3    3.77    0.14
  -4  -1  -3    3.64    0.18
  -4  -1  -3    3.61    0.10
   4   1   4    0.84    0.14
   4   1   4    0.80    0.08
  -4  -1  -4    0.80    0.05
  -4  -1  -4    0.77    0.06
  -4  -1  -4    0.88    0.14
  -4  -1  -4    0.89    0.09
  -4  -1  -4    0.74    0.10
  -4  -1  -4    0.81    0.08
   4   1   5    0.91    0.24
   4   1   5    0.89    0.08
  -4  -1  -5    1.00    0.11
  -4  -1  -5    0.93    0.23
  -4  -1  -5    0.84    0.12
  -4  -1  -5    0.90    0.08
  -4  -1  -5    0.92    0.11
   4   1   6    0.30    0.16
   4   1   6    0.33    0.20
   4   1   6    0.28    0.12
  -4  -1  -6    0.19    0.11
  -4  -1  -6    0.28    0.13
  -4  -1  -6    0.10    0.12
  -4  -1  -6    0.25    0.07
  -4  -1  -6    0.31    0.10
   4   1   7   -0.07    0.11
   4   1   7    0.05    0.14
   4   1   7    0.04    0.07
  -4  -1  -7    0.00    0.07
  -4  -1  -7    0.02    0.09
  -4  -1  -7    0.01    0.11
  -4  -1  -7    0.07    0.07
  -4  -1  -7    0.04    0.07
   4   1   8    3.79    0.26
   4   1   8    3.62    0.28
   4   1   8    3.47    0.29
  -4  -1  -8    3.28    0.20
  -4  -1  -8    3.57    0.28
  -4  -1  -8    3.59    0.35
  -4  -1  -8    3.18    0.20
  -4  -1  -8    3.79    0.29
   4   1   9    4.22    0.30
   4   1   9    3.96    0.33
   4   1   9    4.17    0.24
  -4  -1  -9    4.10    0.35
  -4  -1  -9    3.92    0.33
  -4  -1  -9    3.76    0.28
  -4  -1  -9    3.95    0.36
  -4  -1  -9    3.97    0.25
   4   1  10    0.04    0.21
   4   1  10    0.06    0.10
   4   1  10   -0.07    0.19
  -4  -1 -10   -0.01    0.11
  -4  -1 -10    0.00    0.14
  -4  -1 -10   -0.01    0.10
  -4  -1 -10   -0.01    0.12
  -4  -1 -10    0.07    0.10
   4   1  11    0.29    0.19
   4   1  11    0.13    0.15
   4   1  11   -0.00    0.28
  -4  -1 -11    0.07    0.15
  -4  -1 -11    0.24    0.20
  -4  -1 -11    0.17    0.16
  -4  -1 -11   -0.02    0.27
  -4  -1 -11    0.11    0.15
   4   1  12    1.38    0.30
   4   1  12    1.17    0.27
   4   1  12    1.00    0.43
  -4  -1 -12    1.24    0.38
  -4  -1 -12    1.44    0.33
  -4  -1 -12    1.34    0.39
  -4  -1 -12    1.22    0.29
  -4  -1 -12    1.15    0.25
   4   2 -11    0.01    0.18
   4   2 -11    0.04    0.23
   4   2 -11    0.28    0.17
   4   2 -11    0.00    0.18
  -4  -2  11   -0.00    0.22
  -4  -2  11    0.18    0.18
  -4  -2  11   -0.00    0.18
  -4  -2  11    0.10    0.28
   4   2 -10    0.01    0.14
   4   2 -10    0.02    0.18
   4   2 -10   -0.04    0.14
   4   2 -10   -0.00    0.14
  -4  -2  10   -0.00    0.17
  -4  -2  10    0.41    0.22
  -4  -2  10    0.00    0.23
  -4  -2  10    0.03    0.14
   4   2  -9    1.59    0.24
   4   2  -9    1.64    0.31
   4   2  -9    1.56    0.22
   4   2  -9    1.68    0.24
  -4  -2   9    1.38    0.24
  -4  -2   9    1.33    0.24
  -4  -2   9    1.27    0.36
  -4  -2   9    0.00    0.29
   4   2  -8    9.95    0.43
   4   2  -8    9.94    0.53
   4   2  -8    9.74    0.54
   4   2  -8   10.06    0.43
  -4  -2   8    9.82    0.55
  -4  -2   8    9.89    0.42
  -4  -2   8   10.01    0.58
  -4  -2   8    9.77    0.50
   4   2  -7    8.91    0.50
   4   2  -7    8.48    0.47
   4   2  -7    8.50    0.49
   4   2  -7    8.92    0.47
  -4  -2   7    8.57    0.35
  -4  -2   7    8.52    0.36
  -4  -2   7    8.86    0.49
  -4  -2   7    8.58    0.45
   4   2  -6    1.09    0.15
   4   2  -6    0.78    0.37
   4   2  -6    0.98    0.15
   4   2  -6    0.87    0.14
  -4  -2   6    0.87    0.23
  -4  -2   6    0.94    0.24
  -4  -2   6    0.88    0.35
  -4  -2   6    1.00    0.14
   4   2  -5    1.65    0.14
   4   2  -5    1.65    0.22
   4   2  -5    1.40    0.24
   4   2  -5    1.48    0.23
  -4  -2   5    1.79    0.21
  -4  -2   5    1.48    0.14
  -4  -2   5    1.61    0.14
  -4  -2   5    2.00    0.23
   4   2  -4    1.28    0.11
   4   2  -4    1.43    0.18
   4   2  -4    1.37    0.18
  -4  -2   4    1.31    0.17
  -4  -2   4    1.60    0.18
  -4  -2   4    1.29    0.18
  -4  -2   4    1.58    0.19
  -4  -2   4    1.28    0.20
   4   2  -3    4.75    0.16
   4   2  -3    4.73    0.15
   4   2  -3    4.80    0.17
  -4  -2   3    4.78    0.22
  -4  -2   3    4.59    0.15
  -4  -2   3    4.71    0.22
  -4  -2   3    4.97    0.27
  -4  -2   3    4.97    0.28
   4   2  -2   38.15    0.69
   4   2  -2   38.34    0.70
  -4  -2   2   37.99    0.66
  -4  -2   2   37.35    0.67
  -4  -2   2   39.65    0.75
  -4  -2   2   38.99    1.04
  -4  -2   2   37.96    0.66
  -4  -2   2   39.59    1.06
   4   2  -1    1.03    0.08
   4   2  -1    1.19    0.09
  -4  -2   1    1.02    0.09
  -4  -2   1    1.02    0.09
  -4  -2   1    1.00    0.05
  -4  -2   1    1.16    0.16
  -4  -2   1    1.18    0.09
  -4  -2   1    1.25    0.17
   4   2   0    2.05    0.09
  -4  -2   0    1.93    0.08
  -4  -2   0    1.93    0.08
  -4  -2   0    2.14    0.28
  -4  -2   0    2.05    0.09
  -4  -2   0    1.99    0.27
  -4  -2   0    2.07    0.08
  -4  -2   0    1.96    0.08
   4   2   1    0.50    0.12
   4   2   1    0.49    0.05
  -4  -2  -1    0.44    0.05
  -4  -2  -1    0.47    0.05
  -4  -2  -1    0.38    0.12
  -4  -2  -1    0.49    0.05
  -4  -2  -1    0.45    0.05
  -4  -2  -1    0.43    0.05
   4   2   2    1.60    0.16
  -4  -2  -2    1.32    0.06
  -4  -2  -2    1.44    0.08
  -4  -2  -2    1.42    0.07
  -4  -2  -2    1.59    0.16
  -4  -2  -2    1.40    0.05
  -4  -2  -2    1.32    0.07
   4   2   3    0.21    0.11
   4   2   3    0.19    0.06
  -4  -2  -3    0.17    0.04
  -4  -2  -3    0.19    0.04
  -4  -2  -3    0.18    0.18
  -4  -2  -3    0.19    0.04
  -4  -2  -3    0.20    0.07
  -4  -2  -3    0.20    0.04
   4   2   4    0.52    0.21
   4   2   4    0.37    0.08
  -4  -2  -4    0.30    0.08
  -4  -2  -4    0.41    0.13
  -4  -2  -4    0.25    0.08
  -4  -2  -4    0.36    0.06
  -4  -2  -4    0.41    0.08
  -4  -2  -4    0.39    0.06
   4   2   5    0.67    0.09
   4   2   5    0.59    0.08
   4   2   5    0.75    0.16
  -4  -2  -5    0.69    0.09
  -4  -2  -5    0.44    0.11
  -4  -2  -5    0.67    0.24
  -4  -2  -5    0.51    0.11
  -4  -2  -5    0.83    0.08
   4   2   6    0.74    0.11
   4   2   6    0.72    0.16
   4   2   6    0.63    0.14
  -4  -2  -6    0.75    0.09
  -4  -2  -6    0.62    0.16
  -4  -2  -6    0.67    0.16
  -4  -2  -6    0.75    0.09
  -4  -2  -6    0.68    0.14
   4   2   7    0.62    0.13
   4   2   7    0.33    0.16
   4   2   7    0.44    0.26
  -4  -2  -7    0.46    0.10
  -4  -2  -7    0.52    0.12
  -4  -2  -7    0.48    0.17
  -4  -2  -7    0.48    0.11
  -4  -2  -7    0.44    0.16
   4   2   8    1.71    0.24
   4   2   8    1.57    0.16
  -4  -2  -8    1.29    0.23
  -4  -2  -8    1.57    0.24
  -4  -2  -8    1.64    0.18
  -4  -2  -8    1.31    0.24
  -4  -2  -8    1.55    0.16
   4   2   9    0.08    0.14
   4   2   9    0.03    0.11
   4   2   9    0.03    0.16
  -4  -2  -9    0.06    0.10
  -4  -2  -9   -0.08    0.14
  -4  -2  -9    0.05    0.11
  -4  -2  -9    0.08    0.10
  -4  -2  -9    0.05    0.16
   4   2  10    0.35    0.15
   4   2  10    0.36    0.20
   4   2  10    0.47    0.17
  -4  -2 -10    0.29    0.24
  -4  -2 -10   -0.00    0.21
  -4  -2 -10    0.47    0.24
  -4  -2 -10    0.42    0.17
  -4  -2 -10    0.37    0.16
   4   2  11    0.35    0.31
   4   2  11    0.23    0.17
   4   2  11    0.36    0.18
  -4  -2 -11    0.26    0.17
  -4  -2 -11    0.00    0.22
  -4  -2 -11    0.18    0.17
  -4  -2 -11    0.32    0.18
  -4  -2 -11    0.26    0.17
   4   2  12    0.63    0.31
   4   2  12   -0.03    0.16
   4   2  12    0.14    0.17
  -4  -2 -12    0.05    0.25
  -4  -2 -12    0.04    0.20
  -4  -2 -12    0.23    0.26
  -4  -2 -12    0.08    0.17
  -4  -2 -12    0.05    0.16
   4   3 -11   -0.01    0.21
   4   3 -11   -0.00    0.40
   4   3 -11    0.42    0.30
   4   3 -11   -0.00    0.21
  -4  -3  11    0.00    0.40
  -4  -3  11    0.34    0.21
  -4  -3  11    0.30    0.20
  -4  -3  11    0.00    0.34
   4   3 -10    0.02    0.15
   4   3 -10    0.12    0.31
   4   3 -10    0.29    0.22
   4   3 -10   -0.01    0.15
  -4  -3  10   -0.00    0.19
  -4  -3  10    0.00    0.16
  -4  -3  10    0.00    0.16
  -4  -3  10    0.02    0.14
   4   3  -9    3.22    0.31
   4   3  -9    3.07    0.40
   4   3  -9    3.44    0.41
   4   3  -9    3.24    0.31
  -4  -3   9    3.18    0.31
  -4  -3   9    3.28    0.32
  -4  -3   9    3.28    0.30
  -4  -3   9    3.24    0.38
   4   3  -8    0.25    0.17
   4   3  -8    0.47    0.23
   4   3  -8    0.31    0.23
   4   3  -8    0.39    0.18
  -4  -3   8    0.29    0.17
  -4  -3   8    0.36    0.17
  -4  -3   8    0.29    0.24
  -4  -3   8    0.00    0.22
   4   3  -7    0.36    0.24
   4   3  -7    0.10    0.34
   4   3  -7    0.30    0.13
   4   3  -7    0.27    0.24
  -4  -3   7    0.38    0.15
  -4  -3   7    0.47    0.16
  -4  -3   7    0.32    0.14
  -4  -3   7    0.45    0.21
   4   3  -6    0.27    0.13
   4   3  -6    0.30    0.20
   4   3  -6    0.23    0.10
   4   3  -6    0.31    0.13
  -4  -3   6    0.22    0.20
  -4  -3   6    0.23    0.20
  -4  -3   6    0.25    0.12
  -4  -3   6    0.24    0.19
   4   3  -5    2.49    0.27
   4   3  -5    2.40    0.27
   4   3  -5    2.34    0.15
  -4  -3   5    2.20    0.18
  -4  -3   5    2.20    0.18
  -4  -3   5    2.38    0.22
  -4  -3   5    2.22    0.26
   4   3  -4    0.24    0.07
   4   3  -4    0.21    0.15
   4   3  -4    0.15    0.15
  -4  -3   4    0.23    0.10
  -4  -3   4    0.23    0.10
  -4  -3   4    0.23    0.24
  -4  -3   4    0.24    0.12
  -4  -3   4    0.17    0.16
   4   3  -3    3.21    0.16
   4   3  -3    2.97    0.16
  -4  -3   3    3.16    0.16
  -4  -3   3    3.10    0.15
  -4  -3   3    3.52    0.25
  -4  -3   3    3.18    0.16
  -4  -3   3    2.99    0.26
  -4  -3   3    3.14    0.12
   4   3  -2    5.35    0.15
   4   3  -2    5.55    0.25
  -4  -3   2    5.32    0.17
  -4  -3   2    5.32    0.18
  -4  -3   2    5.86    0.43
  -4  -3   2    5.53    0.24
  -4  -3   2    5.55    0.44
  -4  -3   2    5.34    0.12
   4   3  -1   12.91    0.22
   4   3  -1   13.02    0.29
  -4  -3   1   12.99    0.33
  -4  -3   1   12.80    0.32
  -4  -3   1   12.58    0.42
  -4  -3   1   13.15    0.28
  -4  -3   1   13.88    0.45
  -4  -3   1   12.65    0.19
   4   3   0    4.95    0.14
  -4  -3   0    5.02    0.18
  -4  -3   0    5.07    0.18
  -4  -3   0    5.22    0.27
  -4  -3   0    5.06    0.38
  -4  -3   0    5.02    0.14
   4   3   1    2.22    0.18
   4   3   1    2.14    0.12
  -4  -3  -1    2.12    0.08
  -4  -3  -1    1.97    0.28
  -4  -3  -1    2.06    0.12
  -4  -3  -1    2.09    0.08
   4   3   2    2.79    0.30
   4   3   2    2.73    0.13
  -4  -3  -2    2.63    0.09
  -4  -3  -2    2.81    0.21
  -4  -3  -2    2.69    0.12
  -4  -3  -2    2.64    0.09
   4   3   3    0.03    0.06
   4   3   3    0.03    0.04
   4   3   3    0.01    0.09
  -4  -3  -3    0.02    0.03
  -4  -3  -3    0.00    0.02
  -4  -3  -3    0.04    0.09
  -4  -3  -3    0.06    0.06
  -4  -3  -3    0.04    0.04
   4   3   4   14.10    0.29
   4   3   4   14.36    0.44
  -4  -3  -4   13.68    0.33
  -4  -3  -4   13.65    0.34
  -4  -3  -4   14.13    0.29
  -4  -3  -4   13.65    0.25
  -4  -3  -4   14.29    0.45
  -4  -3  -4   14.33    0.30
   4   3   5    1.08    0.09
   4   3   5    1.12    0.19
   4   3   5    1.11    0.09
  -4  -3  -5    1.03    0.09
  -4  -3  -5    1.22    0.12
  -4  -3  -5    0.96    0.18
  -4  -3  -5    1.14    0.10
  -4  -3  -5    1.06    0.10
   4   3   6    2.38    0.19
   4   3   6    2.39    0.23
   4   3   6    2.58    0.15
  -4  -3  -6    2.40    0.14
  -4  -3  -6    2.53    0.24
  -4  -3  -6    2.42    0.14
  -4  -3  -6    2.34    0.19
  -4  -3  -6    2.59    0.21
   4   3   7    0.02    0.11
   4   3   7    0.02    0.12
   4   3   7    0.01    0.07
  -4  -3  -7    0.00    0.07
  -4  -3  -7   -0.04    0.12
  -4  -3  -7    0.09    0.07
  -4  -3  -7    0.03    0.07
  -4  -3  -7    0.03    0.07
   4   3   8    0.92    0.23
   4   3   8    1.14    0.15
   4   3   8    0.84    0.15
  -4  -3  -8    0.88    0.14
  -4  -3  -8    0.92    0.35
  -4  -3  -8    0.89    0.15
  -4  -3  -8    0.86    0.14
  -4  -3  -8    0.97    0.15
   4   3   9    9.24    0.46
   4   3   9    8.67    0.48
   4   3   9    8.35    0.48
  -4  -3  -9    8.51    0.63
  -4  -3  -9    8.24    0.47
  -4  -3  -9    8.38    0.46
  -4  -3  -9    8.36    0.47
   4   3  10    0.16    0.13
   4   3  10    0.03    0.09
   4   3  10   -0.07    0.10
  -4  -3 -10   -0.04    0.09
  -4  -3 -10   -0.06    0.20
  -4  -3 -10   -0.06    0.10
  -4  -3 -10    0.09    0.09
  -4  -3 -10   -0.00    0.09
   4   3  11   -0.02    0.17
   4   3  11    0.07    0.13
   4   3  11    0.13    0.13
  -4  -3 -11    0.07    0.13
  -4  -3 -11    0.15    0.27
  -4  -3 -11    0.08    0.14
  -4  -3 -11    0.02    0.13
  -4  -3 -11   -0.04    0.13
   4   3  12    0.29    0.20
   4   3  12    0.65    0.25
   4   3  12    0.41    0.20
  -4  -3 -12    0.72    0.31
  -4  -3 -12    0.45    0.26
  -4  -3 -12    0.00    0.32
  -4  -3 -12    0.50    0.31
  -4  -3 -12    0.41    0.20
   4   3  13    0.07    0.20
   4   3  13    0.21    0.17
   4   3  13    0.07    0.17
  -4  -3 -13    0.03    0.17
  -4  -3 -13    0.00    0.21
  -4  -3 -13   -0.06    0.17
  -4  -3 -13    0.16    0.17
  -4  -3 -13   -0.00    0.17
   4   4 -10    0.00    0.21
   4   4 -10    0.25    0.25
   4   4 -10    0.37    0.20
   4   4 -10   -0.00    0.21
  -4  -4  10   -0.00    0.39
  -4  -4  10    0.16    0.30
  -4  -4  10    0.46    0.21
  -4  -4  10    0.14    0.21
   4   4  -9    0.01    0.24
   4   4  -9    1.64    0.31
   4   4  -9    1.22    0.22
   4   4  -9    0.01    0.25
  -4  -4   9    1.67    0.37
  -4  -4   9    0.94    0.22
  -4  -4   9    1.73    0.38
  -4  -4   9   -0.00    0.30
   4   4  -8   -0.01    0.16
   4   4  -8   -0.07    0.33
   4   4  -8    0.26    0.14
   4   4  -8   -0.01    0.16
  -4  -4   8    0.17    0.16
  -4  -4   8    0.17    0.14
  -4  -4   8    0.28    0.16
  -4  -4   8   -0.00    0.20
   4   4  -7    2.40    0.37
   4   4  -7    2.15    0.33
   4   4  -7    2.19    0.20
   4   4  -7    2.13    0.37
  -4  -4   7    2.00    0.24
  -4  -4   7    2.13    0.21
  -4  -4   7    2.17    0.25
  -4  -4   7    2.05    0.31
   4   4  -6    0.11    0.12
   4   4  -6    0.26    0.18
   4   4  -6   -0.05    0.14
   4   4  -6    0.08    0.13
  -4  -4   6    0.07    0.19
  -4  -4   6    0.10    0.15
  -4  -4   6    0.13    0.20
  -4  -4   6    0.09    0.17
   4   4  -5    0.01    0.15
   4   4  -5    0.03    0.06
   4   4  -5   -0.01    0.15
  -4  -4   5    0.02    0.09
  -4  -4   5    0.01    0.11
  -4  -4   5    0.06    0.09
  -4  -4   5    0.04    0.13
  -4  -4   5   -0.08    0.14
   4   4  -4    1.41    0.15
   4   4  -4    1.34    0.24
   4   4  -4    1.36    0.16
  -4  -4   4    1.38    0.16
  -4  -4   4    1.46    0.16
  -4  -4   4    1.17    0.16
  -4  -4   4    1.16    0.24
  -4  -4   4    1.25    0.24
   4   4  -3    0.61    0.06
   4   4  -3    0.75    0.18
  -4  -4   3    0.69    0.12
  -4  -4   3    0.74    0.12
  -4  -4   3    0.67    0.07
  -4  -4   3    0.50    0.29
  -4  -4   3    0.02    0.18
  -4  -4   3    0.64    0.19
   4   4  -2    0.11    0.05
   4   4  -2    0.21    0.08
  -4  -4   2    0.11    0.11
  -4  -4   2    0.08    0.03
  -4  -4   2    0.09    0.12
  -4  -4   2    0.07    0.21
  -4  -4   2    0.01    0.07
  -4  -4   2    0.09    0.21
   4   4  -1    1.82    0.12
  -4  -4   1    1.79    0.12
  -4  -4   1    1.69    0.12
  -4  -4   1    2.20    0.32
  -4  -4   1    1.92    0.12
  -4  -4   1    1.82    0.22
   4   4   0    0.66    0.09
  -4  -4   0    0.72    0.09
  -4  -4   0    0.71    0.17
  -4  -4   0    0.42    0.13
  -4  -4   0    0.75    0.17
   4   4   1    0.02    0.10
   4   4   1   -0.00    0.08
  -4  -4  -1    0.02    0.07
  -4  -4  -1    0.00    0.10
  -4  -4  -1    0.09    0.11
  -4  -4  -1    0.06    0.08
  -4  -4  -1    0.05    0.08
   4   4   2    0.93    0.17
   4   4   2    0.98    0.08
  -4  -4  -2    0.84    0.08
  -4  -4  -2    0.86    0.17
  -4  -4  -2    0.90    0.13
  -4  -4  -2    0.93    0.08
   4   4   3   10.06    0.30
   4   4   3   10.06    0.30
   4   4   3   11.01    0.53
  -4  -4  -3   10.35    0.38
  -4  -4  -3    9.82    0.30
  -4  -4  -3   10.33    0.31
   4   4   4    1.57    0.29
   4   4   4    1.46    0.11
   4   4   4    1.52    0.15
  -4  -4  -4    1.49    0.31
  -4  -4  -4    1.43    0.10
  -4  -4  -4    1.32    0.06
  -4  -4  -4    1.43    0.15
   4   4   5    1.23    0.07
   4   4   5    1.19    0.20
   4   4   5    1.28    0.11
   4   4   5    0.89    0.10
  -4  -4  -5    1.07    0.20
  -4  -4  -5    0.80    0.16
  -4  -4  -5    1.12    0.09
  -4  -4  -5    1.23    0.17
   4   4   6    1.17    0.09
   4   4   6    1.07    0.32
   4   4   6    1.23    0.19
  -4  -4  -6    1.04    0.12
  -4  -4  -6    1.30    0.13
  -4  -4  -6    1.12    0.21
  -4  -4  -6    1.17    0.09
  -4  -4  -6    1.18    0.13
   4   4   7    0.30    0.08
   4   4   7    0.24    0.27
   4   4   7    0.35    0.17
  -4  -4  -7    0.26    0.10
  -4  -4  -7    0.15    0.28
  -4  -4  -7    0.32    0.11
  -4  -4  -7    0.22    0.08
  -4  -4  -7    0.33    0.17
   4   4   8    6.70    0.40
   4   4   8    7.05    0.39
   4   4   8    6.79    0.34
  -4  -4  -8    6.45    0.29
  -4  -4  -8    7.18    0.58
  -4  -4  -8    6.80    0.30
  -4  -4  -8    6.64    0.25
  -4  -4  -8    6.59    0.40
   4   4   9    0.46    0.22
   4   4   9    0.50    0.15
   4   4   9    0.37    0.13
  -4  -4  -9    0.33    0.22
  -4  -4  -9    0.36    0.15
  -4  -4  -9    0.30    0.13
  -4  -4  -9    0.41    0.15
   4   4  10   10.40    0.53
   4   4  10   10.09    0.43
   4   4  10   10.36    0.40
  -4  -4 -10   10.03    0.53
  -4  -4 -10    9.96    0.44
  -4  -4 -10    9.66    0.39
  -4  -4 -10   10.08    0.43
   4   4  11    0.20    0.33
   4   4  11    0.20    0.16
   4   4  11    0.22    0.23
  -4  -4 -11    0.11    0.25
  -4  -4 -11    0.20    0.34
  -4  -4 -11    0.18    0.26
  -4  -4 -11    0.23    0.23
  -4  -4 -11    0.19    0.16
   4   4  12   -0.11    0.13
   4   4  12   -0.25    0.17
   4   4  12   -0.10    0.16
  -4  -4 -12    0.07    0.10
  -4  -4 -12    0.02    0.22
  -4  -4 -12   -0.00    0.11
  -4  -4 -12   -0.04    0.16
  -4  -4 -12    0.16    0.11
   4   4  13   -0.07    0.18
   4   4  13    0.21    0.24
   4   4  13   -0.19    0.15
  -4  -4 -13    0.16    0.15
  -4  -4 -13    0.02    0.20
  -4  -4 -13   -0.01    0.15
  -4  -4 -13    0.12    0.15
  -4  -4 -13    0.06    0.25
   4   5  -9   -0.02    0.20
   4   5  -9    0.10    0.24
   4   5  -9    0.14    0.26
   4   5  -9   -0.05    0.20
  -4  -5   9    0.37    0.19
  -4  -5   9    0.28    0.20
  -4  -5   9    0.35    0.26
  -4  -5   9   -0.00    0.37
   4   5  -8   -0.00    0.15
   4   5  -8    0.05    0.19
   4   5  -8    0.03    0.18
   4   5  -8    0.03    0.15
  -4  -5   8    0.08    0.19
  -4  -5   8   -0.08    0.23
  -4  -5   8    0.26    0.24
  -4  -5   8   -0.01    0.18
   4   5  -7    0.18    0.15
   4   5  -7    0.21    0.21
   4   5  -7    0.12    0.18
   4   5  -7    0.00    0.16
  -4  -5   7    0.07    0.19
  -4  -5   7    0.20    0.15
  -4  -5   7    0.10    0.25
  -4  -5   7    0.00    0.19
   4   5  -6    0.48    0.26
   4   5  -6    0.58    0.17
  -4  -5   6    0.34    0.17
  -4  -5   6    0.44    0.19
  -4  -5   6    0.46    0.17
  -4  -5   6    0.48    0.22
  -4  -5   6   -0.00    0.22
   4   5  -5    0.01    0.11
   4   5  -5    0.08    0.07
   4   5  -5    0.08    0.12
  -4  -5   5    0.05    0.12
  -4  -5   5    0.10    0.12
  -4  -5   5    0.10    0.16
  -4  -5   5    0.11    0.12
  -4  -5   5   -0.08    0.16
   4   5  -4    0.03    0.09
   4   5  -4    0.09    0.11
  -4  -5   4    0.07    0.11
  -4  -5   4    0.09    0.11
  -4  -5   4    0.03    0.11
  -4  -5   4    0.01    0.16
  -4  -5   4    0.11    0.15
  -4  -5   4    0.08    0.06
   4   5  -3    1.83    0.18
   4   5  -3    1.89    0.13
  -4  -5   3    1.89    0.17
  -4  -5   3    1.90    0.17
  -4  -5   3    1.74    0.13
  -4  -5   3    1.81    0.26
  -4  -5   3    1.95    0.26
  -4  -5   3    1.74    0.18
   4   5  -2    0.81    0.07
   4   5  -2    0.87    0.13
  -4  -5   2    0.98    0.13
  -4  -5   2    0.76    0.13
  -4  -5   2   -0.01    0.20
  -4  -5   2    0.89    0.32
  -4  -5   2    0.84    0.07
  -4  -5   2    0.65    0.33
   4   5  -1    0.64    0.11
  -4  -5   1    0.36    0.16
  -4  -5   1    0.30    0.16
  -4  -5   1    0.47    0.16
  -4  -5   1    0.01    0.11
  -4  -5   1    0.60    0.18
   4   5   0    1.48    0.19
  -4  -5   0    1.39    0.22
  -4  -5   0    1.36    0.13
  -4  -5   0    1.52    0.19
  -4  -5   0    1.70    0.22
  -4  -5   0    1.41    0.13
   4   5   1    2.05    0.20
  -4  -5  -1    1.98    0.13
  -4  -5  -1    2.29    0.23
  -4  -5  -1    2.16    0.20
  -4  -5  -1    2.16    0.23
  -4  -5  -1    1.93    0.14
   4   5   2    1.36    0.12
   4   5   2    1.53    0.31
  -4  -5  -2    1.41    0.12
  -4  -5  -2    1.47    0.21
  -4  -5  -2    1.51    0.12
  -4  -5  -2    1.50    0.12
   4   5   3    0.29    0.15
   4   5   3    0.23    0.08
   4   5   3    0.32    0.08
  -4  -5  -3    0.29    0.15
  -4  -5  -3    0.01    0.08
  -4  -5  -3    0.24    0.08
   4   5   4   -0.02    0.10
   4   5   4    0.01    0.06
   4   5   4   -0.01    0.06
  -4  -5  -4    0.01    0.06
  -4  -5  -4    0.14    0.11
  -4  -5  -4    0.01    0.06
   4   5   5    2.24    0.23
   4   5   5    2.29    0.22
   4   5   5    2.35    0.21
  -4  -5  -5    2.21    0.37
  -4  -5  -5    2.18    0.22
  -4  -5  -5    2.34    0.22
  -4  -5  -5    2.06    0.08
   4   5   6    0.08    0.08
   4   5   6    0.13    0.16
   4   5   6    0.19    0.10
   4   5   6    0.19    0.09
  -4  -5  -6    0.18    0.24
  -4  -5  -6    0.23    0.10
  -4  -5  -6    0.15    0.07
  -4  -5  -6    0.19    0.10
   4   5   7    0.01    0.14
   4   5   7   -0.01    0.14
   4   5   7    0.07    0.09
  -4  -5  -7    0.05    0.14
  -4  -5  -7    0.11    0.14
  -4  -5  -7    0.09    0.14
  -4  -5  -7    0.04    0.08
  -4  -5  -7    0.06    0.09
   4   5   8    1.00    0.36
   4   5   8    0.94    0.17
   4   5   8    0.95    0.18
  -4  -5  -8    0.88    0.25
  -4  -5  -8    0.78    0.25
  -4  -5  -8    0.85    0.26
  -4  -5  -8    0.89    0.12
  -4  -5  -8    1.12    0.17
   4   5   9   14.96    0.54
   4   5   9   15.16    0.62
   4   5   9   14.92    0.52
  -4  -5  -9   14.87    0.64
  -4  -5  -9   14.62    0.67
  -4  -5  -9   14.14    0.52
  -4  -5  -9   15.23    0.51
   4   5  10    3.23    0.24
   4   5  10    3.66    0.56
   4   5  10    3.44    0.41
  -4  -5 -10    3.34    0.38
  -4  -5 -10    3.15    0.43
  -4  -5 -10    3.34    0.33
  -4  -5 -10    3.56    0.41
   4   5  11    2.01    0.22
   4   5  11    2.22    0.34
   4   5  11    1.95    0.26
  -4  -5 -11    1.85    0.33
  -4  -5 -11    1.38    0.39
  -4  -5 -11    1.52    0.33
  -4  -5 -11    1.89    0.25
   4   5  12    0.05    0.13
   4   5  12    0.01    0.20
   4   5  12   -0.08    0.24
  -4  -5 -12   -0.03    0.20
  -4  -5 -12   -0.01    0.16
  -4  -5 -12    0.14    0.13
  -4  -5 -12    0.16    0.24
   4   5  13    0.25    0.27
   4   5  13    0.09    0.35
   4   5  13   -0.17    0.30
  -4  -5 -13    0.40    0.19
  -4  -5 -13    0.26    0.25
  -4  -5 -13    0.00    0.20
  -4  -5 -13   -0.09    0.30
  -4  -5 -13    0.08    0.17
   4   6  -9    0.02    0.44
   4   6  -9    0.01    0.34
   4   6  -9    0.85    0.22
  -4  -6   9    0.84    0.22
  -4  -6   9   -0.01    0.50
   4   6  -8   -0.01    0.25
   4   6  -8   -0.02    0.21
   4   6  -8   -0.12    0.12
   4   6  -8   -0.13    0.16
  -4  -6   8    0.13    0.16
  -4  -6   8   -0.07    0.17
  -4  -6   8    0.00    0.20
  -4  -6   8   -0.00    0.19
   4   6  -7   -0.00    0.19
   4   6  -7    0.41    0.14
   4   6  -7    0.52    0.19
  -4  -6   7    0.53    0.20
  -4  -6   7    0.49    0.20
  -4  -6   7   -0.00    0.15
  -4  -6   7    0.73    0.24
  -4  -6   7    0.00    0.24
   4   6  -6    0.21    0.16
   4   6  -6    0.27    0.11
   4   6  -6    0.32    0.26
  -4  -6   6    0.30    0.25
  -4  -6   6    0.12    0.26
  -4  -6   6    0.00    0.11
  -4  -6   6    0.51    0.21
  -4  -6   6    0.00    0.21
   4   6  -5    0.12    0.08
   4   6  -5    0.02    0.14
  -4  -6   5    0.01    0.21
  -4  -6   5    0.12    0.21
  -4  -6   5   -0.00    0.13
  -4  -6   5    0.27    0.18
  -4  -6   5    0.00    0.18
   4   6  -4    0.92    0.14
   4   6  -4    1.02    0.19
  -4  -6   4    0.90    0.27
  -4  -6   4    0.87    0.10
  -4  -6   4    0.80    0.28
  -4  -6   4    0.95    0.23
  -4  -6   4   -0.02    0.19
  -4  -6   4    0.82    0.24
   4   6  -3    0.99    0.08
   4   6  -3    1.05    0.27
  -4  -6   3    0.82    0.26
  -4  -6   3    0.83    0.26
  -4  -6   3    0.98    0.24
  -4  -6   3    0.02    0.27
  -4  -6   3    1.04    0.08
  -4  -6   3    0.92    0.24
   4   6  -2    1.54    0.26
   4   6  -2    1.22    0.08
  -4  -6   2    1.54    0.26
  -4  -6   2    1.43    0.17
  -4  -6   2    1.34    0.26
  -4  -6   2    1.36    0.25
  -4  -6   2    1.41    0.25
   4   6  -1    2.42    0.19
  -4  -6   1    2.63    0.19
  -4  -6   1    2.65    0.26
  -4  -6   1    2.44    0.19
  -4  -6   1    2.32    0.43
  -4  -6   1    2.46    0.19
   4   6   0    3.20    0.28
  -4  -6   0    2.85    0.28
  -4  -6   0    3.17    0.19
  -4  -6   0    3.20    0.29
  -4  -6   0    2.91    0.43
  -4  -6   0    3.04    0.28
   4   6   1    1.99    0.16
  -4  -6  -1    2.12    0.16
  -4  -6  -1    2.10    0.25
  -4  -6  -1    2.14    0.16
  -4  -6  -1    2.11    0.26
  -4  -6  -1    2.15    0.16
   4   6   2   24.94    0.71
   4   6   2   24.26    0.58
  -4  -6  -2   23.65    0.66
  -4  -6  -2   25.02    0.72
  -4  -6  -2   23.59    0.58
  -4  -6  -2   23.45    0.66
   4   6   3    2.88    0.25
   4   6   3    3.03    0.28
   4   6   3    2.92    0.18
  -4  -6  -3    3.24    0.42
  -4  -6  -3    2.86    0.18
  -4  -6  -3    2.99    0.18
   4   6   4    0.76    0.12
   4   6   4    0.72    0.30
   4   6   4    0.70    0.18
  -4  -6  -4    0.79    0.31
  -4  -6  -4   -0.00    0.19
  -4  -6  -4    0.74    0.12
   4   6   5    1.28    0.36
   4   6   5    1.59    0.23
   4   6   5    1.53    0.15
  -4  -6  -5    1.27    0.24
  -4  -6  -5    1.50    0.15
  -4  -6  -5    1.72    0.23
   4   6   6    0.00    0.04
   4   6   6    0.06    0.18
   4   6   6    0.03    0.08
   4   6   6    0.04    0.07
  -4  -6  -6    0.03    0.04
  -4  -6  -6   -0.06    0.12
  -4  -6  -6    0.01    0.08
  -4  -6  -6   -0.07    0.08
   4   6   7    0.97    0.23
   4   6   7    0.89    0.16
   4   6   7    0.91    0.15
   4   6   7    0.85    0.11
  -4  -6  -7    0.81    0.22
  -4  -6  -7    0.86    0.16
  -4  -6  -7    0.98    0.16
  -4  -6  -7    0.85    0.11
   4   6   8    5.48    0.19
   4   6   8    5.81    0.40
   4   6   8    5.26    0.29
  -4  -6  -8    5.31    0.40
  -4  -6  -8    5.68    0.57
  -4  -6  -8    5.36    0.41
  -4  -6  -8    5.66    0.30
  -4  -6  -8    5.03    0.19
   4   6   9    0.75    0.18
   4   6   9    0.60    0.37
   4   6   9    0.71    0.17
  -4  -6  -9    0.64    0.38
  -4  -6  -9    0.73    0.28
  -4  -6  -9    0.73    0.18
  -4  -6  -9    0.02    0.18
   4   6  10    1.53    0.25
   4   6  10    1.32    0.35
   4   6  10    1.31    0.29
  -4  -6 -10    1.59    0.47
  -4  -6 -10    1.25    0.36
  -4  -6 -10    1.37    0.35
  -4  -6 -10    1.24    0.17
   4   6  11    4.70    0.41
   4   6  11    4.57    0.64
   4   6  11    4.52    0.36
  -4  -6 -11    4.71    0.67
  -4  -6 -11    4.86    0.36
  -4  -6 -11    4.91    0.36
  -4  -6 -11    4.84    0.28
   4   6  12    0.30    0.28
   4   6  12    0.28    0.22
   4   6  12    0.07    0.23
  -4  -6 -12    0.09    0.23
  -4  -6 -12    0.00    0.17
  -4  -6 -12    0.56    0.28
  -4  -6 -12   -0.03    0.14
   4   6  13    0.20    0.17
   4   6  13    0.16    0.23
   4   6  13    0.23    0.20
  -4  -6 -13    0.34    0.26
  -4  -6 -13   -0.01    0.20
  -4  -6 -13    0.14    0.20
  -4  -6 -13    0.04    0.17
   4   7  -8    0.01    0.16
   4   7  -8   -0.03    0.19
  -4  -7   8   -0.00    0.13
  -4  -7   8    0.09    0.18
  -4  -7   8    0.02    0.17
   4   7  -7    0.10    0.12
   4   7  -7    0.03    0.17
  -4  -7   7    0.21    0.16
  -4  -7   7   -0.00    0.12
  -4  -7   7   -0.01    0.17
  -4  -7   7   -0.14    0.19
  -4  -7   7    0.10    0.20
   4   7  -6    0.22    0.12
   4   7  -6    0.16    0.19
  -4  -7   6    0.40    0.19
  -4  -7   6    0.00    0.20
  -4  -7   6    0.42    0.19
  -4  -7   6    0.25    0.23
  -4  -7   6    0.14    0.23
   4   7  -5    0.04    0.09
   4   7  -5    0.37    0.24
  -4  -7   5    0.13    0.15
  -4  -7   5    0.02    0.15
  -4  -7   5    0.24    0.18
  -4  -7   5   -0.00    0.09
  -4  -7   5    0.14    0.19
   4   7  -4    0.10    0.09
   4   7  -4    0.05    0.12
  -4  -7   4    0.05    0.11
  -4  -7   4    0.00    0.11
  -4  -7   4   -0.27    0.15
  -4  -7   4    0.00    0.09
  -4  -7   4    0.00    0.15
   4   7  -3    0.07    0.05
   4   7  -3    0.05    0.13
  -4  -7   3    0.15    0.12
  -4  -7   3    0.10    0.13
  -4  -7   3    0.07    0.06
  -4  -7   3   -0.02    0.17
  -4  -7   3   -0.03    0.17
   4   7  -2    0.35    0.04
   4   7  -2    0.45    0.15
  -4  -7   2    0.28    0.15
  -4  -7   2   -0.00    0.15
  -4  -7   2    0.44    0.15
  -4  -7   2    0.41    0.20
  -4  -7   2    0.48    0.21
   4   7  -1    0.07    0.11
  -4  -7   1    0.10    0.11
  -4  -7   1    0.04    0.15
  -4  -7   1    0.00    0.11
  -4  -7   1   -0.05    0.16
  -4  -7   1    0.09    0.11
   4   7   0    0.11    0.16
  -4  -7   0    0.05    0.16
  -4  -7   0    0.00    0.16
  -4  -7   0    0.09    0.15
  -4  -7   0   -0.01    0.15
  -4  -7   0    0.08    0.16
   4   7   1    1.50    0.17
  -4  -7  -1    1.28    0.17
  -4  -7  -1    1.42    0.24
  -4  -7  -1    1.49    0.18
  -4  -7  -1    1.49    0.38
  -4  -7  -1    1.37    0.17
   4   7   2    0.46    0.18
   4   7   2    0.47    0.20
  -4  -7  -2    0.35    0.13
  -4  -7  -2    0.48    0.19
  -4  -7  -2    0.45    0.20
  -4  -7  -2   -0.09    0.20
  -4  -7  -2    0.42    0.13
   4   7   3    0.00    0.13
   4   7   3    0.10    0.09
   4   7   3   -0.02    0.09
  -4  -7  -3   -0.05    0.14
  -4  -7  -3    0.05    0.09
  -4  -7  -3    0.05    0.09
   4   7   4    0.64    0.20
   4   7   4    0.57    0.21
   4   7   4    0.73    0.20
  -4  -7  -4   -0.00    0.21
  -4  -7  -4    0.54    0.20
  -4  -7  -4    0.62    0.14
   4   7   5   -0.00    0.11
   4   7   5    0.04    0.07
   4   7   5   -0.04    0.07
  -4  -7  -5   -0.03    0.18
  -4  -7  -5    0.01    0.07
  -4  -7  -5    0.05    0.12
   4   7   6    0.01    0.02
   4   7   6    0.11    0.13
   4   7   6    0.02    0.09
   4   7   6    0.07    0.14
  -4  -7  -6    0.05    0.02
  -4  -7  -6    0.11    0.14
  -4  -7  -6    0.01    0.15
  -4  -7  -6    0.05    0.10
   4   7   7    0.03    0.03
   4   7   7    0.02    0.21
   4   7   7    0.02    0.09
   4   7   7   -0.05    0.09
  -4  -7  -7   -0.01    0.05
  -4  -7  -7    0.08    0.13
  -4  -7  -7    0.00    0.09
  -4  -7  -7    0.04    0.09
   4   7   8    1.09    0.15
   4   7   8    1.14    0.27
   4   7   8    1.12    0.20
   4   7   8    1.38    0.19
  -4  -7  -8    1.00    0.15
  -4  -7  -8    1.37    0.27
  -4  -7  -8    1.22    0.20
  -4  -7  -8    1.01    0.20
   4   7   9    0.05    0.07
   4   7   9    0.12    0.17
   4   7   9    0.09    0.12
  -4  -7  -9   -0.05    0.17
  -4  -7  -9    0.10    0.13
  -4  -7  -9    0.02    0.13
  -4  -7  -9   -0.00    0.11
   4   7  10    1.08    0.15
   4   7  10    0.75    0.45
   4   7  10    0.97    0.34
  -4  -7 -10    1.13    0.29
  -4  -7 -10    0.96    0.23
  -4  -7 -10    1.02    0.35
   4   7  11    0.55    0.15
   4   7  11    0.76    0.27
   4   7  11    0.61    0.21
  -4  -7 -11    0.80    0.28
  -4  -7 -11    0.52    0.22
  -4  -7 -11    0.55    0.22
  -4  -7 -11    0.01    0.24
   4   7  12    0.11    0.14
   4   7  12    0.10    0.20
   4   7  12    0.18    0.28
  -4  -7 -12    0.14    0.23
  -4  -7 -12    0.00    0.18
  -4  -7 -12    0.31    0.28
  -4  -7 -12   -0.02    0.21
   4   8  -7    0.24    0.15
  -4  -8   7    0.13    0.24
  -4  -8   7    0.00    0.25
  -4  -8   7    0.12    0.23
   4   8  -6   -0.06    0.17
   4   8  -6    0.15    0.18
  -4  -8   6    0.19    0.17
  -4  -8   6    0.14    0.17
  -4  -8   6    0.09    0.19
  -4  -8   6   -0.00    0.11
  -4  -8   6   -0.05    0.21
   4   8  -5    0.08    0.15
   4   8  -5    0.07    0.17
  -4  -8   5    0.01    0.17
  -4  -8   5    0.34    0.17
  -4  -8   5    0.16    0.32
  -4  -8   5   -0.00    0.15
  -4  -8   5    0.01    0.21
   4   8  -4    0.32    0.14
   4   8  -4    0.38    0.18
  -4  -8   4    0.31    0.18
  -4  -8   4    0.28    0.18
  -4  -8   4    0.00    0.10
  -4  -8   4    0.64    0.22
  -4  -8   4    0.32    0.22
   4   8  -3    3.65    0.15
   4   8  -3    3.77    0.20
   4   8  -3    4.15    0.45
  -4  -8   3    4.16    0.32
  -4  -8   3    4.26    0.32
  -4  -8   3    4.57    0.38
  -4  -8   3    4.11    0.39
   4   8  -2    0.00    0.06
   4   8  -2    0.04    0.05
   4   8  -2    0.05    0.19
  -4  -8   2    0.08    0.12
  -4  -8   2    0.10    0.12
  -4  -8   2   -0.20    0.24
  -4  -8   2    0.00    0.16
   4   8  -1    0.73    0.27
  -4  -8   1    0.42    0.17
  -4  -8   1    0.52    0.21
  -4  -8   1    0.61    0.23
  -4  -8   1    0.52    0.17
   4   8   0    0.16    0.21
  -4  -8   0    0.21    0.21
  -4  -8   0    0.14    0.22
  -4  -8   0    0.25    0.19
  -4  -8   0    0.14    0.18
  -4  -8   0    0.04    0.21
   4   8   1    2.03    0.21
  -4  -8  -1    1.85    0.32
  -4  -8  -1    1.83    0.28
  -4  -8  -1    1.96    0.28
  -4  -8  -1    2.08    0.32
  -4  -8  -1    1.96    0.21
   4   8   2    9.47    0.38
  -4  -8  -2    9.00    0.38
  -4  -8  -2    9.61    0.47
  -4  -8  -2    9.48    0.49
  -4  -8  -2    9.38    0.38
  -4  -8  -2    9.24    0.38
   4   8   3    0.37    0.20
   4   8   3    0.11    0.22
  -4  -8  -3    0.47    0.14
  -4  -8  -3    0.51    0.20
  -4  -8  -3    0.37    0.23
  -4  -8  -3    0.43    0.15
   4   8   4    0.14    0.12
   4   8   4    0.14    0.16
   4   8   4    0.19    0.12
  -4  -8  -4    0.14    0.17
  -4  -8  -4   -0.00    0.12
  -4  -8  -4    0.16    0.20
   4   8   5    0.08    0.14
   4   8   5    0.05    0.10
   4   8   5   -0.04    0.16
  -4  -8  -5   -0.02    0.15
  -4  -8  -5    0.01    0.16
  -4  -8  -5    0.06    0.11
   4   8   6    0.06    0.14
   4   8   6    0.05    0.10
   4   8   6   -0.02    0.10
  -4  -8  -6   -0.05    0.22
  -4  -8  -6    0.01    0.10
  -4  -8  -6    0.04    0.10
   4   8   7    0.32    0.07
   4   8   7    0.74    0.21
   4   8   7    0.60    0.15
   4   8   7    0.67    0.16
  -4  -8  -7    0.32    0.33
  -4  -8  -7    0.42    0.05
  -4  -8  -7   -0.01    0.16
  -4  -8  -7    0.61    0.17
   4   8   8    0.95    0.12
   4   8   8    0.00    0.26
   4   8   8    0.88    0.19
   4   8   8    0.88    0.20
  -4  -8  -8    0.92    0.12
  -4  -8  -8    0.91    0.40
  -4  -8  -8    0.82    0.20
  -4  -8  -8    0.90    0.20
   4   8   9    0.76    0.16
   4   8   9   -0.00    0.27
   4   8   9    0.90    0.21
   4   8   9    0.80    0.20
  -4  -8  -9    0.66    0.11
  -4  -8  -9    0.63    0.39
  -4  -8  -9    0.92    0.32
  -4  -8  -9    0.85    0.21
   4   8  10   -0.03    0.12
   4   8  10   -0.10    0.17
   4   8  10    0.03    0.21
  -4  -8 -10    0.00    0.08
  -4  -8 -10    0.06    0.28
  -4  -8 -10    0.54    0.21
  -4  -8 -10    0.07    0.22
   4   8  11    0.02    0.17
   4   8  11    0.07    0.21
   4   8  11    0.13    0.17
  -4  -8 -11    0.13    0.35
  -4  -8 -11    0.18    0.28
  -4  -8 -11    0.24    0.17
  -4  -8 -11    0.00    0.17
   4   8  12   -0.03    0.15
   4   8  12    0.04    0.16
   4   8  12   -0.12    0.16
  -4  -8 -12    0.04    0.29
  -4  -8 -12    0.10    0.15
  -4  -8 -12    0.16    0.23
  -4  -8 -12   -0.01    0.10
   4   9  -6    0.06    0.11
   4   9  -6    0.04    0.29
  -4  -9   6    0.00    0.12
  -4  -9   6    0.01    0.31
  -4  -9   6    0.03    0.19
   4   9  -5    0.09    0.10
   4   9  -5    0.13    0.10
   4   9  -5    0.00    0.19
  -4  -9   5    0.02    0.18
  -4  -9   5    0.05    0.18
  -4  -9   5   -0.08    0.21
  -4  -9   5    0.08    0.34
   4   9  -4    0.40    0.11
   4   9  -4    0.30    0.10
   4   9  -4    0.60    0.34
  -4  -9   4    0.76    0.22
  -4  -9   4    0.68    0.22
  -4  -9   4    0.40    0.40
  -4  -9   4    0.34    0.41
   4   9  -3    0.12    0.11
   4   9  -3    0.10    0.07
   4   9  -3    0.47    0.17
  -4  -9   3    0.27    0.18
  -4  -9   3    0.30    0.18
  -4  -9   3    0.22    0.21
  -4  -9   3    0.15    0.34
   4   9  -2   -0.00    0.09
   4   9  -2    0.27    0.06
   4   9  -2    0.29    0.18
  -4  -9   2    0.39    0.18
  -4  -9   2    0.33    0.18
  -4  -9   2    0.35    0.21
   4   9  -1    0.97    0.08
   4   9  -1    0.87    0.06
   4   9  -1    1.45    0.22
  -4  -9   1    1.42    0.22
  -4  -9   1    1.41    0.41
  -4  -9   1    0.00    0.43
  -4  -9   1    1.71    0.22
   4   9   0    0.11    0.15
  -4  -9   0    0.17    0.15
  -4  -9   0    0.16    0.19
  -4  -9   0    0.07    0.15
  -4  -9   0    0.24    0.31
  -4  -9   0    0.10    0.15
   4   9   1    0.07    0.13
  -4  -9  -1    0.08    0.21
  -4  -9  -1    0.04    0.17
  -4  -9  -1    0.07    0.14
  -4  -9  -1    0.05    0.21
   4   9   2    0.32    0.16
  -4  -9  -2    0.37    0.25
  -4  -9  -2    0.19    0.20
  -4  -9  -2    0.21    0.16
  -4  -9  -2    0.24    0.24
   4   9   3    3.18    0.33
   4   9   3    3.15    0.27
  -4  -9  -3    3.01    0.26
  -4  -9  -3    3.36    0.33
  -4  -9  -3    3.19    0.28
  -4  -9  -3    3.15    0.26
   4   9   4   -0.05    0.10
   4   9   4    0.09    0.13
   4   9   4    0.12    0.15
  -4  -9  -4    0.06    0.13
  -4  -9  -4    0.03    0.15
  -4  -9  -4   -0.13    0.10
   4   9   5   -0.02    0.21
   4   9   5    0.02    0.10
   4   9   5   -0.01    0.10
  -4  -9  -5    0.07    0.14
  -4  -9  -5    0.00    0.11
  -4  -9  -5    0.01    0.11
   4   9   6   -0.01    0.27
   4   9   6    0.05    0.21
   4   9   6    0.18    0.13
  -4  -9  -6    0.03    0.17
  -4  -9  -6   -0.00    0.13
  -4  -9  -6    0.09    0.13
   4   9   7    0.60    0.07
   4   9   7   -0.01    0.24
   4   9   7    0.72    0.28
   4   9   7    0.77    0.18
  -4  -9  -7    0.77    0.24
  -4  -9  -7   -0.00    0.19
  -4  -9  -7    0.36    0.07
  -4  -9  -7    0.90    0.19
   4   9   8    0.69    0.07
   4   9   8    0.00    0.25
   4   9   8    0.71    0.20
   4   9   8    0.64    0.28
  -4  -9  -8    0.98    0.25
  -4  -9  -8    0.43    0.10
  -4  -9  -8    0.00    0.31
  -4  -9  -8    0.80    0.21
   4   9   9    0.20    0.12
   4   9   9   -0.01    0.23
   4   9   9    0.32    0.18
   4   9   9    0.47    0.27
  -4  -9  -9    0.17    0.12
  -4  -9  -9    0.49    0.23
  -4  -9  -9    0.51    0.29
  -4  -9  -9    0.27    0.19
   4   9  10    0.17    0.09
   4   9  10    0.00    0.24
   4   9  10    0.28    0.19
   4   9  10    0.09    0.17
  -4  -9 -10    0.14    0.10
  -4  -9 -10    0.31    0.22
  -4  -9 -10    0.46    0.29
  -4  -9 -10    0.36    0.19
   4   9  11   -0.10    0.16
   4   9  11    0.02    0.09
   4   9  11    0.06    0.18
  -4  -9 -11   -0.01    0.09
  -4  -9 -11   -0.03    0.19
  -4  -9 -11    0.10    0.24
  -4  -9 -11    0.24    0.16
   4   9  12    0.35    0.22
   4   9  12    0.19    0.14
   4   9  12    0.30    0.27
  -4  -9 -12   -0.00    0.22
  -4  -9 -12    0.32    0.27
  -4  -9 -12    0.40    0.35
  -4  -9 -12    0.31    0.23
   4  10  -5    0.32    0.37
  -4 -10   5    0.40    0.34
  -4 -10   5   -0.13    0.34
  -4 -10   5   -0.06    0.37
  -4 -10   5    0.10    0.36
   4  10  -4    0.25    0.22
  -4 -10   4    0.51    0.22
  -4 -10   4    0.10    0.22
  -4 -10   4    0.20    0.24
  -4 -10   4    0.19    0.27
   4  10  -3    0.62    0.33
  -4 -10   3    0.35    0.21
  -4 -10   3    0.23    0.21
  -4 -10   3    0.10    0.39
  -4 -10   3    0.07    0.25
   4  10  -2    0.82    0.24
  -4 -10   2   -0.01    0.25
  -4 -10   2    1.13    0.25
  -4 -10   2    1.06    0.27
  -4 -10   2    0.85    0.29
   4  10  -1    0.83    0.21
  -4 -10   1    0.61    0.22
  -4 -10   1    0.80    0.26
  -4 -10   1    0.00    0.28
  -4 -10   1    0.61    0.22
   4  10   0    0.95    0.22
  -4 -10   0    0.84    0.22
  -4 -10   0   -0.01    0.23
  -4 -10   0   -0.00    0.28
  -4 -10   0    0.99    0.22
   4  10   1    1.40    0.24
  -4 -10  -1    1.21    0.24
  -4 -10  -1    1.30    0.29
  -4 -10  -1   -0.01    0.30
  -4 -10  -1    1.28    0.25
  -4 -10  -1    1.28    0.24
   4  10   2    5.17    0.35
  -4 -10  -2    4.76    0.35
  -4 -10  -2    5.16    0.42
  -4 -10  -2    5.17    0.37
  -4 -10  -2    5.32    0.43
  -4 -10  -2    5.11    0.36
   4  10   3    5.37    0.36
  -4 -10  -3    5.57    0.52
  -4 -10  -3    5.47    0.43
  -4 -10  -3    5.12    0.37
  -4 -10  -3    5.25    0.45
  -4 -10  -3    5.42    0.53
   4  10   4   -0.00    0.24
   4  10   4    0.81    0.20
  -4 -10  -4    0.14    0.20
  -4 -10  -4    1.22    0.25
  -4 -10  -4    0.83    0.20
   4  10   5    0.01    0.23
   4  10   5    0.79    0.28
  -4 -10  -5    0.69    0.23
  -4 -10  -5    0.02    0.30
   4  10   6   -0.00    0.19
   4  10   6    0.22    0.24
   4  10   6    0.02    0.23
  -4 -10  -6   -0.01    0.25
  -4 -10  -6    0.25    0.19
  -4 -10  -6    0.16    0.25
   4  10   7    0.00    0.23
   4  10   7    0.54    0.27
   4  10   7    0.52    0.28
  -4 -10  -7    0.49    0.23
  -4 -10  -7    0.01    0.19
  -4 -10  -7    0.36    0.28
   4  10   8    0.00    0.35
   4  10   8    0.01    0.27
   4  10   8    0.36    0.16
  -4 -10  -8    0.27    0.21
  -4 -10  -8    0.10    0.17
  -4 -10  -8    0.09    0.28
   4  10   9    0.41    0.19
   4  10   9   -0.00    0.23
   4  10   9    0.37    0.18
  -4 -10  -9    0.04    0.24
  -4 -10  -9    0.29    0.20
  -4 -10  -9    0.27    0.20
   4  10  10   -0.00    0.36
   4  10  10    0.31    0.19
   4  10  10    0.10    0.18
  -4 -10 -10    0.02    0.21
  -4 -10 -10   -0.02    0.19
  -4 -10 -10    0.24    0.19
   4  10  11    0.00    0.20
  -4 -10 -11    0.01    0.18
  -4 -10 -11    0.05    0.16
  -4 -10 -11   -0.27    0.25
   4  11  -3    0.10    0.21
  -4 -11   3    0.17    0.20
  -4 -11   3    0.13    0.21
  -4 -11   3    0.05    0.24
  -4 -11   3    0.13    0.22
   4  11  -2    0.33    0.32
  -4 -11   2    0.01    0.21
  -4 -11   2    0.29    0.21
  -4 -11   2   -0.06    0.34
  -4 -11   2    0.15    0.24
   4  11  -1   -0.03    0.15
  -4 -11   1    0.04    0.15
  -4 -11   1    0.15    0.18
  -4 -11   1   -0.00    0.20
  -4 -11   1    0.02    0.16
   4  11   0    0.10    0.19
  -4 -11   0   -0.05    0.19
  -4 -11   0   -0.00    0.18
  -4 -11   0    0.52    0.21
  -4 -11   0   -0.00    0.34
  -4 -11   0    0.05    0.18
   4  11   1    1.24    0.22
  -4 -11  -1    0.01    0.23
  -4 -11  -1    0.89    0.41
  -4 -11  -1    0.07    0.23
  -4 -11  -1    0.00    0.42
  -4 -11  -1    0.03    0.23
   4  11   2    3.93    0.36
  -4 -11  -2    4.03    0.36
  -4 -11  -2    4.06    0.61
  -4 -11  -2    4.18    0.37
  -4 -11  -2    4.00    0.37
   4  11   3    0.03    0.18
  -4 -11  -3    0.23    0.18
  -4 -11  -3    0.44    0.22
  -4 -11  -3    0.03    0.19
  -4 -11  -3    0.13    0.19
   4  11   4    5.03    0.37
  -4 -11  -4    4.93    0.37
  -4 -11  -4    5.71    0.45
  -4 -11  -4    4.98    0.39
  -4 -11  -4    4.96    0.39
   4  11   5    0.16    0.18
   4  11   5    0.02    0.17
  -4 -11  -5    0.16    0.22
  -4 -11  -5    0.25    0.19
  -4 -11  -5    0.21    0.18
   4  11   6    0.69    0.21
   4  11   6    0.00    0.24
   4  11   6    0.01    0.19
  -4 -11  -6    0.44    0.25
  -4 -11  -6    0.57    0.21
  -4 -11  -6    0.50    0.21
   4  11   7    0.00    0.23
   4  11   7    0.31    0.19
   4  11   7    0.32    0.19
  -4 -11  -7    0.20    0.23
  -4 -11  -7    0.27    0.20
  -4 -11  -7    0.29    0.20
   4  11   8   -0.00    0.27
   4  11   8    0.58    0.22
   4  11   8    0.45    0.21
  -4 -11  -8    0.30    0.25
  -4 -11  -8    0.56    0.22
  -4 -11  -8    0.63    0.34
   4  11   9    0.00    0.46
   4  11   9    1.08    0.38
   4  11   9    0.54    0.23
  -4 -11  -9    0.41    0.27
  -4 -11  -9    0.65    0.25
  -4 -11  -9    0.98    0.38
   4  11  10   -0.00    0.25
   4  11  10    0.34    0.22
   4  11  10    0.23    0.20
  -4 -11 -10    0.13    0.23
  -4 -11 -10    0.29    0.22
  -4 -11 -10    0.12    0.22
   4  12  -1    0.35    0.39
  -4 -12   1    0.45    0.24
  -4 -12   1    0.21    0.45
  -4 -12   1    0.01    0.40
  -4 -12   1    0.38    0.26
  -4 -12   1    0.04    0.24
   4  12   0    0.36    0.31
  -4 -12   0    0.01    0.31
  -4 -12   0    0.24    0.24
  -4 -12   0    0.04    0.33
  -4 -12   0   -0.00    0.23
  -4 -12   0    0.02    0.20
   4  12   1    0.17    0.19
  -4 -12  -1    0.01    0.30
  -4 -12  -1    0.07    0.20
  -4 -12  -1    0.20    0.21
  -4 -12  -1    0.00    0.23
  -4 -12  -1   -0.03    0.31
   4  12   2    0.03    0.16
  -4 -12  -2    0.06    0.17
  -4 -12  -2   -0.00    0.20
  -4 -12  -2    0.01    0.26
   4  12   3    0.04    0.15
  -4 -12  -3   -0.01    0.15
  -4 -12  -3    0.00    0.18
   4  12   4    0.01    0.18
  -4 -12  -4    0.59    0.22
  -4 -12  -4   -0.09    0.19
  -4 -12  -4   -0.00    0.22
   4  12   5   -0.00    0.18
   4  12   5   -0.03    0.16
  -4 -12  -5   -0.02    0.16
  -4 -12  -5   -0.00    0.19
  -4 -12  -5    0.21    0.17
   4  12   6    0.00    0.39
   4  12   6   -0.00    0.21
  -4 -12  -6    0.36    0.26
  -4 -12  -6    0.69    0.23
  -4 -12  -6    0.47    0.23
   4  12   7   -0.00    0.21
   4  12   7   -0.20    0.18
   4  12   7    0.08    0.17
  -4 -12  -7   -0.00    0.20
  -4 -12  -7    0.23    0.18
  -4 -12  -7    0.22    0.19
   4  12   8    0.00    0.32
   4  12   8    1.17    0.28
   4  12   8    0.96    0.26
  -4 -12  -8    0.85    0.30
  -4 -12  -8    1.20    0.28
  -4 -12  -8    1.08    0.29
   4  12   9   -0.05    0.14
   4  12   9   -0.00    0.17
   4  12   9    0.14    0.13
  -4 -12  -9   -0.08    0.15
  -4 -12  -9    0.08    0.14
  -4 -12  -9   -0.26    0.23
  -4 -13  -1    1.20    0.37
   4  13   2   -0.02    0.14
  -4 -13  -2    0.00    0.13
  -4 -13  -2    0.06    0.16
  -4 -13  -2   -0.05    0.14
  -4 -13  -2   -0.02    0.24
  -4 -13  -2    0.02    0.14
   4  13   3   -0.03    0.15
  -4 -13  -3    0.02    0.14
  -4 -13  -3    0.02    0.15
  -4 -13  -3    0.00    0.16
  -4 -13  -3    0.01    0.15
   4  13   4    0.01    0.18
  -4 -13  -4    0.02    0.19
  -4 -13  -4    0.01    0.19
  -4 -13  -4   -0.00    0.21
  -4 -13  -4    0.25    0.19
   4  13   5    0.03    0.19
  -4 -13  -5    0.17    0.23
  -4 -13  -5    0.03    0.20
  -4 -13  -5    0.00    0.23
  -4 -13  -5    0.15    0.20
   4  13   6    0.28    0.20
   4  13   6    0.00    0.23
   4  13   6    0.05    0.20
  -4 -13  -6    0.17    0.26
  -4 -13  -6    0.28    0.22
   4  13   7    0.38    0.35
   4  13   7    0.00    0.25
   4  13   7    0.36    0.36
  -4 -13  -7    0.08    0.27
  -4 -13  -7    0.44    0.37
   5 -11  -4    0.54    0.15
   5 -11  -4    0.37    0.25
  -5  11   3    1.73    0.40
  -5  10   8    0.20    0.23
   5 -10  -7    0.50    0.14
   5 -10  -7    0.27    0.15
   5 -10  -7    0.42    0.25
   5 -10  -7    0.57    0.25
  -5  10   7    0.30    0.15
  -5  10   7    0.00    0.44
   5 -10  -6    0.04    0.11
   5 -10  -6    0.12    0.11
   5 -10  -6    0.26    0.12
  -5  10   6    0.10    0.11
   5 -10  -5    0.00    0.18
   5 -10  -5    0.10    0.17
   5 -10  -5    0.29    0.18
   5 -10  -4    1.34    0.16
   5 -10  -4    1.27    0.23
   5 -10  -4    1.31    0.33
   5 -10  -4    1.30    0.17
  -5  10   4    0.01    0.34
   5 -10  -3   -0.00    0.13
   5 -10  -3   -0.02    0.12
   5 -10  -3    0.02    0.12
  -5  10   3   -0.17    0.18
  -5  10   3    0.02    0.19
   5 -10  -2    0.03    0.09
   5 -10  -2    0.02    0.09
   5 -10  -2    0.04    0.09
  -5  10   2    0.38    0.21
  -5  10   2    0.06    0.20
  -5  10   1    0.06    0.23
  -5  10   1    0.16    0.23
  -5  10   0    0.01    0.20
  -5  10   0    0.07    0.32
  -5  10  -1    3.12    0.45
   5  -9  -9    0.17    0.20
   5  -9  -9    0.00    0.21
   5  -9  -9    0.45    0.22
   5  -9  -9   -0.06    0.22
  -5   9   9    0.04    0.21
   5  -9  -8    0.29    0.21
   5  -9  -8    0.43    0.22
   5  -9  -8    0.27    0.39
   5  -9  -8    0.44    0.23
  -5   9   8    0.18    0.22
  -5   9   8   -0.00    0.40
   5  -9  -7    0.31    0.18
   5  -9  -7    0.15    0.18
   5  -9  -7    0.19    0.23
   5  -9  -7    0.32    0.20
  -5   9   7    0.11    0.12
  -5   9   7    0.00    0.22
   5  -9  -6    0.25    0.16
   5  -9  -6    0.14    0.16
   5  -9  -6    0.36    0.21
   5  -9  -6    0.19    0.11
  -5   9   6    0.09    0.11
  -5   9   6    0.01    0.23
   5  -9  -5   -0.00    0.10
   5  -9  -5    0.49    0.15
   5  -9  -5    0.34    0.22
   5  -9  -5    0.45    0.16
  -5   9   5    0.01    0.22
   5  -9  -4    0.00    0.11
   5  -9  -4    0.05    0.11
   5  -9  -4    0.02    0.11
  -5   9   4    0.00    0.17
  -5   9   4    0.04    0.11
   5  -9  -3   -0.00    0.07
   5  -9  -3    0.02    0.07
   5  -9  -3    0.01    0.07
  -5   9   3    0.20    0.17
  -5   9   3    0.11    0.10
   5  -9  -2    0.27    0.09
   5  -9  -2    0.27    0.09
   5  -9  -2    0.30    0.14
  -5   9   2    0.31    0.24
   5  -9  -1    0.17    0.14
   5  -9  -1    0.20    0.14
   5  -9  -1    0.14    0.14
  -5   9   1    0.38    0.23
   5  -9   0    1.09    0.13
   5  -9   0    1.09    0.13
   5  -9   0    1.06    0.13
  -5   9   0    1.21    0.48
  -5   9   0    1.12    0.32
  -5   9  -1    0.55    0.26
  -5   9  -1    0.29    0.28
  -5   9  -2    2.01    0.40
  -5   9  -2    2.38    0.38
   5  -8 -10    0.10    0.12
   5  -8 -10   -0.00    0.13
   5  -8 -10    0.24    0.31
   5  -8 -10    0.03    0.21
  -5   8  10    0.02    0.21
  -5   8  10    0.01    0.21
   5  -8  -9    0.09    0.11
   5  -8  -9    0.00    0.12
   5  -8  -9    0.29    0.20
   5  -8  -9    0.19    0.13
  -5   8   9    0.03    0.19
  -5   8   9   -0.23    0.20
   5  -8  -8    0.06    0.15
   5  -8  -8    0.00    0.15
   5  -8  -8    0.16    0.17
   5  -8  -8   -0.02    0.16
  -5   8   8    0.02    0.15
  -5   8   8    0.00    0.18
   5  -8  -7    0.03    0.12
   5  -8  -7   -0.00    0.12
   5  -8  -7    0.25    0.25
   5  -8  -7   -0.00    0.13
  -5   8   7    0.02    0.13
  -5   8   7    0.00    0.16
   5  -8  -6    0.10    0.08
   5  -8  -6    0.14    0.08
   5  -8  -6    0.26    0.18
   5  -8  -6   -0.02    0.09
  -5   8   6    0.05    0.08
  -5   8   6   -0.00    0.18
   5  -8  -5    0.02    0.07
   5  -8  -5    0.05    0.07
   5  -8  -5    0.09    0.17
   5  -8  -5    0.11    0.07
  -5   8   5    0.07    0.07
  -5   8   5   -0.00    0.17
   5  -8  -4   -0.00    0.07
   5  -8  -4    0.16    0.11
   5  -8  -4    0.34    0.19
   5  -8  -4    0.23    0.07
  -5   8   4   -0.00    0.19
   5  -8  -3   -0.01    0.05
   5  -8  -3    0.05    0.07
   5  -8  -3    0.08    0.13
   5  -8  -3    0.00    0.05
  -5   8   3    0.13    0.13
  -5   8   3   -0.05    0.07
   5  -8  -2    1.44    0.15
   5  -8  -2    1.29    0.10
   5  -8  -2    1.32    0.15
  -5   8   2    1.79    0.30
  -5   8   2    1.83    0.29
  -5   8   2    1.26    0.10
   5  -8  -1    1.32    0.15
   5  -8  -1    1.28    0.15
   5  -8  -1    1.32    0.11
  -5   8   1    1.79    0.29
  -5   8   1    1.43    0.14
  -5   8   1    1.69    0.29
   5  -8   0    0.15    0.07
   5  -8   0    0.17    0.11
   5  -8   0    0.12    0.11
  -5   8   0    0.55    0.32
  -5   8   0    0.20    0.21
   5  -8   1   -0.00    0.12
   5  -8   1    0.47    0.12
   5  -8   1    0.00    0.13
  -5   8  -1    0.57    0.22
  -5   8  -1    0.47    0.34
   5  -8   2    0.00    0.13
   5  -8   2    0.45    0.13
   5  -8   2   -0.00    0.09
  -5   8  -2    0.46    0.22
  -5   8  -2    0.50    0.21
   5  -8   3    0.06    0.14
   5  -8   3    0.00    0.14
  -5   8  -3    0.22    0.20
  -5   8  -4    1.02    0.31
   5  -7 -10    0.06    0.11
   5  -7 -10    0.00    0.11
   5  -7 -10   -0.02    0.18
   5  -7 -10    0.03    0.11
   5  -7 -10    0.03    0.12
  -5   7  10    0.13    0.16
  -5   7  10   -0.02    0.12
  -5   7  10    0.08    0.30
   5  -7  -9    0.21    0.12
   5  -7  -9    0.00    0.12
   5  -7  -9    0.36    0.31
   5  -7  -9    0.09    0.17
   5  -7  -9    0.27    0.13
  -5   7   9    0.06    0.16
  -5   7   9    0.09    0.13
  -5   7   9    0.39    0.32
   5  -7  -8    0.11    0.11
   5  -7  -8    0.00    0.11
   5  -7  -8    0.09    0.13
   5  -7  -8   -0.00    0.06
   5  -7  -8   -0.06    0.08
  -5   7   8   -0.01    0.08
   5  -7  -7    0.15    0.09
   5  -7  -7   -0.00    0.09
   5  -7  -7    0.29    0.18
   5  -7  -7    0.11    0.14
  -5   7   7    0.17    0.14
  -5   7   7   -0.01    0.29
   5  -7  -6    0.16    0.07
   5  -7  -6   -0.00    0.07
   5  -7  -6    0.15    0.25
   5  -7  -6   -0.06    0.07
  -5   7   6    0.06    0.07
  -5   7   6    0.00    0.24
   5  -7  -5    0.10    0.08
   5  -7  -5    0.05    0.08
   5  -7  -5    0.09    0.21
   5  -7  -5   -0.02    0.06
  -5   7   5    0.03    0.05
  -5   7   5   -0.01    0.22
   5  -7  -4    0.12    0.08
   5  -7  -4    0.07    0.08
   5  -7  -4    0.07    0.08
   5  -7  -4    0.03    0.05
   5  -7  -3    0.10    0.05
   5  -7  -3    0.11    0.07
   5  -7  -3    0.12    0.05
   5  -7  -3   -0.00    0.07
  -5   7   3    0.09    0.17
   5  -7  -2   -0.00    0.05
   5  -7  -2    0.18    0.05
   5  -7  -2    0.19    0.07
  -5   7   2    0.33    0.17
  -5   7   2    0.10    0.07
   5  -7  -1    1.14    0.11
   5  -7  -1    1.22    0.11
   5  -7  -1    1.19    0.11
  -5   7   1    1.70    0.26
  -5   7   1    1.28    0.11
   5  -7   0    0.04    0.04
   5  -7   0    0.01    0.04
   5  -7   0   -0.00    0.06
  -5   7   0    0.03    0.24
  -5   7   0    0.02    0.15
  -5   7   0    0.02    0.06
   5  -7   1    0.58    0.12
   5  -7   1    0.78    0.12
   5  -7   1    0.75    0.08
  -5   7  -1    1.13    0.24
  -5   7  -1    1.34    0.38
  -5   7  -1    0.99    0.11
   5  -7   2    0.07    0.09
   5  -7   2    0.25    0.10
   5  -7   2   -0.00    0.06
  -5   7  -2   -0.11    0.18
  -5   7  -2    0.34    0.18
   5  -7   3    0.09    0.11
   5  -7   3    0.17    0.11
   5  -7   3   -0.00    0.12
  -5   7  -3    0.07    0.18
   5  -7   4    0.41    0.17
   5  -7   4    0.64    0.12
   5  -7   4    0.55    0.12
  -5   7  -4    0.77    0.25
   5  -7   5    0.07    0.09
   5  -7   5    0.01    0.09
   5  -7   5    0.02    0.09
  -5   7  -5    0.10    0.28
   5  -6 -11    0.04    0.13
   5  -6 -11    0.11    0.19
   5  -6 -11    0.07    0.13
   5  -6 -11    0.06    0.15
   5  -6 -11    0.02    0.15
  -5   6  11   -0.03    0.22
  -5   6  11    0.07    0.21
  -5   6  11    0.03    0.21
   5  -6 -10    1.04    0.19
   5  -6 -10    1.39    0.28
   5  -6 -10    0.02    0.19
   5  -6 -10    0.88    0.31
   5  -6 -10    1.06    0.21
  -5   6  10    1.47    0.20
  -5   6  10    0.60    0.20
  -5   6  10    1.06    0.29
   5  -6  -9    0.11    0.15
   5  -6  -9   -0.01    0.10
   5  -6  -9    0.02    0.17
   5  -6  -9    0.04    0.11
   5  -6  -9   -0.01    0.17
  -5   6   9    0.04    0.10
  -5   6   9    0.04    0.16
  -5   6   9    0.13    0.17
   5  -6  -8    0.45    0.11
   5  -6  -8    0.00    0.12
   5  -6  -8    0.85    0.33
   5  -6  -8    0.34    0.12
   5  -6  -8    0.60    0.20
  -5   6   8    0.40    0.18
  -5   6   8    0.25    0.19
  -5   6   8    0.39    0.21
   5  -6  -7    0.19    0.13
   5  -6  -7    0.00    0.13
   5  -6  -7    0.20    0.17
   5  -6  -7    0.21    0.09
  -5   6   7    0.14    0.12
  -5   6   7    0.08    0.09
  -5   6   7   -0.04    0.17
   5  -6  -6    0.08    0.09
   5  -6  -6    0.00    0.09
   5  -6  -6   -0.04    0.14
   5  -6  -6   -0.02    0.10
  -5   6   6   -0.01    0.08
  -5   6   6   -0.00    0.08
  -5   6   6    0.04    0.09
  -5   6   6    0.34    0.14
   5  -6  -5    0.43    0.06
   5  -6  -5    0.41    0.19
   5  -6  -5    0.32    0.11
  -5   6   5    0.33    0.05
  -5   6   5    0.24    0.06
  -5   6   5    0.25    0.10
  -5   6   5    0.37    0.19
   5  -6  -4    0.54    0.08
   5  -6  -4    0.61    0.19
   5  -6  -4    0.46    0.09
  -5   6   4    0.41    0.05
  -5   6   4    0.46    0.05
  -5   6   4    0.64    0.19
   5  -6  -3    0.19    0.06
   5  -6  -3    0.19    0.06
   5  -6  -3    0.23    0.06
   5  -6  -3    0.19    0.16
   5  -6  -3   -0.00    0.06
  -5   6   3    0.33    0.16
   5  -6  -2    0.00    0.04
   5  -6  -2    0.05    0.03
   5  -6  -2    0.05    0.03
   5  -6  -2    0.04    0.03
   5  -6  -2    0.07    0.13
  -5   6   2    0.04    0.22
   5  -6  -1    0.23    0.05
   5  -6  -1    0.22    0.05
   5  -6  -1    0.28    0.05
  -5   6   1    0.46    0.19
  -5   6   1    0.49    0.28
  -5   6   1    0.25    0.03
   5  -6   0    0.08    0.05
   5  -6   0    0.10    0.05
   5  -6   0    0.08    0.03
  -5   6   0    0.21    0.24
  -5   6   0    0.05    0.05
  -5   6   0    0.11    0.23
   5  -6   1    0.00    0.03
   5  -6   1   -0.02    0.03
   5  -6   1   -0.01    0.05
  -5   6  -1   -0.03    0.19
  -5   6  -1   -0.09    0.19
  -5   6  -1    0.02    0.04
   5  -6   2    0.30    0.06
   5  -6   2    0.44    0.06
   5  -6   2    0.43    0.09
  -5   6  -2   -0.00    0.31
  -5   6  -2    0.68    0.20
  -5   6  -2    0.35    0.09
   5  -6   3    0.03    0.07
   5  -6   3    0.08    0.08
   5  -6   3   -0.03    0.08
  -5   6  -3   -0.01    0.07
  -5   6  -3    0.22    0.22
   5  -6   4    0.17    0.11
   5  -6   4    0.23    0.12
   5  -6   4    0.11    0.12
  -5   6  -4    0.08    0.30
   5  -6   5    0.41    0.10
   5  -6   5    0.50    0.11
   5  -6   5    0.35    0.16
  -5   6  -5    0.03    0.36
   5  -6   6    0.14    0.16
   5  -6   6    0.10    0.17
   5  -6   6    0.05    0.10
  -5   6  -6    0.23    0.31
   5  -5 -11    2.16    0.26
   5  -5 -11    2.34    0.36
   5  -5 -11    2.09    0.26
   5  -5 -11    2.46    0.31
   5  -5 -11    2.36    0.29
  -5   5  11    2.20    0.29
  -5   5  11    1.90    0.58
  -5   5  11    2.39    0.27
   5  -5 -10    0.53    0.16
   5  -5 -10   -0.01    0.38
   5  -5 -10    0.47    0.16
   5  -5 -10    0.07    0.30
   5  -5 -10    0.21    0.27
  -5   5  10    0.56    0.18
  -5   5  10    0.66    0.25
  -5   5  10    0.31    0.26
   5  -5  -9    0.27    0.18
   5  -5  -9    0.02    0.19
   5  -5  -9    0.00    0.18
   5  -5  -9    0.19    0.14
   5  -5  -9    0.22    0.12
  -5   5   9   -0.01    0.21
  -5   5   9    0.16    0.12
  -5   5   9    0.30    0.20
   5  -5  -8    0.70    0.12
   5  -5  -8    0.00    0.12
   5  -5  -8    0.76    0.21
   5  -5  -8    0.61    0.15
   5  -5  -8    0.59    0.13
  -5   5   8    0.68    0.14
  -5   5   8    0.44    0.13
  -5   5   8    0.62    0.22
   5  -5  -7    0.02    0.09
   5  -5  -7   -0.00    0.09
   5  -5  -7   -0.12    0.19
   5  -5  -7   -0.02    0.06
  -5   5   7   -0.00    0.11
  -5   5   7    0.03    0.09
  -5   5   7    0.13    0.12
   5  -5  -6    0.65    0.13
   5  -5  -6    0.87    0.33
   5  -5  -6    0.74    0.09
  -5   5   6    0.72    0.16
  -5   5   6    0.83    0.10
  -5   5   6    0.68    0.16
  -5   5   6    0.98    0.21
   5  -5  -5    0.20    0.05
   5  -5  -5    0.00    0.05
   5  -5  -5    0.22    0.15
   5  -5  -5    0.10    0.05
  -5   5   5    0.13    0.06
  -5   5   5    0.16    0.10
  -5   5   5    0.14    0.07
  -5   5   5    0.23    0.23
   5  -5  -4    1.35    0.07
   5  -5  -4    1.37    0.07
   5  -5  -4    1.77    0.35
   5  -5  -4    1.39    0.10
  -5   5   4    1.46    0.12
  -5   5   4    1.55    0.12
  -5   5   4    1.35    0.09
  -5   5   4    1.57    0.34
   5  -5  -3    0.08    0.03
   5  -5  -3    0.09    0.02
   5  -5  -3    0.00    0.03
   5  -5  -3    0.28    0.20
   5  -5  -3    0.00    0.03
  -5   5   3    0.09    0.05
  -5   5   3    0.20    0.14
  -5   5   3    0.16    0.05
   5  -5  -2    0.19    0.12
  -5   5   2    0.07    0.04
  -5   5   2    0.21    0.13
  -5   5   2    0.01    0.04
  -5   5   1    0.86    0.20
  -5   5   1    0.85    0.21
  -5   5   0    0.25    0.24
  -5   5   0    0.14    0.15
  -5   5  -1    0.12    0.03
  -5   5  -1    0.06    0.24
  -5   5  -1    0.36    0.25
   5  -5   2    0.91    0.07
   5  -5   2    1.00    0.08
   5  -5   2    0.99    0.08
  -5   5  -2    0.16    0.34
  -5   5  -2    0.48    0.34
  -5   5  -2    0.89    0.06
  -5   5  -2    0.81    0.08
  -5   5  -2    0.99    0.08
   5  -5   3    0.39    0.08
   5  -5   3    0.41    0.09
   5  -5   3    0.44    0.09
   5  -5   3    0.43    0.08
  -5   5  -3    0.37    0.09
  -5   5  -3    0.57    0.31
  -5   5  -3    0.54    0.09
   5  -5   4    0.07    0.08
   5  -5   4    0.03    0.09
   5  -5   4    0.10    0.08
   5  -5   4    0.16    0.06
  -5   5  -4    0.09    0.17
  -5   5  -4    0.12    0.09
  -5   5  -4    0.09    0.08
   5  -5   5    0.10    0.07
   5  -5   5    0.06    0.07
   5  -5   5    0.02    0.10
   5  -5   5    0.03    0.11
  -5   5  -5   -0.17    0.17
  -5   5  -5    0.26    0.10
   5  -5   6    0.28    0.16
   5  -5   6    0.30    0.17
   5  -5   6    0.34    0.15
   5  -5   6    0.42    0.17
  -5   5  -6    0.21    0.35
   5  -5   7    0.11    0.17
   5  -5   7    0.18    0.18
   5  -5   7    0.13    0.17
  -5   5  -7    0.19    0.34
   5  -4 -11    0.19    0.14
   5  -4 -11   -0.01    0.30
   5  -4 -11    0.06    0.14
   5  -4 -11   -0.02    0.17
   5  -4 -11    0.05    0.15
  -5   4  11   -0.10    0.26
  -5   4  11   -0.03    0.31
  -5   4  11    0.06    0.14
   5  -4 -10    2.15    0.23
   5  -4 -10    2.53    0.33
   5  -4 -10    2.23    0.23
   5  -4 -10    2.28    0.43
   5  -4 -10    2.39    0.24
  -5   4  10    2.30    0.29
  -5   4  10    1.87    0.52
  -5   4  10    2.39    0.24
   5  -4  -9    0.02    0.13
   5  -4  -9    0.01    0.21
   5  -4  -9   -0.05    0.13
   5  -4  -9    0.07    0.11
   5  -4  -9    0.04    0.14
  -5   4   9    0.00    0.16
  -5   4   9    0.02    0.21
  -5   4   9   -0.03    0.09
   5  -4  -8    0.17    0.15
   5  -4  -8    0.22    0.17
   5  -4  -8    0.17    0.15
   5  -4  -8    0.12    0.21
   5  -4  -8    0.17    0.16
  -5   4   8    0.12    0.13
  -5   4   8    0.16    0.16
  -5   4   8    0.15    0.27
   5  -4  -7    1.26    0.12
   5  -4  -7    1.25    0.12
   5  -4  -7    1.26    0.23
   5  -4  -7    1.34    0.19
  -5   4   7    1.33    0.17
  -5   4   7    1.40    0.19
  -5   4   7    1.11    0.36
   5  -4  -6    2.19    0.12
   5  -4  -6    2.13    0.12
   5  -4  -6    2.40    0.25
   5  -4  -6    2.13    0.12
  -5   4   6    2.38    0.26
  -5   4   6    2.26    0.12
  -5   4   6    2.33    0.24
   5  -4  -5    1.05    0.11
   5  -4  -5    1.05    0.11
   5  -4  -5    1.19    0.20
   5  -4  -5    1.04    0.11
  -5   4   5    1.14    0.12
  -5   4   5    1.13    0.10
  -5   4   5    1.21    0.12
  -5   4   5    1.12    0.31
   5  -4  -4    0.00    0.02
   5  -4  -4   -0.00    0.02
   5  -4  -4    0.05    0.10
   5  -4  -4   -0.01    0.03
  -5   4   4    0.01    0.05
  -5   4   4    0.02    0.02
  -5   4   4   -0.06    0.10
  -5   4   4    0.01    0.05
   5  -4  -3    0.16    0.12
  -5   4   3    0.06    0.08
  -5   4   3    0.09    0.05
  -5   4   3    0.04    0.12
   5  -4  -2    0.78    0.17
  -5   4   2    0.72    0.27
  -5   4   2    0.79    0.10
  -5   4   2    0.75    0.10
  -5   4   1    0.65    0.17
  -5   4   1    0.52    0.08
  -5   4   1    0.72    0.18
  -5   4   1    0.61    0.06
  -5   4   0    0.61    0.17
  -5   4   0    0.44    0.08
  -5   4   0    0.76    0.17
  -5   4   0    0.61    0.06
  -5   4  -1    0.31    0.07
  -5   4  -1    0.31    0.15
  -5   4  -1    0.37    0.24
  -5   4  -1    0.12    0.08
  -5   4  -2    0.14    0.07
  -5   4  -2    0.06    0.21
  -5   4  -2    0.11    0.20
  -5   4  -2    0.04    0.05
   5  -4   3    0.27    0.06
   5  -4   3    0.24    0.05
   5  -4   3    0.38    0.10
  -5   4  -3    0.34    0.10
  -5   4  -3    0.18    0.05
  -5   4  -3    0.38    0.16
   5  -4   4    0.15    0.07
   5  -4   4    0.19    0.11
   5  -4   4    0.18    0.07
  -5   4  -4   -0.01    0.11
  -5   4  -4    0.31    0.15
  -5   4  -4    0.00    0.04
  -5   4  -4    0.16    0.05
   5  -4   5    0.17    0.10
   5  -4   5   -0.00    0.13
   5  -4   5    0.39    0.10
  -5   4  -5    0.00    0.14
  -5   4  -5    0.33    0.17
  -5   4  -5   -0.01    0.06
  -5   4  -5    0.26    0.07
   5  -4   6    0.17    0.10
   5  -4   6    0.01    0.08
   5  -4   6    0.09    0.10
  -5   4  -6   -0.00    0.13
  -5   4  -6   -0.14    0.14
  -5   4  -6    0.00    0.07
  -5   4  -6    0.00    0.11
   5  -4   7    0.34    0.14
   5  -4   7    0.22    0.10
  -5   4  -7   -0.07    0.09
  -5   4  -7   -0.00    0.09
  -5   4  -7    0.12    0.18
  -5   4  -7    0.00    0.14
  -5   4  -7    0.00    0.11
   5  -4   8    0.02    0.10
   5  -4   8    0.04    0.17
  -5   4  -8    0.02    0.10
  -5   4  -8    0.00    0.09
  -5   4  -8    0.58    0.28
  -5   4  -8   -0.00    0.10
  -5   4  -8    0.01    0.17
   5  -3 -11    0.18    0.15
   5  -3 -11    0.00    0.20
   5  -3 -11    0.16    0.15
   5  -3 -11    0.06    0.26
   5  -3 -11    0.04    0.19
  -5   3  11    0.17    0.30
  -5   3  11    0.10    0.20
  -5   3  11    0.11    0.16
   5  -3 -10    0.04    0.12
   5  -3 -10   -0.01    0.16
   5  -3 -10    0.02    0.12
   5  -3 -10    0.04    0.23
   5  -3 -10    0.07    0.12
  -5   3  10    0.09    0.15
  -5   3  10    0.11    0.27
  -5   3  10    0.03    0.12
   5  -3  -9    2.88    0.31
   5  -3  -9    2.60    0.30
   5  -3  -9    2.53    0.31
   5  -3  -9    2.90    0.28
   5  -3  -9    2.58    0.22
  -5   3   9    2.97    0.43
  -5   3   9    2.77    0.46
  -5   3   9    2.58    0.22
   5  -3  -8    0.57    0.20
   5  -3  -8    0.78    0.32
   5  -3  -8    0.63    0.20
   5  -3  -8    0.66    0.29
   5  -3  -8    0.69    0.20
  -5   3   8    0.82    0.19
  -5   3   8    0.73    0.13
  -5   3   8    0.82    0.32
   5  -3  -7    1.08    0.18
   5  -3  -7    1.04    0.18
   5  -3  -7    1.06    0.21
   5  -3  -7    1.07    0.18
   5  -3  -7    0.63    0.19
  -5   3   7    1.32    0.18
  -5   3   7    1.21    0.18
  -5   3   7    1.17    0.33
   5  -3  -6    1.50    0.10
   5  -3  -6    1.50    0.10
   5  -3  -6    1.28    0.21
   5  -3  -6    1.41    0.15
  -5   3   6    1.46    0.10
  -5   3   6    1.05    0.24
  -5   3   6    1.53    0.32
  -5   3   6    1.74    0.26
   5  -3  -5    3.62    0.15
   5  -3  -5    3.47    0.15
   5  -3  -5    3.92    0.26
   5  -3  -5    3.47    0.16
  -5   3   5    3.44    0.11
  -5   3   5    3.69    0.28
  -5   3   5    4.00    0.38
  -5   3   5    4.13    0.29
   5  -3  -4    0.06    0.02
   5  -3  -4    0.05    0.02
   5  -3  -4    0.07    0.10
   5  -3  -4    0.04    0.04
  -5   3   4    0.05    0.07
  -5   3   4    0.03    0.04
  -5   3   4    0.03    0.11
  -5   3   4    0.05    0.12
   5  -3  -3    2.19    0.31
  -5   3   3    2.19    0.14
  -5   3   3    2.24    0.14
  -5   3   3    2.26    0.20
   5  -3  -2    0.15    0.12
  -5   3   2    0.17    0.12
  -5   3   2    0.13    0.11
  -5   3   2    0.16    0.07
  -5   3   1    5.78    0.29
  -5   3   1    5.80    0.24
  -5   3   1    5.75    0.19
  -5   3   0   22.81    0.78
  -5   3   0   22.26    0.45
  -5   3   0   22.51    0.62
  -5   3   0   22.84    0.54
  -5   3  -1    6.29    0.31
  -5   3  -1    6.00    0.23
  -5   3  -1    6.04    0.44
  -5   3  -1    5.82    0.25
   5  -3   2    0.05    0.06
  -5   3  -2    0.09    0.09
  -5   3  -2    0.12    0.12
  -5   3  -2    0.07    0.11
   5  -3   3    1.72    0.12
  -5   3  -3    1.60    0.12
  -5   3  -3    1.23    0.31
  -5   3  -3    1.63    0.21
   5  -3   4    0.27    0.06
   5  -3   4   -0.00    0.13
   5  -3   4    0.18    0.06
  -5   3  -4    0.23    0.14
  -5   3  -4    0.31    0.13
  -5   3  -4   -0.00    0.05
  -5   3  -4    0.15    0.06
   5  -3   5    0.03    0.07
   5  -3   5   -0.01    0.08
   5  -3   5    0.14    0.07
  -5   3  -5    0.08    0.13
  -5   3  -5   -0.00    0.13
  -5   3  -5    0.01    0.07
  -5   3  -5    0.05    0.05
   5  -3   6    0.15    0.07
   5  -3   6    0.15    0.10
  -5   3  -6    0.00    0.16
  -5   3  -6    0.11    0.07
  -5   3  -6    0.16    0.15
  -5   3  -6   -0.00    0.06
  -5   3  -6    0.00    0.10
   5  -3   7    0.10    0.08
   5  -3   7    0.14    0.11
  -5   3  -7   -0.00    0.11
  -5   3  -7    0.00    0.13
  -5   3  -7    0.00    0.08
  -5   3  -7    0.11    0.16
  -5   3  -7    0.00    0.12
   5  -3   8    0.52    0.12
   5  -3   8    0.40    0.23
  -5   3  -8    0.01    0.15
  -5   3  -8    0.20    0.12
  -5   3  -8    0.00    0.11
  -5   3  -8    0.41    0.21
  -5   3  -8    0.00    0.12
   5  -3   9    0.17    0.14
   5  -3   9    0.11    0.17
  -5   3  -9    0.10    0.21
  -5   3  -9   -0.00    0.13
  -5   3  -9    0.56    0.21
  -5   3  -9   -0.00    0.21
  -5   3  -9    0.40    0.25
   5  -2 -11    0.55    0.19
   5  -2 -11   -0.03    0.23
   5  -2 -11    0.52    0.19
   5  -2 -11    0.32    0.31
   5  -2 -11    0.19    0.38
  -5   2  11    0.30    0.24
  -5   2  11    0.28    0.23
  -5   2  11    0.38    0.30
   5  -2 -10   -0.00    0.17
   5  -2 -10    0.03    0.33
   5  -2 -10    0.65    0.17
   5  -2 -10    0.15    0.22
   5  -2 -10    0.64    0.28
  -5   2  10    1.04    0.36
  -5   2  10    0.83    0.34
  -5   2  10    0.58    0.27
   5  -2  -9   -0.00    0.13
   5  -2  -9    0.24    0.17
   5  -2  -9    0.19    0.13
   5  -2  -9    0.03    0.17
   5  -2  -9    0.26    0.13
  -5   2   9    0.38    0.28
  -5   2   9    0.51    0.26
  -5   2   9    0.20    0.13
   5  -2  -8    1.37    0.16
   5  -2  -8    1.20    0.35
   5  -2  -8    1.33    0.16
   5  -2  -8    1.30    0.36
   5  -2  -8    1.40    0.17
  -5   2   8    1.57    0.23
  -5   2   8    1.60    0.24
  -5   2   8    1.41    0.16
   5  -2  -7    3.29    0.18
   5  -2  -7    3.44    0.39
   5  -2  -7    3.45    0.18
   5  -2  -7    3.21    0.27
   5  -2  -7    3.26    0.25
  -5   2   7    3.57    0.25
  -5   2   7    3.41    0.27
  -5   2   7    3.55    0.27
   5  -2  -6   -0.00    0.10
   5  -2  -6    0.08    0.09
   5  -2  -6    0.08    0.12
  -5   2   6    0.06    0.09
  -5   2   6    0.13    0.18
  -5   2   6    0.10    0.11
   5  -2  -5    0.06    0.06
   5  -2  -5    0.04    0.06
   5  -2  -5    0.06    0.15
   5  -2  -5    0.04    0.04
  -5   2   5    0.03    0.04
  -5   2   5   -0.00    0.09
  -5   2   5    0.00    0.15
  -5   2   5    0.03    0.15
   5  -2  -4    0.01    0.03
   5  -2  -4   -0.01    0.13
   5  -2  -4    0.01    0.02
   5  -2  -4    0.04    0.03
  -5   2   4   -0.01    0.03
  -5   2   4   -0.00    0.11
  -5   2   4   -0.05    0.08
  -5   2   4    0.00    0.07
   5  -2  -3    1.11    0.15
  -5   2   3    0.90    0.12
  -5   2   3    0.77    0.13
  -5   2   3    0.81    0.14
   5  -2  -2    1.92    0.25
  -5   2   2    1.78    0.14
  -5   2   2    1.96    0.21
  -5   2   2    1.92    0.17
   5  -2  -1   24.54    0.61
  -5   2   1   24.40    0.73
  -5   2   1   24.48    0.55
  -5   2   1   24.18    0.55
  -5   2   0    6.76    0.28
  -5   2   0    6.88    0.23
  -5   2   0    6.87    0.33
  -5   2   0    6.91    0.29
  -5   2  -1   36.09    0.97
  -5   2  -1   35.44    0.81
  -5   2  -1   37.67    1.01
  -5   2  -1   34.31    0.82
   5  -2   2    1.30    0.19
  -5   2  -2    1.49    0.12
  -5   2  -2    1.38    0.17
  -5   2  -2    1.61    0.17
   5  -2   3   -0.03    0.06
  -5   2  -3   -0.00    0.07
  -5   2  -3    0.04    0.14
  -5   2  -3   -0.03    0.09
   5  -2   4    0.26    0.04
   5  -2   4    0.33    0.03
   5  -2   4    0.55    0.16
  -5   2  -4    0.54    0.23
  -5   2  -4    0.54    0.17
  -5   2  -4    0.19    0.22
  -5   2  -4    0.45    0.04
  -5   2  -4    0.37    0.04
   5  -2   5    0.51    0.09
   5  -2   5    0.58    0.14
  -5   2  -5    0.68    0.20
  -5   2  -5    0.55    0.26
  -5   2  -5    0.52    0.09
   5  -2   6    3.79    0.20
   5  -2   6    4.36    0.25
  -5   2  -6    3.98    0.35
  -5   2  -6    3.69    0.15
  -5   2  -6    4.34    0.43
  -5   2  -6    3.67    0.14
  -5   2  -6    3.50    0.15
   5  -2   7    0.53    0.10
   5  -2   7    0.61    0.24
  -5   2  -7    0.00    0.24
  -5   2  -7    0.44    0.10
  -5   2  -7   -0.00    0.15
  -5   2  -7    0.57    0.30
  -5   2  -7    0.51    0.10
   5  -2   8    0.56    0.12
   5  -2   8    0.96    0.27
  -5   2  -8    0.01    0.28
  -5   2  -8    0.48    0.19
  -5   2  -8   -0.01    0.12
  -5   2  -8    1.10    0.32
  -5   2  -8    0.47    0.19
   5  -2   9    0.01    0.14
   5  -2   9   -0.08    0.10
  -5   2  -9   -0.18    0.22
  -5   2  -9   -0.06    0.16
  -5   2  -9   -0.00    0.10
  -5   2  -9   -0.00    0.16
  -5   2  -9   -0.02    0.16
   5  -1 -11    0.11    0.11
   5  -1 -11    0.01    0.13
   5  -1 -11   -0.18    0.11
   5  -1 -11   -0.02    0.19
   5  -1 -11    0.01    0.23
  -5   1  11    0.02    0.24
  -5   1  11   -0.07    0.14
  -5   1  11    0.22    0.18
   5  -1 -10   -0.00    0.13
   5  -1 -10    0.01    0.15
   5  -1 -10    0.03    0.13
   5  -1 -10    0.01    0.21
   5  -1 -10    0.01    0.17
  -5   1  10    0.10    0.17
  -5   1  10    0.30    0.25
   5  -1  -9   -0.00    0.10
   5  -1  -9   -0.11    0.18
   5  -1  -9   -0.01    0.09
   5  -1  -9    0.09    0.15
   5  -1  -9    0.03    0.13
  -5   1   9    0.04    0.13
  -5   1   9    0.02    0.12
   5  -1  -8   -0.00    0.10
   5  -1  -8    0.09    0.13
   5  -1  -8    0.10    0.10
   5  -1  -8    0.11    0.15
   5  -1  -8    0.05    0.16
  -5   1   8    0.04    0.14
  -5   1   8    0.07    0.15
  -5   1   8    0.12    0.15
   5  -1  -7   -0.00    0.11
   5  -1  -7    0.39    0.24
   5  -1  -7    0.45    0.11
   5  -1  -7    0.53    0.18
   5  -1  -7    0.42    0.11
  -5   1   7    0.37    0.16
  -5   1   7    0.51    0.10
  -5   1   7    0.46    0.27
   5  -1  -6    0.75    0.14
   5  -1  -6    0.55    0.22
   5  -1  -6    0.24    0.13
   5  -1  -6    0.00    0.14
  -5   1   6    0.42    0.13
  -5   1   6    0.57    0.15
  -5   1   6    0.52    0.25
   5  -1  -5    0.05    0.07
   5  -1  -5    0.06    0.15
   5  -1  -5    0.03    0.08
   5  -1  -5    0.13    0.08
  -5   1   5    0.05    0.07
  -5   1   5    0.05    0.10
  -5   1   5    0.01    0.11
  -5   1   5    0.02    0.17
   5  -1  -4    0.20    0.06
   5  -1  -4    0.22    0.11
   5  -1  -4    0.26    0.04
   5  -1  -4    0.24    0.06
  -5   1   4    0.20    0.06
  -5   1   4    0.23    0.12
  -5   1   4    0.30    0.17
  -5   1   4    0.27    0.20
   5  -1  -3    0.78    0.20
  -5   1   3    0.81    0.21
  -5   1   3    1.10    0.13
  -5   1   3    1.13    0.15
   5  -1  -2    0.17    0.09
  -5   1   2    0.19    0.09
  -5   1   2    0.11    0.10
  -5   1   2    0.09    0.13
   5  -1  -1    4.72    0.20
  -5   1   1    4.72    0.20
  -5   1   1    4.65    0.31
  -5   1   1    4.64    0.19
  -5   1   0    7.65    0.26
  -5   1   0    7.90    0.26
  -5   1   0    7.72    0.27
  -5   1   0    7.60    0.25
  -5   1  -1    0.19    0.14
  -5   1  -1    0.19    0.09
  -5   1  -1    0.08    0.14
  -5   1  -1    0.08    0.09
   5  -1   2    0.43    0.17
  -5   1  -2    0.39    0.17
  -5   1  -2    0.39    0.17
  -5   1  -2    0.40    0.17
   5  -1   3    0.30    0.11
  -5   1  -3    0.24    0.17
  -5   1  -3    0.24    0.11
  -5   1  -3    0.21    0.11
   5  -1   4    0.10    0.16
  -5   1  -4    0.14    0.16
  -5   1  -4    0.13    0.11
  -5   1  -4    0.16    0.16
   5  -1   5    5.75    0.17
   5  -1   5    6.63    0.40
  -5   1  -5    5.44    0.15
  -5   1  -5    6.25    0.28
  -5   1  -5    6.21    0.29
  -5   1  -5    6.41    0.40
  -5   1  -5    5.92    0.17
  -5   1  -5    5.30    0.18
   5  -1   6    0.25    0.10
   5  -1   6    0.69    0.22
  -5   1  -6    0.53    0.15
  -5   1  -6    0.33    0.10
  -5   1  -6    0.40    0.16
  -5   1  -6    0.51    0.10
  -5   1  -6    0.14    0.11
   5  -1   7    3.47    0.23
   5  -1   7    3.61    0.39
  -5   1  -7    3.54    0.27
  -5   1  -7    3.29    0.23
  -5   1  -7    3.50    0.16
  -5   1  -7    3.65    0.29
  -5   1  -7    3.35    0.23
   5  -1   8    0.49    0.17
   5  -1   8    0.59    0.17
  -5   1  -8    0.31    0.18
  -5   1  -8    0.32    0.11
  -5   1  -8   -0.00    0.17
  -5   1  -8    0.33    0.18
  -5   1  -8    0.29    0.11
   5  -1   9    0.71    0.33
   5  -1   9    0.68    0.15
  -5   1  -9    0.80    0.22
  -5   1  -9    0.67    0.20
  -5   1  -9    0.49    0.15
  -5   1  -9   -0.01    0.14
  -5   1  -9    0.47    0.15
   5  -1  10    0.38    0.21
   5  -1  10    0.39    0.15
   5  -1  10    0.12    0.22
  -5   1 -10    0.41    0.21
  -5   1 -10    0.57    0.33
  -5   1 -10    0.19    0.15
  -5   1 -10   -0.00    0.15
  -5   1 -10    0.23    0.15
   5   0 -10   -0.11    0.25
   5   0 -10    0.00    0.22
   5   0 -10    0.08    0.24
   5   0 -10   -0.01    0.20
   5   0 -10    0.00    0.23
  -5   0  10    0.23    0.19
  -5   0  10   -0.00    0.24
  -5   0  10    0.45    0.25
   5   0  -9    0.11    0.14
   5   0  -9    0.17    0.12
   5   0  -9    0.04    0.12
   5   0  -9   -0.06    0.26
   5   0  -9   -0.02    0.12
  -5   0   9    0.00    0.27
  -5   0   9    0.01    0.14
  -5   0   9    0.00    0.12
   5   0  -8    0.46    0.16
   5   0  -8    0.54    0.14
   5   0  -8    0.43    0.14
   5   0  -8    0.16    0.20
   5   0  -8   -0.00    0.14
  -5   0   8    0.48    0.16
  -5   0   8   -0.00    0.14
  -5   0   8    0.62    0.20
   5   0  -7    0.34    0.14
   5   0  -7    0.38    0.17
   5   0  -7    0.40    0.11
   5   0  -7    0.50    0.19
   5   0  -7    0.00    0.17
  -5   0   7    0.35    0.21
  -5   0   7    0.00    0.11
  -5   0   7    0.49    0.18
   5   0  -6    0.18    0.08
   5   0  -6    0.09    0.11
   5   0  -6    0.12    0.12
   5   0  -6    0.00    0.08
  -5   0   6    0.06    0.16
  -5   0   6    0.00    0.12
  -5   0   6    0.13    0.15
   5   0  -5    0.06    0.06
   5   0  -5    0.08    0.09
   5   0  -5    0.05    0.09
   5   0  -5    0.09    0.06
  -5   0   5    0.05    0.06
  -5   0   5    0.05    0.14
  -5   0   5    0.04    0.12
  -5   0   5    0.09    0.13
   5   0  -4    0.85    0.09
   5   0  -4    0.74    0.18
   5   0  -4    0.80    0.10
   5   0  -4    0.78    0.10
  -5   0   4    0.78    0.09
  -5   0   4    0.80    0.17
  -5   0   4    0.71    0.18
  -5   0   4    0.70    0.17
   5   0  -3    0.01    0.06
   5   0  -3   -0.00    0.03
   5   0  -3    0.01    0.02
  -5   0   3    0.00    0.03
  -5   0   3    0.05    0.09
  -5   0   3    0.00    0.03
  -5   0   3    0.00    0.06
  -5   0   3    0.04    0.13
   5   0  -2    1.12    0.11
  -5   0   2    1.07    0.25
  -5   0   2    1.31    0.26
  -5   0   2    1.07    0.16
   5   0  -1    0.85    0.10
  -5   0   1    0.88    0.14
  -5   0   1    0.97    0.15
  -5   0   1    0.63    0.14
  -5   0   0    4.94    0.23
  -5   0   0    4.92    0.24
  -5   0   0    4.83    0.33
  -5   0   0    4.60    0.17
  -5   0  -1    1.28    0.11
  -5   0  -1    1.31    0.17
  -5   0  -1    1.44    0.24
  -5   0  -1    1.27    0.16
   5   0   2    1.75    0.25
  -5   0  -2    1.67    0.12
  -5   0  -2    1.56    0.17
  -5   0  -2    1.63    0.12
   5   0   3    0.38    0.12
  -5   0  -3    0.09    0.14
  -5   0  -3    0.36    0.12
  -5   0  -3    0.31    0.14
   5   0   4    0.08    0.16
  -5   0  -4    0.09    0.10
  -5   0  -4    0.05    0.08
  -5   0  -4    0.05    0.08
   5   0   5    0.38    0.07
   5   0   5    0.25    0.21
  -5   0  -5    0.42    0.07
  -5   0  -5    0.53    0.23
  -5   0  -5    0.35    0.17
  -5   0  -5    0.40    0.12
  -5   0  -5    0.45    0.07
  -5   0  -5    0.30    0.07
   5   0   6    3.35    0.37
   5   0   6    3.08    0.17
  -5   0  -6    3.38    0.25
  -5   0  -6    2.89    0.17
  -5   0  -6    2.96    0.16
  -5   0  -6    3.32    0.22
  -5   0  -6    2.78    0.16
   5   0   7    1.25    0.16
   5   0   7    1.30    0.21
  -5   0  -7    1.34    0.21
  -5   0  -7    1.27    0.11
  -5   0  -7    1.25    0.16
  -5   0  -7    1.00    0.19
  -5   0  -7    1.23    0.11
   5   0   8    0.32    0.17
   5   0   8    0.30    0.16
  -5   0  -8    0.38    0.26
  -5   0  -8    0.32    0.18
  -5   0  -8    0.00    0.16
  -5   0  -8    0.41    0.16
  -5   0  -8    0.32    0.16
   5   0   9    0.08    0.24
   5   0   9    0.20    0.11
   5   0   9    0.14    0.16
  -5   0  -9    0.19    0.24
  -5   0  -9   -0.00    0.17
  -5   0  -9   -0.00    0.17
  -5   0  -9    0.00    0.10
  -5   0  -9    0.11    0.16
   5   0  10    0.24    0.20
   5   0  10    0.31    0.14
   5   0  10    0.10    0.20
  -5   0 -10    0.39    0.20
  -5   0 -10    0.46    0.19
  -5   0 -10   -0.01    0.22
  -5   0 -10   -0.01    0.14
  -5   0 -10    0.27    0.22
   5   1 -10    0.40    0.17
   5   1 -10   -0.00    0.24
   5   1 -10   -0.07    0.17
   5   1 -10    0.15    0.37
   5   1 -10    0.01    0.25
  -5  -1  10   -0.02    0.21
  -5  -1  10    0.19    0.25
  -5  -1  10    0.14    0.17
   5   1  -9    0.08    0.14
   5   1  -9    0.02    0.19
   5   1  -9    0.13    0.18
   5   1  -9    0.02    0.20
  -5  -1   9    0.06    0.12
  -5  -1   9    0.00    0.12
  -5  -1   9    0.02    0.13
  -5  -1   9    0.00    0.18
   5   1  -8    0.48    0.26
   5   1  -8    0.48    0.15
   5   1  -8    0.58    0.23
   5   1  -8    0.49    0.15
  -5  -1   8    0.50    0.15
  -5  -1   8    0.01    0.15
  -5  -1   8    0.49    0.25
  -5  -1   8    0.32    0.22
   5   1  -7    0.36    0.14
   5   1  -7    0.43    0.19
   5   1  -7    0.11    0.20
   5   1  -7    0.39    0.19
  -5  -1   7    0.44    0.14
  -5  -1   7    0.48    0.18
  -5  -1   7   -0.00    0.12
  -5  -1   7    0.48    0.30
   5   1  -6   -0.01    0.09
   5   1  -6    0.11    0.08
   5   1  -6    0.00    0.08
  -5  -1   6    0.04    0.12
  -5  -1   6    0.06    0.09
  -5  -1   6   -0.00    0.12
  -5  -1   6    0.10    0.22
   5   1  -5    0.06    0.06
   5   1  -5    0.05    0.08
   5   1  -5    0.02    0.06
  -5  -1   5    0.01    0.09
  -5  -1   5    0.04    0.12
  -5  -1   5    0.03    0.09
  -5  -1   5    0.04    0.13
  -5  -1   5    0.04    0.21
   5   1  -4    0.13    0.05
   5   1  -4    0.15    0.12
   5   1  -4    0.16    0.09
  -5  -1   4    0.00    0.08
  -5  -1   4    0.11    0.12
  -5  -1   4    0.09    0.08
  -5  -1   4    0.15    0.14
  -5  -1   4    0.18    0.22
   5   1  -3    0.69    0.14
   5   1  -3    0.70    0.09
  -5  -1   3    0.78    0.08
  -5  -1   3    0.75    0.09
  -5  -1   3    0.66    0.18
  -5  -1   3    0.73    0.06
  -5  -1   3    0.87    0.18
   5   1  -2    0.20    0.09
   5   1  -2    0.11    0.04
   5   1  -2    0.19    0.04
  -5  -1   2    0.12    0.03
  -5  -1   2    0.28    0.12
  -5  -1   2    0.13    0.04
  -5  -1   2    0.23    0.09
  -5  -1   2    0.23    0.13
   5   1  -1    1.01    0.08
  -5  -1   1    1.13    0.18
  -5  -1   1    1.06    0.08
  -5  -1   1    0.56    0.27
  -5  -1   0    1.30    0.17
  -5  -1   0    1.23    0.13
  -5  -1   0    1.29    0.18
  -5  -1   0    1.23    0.12
  -5  -1  -1    0.32    0.06
  -5  -1  -1    0.55    0.21
  -5  -1  -1    0.31    0.06
  -5  -1  -1    0.54    0.14
   5   1   2    0.16    0.17
  -5  -1  -2    0.09    0.05
  -5  -1  -2    0.06    0.09
  -5  -1  -2    0.17    0.11
   5   1   3    0.80    0.15
  -5  -1  -3    0.72    0.09
  -5  -1  -3    0.66    0.24
  -5  -1  -3    0.78    0.08
   5   1   4    0.75    0.15
   5   1   4    0.44    0.04
  -5  -1  -4    0.47    0.04
  -5  -1  -4    0.71    0.15
  -5  -1  -4    0.44    0.09
  -5  -1  -4    0.44    0.09
  -5  -1  -4    0.44    0.04
  -5  -1  -4    0.42    0.04
   5   1   5    0.04    0.04
   5   1   5   -0.00    0.09
  -5  -1  -5    0.02    0.04
  -5  -1  -5    0.02    0.04
  -5  -1  -5    0.07    0.15
  -5  -1  -5   -0.03    0.10
  -5  -1  -5    0.00    0.07
  -5  -1  -5   -0.00    0.03
   5   1   6    0.37    0.15
   5   1   6    0.34    0.09
  -5  -1  -6    0.31    0.06
  -5  -1  -6    0.32    0.15
  -5  -1  -6    0.16    0.06
  -5  -1  -6    0.21    0.16
  -5  -1  -6    0.25    0.09
  -5  -1  -6    0.28    0.11
   5   1   7    0.02    0.13
   5   1   7    0.07    0.06
  -5  -1  -7    0.08    0.06
  -5  -1  -7    0.08    0.10
  -5  -1  -7    0.08    0.13
  -5  -1  -7    0.02    0.06
  -5  -1  -7    0.03    0.06
   5   1   8    0.39    0.25
   5   1   8    0.25    0.09
   5   1   8    0.08    0.14
  -5  -1  -8    0.24    0.09
  -5  -1  -8    0.20    0.17
  -5  -1  -8    0.19    0.21
  -5  -1  -8   -0.01    0.09
  -5  -1  -8    0.21    0.10
   5   1   9    0.32    0.18
   5   1   9    0.28    0.18
   5   1   9    0.25    0.16
  -5  -1  -9    0.26    0.11
  -5  -1  -9    0.00    0.19
  -5  -1  -9    0.22    0.15
  -5  -1  -9   -0.02    0.11
  -5  -1  -9    0.25    0.17
   5   1  10    1.00    0.36
   5   1  10    0.55    0.16
   5   1  10    0.94    0.33
  -5  -1 -10    0.51    0.24
  -5  -1 -10    0.00    0.24
  -5  -1 -10   -0.02    0.25
  -5  -1 -10    0.41    0.20
  -5  -1 -10    0.51    0.15
   5   1  11    0.42    0.23
   5   1  11   -0.11    0.30
   5   1  11    0.13    0.16
  -5  -1 -11    0.10    0.25
  -5  -1 -11    0.42    0.23
  -5  -1 -11    0.03    0.25
  -5  -1 -11    0.01    0.30
  -5  -1 -11    0.35    0.16
   5   2 -10    1.69    0.27
   5   2 -10    0.00    0.39
   5   2 -10    1.37    0.39
   5   2 -10    0.02    0.40
  -5  -2  10    0.00    0.54
  -5  -2  10    1.74    0.39
  -5  -2  10    1.41    0.41
  -5  -2  10    1.81    0.26
   5   2  -9    0.88    0.29
   5   2  -9    0.01    0.28
   5   2  -9    0.95    0.28
   5   2  -9    0.01    0.30
  -5  -2   9    0.81    0.19
  -5  -2   9    0.01    0.20
  -5  -2   9    0.82    0.29
  -5  -2   9    0.00    0.26
   5   2  -8    0.04    0.12
   5   2  -8    0.05    0.12
   5   2  -8    0.15    0.18
   5   2  -8    0.04    0.12
  -5  -2   8    0.10    0.12
  -5  -2   8    0.00    0.12
  -5  -2   8   -0.03    0.12
  -5  -2   8    0.00    0.17
   5   2  -7    2.06    0.29
   5   2  -7    1.68    0.19
   5   2  -7    1.80    0.19
  -5  -2   7    1.58    0.28
  -5  -2   7    0.00    0.29
  -5  -2   7    1.92    0.28
  -5  -2   7   -0.00    0.29
   5   2  -6    1.63    0.16
   5   2  -6    1.45    0.16
   5   2  -6    1.40    0.17
  -5  -2   6    1.41    0.16
  -5  -2   6    1.27    0.16
  -5  -2   6    1.43    0.28
  -5  -2   6    1.38    0.16
   5   2  -5    0.04    0.11
   5   2  -5    0.07    0.12
   5   2  -5    0.06    0.08
  -5  -2   5    0.02    0.12
  -5  -2   5    0.09    0.11
  -5  -2   5    0.00    0.08
  -5  -2   5    0.11    0.15
   5   2  -4    0.31    0.08
   5   2  -4    0.47    0.08
  -5  -2   4    0.35    0.13
  -5  -2   4    0.00    0.12
  -5  -2   4    0.40    0.12
  -5  -2   4    0.49    0.17
  -5  -2   4    0.01    0.08
  -5  -2   4    0.48    0.17
   5   2  -3    0.07    0.04
   5   2  -3   -0.00    0.04
  -5  -2   3    0.00    0.04
  -5  -2   3   -0.02    0.04
  -5  -2   3    0.03    0.04
  -5  -2   3   -0.04    0.11
  -5  -2   3   -0.00    0.04
  -5  -2   3    0.02    0.11
   5   2  -2    0.24    0.09
   5   2  -2    0.53    0.08
  -5  -2   2    0.55    0.05
  -5  -2   2    0.55    0.09
  -5  -2   2    0.50    0.05
  -5  -2   2    0.51    0.16
  -5  -2   2    0.78    0.18
   5   2  -1    4.15    0.12
  -5  -2   1    3.97    0.09
  -5  -2   1    3.98    0.09
  -5  -2   1    4.09    0.14
  -5  -2   1    4.76    0.28
  -5  -2   1    4.18    0.09
  -5  -2   1    4.65    0.41
  -5  -2   0    0.25    0.04
  -5  -2   0    0.16    0.22
  -5  -2   0    0.22    0.14
  -5  -2   0    0.23    0.06
  -5  -2  -1    1.86    0.07
  -5  -2  -1    2.11    0.21
  -5  -2  -1    1.77    0.22
  -5  -2  -1    1.73    0.09
   5   2   2    2.92    0.33
  -5  -2  -2    2.57    0.09
  -5  -2  -2    3.02    0.23
  -5  -2  -2    2.71    0.11
   5   2   3    2.10    0.33
  -5  -2  -3    2.05    0.12
  -5  -2  -3    2.15    0.21
  -5  -2  -3    2.09    0.09
   5   2   4    0.19    0.05
   5   2   4    0.39    0.14
  -5  -2  -4    0.24    0.05
  -5  -2  -4    0.21    0.05
  -5  -2  -4    0.41    0.14
  -5  -2  -4    0.24    0.06
  -5  -2  -4    0.24    0.05
  -5  -2  -4   -0.00    0.06
   5   2   5    0.34    0.15
   5   2   5    0.29    0.05
  -5  -2  -5   -0.01    0.08
  -5  -2  -5    0.31    0.07
  -5  -2  -5    0.39    0.24
  -5  -2  -5    0.24    0.07
  -5  -2  -5    0.35    0.08
  -5  -2  -5    0.34    0.07
   5   2   6    0.49    0.17
   5   2   6    0.30    0.07
  -5  -2  -6    0.32    0.10
  -5  -2  -6    0.29    0.14
  -5  -2  -6    0.29    0.16
  -5  -2  -6    0.17    0.10
  -5  -2  -6    0.35    0.14
  -5  -2  -6    0.23    0.07
   5   2   7    0.66    0.30
   5   2   7   -0.00    0.15
  -5  -2  -7    0.63    0.09
  -5  -2  -7    0.62    0.12
  -5  -2  -7    0.63    0.20
  -5  -2  -7    0.77    0.15
   5   2   8    0.04    0.14
   5   2   8    0.02    0.12
   5   2   8   -0.00    0.10
  -5  -2  -8    0.09    0.08
  -5  -2  -8    0.03    0.15
  -5  -2  -8    0.02    0.10
  -5  -2  -8    0.00    0.08
  -5  -2  -8    0.12    0.12
   5   2   9    0.06    0.14
   5   2   9   -0.00    0.13
   5   2   9    0.02    0.11
  -5  -2  -9    0.01    0.13
  -5  -2  -9    0.00    0.14
  -5  -2  -9   -0.02    0.10
  -5  -2  -9    0.01    0.13
  -5  -2  -9    0.08    0.13
   5   2  10    0.01    0.14
   5   2  10    0.20    0.18
   5   2  10    0.14    0.13
  -5  -2 -10    0.26    0.12
  -5  -2 -10   -0.00    0.19
  -5  -2 -10   -0.03    0.12
  -5  -2 -10    0.02    0.14
  -5  -2 -10    0.04    0.12
   5   2  11    0.54    0.35
   5   2  11    0.36    0.18
   5   2  11    0.12    0.16
  -5  -2 -11    0.26    0.24
  -5  -2 -11    0.00    0.23
  -5  -2 -11   -0.00    0.15
  -5  -2 -11    0.79    0.28
  -5  -2 -11    0.08    0.16
   5   3  -9    0.17    0.14
   5   3  -9   -0.00    0.15
   5   3  -9    0.15    0.25
   5   3  -9   -0.00    0.24
  -5  -3   9    0.08    0.15
  -5  -3   9    0.00    0.16
  -5  -3   9    0.05    0.14
  -5  -3   9    0.01    0.32
   5   3  -8    5.86    0.33
   5   3  -8    5.98    0.51
   5   3  -8    6.15    0.51
  -5  -3   8    5.76    0.36
  -5  -3   8    5.59    0.37
  -5  -3   8    5.54    0.46
  -5  -3   8    6.25    0.47
   5   3  -7    0.07    0.10
   5   3  -7    0.08    0.11
   5   3  -7    0.02    0.12
  -5  -3   7    0.03    0.18
  -5  -3   7    0.08    0.18
  -5  -3   7   -0.00    0.10
  -5  -3   7   -0.00    0.18
   5   3  -6   10.49    0.45
   5   3  -6   10.37    0.49
   5   3  -6   10.06    0.51
  -5  -3   6   10.21    0.38
  -5  -3   6   10.28    0.39
  -5  -3   6   10.06    0.35
  -5  -3   6   10.57    0.55
   5   3  -5    1.17    0.15
   5   3  -5    1.78    0.20
   5   3  -5    1.47    0.24
  -5  -3   5    1.67    0.23
  -5  -3   5    1.78    0.24
  -5  -3   5    1.75    0.20
  -5  -3   5    1.40    0.29
   5   3  -4    0.00    0.05
   5   3  -4    0.03    0.10
  -5  -3   4    0.02    0.09
  -5  -3   4    0.03    0.09
  -5  -3   4   -0.02    0.12
  -5  -3   4    0.00    0.10
  -5  -3   4    0.01    0.07
  -5  -3   4    0.00    0.12
   5   3  -3    0.01    0.05
   5   3  -3    0.02    0.05
  -5  -3   3    0.00    0.05
  -5  -3   3   -0.03    0.05
  -5  -3   3   -0.01    0.11
  -5  -3   3   -0.00    0.05
  -5  -3   3    0.13    0.11
  -5  -3   3    0.01    0.03
   5   3  -2    0.02    0.05
   5   3  -2    0.11    0.05
  -5  -3   2    0.07    0.08
  -5  -3   2    0.04    0.08
  -5  -3   2    0.10    0.13
  -5  -3   2    0.01    0.08
  -5  -3   2    0.07    0.14
  -5  -3   2    0.08    0.05
   5   3  -1    0.01    0.04
  -5  -3   1    0.04    0.05
  -5  -3   1    0.06    0.05
  -5  -3   1   -0.00    0.11
  -5  -3   1   -0.00    0.04
  -5  -3   1    0.01    0.03
  -5  -3   1    0.06    0.18
  -5  -3   1    0.01    0.02
   5   3   0    0.41    0.07
  -5  -3   0    0.38    0.07
  -5  -3   0    0.37    0.07
  -5  -3   0    0.44    0.17
  -5  -3   0    0.33    0.07
  -5  -3   0    0.42    0.17
   5   3   1    4.52    0.11
  -5  -3  -1    4.74    0.13
  -5  -3  -1    4.65    0.13
  -5  -3  -1    4.77    0.11
  -5  -3  -1    5.51    0.44
  -5  -3  -1    5.34    0.31
   5   3   2    0.34    0.15
  -5  -3  -2    0.25    0.05
  -5  -3  -2    0.30    0.15
  -5  -3  -2    0.27    0.05
  -5  -3  -2    0.21    0.05
   5   3   3    0.14    0.16
  -5  -3  -3    0.00    0.02
  -5  -3  -3    0.02    0.04
  -5  -3  -3    0.02    0.04
  -5  -3  -3    0.00    0.03
  -5  -3  -3    0.00    0.04
  -5  -3  -3   -0.07    0.10
  -5  -3  -3    0.03    0.04
   5   3   4    0.78    0.28
   5   3   4    0.64    0.06
  -5  -3  -4    0.63    0.08
  -5  -3  -4    0.57    0.05
  -5  -3  -4    0.61    0.07
  -5  -3  -4    0.56    0.28
  -5  -3  -4    0.59    0.08
  -5  -3  -4    0.52    0.08
   5   3   5    0.29    0.25
   5   3   5    0.24    0.09
  -5  -3  -5    0.24    0.08
  -5  -3  -5    0.01    0.08
  -5  -3  -5    0.46    0.16
  -5  -3  -5    0.28    0.09
  -5  -3  -5    0.32    0.09
  -5  -3  -5    0.36    0.09
   5   3   6    0.12    0.21
   5   3   6    0.10    0.09
  -5  -3  -6    0.04    0.06
  -5  -3  -6    0.02    0.14
  -5  -3  -6    0.08    0.06
  -5  -3  -6    0.16    0.09
  -5  -3  -6    0.10    0.09
  -5  -3  -6    0.03    0.09
   5   3   7   -0.01    0.12
   5   3   7    0.11    0.16
  -5  -3  -7    0.21    0.07
  -5  -3  -7    0.16    0.15
  -5  -3  -7    0.11    0.08
  -5  -3  -7    0.04    0.08
  -5  -3  -7    0.12    0.08
  -5  -3  -7    0.09    0.08
   5   3   8    0.48    0.19
   5   3   8    0.00    0.17
   5   3   8    0.03    0.12
  -5  -3  -8    0.46    0.16
  -5  -3  -8   -0.00    0.20
  -5  -3  -8    0.53    0.16
  -5  -3  -8    0.38    0.11
  -5  -3  -8    0.60    0.17
   5   3   9    0.01    0.24
   5   3   9    1.02    0.36
   5   3   9    0.00    0.24
  -5  -3  -9    0.89    0.15
  -5  -3  -9   -0.00    0.25
  -5  -3  -9    1.04    0.15
  -5  -3  -9    0.75    0.24
  -5  -3  -9    1.09    0.15
   5   3  10    0.02    0.17
   5   3  10   -0.01    0.12
   5   3  10   -0.01    0.12
  -5  -3 -10    0.13    0.18
  -5  -3 -10   -0.00    0.18
  -5  -3 -10    0.13    0.12
  -5  -3 -10    0.09    0.11
   5   3  11    0.39    0.22
   5   3  11    0.43    0.26
   5   3  11   -0.01    0.25
  -5  -3 -11    0.49    0.16
  -5  -3 -11    0.00    0.24
  -5  -3 -11   -0.02    0.16
  -5  -3 -11    0.19    0.26
  -5  -3 -11    0.38    0.16
   5   4  -9    0.00    0.17
   5   4  -9   -0.04    0.24
   5   4  -9    0.17    0.18
   5   4  -9    0.13    0.25
  -5  -4   9    0.28    0.28
  -5  -4   9    0.35    0.24
  -5  -4   9    0.00    0.29
  -5  -4   9   -0.01    0.40
   5   4  -8    0.09    0.19
   5   4  -8   -0.02    0.23
   5   4  -8    0.35    0.23
  -5  -4   8    0.01    0.15
  -5  -4   8    0.01    0.12
  -5  -4   8    0.02    0.15
  -5  -4   8    0.01    0.32
   5   4  -7    5.24    0.27
   5   4  -7    4.97    0.32
   5   4  -7    5.07    0.34
  -5  -4   7    4.99    0.48
  -5  -4   7    5.04    0.28
  -5  -4   7    5.25    0.48
  -5  -4   7    5.49    0.46
   5   4  -6    0.43    0.18
   5   4  -6    0.49    0.15
   5   4  -6    0.37    0.25
  -5  -4   6    0.50    0.16
  -5  -4   6    0.45    0.12
  -5  -4   6    0.42    0.16
  -5  -4   6   -0.00    0.25
   5   4  -5    0.63    0.16
   5   4  -5    0.81    0.16
  -5  -4   5    0.78    0.15
  -5  -4   5    0.71    0.11
  -5  -4   5    0.75    0.15
  -5  -4   5    0.00    0.25
   5   4  -4    0.01    0.08
   5   4  -4    0.07    0.09
  -5  -4   4   -0.02    0.13
  -5  -4   4    0.05    0.05
  -5  -4   4    0.07    0.13
  -5  -4   4    0.00    0.09
  -5  -4   4   -0.01    0.15
   5   4  -3    0.82    0.09
   5   4  -3    1.07    0.19
  -5  -4   3    0.83    0.18
  -5  -4   3    0.90    0.09
  -5  -4   3    0.93    0.18
  -5  -4   3    0.87    0.23
  -5  -4   3    0.00    0.19
  -5  -4   3    1.09    0.24
   5   4  -2    3.64    0.17
  -5  -4   2    3.44    0.23
  -5  -4   2    3.36    0.23
  -5  -4   2    3.40    0.30
  -5  -4   2    3.56    0.17
  -5  -4   2    3.58    0.32
   5   4  -1    0.02    0.05
  -5  -4   1    0.00    0.08
  -5  -4   1    0.03    0.08
  -5  -4   1    0.01    0.13
  -5  -4   1    0.02    0.05
  -5  -4   1    0.14    0.21
   5   4   0    3.47    0.19
  -5  -4   0    3.50    0.13
  -5  -4   0    3.55    0.13
  -5  -4   0    3.66    0.30
  -5  -4   0    3.57    0.19
  -5  -4   0    3.73    0.45
   5   4   1    1.31    0.09
  -5  -4  -1    1.25    0.12
  -5  -4  -1    1.24    0.22
  -5  -4  -1    1.23    0.12
  -5  -4  -1    1.38    0.23
  -5  -4  -1    1.27    0.12
   5   4   2    4.78    0.30
   5   4   2    4.26    0.13
  -5  -4  -2    4.18    0.17
  -5  -4  -2    4.61    0.32
  -5  -4  -2    4.13    0.13
  -5  -4  -2    4.12    0.17
   5   4   3    0.19    0.15
   5   4   3   -0.00    0.05
  -5  -4  -3    0.21    0.05
  -5  -4  -3    0.22    0.24
  -5  -4  -3    0.19    0.08
  -5  -4  -3    0.17    0.05
   5   4   4    0.14    0.13
   5   4   4    0.06    0.08
  -5  -4  -4    0.01    0.04
  -5  -4  -4   -0.00    0.14
  -5  -4  -4    0.09    0.05
  -5  -4  -4    0.03    0.07
   5   4   5    0.60    0.19
   5   4   5    0.42    0.08
  -5  -4  -5    0.37    0.11
  -5  -4  -5    0.47    0.19
  -5  -4  -5    0.42    0.07
  -5  -4  -5    0.60    0.12
  -5  -4  -5    0.35    0.06
  -5  -4  -5    0.50    0.12
   5   4   6   -0.08    0.12
   5   4   6    0.02    0.08
  -5  -4  -6   -0.00    0.05
  -5  -4  -6    0.02    0.12
  -5  -4  -6    0.01    0.05
  -5  -4  -6   -0.02    0.04
  -5  -4  -6    0.05    0.05
  -5  -4  -6    0.10    0.09
   5   4   7    0.26    0.17
   5   4   7   -0.02    0.09
  -5  -4  -7   -0.00    0.08
  -5  -4  -7    0.23    0.17
  -5  -4  -7    0.22    0.08
  -5  -4  -7    0.15    0.07
  -5  -4  -7    0.20    0.10
  -5  -4  -7    0.20    0.09
   5   4   8    0.54    0.33
   5   4   8    0.00    0.17
   5   4   8   -0.00    0.10
  -5  -4  -8    0.49    0.31
  -5  -4  -8    0.51    0.18
  -5  -4  -8    0.43    0.10
  -5  -4  -8    0.49    0.12
   5   4   9   -0.01    0.08
   5   4   9   -0.06    0.15
   5   4   9   -0.01    0.09
  -5  -4  -9    0.00    0.24
  -5  -4  -9    0.01    0.14
  -5  -4  -9   -0.02    0.08
  -5  -4  -9    0.16    0.09
   5   4  10    0.77    0.38
   5   4  10   -0.01    0.24
   5   4  10    0.00    0.17
  -5  -4 -10    0.67    0.16
  -5  -4 -10    0.00    0.40
  -5  -4 -10    0.78    0.17
  -5  -4 -10    0.59    0.23
  -5  -4 -10    0.72    0.17
   5   4  11    0.02    0.17
   5   4  11    0.49    0.23
   5   4  11   -0.00    0.27
  -5  -4 -11    0.41    0.16
  -5  -4 -11    0.00    0.25
  -5  -4 -11    0.49    0.17
  -5  -4 -11    0.16    0.25
  -5  -4 -11    0.20    0.27
   5   5  -8    2.56    0.30
   5   5  -8    2.32    0.30
   5   5  -8    2.56    0.25
  -5  -5   8    2.34    0.46
  -5  -5   8    2.28    0.47
  -5  -5   8    2.45    0.37
  -5  -5   8    0.00    0.64
   5   5  -7   -0.01    0.13
   5   5  -7   -0.02    0.16
  -5  -5   7    0.08    0.14
  -5  -5   7    0.07    0.14
  -5  -5   7    0.07    0.16
  -5  -5   7   -0.00    0.20
   5   5  -6    0.23    0.10
   5   5  -6    0.21    0.16
  -5  -5   6    0.25    0.16
  -5  -5   6    0.31    0.16
  -5  -5   6    0.18    0.16
  -5  -5   6   -0.01    0.24
   5   5  -5    3.02    0.16
   5   5  -5    3.17    0.26
  -5  -5   5    3.39    0.36
  -5  -5   5    3.35    0.37
  -5  -5   5    2.94    0.16
  -5  -5   5    3.74    0.39
   5   5  -4    0.19    0.09
   5   5  -4    0.37    0.20
  -5  -5   4    0.17    0.19
  -5  -5   4    0.29    0.20
  -5  -5   4   -0.00    0.21
   5   5  -3    0.27    0.04
   5   5  -3    0.50    0.12
  -5  -5   3    0.41    0.18
  -5  -5   3    0.32    0.07
  -5  -5   3    0.59    0.19
  -5  -5   3    0.74    0.21
  -5  -5   3    0.47    0.21
   5   5  -2    1.30    0.15
  -5  -5   2    1.49    0.21
  -5  -5   2    0.89    0.21
  -5  -5   2    1.08    0.25
  -5  -5   2    1.15    0.14
  -5  -5   2    1.27    0.27
   5   5  -1    3.36    0.25
  -5  -5   1    3.17    0.25
  -5  -5   1    3.32    0.25
  -5  -5   1    3.69    0.33
  -5  -5   1    3.49    0.18
  -5  -5   1    3.62    0.33
   5   5   0    6.96    0.31
  -5  -5   0    6.62    0.23
  -5  -5   0    6.78    0.23
  -5  -5   0    7.54    0.41
  -5  -5   0    6.86    0.30
  -5  -5   0    7.09    0.42
   5   5   1    4.48    0.24
  -5  -5  -1    4.52    0.23
  -5  -5  -1    5.02    0.34
  -5  -5  -1    4.38    0.17
  -5  -5  -1    5.11    0.52
  -5  -5  -1    4.30    0.24
   5   5   2    1.19    0.10
  -5  -5  -2    1.20    0.10
  -5  -5  -2    1.25    0.24
  -5  -5  -2    1.07    0.10
  -5  -5  -2    1.32    0.15
   5   5   3    0.55    0.20
  -5  -5  -3    0.50    0.08
  -5  -5  -3    0.61    0.21
  -5  -5  -3    0.68    0.09
  -5  -5  -3    0.45    0.09
   5   5   4    0.59    0.21
   5   5   4    0.53    0.09
   5   5   4    0.69    0.09
  -5  -5  -4    0.69    0.21
  -5  -5  -4    0.69    0.09
  -5  -5  -4    0.52    0.09
   5   5   5    0.31    0.18
   5   5   5    0.33    0.08
   5   5   5    0.00    0.08
  -5  -5  -5    0.21    0.28
  -5  -5  -5    0.17    0.12
  -5  -5  -5    0.29    0.08
   5   5   6    3.46    0.46
   5   5   6    3.12    0.25
  -5  -5  -6    3.04    0.17
  -5  -5  -6    3.45    0.46
  -5  -5  -6    3.11    0.17
  -5  -5  -6    2.81    0.12
  -5  -5  -6    3.10    0.25
  -5  -5  -6    2.70    0.11
   5   5   7    1.40    0.27
   5   5   7    1.69    0.16
  -5  -5  -7    1.95    0.28
  -5  -5  -7    1.66    0.16
  -5  -5  -7    1.58    0.13
  -5  -5  -7    1.42    0.09
  -5  -5  -7    1.64    0.15
   5   5   8    0.01    0.17
   5   5   8    0.00    0.10
   5   5   8   -0.00    0.07
  -5  -5  -8    0.15    0.16
  -5  -5  -8    0.16    0.10
  -5  -5  -8    0.10    0.09
  -5  -5  -8    0.09    0.10
   5   5   9   -0.02    0.29
   5   5   9   -0.00    0.09
   5   5   9    0.01    0.12
  -5  -5  -9    0.10    0.20
  -5  -5  -9    0.22    0.11
  -5  -5  -9    0.11    0.08
  -5  -5  -9    0.21    0.12
   5   5  10   -0.01    0.15
   5   5  10    0.18    0.17
   5   5  10   -0.00    0.11
  -5  -5 -10    0.12    0.18
  -5  -5 -10    0.04    0.11
  -5  -5 -10   -0.03    0.09
  -5  -5 -10    0.04    0.12
   5   5  11   -0.03    0.14
   5   5  11    0.28    0.34
   5   5  11    0.01    0.25
  -5  -5 -11    0.29    0.23
  -5  -5 -11    0.25    0.24
  -5  -5 -11    0.41    0.24
  -5  -5 -11    0.08    0.13
  -5  -5 -11    0.06    0.24
   5   6  -7   -0.09    0.16
   5   6  -7    0.08    0.11
  -5  -6   7    0.01    0.15
  -5  -6   7    0.12    0.16
  -5  -6   7    0.14    0.22
  -5  -6   7    0.00    0.22
   5   6  -6   -0.03    0.11
  -5  -6   6    0.02    0.19
  -5  -6   6   -0.02    0.19
  -5  -6   6    0.31    0.27
  -5  -6   6    0.00    0.17
   5   6  -5    0.03    0.06
   5   6  -5    0.05    0.13
  -5  -6   5    0.08    0.19
  -5  -6   5    0.03    0.20
  -5  -6   5    0.10    0.19
  -5  -6   5   -0.01    0.19
   5   6  -4    0.03    0.08
   5   6  -4    0.29    0.14
  -5  -6   4    0.31    0.14
  -5  -6   4    0.29    0.14
  -5  -6   4    0.08    0.33
  -5  -6   4   -0.00    0.22
   5   6  -3    0.18    0.06
   5   6  -3    0.55    0.14
  -5  -6   3    0.46    0.14
  -5  -6   3    0.41    0.14
  -5  -6   3    0.68    0.22
  -5  -6   3   -0.00    0.22
   5   6  -2    1.61    0.18
  -5  -6   2    1.66    0.17
  -5  -6   2    1.36    0.17
  -5  -6   2    1.38    0.28
  -5  -6   2    1.51    0.30
   5   6  -1    0.37    0.18
  -5  -6   1    0.30    0.12
  -5  -6   1    0.32    0.12
  -5  -6   1    0.53    0.21
  -5  -6   1    0.37    0.18
  -5  -6   1    0.28    0.22
   5   6   0    0.75    0.13
  -5  -6   0    0.12    0.19
  -5  -6   0    0.77    0.24
  -5  -6   0    0.73    0.13
  -5  -6   0    0.80    0.24
  -5  -6   0    0.94    0.19
   5   6   1    0.19    0.09
  -5  -6  -1    0.00    0.09
  -5  -6  -1    0.29    0.17
  -5  -6  -1    0.22    0.09
  -5  -6  -1    0.15    0.18
  -5  -6  -1    0.19    0.09
   5   6   2    0.07    0.11
  -5  -6  -2    0.00    0.11
  -5  -6  -2    0.09    0.15
  -5  -6  -2    0.04    0.07
  -5  -6  -2    0.03    0.15
  -5  -6  -2   -0.03    0.11
   5   6   3    1.33    0.25
   5   6   3    1.42    0.19
  -5  -6  -3    1.41    0.13
  -5  -6  -3    1.21    0.26
  -5  -6  -3    1.14    0.20
  -5  -6  -3    1.47    0.13
   5   6   4    1.18    0.26
   5   6   4    1.30    0.13
   5   6   4    1.28    0.13
  -5  -6  -4    1.24    0.26
  -5  -6  -4    1.34    0.20
  -5  -6  -4    1.54    0.20
   5   6   5    0.22    0.19
   5   6   5    0.29    0.16
   5   6   5   -0.00    0.09
  -5  -6  -5    0.50    0.19
  -5  -6  -5    0.37    0.10
  -5  -6  -5    0.30    0.16
   5   6   6    0.73    0.24
   5   6   6    0.75    0.13
  -5  -6  -6    0.77    0.24
  -5  -6  -6    0.81    0.20
  -5  -6  -6    0.73    0.13
   5   6   7    0.01    0.15
   5   6   7   -0.02    0.09
  -5  -6  -7    0.13    0.16
  -5  -6  -7   -0.02    0.14
  -5  -6  -7    0.09    0.09
   5   6   8   -0.01    0.30
   5   6   8    0.23    0.12
   5   6   8    0.09    0.06
  -5  -6  -8    0.21    0.20
  -5  -6  -8    0.26    0.19
  -5  -6  -8    0.22    0.12
   5   6   9    1.27    0.12
   5   6   9   -0.01    0.31
   5   6   9    1.55    0.21
  -5  -6  -9    1.39    0.30
  -5  -6  -9    1.37    0.30
  -5  -6  -9    1.32    0.21
   5   6  10    1.88    0.18
   5   6  10    1.90    0.54
   5   6  10    2.00    0.26
  -5  -6 -10    2.38    0.37
  -5  -6 -10    2.03    0.36
  -5  -6 -10    2.21    0.25
   5   6  11   -0.02    0.27
   5   6  11    1.42    0.32
   5   6  11   -0.03    0.37
  -5  -6 -11    1.57    0.34
  -5  -6 -11    1.25    0.33
  -5  -6 -11    1.09    0.35
   5   7  -6    0.12    0.17
  -5  -7   6    0.03    0.16
  -5  -7   6    0.10    0.17
  -5  -7   6    0.05    0.23
  -5  -7   6    0.01    0.23
   5   7  -5    0.16    0.16
  -5  -7   5    0.13    0.17
  -5  -7   5    0.10    0.17
  -5  -7   5    0.27    0.23
  -5  -7   5   -0.00    0.23
   5   7  -4    0.04    0.20
  -5  -7   4    0.01    0.20
  -5  -7   4   -0.00    0.20
  -5  -7   4    0.18    0.19
  -5  -7   4    0.00    0.19
   5   7  -3    0.14    0.18
  -5  -7   3    0.11    0.19
  -5  -7   3    0.05    0.18
  -5  -7   3   -0.26    0.29
  -5  -7   3   -0.00    0.18
   5   7  -2    0.51    0.25
  -5  -7   2    0.57    0.25
  -5  -7   2    0.47    0.25
  -5  -7   2    0.57    0.24
  -5  -7   2    0.65    0.26
   5   7  -1    0.18    0.20
  -5  -7   1    0.24    0.19
  -5  -7   1    0.14    0.20
  -5  -7   1    0.35    0.21
  -5  -7   1    0.16    0.20
  -5  -7   1    0.03    0.22
   5   7   0    0.02    0.10
  -5  -7   0    0.06    0.10
  -5  -7   0    0.28    0.17
  -5  -7   0    0.02    0.10
  -5  -7   0   -0.05    0.18
  -5  -7   0    0.10    0.10
   5   7   1    2.10    0.26
  -5  -7  -1    1.86    0.18
  -5  -7  -1    2.04    0.27
  -5  -7  -1    2.03    0.31
  -5  -7  -1    1.85    0.18
   5   7   2    0.02    0.09
  -5  -7  -2    0.00    0.14
  -5  -7  -2    0.01    0.09
  -5  -7  -2    0.14    0.17
  -5  -7  -2    0.25    0.14
   5   7   3    1.25    0.26
   5   7   3    0.55    0.22
  -5  -7  -3    1.37    0.15
  -5  -7  -3    1.02    0.23
  -5  -7  -3    1.42    0.15
   5   7   4    0.11    0.15
   5   7   4   -0.02    0.08
  -5  -7  -4   -0.00    0.08
  -5  -7  -4    0.33    0.15
  -5  -7  -4    0.01    0.08
  -5  -7  -4    0.00    0.13
   5   7   5   -0.01    0.24
   5   7   5    0.65    0.20
   5   7   5    0.69    0.14
  -5  -7  -5    0.97    0.25
  -5  -7  -5    0.65    0.21
  -5  -7  -5    0.75    0.14
   5   7   6   -0.00    0.19
   5   7   6    0.00    0.07
   5   7   6    0.02    0.06
  -5  -7  -6    0.06    0.12
  -5  -7  -6    0.08    0.07
  -5  -7  -6   -0.13    0.07
   5   7   7   -0.01    0.30
   5   7   7    1.48    0.28
   5   7   7    1.49    0.18
  -5  -7  -7    1.62    0.30
  -5  -7  -7    1.56    0.19
  -5  -7  -7    1.66    0.19
   5   7   8    0.00    0.25
   5   7   8    0.58    0.26
  -5  -7  -8    0.62    0.26
  -5  -7  -8    0.54    0.25
  -5  -7  -8    0.65    0.17
   5   7   9   -0.01    0.35
   5   7   9    0.08    0.15
  -5  -7  -9    0.23    0.22
  -5  -7  -9    0.18    0.22
  -5  -7  -9    0.15    0.15
   5   7  10    5.11    0.48
   5   7  10    4.29    0.35
  -5  -7 -10    4.85    0.48
  -5  -7 -10    4.35    0.49
  -5  -7 -10    4.35    0.35
   5   7  11    0.18    0.31
   5   7  11   -0.08    0.26
  -5  -7 -11    0.07    0.23
  -5  -7 -11    0.19    0.24
  -5  -7 -11   -0.06    0.24
   5   8  -5    0.22    0.23
  -5  -8   5   -0.05    0.15
  -5  -8   5   -0.03    0.15
  -5  -8   5    0.21    0.31
  -5  -8   5    0.00    0.20
   5   8  -4   -0.11    0.14
  -5  -8   4    0.13    0.15
  -5  -8   4    0.03    0.14
  -5  -8   4    0.28    0.21
  -5  -8   4   -0.00    0.20
   5   8  -3   -0.02    0.14
  -5  -8   3    0.07    0.14
  -5  -8   3    0.06    0.14
  -5  -8   3    0.41    0.30
  -5  -8   3   -0.00    0.20
   5   8  -2    0.10    0.22
  -5  -8   2    0.09    0.14
  -5  -8   2    0.05    0.14
  -5  -8   2    0.19    0.20
  -5  -8   2    0.34    0.33
   5   8  -1    0.15    0.20
  -5  -8   1    0.08    0.13
  -5  -8   1    0.08    0.13
  -5  -8   1   -0.14    0.19
  -5  -8   1    0.10    0.13
  -5  -8   1    0.11    0.31
   5   8   0   -0.02    0.10
  -5  -8   0   -0.02    0.09
  -5  -8   0   -0.29    0.15
  -5  -8   0    0.08    0.09
  -5  -8   0    0.43    0.24
  -5  -8   0    0.04    0.09
   5   8   1    0.10    0.11
  -5  -8  -1    0.04    0.11
  -5  -8  -1    0.02    0.11
  -5  -8  -1    0.09    0.11
   5   8   2    0.21    0.20
  -5  -8  -2    0.20    0.20
  -5  -8  -2    0.15    0.21
  -5  -8  -2    0.25    0.20
   5   8   3    1.60    0.18
  -5  -8  -3    1.19    0.28
  -5  -8  -3    1.49    0.19
  -5  -8  -3    0.40    0.29
  -5  -8  -3    1.20    0.28
   5   8   4    0.01    0.09
  -5  -8  -4    0.00    0.10
  -5  -8  -4    0.06    0.10
  -5  -8  -4    0.04    0.10
   5   8   5   -0.01    0.24
   5   8   5    0.57    0.22
   5   8   5    0.46    0.15
  -5  -8  -5    1.17    0.39
  -5  -8  -5    0.53    0.23
  -5  -8  -5    0.55    0.15
   5   8   6   -0.00    0.21
   5   8   6    0.09    0.21
   5   8   6    0.22    0.12
  -5  -8  -6   -0.00    0.33
  -5  -8  -6    0.10    0.13
  -5  -8  -6    0.35    0.21
   5   8   7   -0.01    0.14
   5   8   7   -0.01    0.14
   5   8   7   -0.02    0.08
  -5  -8  -7    0.07    0.22
  -5  -8  -7    0.03    0.09
   5   8   8   -0.00    0.35
   5   8   8    0.11    0.23
   5   8   8    0.17    0.14
  -5  -8  -8    0.14    0.35
  -5  -8  -8    0.21    0.23
  -5  -8  -8    0.14    0.23
   5   8   9    2.49    0.36
   5   8   9    1.86    0.40
  -5  -8  -9    1.85    0.57
  -5  -8  -9    1.77    0.38
  -5  -8  -9    1.93    0.40
   5   8  10    0.00    0.34
   5   8  10    0.05    0.15
  -5  -8 -10    0.10    0.21
  -5  -8 -10    0.03    0.23
  -5  -8 -10    0.04    0.15
   5   9  -4    0.28    0.30
  -5  -9   4    0.11    0.19
  -5  -9   4    0.19    0.19
  -5  -9   4   -0.02    0.41
  -5  -9   4    0.24    0.37
   5   9  -3    0.09    0.17
  -5  -9   3    0.05    0.17
  -5  -9   3    0.25    0.17
  -5  -9   3    0.06    0.21
  -5  -9   3    0.00    0.36
   5   9  -2    0.41    0.17
  -5  -9   2    0.10    0.18
  -5  -9   2    0.11    0.17
  -5  -9   2    0.22    0.38
  -5  -9   2   -0.00    0.39
   5   9  -1    0.07    0.13
  -5  -9   1    0.07    0.14
  -5  -9   1   -0.02    0.13
  -5  -9   1    0.05    0.19
  -5  -9   1    0.13    0.14
  -5  -9   1   -0.14    0.20
   5   9   0    0.07    0.13
  -5  -9   0    0.11    0.14
  -5  -9   0    0.26    0.20
  -5  -9   0    0.02    0.14
  -5  -9   0    0.04    0.21
  -5  -9   0    0.02    0.14
   5   9   1    0.49    0.18
  -5  -9  -1    0.58    0.18
  -5  -9  -1    0.50    0.18
  -5  -9  -1    0.75    0.27
  -5  -9  -1    0.42    0.18
   5   9   2    0.66    0.18
  -5  -9  -2    0.74    0.19
  -5  -9  -2    0.66    0.19
  -5  -9  -2    1.04    0.28
  -5  -9  -2    0.64    0.19
   5   9   3    0.14    0.22
  -5  -9  -3    0.20    0.23
  -5  -9  -3    0.17    0.23
  -5  -9  -3    0.37    0.22
  -5  -9  -3    0.12    0.23
   5   9   4   -0.00    0.24
   5   9   4    0.74    0.24
  -5  -9  -4    0.00    0.25
  -5  -9  -4    0.71    0.25
   5   9   5   -0.00    0.16
   5   9   5    0.02    0.11
   5   9   5   -0.04    0.11
  -5  -9  -5   -0.18    0.17
  -5  -9  -5    0.01    0.11
  -5  -9  -5   -0.01    0.11
   5   9   6   -0.00    0.26
   5   9   6    0.05    0.12
   5   9   6   -0.05    0.11
  -5  -9  -6   -0.00    0.17
  -5  -9  -6   -0.08    0.11
  -5  -9  -6   -0.00    0.12
   5   9   7    0.00    0.22
   5   9   7    0.13    0.15
   5   9   7    0.06    0.21
  -5  -9  -7    0.32    0.22
  -5  -9  -7    0.24    0.22
  -5  -9  -7    0.04    0.15
   5   9   8    0.00    0.22
   5   9   8    0.23    0.16
   5   9   8    0.16    0.22
  -5  -9  -8   -0.03    0.23
  -5  -9  -8    0.18    0.23
  -5  -9  -8    0.05    0.15
   5   9   9    0.00    0.43
   5   9   9    0.44    0.33
   5   9   9    0.36    0.19
  -5  -9  -9    0.62    0.29
  -5  -9  -9    0.53    0.30
  -5  -9  -9    0.56    0.32
   5   9  10   -0.01    0.28
   5   9  10    0.77    0.37
  -5  -9 -10    0.56    0.31
  -5  -9 -10    0.70    0.35
  -5  -9 -10    0.79    0.23
   5  10  -2    0.41    0.20
  -5 -10   2    0.26    0.21
  -5 -10   2    0.34    0.21
  -5 -10   2    0.14    0.26
  -5 -10   2    0.24    0.26
   5  10  -1    0.15    0.16
  -5 -10   1    0.03    0.17
  -5 -10   1    0.15    0.17
  -5 -10   1    0.10    0.34
  -5 -10   1    0.02    0.17
  -5 -10   1   -0.01    0.24
   5  10   0    0.67    0.20
  -5 -10   0    0.76    0.20
  -5 -10   0    0.65    0.26
  -5 -10   0    0.03    0.20
  -5 -10   0   -0.01    0.28
  -5 -10   0    0.03    0.20
   5  10   1   -0.04    0.15
  -5 -10  -1    0.14    0.15
  -5 -10  -1    0.20    0.20
  -5 -10  -1    0.01    0.16
  -5 -10  -1    0.00    0.22
  -5 -10  -1    0.18    0.16
   5  10   2   -0.02    0.15
  -5 -10  -2    0.27    0.16
  -5 -10  -2   -0.02    0.16
  -5 -10  -2    0.23    0.16
   5  10   3    0.13    0.14
  -5 -10  -3    0.08    0.15
  -5 -10  -3    0.05    0.15
  -5 -10  -3    0.16    0.16
   5  10   4    0.14    0.15
  -5 -10  -4    0.08    0.16
  -5 -10  -4    0.52    0.22
  -5 -10  -4    0.00    0.16
  -5 -10  -4    0.09    0.16
   5  10   5    0.07    0.17
  -5 -10  -5   -0.05    0.11
  -5 -10  -5   -0.14    0.17
  -5 -10  -5   -0.00    0.18
  -5 -10  -5    0.06    0.11
   5  10   6    0.00    0.24
   5  10   6    0.22    0.18
   5  10   6    0.54    0.25
  -5 -10  -6    0.28    0.25
  -5 -10  -6    0.34    0.27
  -5 -10  -6    0.13    0.18
   5  10   7    0.00    0.17
   5  10   7    0.06    0.13
   5  10   7   -0.01    0.18
  -5 -10  -7   -0.06    0.18
  -5 -10  -7    0.03    0.19
  -5 -10  -7    0.01    0.13
   5  10   8   -0.00    0.48
   5  10   8    0.60    0.23
   5  10   8    0.55    0.20
  -5 -10  -8    0.47    0.30
  -5 -10  -8    0.68    0.21
  -5 -10  -8    0.45    0.22
   5  10   9    0.00    0.26
   5  10   9    0.21    0.19
   5  10   9    0.20    0.18
  -5 -10  -9    0.24    0.25
  -5 -10  -9    0.11    0.19
  -5 -10  -9    0.12    0.19
   5  11   0    0.33    0.19
  -5 -11   0    0.12    0.19
  -5 -11   0    0.21    0.23
  -5 -11   0    0.03    0.20
  -5 -11   0    0.00    0.37
  -5 -11   0   -0.00    0.19
   5  11   1    0.04    0.16
  -5 -11  -1   -0.00    0.16
  -5 -11  -1    0.28    0.20
  -5 -11  -1    0.03    0.17
  -5 -11  -1    0.00    0.21
  -5 -11  -1   -0.01    0.16
   5  11   2   -0.01    0.13
  -5 -11  -2   -0.01    0.14
  -5 -11  -2   -0.03    0.14
  -5 -11  -2    0.01    0.18
  -5 -11  -2    0.00    0.14
   5  11   3    0.03    0.14
  -5 -11  -3    0.02    0.15
  -5 -11  -3    0.03    0.15
  -5 -11  -3    0.00    0.20
  -5 -11  -3    0.01    0.15
   5  11   4    0.02    0.24
  -5 -11  -4    1.47    0.25
  -5 -11  -4    1.41    0.25
   5  11   5    0.00    0.24
   5  11   5   -0.02    0.17
  -5 -11  -5    0.42    0.25
  -5 -11  -5    0.42    0.19
  -5 -11  -5    0.35    0.19
   5  11   6    0.14    0.15
   5  11   6   -0.00    0.31
   5  11   6   -0.13    0.14
  -5 -11  -6   -0.11    0.19
  -5 -11  -6    0.13    0.15
  -5 -11  -6    0.23    0.24
   5  11   7   -0.00    0.24
   5  11   7    0.14    0.17
   5  11   7   -0.10    0.27
  -5 -11  -7    0.22    0.22
  -5 -11  -7    0.19    0.18
  -5 -11  -7    0.08    0.29
   5  11   8   -0.00    0.25
   5  11   8   -0.02    0.30
   5  11   8   -0.06    0.17
  -5 -11  -8    0.05    0.22
  -5 -11  -8    0.32    0.17
  -5 -11  -8    0.19    0.29
  -5 -12  -4    0.22    0.22
   6  -8  -6    0.48    0.38
  -6   8   6    0.35    0.26
   6  -8  -5    0.03    0.19
  -6   8   5   -0.11    0.19
   6  -8  -4    2.29    0.34
  -6   8   4    2.08    0.36
  -6   8   3    1.19    0.29
  -6   8   3    0.01    0.31
  -6   8   2   -0.00    0.16
  -6   8   2   -0.02    0.16
  -6   8   1    0.00    0.16
  -6   8   1   -0.01    0.16
  -6   8   0   -0.02    0.18
  -6   8   0   -0.00    0.28
   6  -7  -7    0.09    0.21
  -6   7   7    0.13    0.21
   6  -7  -6   -0.10    0.19
  -6   7   6   -0.09    0.19
   6  -7  -5    0.60    0.26
  -6   7   5    0.81    0.27
  -6   7   4    0.90    0.27
  -6   7   3    0.52    0.25
  -6   7   2    0.00    0.13
  -6   7   0    0.02    0.28
  -6   7  -1    0.01    0.24
  -6   7  -1    0.00    0.15
  -6   7  -2    0.00    0.16
  -6   7  -2   -0.03    0.24
   6  -6  -8    0.51    0.25
  -6   6   8    0.29    0.39
   6  -6  -7    0.21    0.31
  -6   6   7    0.01    0.30
   6  -6  -6    0.16    0.29
  -6   6   6    0.07    0.18
   6  -6  -5    0.29    0.18
  -6   6   5    0.03    0.19
   6  -6  -4    0.36    0.21
   6  -6  -3    0.03    0.15
  -6   6   2   -0.01    0.15
  -6   6   1   -0.01    0.14
  -6   6   0   -0.00    0.13
  -6   6  -1    0.01    0.14
  -6   6  -1    0.00    0.14
  -6   6  -2    3.03    0.35
  -6   6  -2    3.05    0.36
  -6   6  -3   -0.00    0.19
  -6   6  -3    0.13    0.19
   6  -5  -8   -0.16    0.27
  -6   5   8    0.09    0.11
  -6   5   8    0.06    0.17
   6  -5  -7    0.19    0.19
  -6   5   7    0.12    0.19
   6  -5  -6    0.42    0.21
  -6   5   6    0.10    0.31
   6  -5  -5    0.09    0.17
  -6   5   5    0.19    0.17
   6  -5  -4    0.10    0.17
  -6   5   4    0.30    0.18
   6  -5  -3    0.06    0.14
  -6   5   3    0.08    0.15
  -6   5   2    0.34    0.19
  -6   5   2    0.39    0.20
  -6   5   1    0.00    0.19
  -6   5   1    0.46    0.18
  -6   5   0   -0.00    0.15
  -6   5   0    0.09    0.15
  -6   5  -1    0.27    0.17
  -6   5  -1    0.00    0.17
  -6   5  -2   -0.00    0.14
  -6   5  -2   -0.03    0.14
  -6   5  -3   -0.00    0.13
  -6   5  -3    0.02    0.13
  -6   5  -4    0.88    0.26
  -6   5  -5    0.06    0.19
   6  -4  -9    0.01    0.17
  -6   4   9    0.08    0.13
  -6   4   9    0.00    0.17
   6  -4  -8    0.32    0.21
  -6   4   8    0.23    0.16
  -6   4   8    0.30    0.21
   6  -4  -7    0.55    0.32
  -6   4   7    0.38    0.15
  -6   4   7    0.34    0.21
   6  -4  -6    0.01    0.17
  -6   4   6   -0.00    0.12
  -6   4   6   -0.01    0.11
   6  -4  -5    0.21    0.17
  -6   4   5    0.20    0.10
  -6   4   5    0.10    0.16
   6  -4  -4    0.21    0.23
  -6   4   4   -0.00    0.12
  -6   4   4    0.21    0.15
  -6   4   4    0.20    0.08
   6  -4  -3    0.04    0.16
  -6   4   3   -0.00    0.07
  -6   4   3   -0.05    0.10
  -6   4   3    0.01    0.05
  -6   4   2    0.29    0.16
  -6   4   2    0.19    0.06
  -6   4   2    0.20    0.06
  -6   4   2    0.34    0.24
  -6   4   1    0.13    0.23
  -6   4   1    0.13    0.08
  -6   4   1    0.17    0.14
  -6   4   1    0.11    0.08
  -6   4   0    0.35    0.17
  -6   4   0    0.37    0.18
  -6   4  -1    1.22    0.22
  -6   4  -1    1.13    0.22
  -6   4  -2    0.09    0.13
  -6   4  -2   -0.07    0.22
  -6   4  -3   -0.00    0.12
  -6   4  -3   -0.02    0.18
  -6   4  -4    0.37    0.31
  -6   4  -5    0.47    0.22
  -6   4  -6    0.45    0.23
   6  -3  -9   -0.02    0.27
  -6   3   9    0.13    0.26
  -6   3   9    0.06    0.17
   6  -3  -8    0.00    0.18
  -6   3   8    0.28    0.25
  -6   3   8    0.18    0.17
   6  -3  -7    0.66    0.20
  -6   3   7    0.54    0.18
  -6   3   7    0.44    0.20
   6  -3  -6    0.06    0.15
  -6   3   6    0.15    0.15
  -6   3   6    0.10    0.12
   6  -3  -5    0.43    0.17
  -6   3   5    0.41    0.16
  -6   3   5    0.29    0.20
   6  -3  -4    0.11    0.13
  -6   3   4    0.08    0.13
  -6   3   4    0.12    0.15
   6  -3  -3    0.25    0.13
  -6   3   3    0.00    0.09
  -6   3   3    0.26    0.20
  -6   3   3    0.38    0.15
  -6   3   2   -0.00    0.06
  -6   3   2    0.01    0.10
  -6   3   2    0.03    0.10
  -6   3   2    0.06    0.15
  -6   3   1    0.02    0.14
  -6   3   1    0.23    0.08
  -6   3   1    0.20    0.14
  -6   3   1    0.24    0.08
  -6   3   0    0.15    0.14
  -6   3   0    0.20    0.07
  -6   3   0    0.23    0.14
  -6   3   0    0.16    0.13
  -6   3  -1    0.09    0.12
  -6   3  -1    0.01    0.18
  -6   3  -1    0.06    0.06
  -6   3  -1    0.00    0.07
  -6   3  -2    0.05    0.09
  -6   3  -2   -0.06    0.15
  -6   3  -2   -0.04    0.16
  -6   3  -2   -0.00    0.09
  -6   3  -3    0.45    0.27
  -6   3  -3    0.57    0.10
  -6   3  -3    0.73    0.26
  -6   3  -3    0.01    0.11
   6  -3   4    0.00    0.13
  -6   3  -4    0.13    0.09
  -6   3  -4    0.12    0.23
   6  -3   5   -0.00    0.07
  -6   3  -5   -0.00    0.11
  -6   3  -5    0.06    0.17
   6  -3   6   -0.01    0.12
  -6   3  -6    0.90    0.28
   6  -2  -9    0.02    0.22
  -6   2   9    0.54    0.34
  -6   2   9    0.43    0.20
   6  -2  -8    0.03    0.17
  -6   2   8    0.07    0.17
  -6   2   8    0.26    0.16
   6  -2  -7    0.03    0.15
  -6   2   7   -0.08    0.10
  -6   2   7    0.08    0.10
   6  -2  -6    0.05    0.18
  -6   2   6    0.01    0.11
  -6   2   6    0.03    0.18
   6  -2  -5    0.06    0.18
  -6   2   5    0.06    0.11
  -6   2   5   -0.04    0.17
   6  -2  -4    0.42    0.24
  -6   2   4    0.50    0.15
  -6   2   4    0.76    0.23
   6  -2  -3    0.09    0.11
  -6   2   3    0.00    0.10
  -6   2   3    0.09    0.17
  -6   2   3    0.24    0.16
   6  -2  -2    0.05    0.09
  -6   2   2    0.00    0.12
  -6   2   2    0.02    0.08
  -6   2   2   -0.00    0.14
  -6   2   1   -0.01    0.16
  -6   2   1    0.55    0.19
  -6   2   1    0.39    0.11
  -6   2   1    0.38    0.13
  -6   2   0    0.12    0.17
  -6   2   0    0.16    0.09
  -6   2   0    0.13    0.11
  -6   2   0    0.00    0.15
  -6   2  -1    0.02    0.11
  -6   2  -1   -0.02    0.07
  -6   2  -1    0.01    0.06
  -6   2  -1    0.00    0.06
  -6   2  -2    0.12    0.11
  -6   2  -2    0.29    0.14
  -6   2  -2    0.01    0.09
  -6   2  -2   -0.00    0.18
   6  -2   3    0.00    0.08
  -6   2  -3   -0.00    0.11
  -6   2  -3    0.09    0.08
  -6   2  -3    0.12    0.15
  -6   2  -3   -0.00    0.09
   6  -2   4    0.00    0.08
  -6   2  -4   -0.01    0.12
  -6   2  -4   -0.00    0.10
  -6   2  -4    0.06    0.14
   6  -2   5    0.00    0.08
  -6   2  -5   -0.01    0.11
  -6   2  -5    0.00    0.09
   6  -2   6    0.01    0.10
  -6   2  -6    0.02    0.15
  -6   2  -6   -0.00    0.12
   6  -2   7   -0.01    0.11
  -6   2  -7   -0.00    0.17
  -6   2  -7    0.06    0.13
   6  -1  -9    0.12    0.12
   6  -1  -9    0.21    0.28
   6  -1  -9    0.08    0.12
   6  -1  -9    0.00    0.12
  -6   1   9    0.43    0.20
  -6   1   9    0.15    0.17
   6  -1  -8    0.36    0.18
   6  -1  -8    0.32    0.18
   6  -1  -8    0.21    0.18
   6  -1  -8    0.00    0.18
  -6   1   8    0.58    0.17
  -6   1   8    0.41    0.21
   6  -1  -7    0.01    0.12
  -6   1   7   -0.06    0.18
  -6   1   7    0.15    0.21
   6  -1  -6   -0.00    0.10
  -6   1   6    0.02    0.14
  -6   1   6    0.02    0.17
   6  -1  -5    3.28    0.24
  -6   1   5    3.31    0.34
  -6   1   5    3.53    0.41
   6  -1  -4    0.00    0.11
  -6   1   4    0.10    0.10
  -6   1   4    0.10    0.19
   6  -1  -3   -0.00    0.19
  -6   1   3    0.61    0.13
  -6   1   3    0.69    0.24
   6  -1  -2    0.00    0.09
  -6   1   2    0.09    0.10
  -6   1   2    0.13    0.18
  -6   1   2    0.21    0.14
  -6   1   1    0.00    0.09
  -6   1   1    0.02    0.08
  -6   1   1    0.00    0.15
  -6   1   1    0.08    0.08
  -6   1   0    5.52    0.27
  -6   1   0    5.25    0.33
  -6   1   0    5.52    0.27
  -6   1   0    5.20    0.31
  -6   1  -1    0.30    0.11
  -6   1  -1    0.48    0.19
  -6   1  -1    0.36    0.11
  -6   1  -1    0.00    0.19
  -6   1  -2    0.91    0.21
  -6   1  -2    0.90    0.15
  -6   1  -2    0.01    0.23
  -6   1  -2    1.12    0.14
   6  -1   3    1.21    0.16
  -6   1  -3   -0.00    0.23
  -6   1  -3    0.92    0.15
  -6   1  -3    1.26    0.24
   6  -1   4    0.00    0.10
  -6   1  -4    0.04    0.10
  -6   1  -4    0.06    0.09
  -6   1  -4   -0.00    0.15
   6  -1   5    0.01    0.16
  -6   1  -5   -0.04    0.10
  -6   1  -5   -0.00    0.16
   6  -1   6   -0.00    0.10
  -6   1  -6    0.02    0.10
  -6   1  -6   -0.02    0.16
   6  -1   7    0.01    0.12
  -6   1  -7    0.06    0.12
  -6   1  -7   -0.02    0.20
   6  -1   8   -0.01    0.19
  -6   1  -8    0.42    0.18
  -6   1  -8    0.28    0.18
   6   0  -8    0.02    0.14
   6   0  -8    0.08    0.20
   6   0  -8    0.03    0.09
   6   0  -8    0.00    0.15
  -6   0   8    0.01    0.20
  -6   0   8    0.09    0.16
   6   0  -7    0.16    0.09
   6   0  -7    0.18    0.22
   6   0  -7    0.07    0.13
   6   0  -7    0.16    0.09
  -6   0   7    0.10    0.13
  -6   0   7    0.19    0.18
   6   0  -6    0.21    0.07
   6   0  -6    0.19    0.20
   6   0  -6    0.09    0.07
   6   0  -6    0.24    0.07
  -6   0   6    0.09    0.12
  -6   0   6    0.16    0.18
   6   0  -5   -0.00    0.15
  -6   0   5    0.05    0.10
  -6   0   5    0.11    0.14
   6   0  -4    0.00    0.06
  -6   0   4    0.00    0.06
  -6   0   4    0.00    0.09
   6   0  -3    0.00    0.16
  -6   0   3    0.59    0.16
  -6   0   3    0.68    0.17
   6   0  -2   -0.00    0.08
  -6   0   2    0.12    0.12
  -6   0   2    0.12    0.11
  -6   0   2    0.25    0.13
  -6   0   1    0.61    0.25
  -6   0   1    0.59    0.10
  -6   0   1    0.57    0.17
  -6   0   1    0.61    0.10
  -6   0   0    1.63    0.13
  -6   0   0    1.53    0.21
  -6   0   0    1.60    0.33
  -6   0   0    1.68    0.13
  -6   0  -1   10.41    0.39
  -6   0  -1   11.28    0.43
  -6   0  -1   10.84    0.39
  -6   0  -1   11.78    0.57
  -6   0  -2    1.87    0.14
  -6   0  -2    1.87    0.21
  -6   0  -2    1.81    0.20
  -6   0  -2    1.94    0.21
   6   0   3    0.42    0.14
  -6   0  -3    0.35    0.10
  -6   0  -3    0.00    0.16
  -6   0  -3    0.32    0.14
   6   0   4    0.06    0.12
  -6   0  -4    0.06    0.17
  -6   0  -4    0.04    0.13
  -6   0  -4    0.00    0.13
   6   0   5   -0.10    0.17
  -6   0  -5    0.06    0.11
  -6   0  -5   -0.00    0.13
   6   0   6    0.40    0.19
  -6   0  -6    0.56    0.18
  -6   0  -6    0.54    0.24
   6   0   7    0.14    0.15
  -6   0  -7    0.14    0.15
  -6   0  -7    0.05    0.13
   6   0   8    0.22    0.30
  -6   0  -8    0.10    0.16
  -6   0  -8    0.19    0.17
   6   1  -8    0.54    0.15
   6   1  -8    0.34    0.18
   6   1  -8    0.22    0.23
   6   1  -8    0.56    0.15
  -6  -1   8    0.01    0.23
  -6  -1   8    0.28    0.17
  -6  -1   8    0.90    0.25
   6   1  -7    0.38    0.17
   6   1  -7    0.29    0.15
   6   1  -7    0.27    0.18
   6   1  -7    0.42    0.12
  -6  -1   7    0.24    0.22
  -6  -1   7    0.00    0.17
  -6  -1   7    0.74    0.36
   6   1  -6    0.53    0.14
   6   1  -6    0.42    0.10
   6   1  -6    0.67    0.11
  -6  -1   6    0.41    0.22
  -6  -1   6    0.63    0.36
   6   1  -5   -0.00    0.11
   6   1  -5    0.17    0.10
   6   1  -5    0.36    0.11
  -6  -1   5    0.41    0.11
  -6  -1   5    0.70    0.30
   6   1  -4    0.00    0.12
   6   1  -4    0.02    0.06
   6   1  -4    0.15    0.06
  -6  -1   4    0.12    0.08
  -6  -1   4    0.11    0.15
   6   1  -3    0.00    0.10
  -6  -1   3    0.10    0.07
  -6  -1   3    0.09    0.23
  -6  -1   2    0.17    0.20
  -6  -1   2    0.14    0.09
  -6  -1   2   -0.00    0.06
  -6  -1   2    0.17    0.21
  -6  -1   1    0.80    0.19
  -6  -1   1    0.43    0.13
  -6  -1   1    0.76    0.08
  -6  -1   1    0.56    0.30
  -6  -1   0   15.00    0.54
  -6  -1   0   13.50    0.37
  -6  -1   0   14.95    0.72
  -6  -1   0   13.13    0.36
  -6  -1  -1   12.71    0.36
  -6  -1  -1   13.80    0.68
  -6  -1  -1   13.62    0.51
  -6  -1  -1   12.89    0.31
  -6  -1  -2    0.14    0.07
  -6  -1  -2    0.19    0.10
  -6  -1  -2    0.06    0.14
  -6  -1  -2    0.20    0.15
   6   1   3    2.17    0.23
  -6  -1  -3    1.96    0.13
  -6  -1  -3    2.21    0.24
  -6  -1  -3    1.91    0.18
   6   1   4    0.05    0.11
  -6  -1  -4   -0.00    0.06
  -6  -1  -4    0.02    0.18
  -6  -1  -4    0.05    0.10
   6   1   5    1.15    0.21
  -6  -1  -5    1.05    0.32
  -6  -1  -5    0.87    0.20
   6   1   6    2.86    0.29
  -6  -1  -6    2.68    0.30
  -6  -1  -6    2.68    0.29
   6   1   7    0.16    0.16
  -6  -1  -7    0.19    0.19
  -6  -1  -7    0.00    0.17
   6   1   8    0.38    0.26
  -6  -1  -8   -0.00    0.16
  -6  -1  -8    0.02    0.12
   6   2  -8    0.10    0.13
   6   2  -8   -0.00    0.21
   6   2  -8    0.00    0.13
   6   2  -8    0.12    0.13
  -6  -2   8   -0.01    0.20
  -6  -2   8    0.01    0.21
  -6  -2   8    0.44    0.21
   6   2  -7    0.24    0.11
   6   2  -7    0.12    0.19
   6   2  -7    0.13    0.18
  -6  -2   7    0.12    0.11
  -6  -2   7   -0.00    0.12
  -6  -2   7    0.10    0.12
  -6  -2   7    0.46    0.22
   6   2  -6    0.03    0.13
   6   2  -6    0.25    0.13
  -6  -2   6    0.04    0.08
  -6  -2   6   -0.00    0.08
  -6  -2   6   -0.10    0.18
  -6  -2   6   -0.02    0.13
   6   2  -5    0.00    0.13
   6   2  -5    0.23    0.12
  -6  -2   5    0.12    0.07
  -6  -2   5    0.00    0.07
  -6  -2   5    0.68    0.28
  -6  -2   5    0.08    0.08
   6   2  -4    0.29    0.13
   6   2  -4    0.51    0.11
  -6  -2   4    0.33    0.13
  -6  -2   4    0.59    0.34
   6   2  -3    0.01    0.07
   6   2  -3    0.02    0.03
   6   2  -3    0.03    0.05
  -6  -2   3    0.07    0.07
  -6  -2   3    0.05    0.22
  -6  -2   2    0.02    0.06
  -6  -2   2    0.04    0.04
  -6  -2   2    0.08    0.22
  -6  -2   1    0.10    0.06
  -6  -2   1    0.13    0.06
  -6  -2   1    0.30    0.25
  -6  -2   1    0.35    0.26
  -6  -2   0    1.26    0.09
  -6  -2   0    1.63    0.35
  -6  -2   0    1.13    0.09
  -6  -2   0    1.84    0.24
  -6  -2  -1    0.32    0.16
  -6  -2  -1    0.15    0.04
  -6  -2  -1    0.32    0.16
  -6  -2  -1    0.10    0.06
  -6  -2  -2    0.10    0.11
  -6  -2  -2    0.07    0.12
  -6  -2  -2    0.00    0.04
  -6  -2  -2   -0.01    0.05
   6   2   3    0.76    0.19
  -6  -2  -3    0.60    0.06
  -6  -2  -3    0.61    0.20
   6   2   4    0.04    0.11
  -6  -2  -4    0.01    0.06
  -6  -2  -4   -0.01    0.06
  -6  -2  -4    0.05    0.17
   6   2   5   -0.04    0.12
  -6  -2  -5   -0.00    0.08
  -6  -2  -5    0.10    0.12
  -6  -2  -5   -0.00    0.08
   6   2   6    1.91    0.28
  -6  -2  -6    1.67    0.14
  -6  -2  -6    1.98    0.27
   6   2   7    2.34    0.43
  -6  -2  -7    2.05    0.30
  -6  -2  -7    1.89    0.25
   6   2   8   -0.02    0.14
  -6  -2  -8    0.00    0.15
  -6  -2  -8    0.03    0.09
   6   2   9    0.13    0.18
  -6  -2  -9    0.00    0.18
  -6  -2  -9    0.05    0.19
   6   3  -7    0.02    0.09
   6   3  -7    0.10    0.10
  -6  -3   7   -0.07    0.10
  -6  -3   7   -0.00    0.10
  -6  -3   7   -0.01    0.17
   6   3  -6    0.27    0.11
   6   3  -6    0.45    0.13
  -6  -3   6    0.26    0.19
  -6  -3   6    0.01    0.20
  -6  -3   6    0.59    0.24
   6   3  -5    0.09    0.11
   6   3  -5    0.15    0.09
  -6  -3   5    0.10    0.14
  -6  -3   5   -0.00    0.14
  -6  -3   5    0.25    0.20
   6   3  -4    0.08    0.08
   6   3  -4    0.18    0.11
  -6  -3   4    0.11    0.07
  -6  -3   4   -0.00    0.11
  -6  -3   4    0.18    0.18
   6   3  -3    0.05    0.05
   6   3  -3    0.04    0.07
  -6  -3   3   -0.00    0.04
  -6  -3   3    0.03    0.04
  -6  -3   3    0.06    0.15
   6   3  -2    0.19    0.07
  -6  -3   2    0.28    0.19
   6   3  -1    0.15    0.05
  -6  -3   1    0.45    0.18
  -6  -3   1    0.34    0.19
  -6  -3   0    2.92    0.30
  -6  -3   0    2.85    0.31
  -6  -3  -1   -0.05    0.13
  -6  -3  -1    0.02    0.13
  -6  -3  -2    0.70    0.33
  -6  -3  -2    0.66    0.22
   6   3   3    0.19    0.16
  -6  -3  -3    0.02    0.26
   6   3   4   -0.05    0.14
  -6  -3  -4   -0.01    0.14
   6   3   5    0.31    0.17
  -6  -3  -5   -0.02    0.17
   6   3   6    1.02    0.23
  -6  -3  -6   -0.00    0.23
   6   3   7    0.03    0.22
  -6  -3  -7    0.00    0.14
   6   3   8    0.09    0.17
  -6  -3  -8   -0.00    0.18
   6   3   9    0.71    0.36
  -6  -3  -9    0.00    0.23
   6   4  -6    0.01    0.14
  -6  -4   6    0.00    0.14
  -6  -4   6   -0.00    0.14
  -6  -4   6    0.00    0.16
   6   4  -5    0.36    0.12
  -6  -4   5    0.30    0.13
  -6  -4   5    0.19    0.12
  -6  -4   5   -0.00    0.24
   6   4  -4    0.28    0.15
  -6  -4   4    0.05    0.14
  -6  -4   4    0.13    0.15
  -6  -4   4   -0.00    0.21
   6   4  -3    0.06    0.06
  -6  -4   3   -0.02    0.06
  -6  -4   3    0.00    0.06
  -6  -4   3    0.15    0.15
   6   4  -2    0.08    0.05
  -6  -4   2    0.00    0.08
  -6  -4   2    0.04    0.08
  -6  -4   2   -0.00    0.05
  -6  -4   2    0.06    0.16
   6   4  -1    0.12    0.08
  -6  -4   1   -0.00    0.05
  -6  -4   1    0.16    0.05
  -6  -4   1    0.01    0.18
  -6  -4   1    0.13    0.07
  -6  -4   1    0.29    0.18
   6   4   0    3.14    0.14
  -6  -4   0    2.63    0.12
  -6  -4   0    2.58    0.12
  -6  -4   0    4.13    0.33
  -6  -4   0    2.63    0.12
  -6  -4   0    4.27    0.35
   6   4   1    0.00    0.04
  -6  -4  -1    0.01    0.13
  -6  -4  -1    0.10    0.13
  -6  -4  -2    2.24    0.29
  -6  -4  -2    2.23    0.30
   6   4   3    1.16    0.21
  -6  -4  -3    0.01    0.23
   6   4   4    0.02    0.14
  -6  -4  -4    0.01    0.13
   6   4   5    0.22    0.26
  -6  -4  -5    0.00    0.16
   6   4   6    0.43    0.31
  -6  -4  -6    0.01    0.32
   6   4   7    0.40    0.21
  -6  -4  -7   -0.00    0.34
   6   4   8    0.34    0.21
  -6  -4  -8   -0.01    0.35
   6   4   9    0.14    0.20
  -6  -4  -9    0.00    0.33
   6   5  -6    1.12    0.21
  -6  -5   6    0.91    0.31
  -6  -5   6    0.77    0.32
  -6  -5   6    0.00    0.35
   6   5  -5    0.89    0.26
  -6  -5   5    0.60    0.16
  -6  -5   5    0.65    0.17
  -6  -5   5    0.00    0.30
   6   5  -4    0.13    0.16
  -6  -5   4    0.03    0.15
  -6  -5   4    0.02    0.15
  -6  -5   4    0.00    0.19
   6   5  -3    0.03    0.07
  -6  -5   3    0.02    0.11
  -6  -5   3   -0.02    0.12
  -6  -5   3   -0.00    0.16
   6   5  -2    0.23    0.14
  -6  -5   2    0.15    0.09
  -6  -5   2    0.19    0.09
  -6  -5   2    0.13    0.14
  -6  -5   2    0.29    0.21
   6   5  -1    0.53    0.13
  -6  -5   1    0.27    0.08
  -6  -5   1    0.31    0.08
  -6  -5   1    0.60    0.22
  -6  -5   1    0.29    0.13
  -6  -5   1    1.08    0.36
   6   5   0    0.01    0.07
  -6  -5   0   -0.00    0.04
  -6  -5   0   -0.01    0.04
  -6  -5   0   -0.08    0.13
  -6  -5   0    0.02    0.07
  -6  -5   0   -0.18    0.22
   6   5   1   -0.00    0.08
  -6  -5  -1    0.07    0.05
  -6  -5  -1    0.07    0.05
  -6  -5  -1    0.13    0.05
   6   5   2    0.00    0.05
  -6  -5  -2    0.13    0.07
  -6  -5  -2    0.16    0.07
  -6  -5  -2    0.19    0.05
   6   5   3   -0.00    0.04
  -6  -5  -3    0.40    0.15
   6   5   4   -0.00    0.19
  -6  -5  -4   -0.00    0.13
   6   5   5    0.00    0.13
  -6  -5  -5    0.00    0.13
   6   5   6    0.00    0.16
   6   5   6    0.05    0.09
  -6  -5  -6   -0.01    0.16
   6   5   7   -0.01    0.15
  -6  -5  -7   -0.01    0.15
   6   5   8    0.69    0.34
  -6  -5  -8   -0.02    0.21
   6   5   9    0.38    0.22
  -6  -5  -9    0.00    0.25
   6   6  -5    0.17    0.13
  -6  -6   5   -0.03    0.13
  -6  -6   5    0.07    0.14
  -6  -6   5   -0.00    0.24
   6   6  -4    0.87    0.17
  -6  -6   4    0.60    0.26
  -6  -6   4    0.31    0.27
  -6  -6   4    0.00    0.30
   6   6  -3    0.12    0.10
  -6  -6   3    0.02    0.10
  -6  -6   3    0.02    0.10
  -6  -6   3    0.00    0.20
   6   6  -2    0.02    0.13
  -6  -6   2   -0.04    0.08
  -6  -6   2   -0.00    0.08
  -6  -6   2   -0.03    0.13
  -6  -6   2    0.16    0.26
   6   6  -1    0.27    0.10
  -6  -6   1    0.13    0.10
  -6  -6   1    0.13    0.10
  -6  -6   1    0.08    0.22
  -6  -6   1    0.19    0.10
  -6  -6   1    0.41    0.35
   6   6   0    0.06    0.12
  -6  -6   0    0.08    0.08
  -6  -6   0    0.07    0.08
  -6  -6   0    0.44    0.29
  -6  -6   0   -0.01    0.12
  -6  -6   0   -0.03    0.30
   6   6   1    0.14    0.10
  -6  -6  -1   -0.00    0.10
  -6  -6  -1    0.02    0.10
  -6  -6  -1   -0.02    0.11
  -6  -6  -1    0.39    0.28
   6   6   2    0.00    0.07
  -6  -6  -2    0.15    0.11
  -6  -6  -2    0.17    0.11
  -6  -6  -2    0.09    0.20
  -6  -6  -2    0.34    0.11
   6   6   3    0.00    0.06
  -6  -6  -3    0.00    0.06
  -6  -6  -3    0.00    0.06
  -6  -6  -3    0.35    0.17
  -6  -6  -3    0.05    0.06
   6   6   4    0.00    0.18
   6   6   4    0.00    0.11
  -6  -6  -4   -0.00    0.10
  -6  -6  -4    0.27    0.30
  -6  -6  -4    0.04    0.11
  -6  -6  -4    0.38    0.11
   6   6   5    0.00    0.15
  -6  -6  -5   -0.05    0.24
   6   6   6   -0.00    0.16
   6   6   6    0.02    0.06
  -6  -6  -6   -0.03    0.25
   6   6   7   -0.00    0.31
   6   6   7    0.08    0.14
  -6  -6  -7    0.13    0.30
   6   6   8   -0.00    0.21
   6   6   8    0.09    0.10
  -6  -6  -8    0.34    0.34
   6   7  -4    0.24    0.15
  -6  -7   4    0.13    0.15
  -6  -7   4    0.06    0.16
  -6  -7   4    0.00    0.27
   6   7  -3    0.24    0.14
  -6  -7   3    0.15    0.14
  -6  -7   3    0.13    0.15
  -6  -7   3    0.00    0.26
   6   7  -2    0.15    0.12
  -6  -7   2    0.04    0.12
  -6  -7   2    0.05    0.12
  -6  -7   2    0.03    0.12
   6   7  -1    0.24    0.18
  -6  -7   1    0.09    0.18
  -6  -7   1    0.12    0.18
  -6  -7   1    0.31    0.23
  -6  -7   1    0.08    0.19
  -6  -7   1    0.07    0.23
   6   7   0    0.89    0.15
  -6  -7   0    0.54    0.14
  -6  -7   0    0.51    0.22
  -6  -7   0    0.92    0.43
  -6  -7   0    0.55    0.15
  -6  -7   0    1.17    0.30
   6   7   1    0.16    0.13
  -6  -7  -1    0.06    0.09
  -6  -7  -1    0.02    0.09
  -6  -7  -1   -0.01    0.30
  -6  -7  -1   -0.01    0.14
  -6  -7  -1    0.18    0.20
   6   7   2    0.05    0.07
  -6  -7  -2    0.04    0.07
  -6  -7  -2    0.06    0.15
  -6  -7  -2   -0.03    0.07
  -6  -7  -2    0.24    0.15
  -6  -7  -2   -0.10    0.07
   6   7   3    0.00    0.12
  -6  -7  -3   -0.00    0.13
  -6  -7  -3    0.00    0.19
  -6  -7  -3    0.08    0.13
  -6  -7  -3   -0.04    0.19
  -6  -7  -3    0.18    0.13
   6   7   4   -0.00    0.22
   6   7   4    0.00    0.10
  -6  -7  -4    0.00    0.10
  -6  -7  -4    0.72    0.24
  -6  -7  -4    0.38    0.10
  -6  -7  -4    0.42    0.10
   6   7   5   -0.00    0.39
   6   7   5   -0.00    0.17
  -6  -7  -5    0.01    0.12
  -6  -7  -5    0.87    0.25
  -6  -7  -5    0.57    0.18
  -6  -7  -5    0.62    0.12
   6   7   6    0.00    0.24
  -6  -7  -6    0.00    0.07
  -6  -7  -6   -0.08    0.16
  -6  -7  -6    0.04    0.07
  -6  -7  -6   -0.03    0.11
   6   7   7   -0.01    0.24
   6   7   7    0.24    0.13
  -6  -7  -7    0.39    0.24
   6   7   8   -0.01    0.25
   6   7   8    0.02    0.09
  -6  -7  -8   -0.03    0.17
   6   8  -2    0.03    0.13
  -6  -8   2    0.01    0.13
  -6  -8   2   -0.02    0.13
  -6  -8   2    0.06    0.21
  -6  -8   2    0.13    0.13
  -6  -8   2    0.00    0.22
   6   8  -1    1.45    0.31
  -6  -8   1    0.72    0.20
  -6  -8   1    1.40    0.20
  -6  -8   1    1.45    0.35
  -6  -8   1    0.78    0.31
  -6  -8   1    1.39    0.36
   6   8   0    0.71    0.25
  -6  -8   0    0.40    0.16
  -6  -8   0    0.40    0.16
  -6  -8   0    0.02    0.45
  -6  -8   0    0.50    0.25
  -6  -8   0    0.88    0.31
   6   8   1    0.10    0.11
  -6  -8  -1    0.09    0.11
  -6  -8  -1    0.01    0.11
  -6  -8  -1    0.21    0.33
  -6  -8  -1    0.02    0.11
  -6  -8  -1   -0.01    0.21
   6   8   2    0.29    0.13
  -6  -8  -2    0.09    0.20
  -6  -8  -2    0.67    0.25
  -6  -8  -2    0.13    0.21
  -6  -8  -2    0.30    0.20
   6   8   3   -0.00    0.17
  -6  -8  -3   -0.00    0.18
  -6  -8  -3    0.40    0.24
  -6  -8  -3    0.17    0.18
  -6  -8  -3    0.32    0.18
   6   8   4    0.00    0.08
  -6  -8  -4    0.00    0.09
  -6  -8  -4    0.04    0.17
  -6  -8  -4    0.02    0.09
  -6  -8  -4    0.02    0.09
   6   8   5    0.00    0.17
   6   8   5    0.00    0.13
  -6  -8  -5    0.00    0.09
  -6  -8  -5    0.20    0.18
  -6  -8  -5    0.02    0.14
  -6  -8  -5   -0.01    0.09
   6   8   6   -0.01    0.22
   6   8   6    0.01    0.18
  -6  -8  -6    0.00    0.12
  -6  -8  -6    0.24    0.23
  -6  -8  -6    0.18    0.19
  -6  -8  -6    0.21    0.12
   6   8   7   -0.00    0.25
   6   8   7   -0.00    0.15
  -6  -8  -7   -0.11    0.17
  -6  -8  -7    0.04    0.09
  -6  -8  -7    0.03    0.15
   6   9   0    0.22    0.22
  -6  -9   0    0.03    0.23
  -6  -9   0    0.06    0.23
  -6  -9   0    0.03    0.24
  -6  -9   0   -0.00    0.22
  -6  -9   0    0.25    0.26
   6   9   1    0.12    0.19
  -6  -9  -1   -0.03    0.20
  -6  -9  -1   -0.00    0.19
  -6  -9  -1    0.14    0.33
  -6  -9  -1    0.04    0.19
   6   9   2   -0.01    0.11
  -6  -9  -2    0.02    0.18
  -6  -9  -2    0.23    0.20
  -6  -9  -2   -0.05    0.11
  -6  -9  -2    0.10    0.18
   6   9   3    0.14    0.13
  -6  -9  -3    0.28    0.25
  -6  -9  -3    0.07    0.14
  -6  -9  -3    0.43    0.26
  -6  -9  -3    0.14    0.22
   6   9   4    0.00    0.11
  -6  -9  -4   -0.31    0.22
  -6  -9  -4    0.18    0.19
  -6  -9  -4    0.10    0.22
  -6  -9  -4    0.31    0.19
   6   9   5   -0.00    0.25
   6   9   5    0.01    0.24
  -6  -9  -5    0.01    0.25
  -6  -9  -5    0.86    0.29
  -6  -9  -5    0.35    0.24
  -6  -9  -5    0.47    0.16
   6   9   6   -0.01    0.36
   6   9   6   -0.00    0.21
  -6  -9  -6    0.01    0.14
  -6  -9  -6    0.25    0.40
  -6  -9  -6    0.23    0.14
  -6  -9  -6    0.24    0.14
   7  -4  -4    0.23    0.19
  -7   4   4    0.19    0.18
  -7   4   3    0.81    0.23
  -7   4   3    0.55    0.21
  -7   4   2    0.13    0.16
  -7   4   2    0.06    0.15
  -7   4   1    0.05    0.16
  -7   4   1    0.14    0.15
  -7   4   0    0.12    0.17
  -7   4   0    0.23    0.17
  -7   4  -1   -0.08    0.15
  -7   4  -1    0.18    0.15
  -7   3   5    0.16    0.17
   7  -3  -4    0.00    0.11
  -7   3   4    0.01    0.11
  -7   3   3    0.09    0.15
  -7   3   3    0.17    0.14
  -7   3   2    0.03    0.13
  -7   3   2    0.09    0.19
  -7   3   1    0.09    0.14
  -7   3   0    0.09    0.22
  -7   3  -1    0.08    0.13
  -7   3  -1    0.03    0.21
  -7   3  -2    0.18    0.15
  -7   3  -2    0.01    0.24
   7  -2  -5   -0.00    0.19
  -7   2   5    0.01    0.12
  -7   2   5    0.05    0.12
   7  -2  -4    0.00    0.22
  -7   2   4    0.01    0.21
  -7   2   4    0.16    0.14
  -7   2   4    0.26    0.15
  -7   2   3    0.01    0.13
  -7   2   3   -0.00    0.11
  -7   2   3    0.04    0.11
  -7   2   3    0.17    0.12
  -7   2   2   -0.01    0.17
  -7   2   2    0.13    0.12
  -7   2   2    0.07    0.19
  -7   2   2    0.12    0.12
  -7   2   1    0.01    0.09
  -7   2   1    0.03    0.16
  -7   2   1    0.03    0.09
  -7   2   1   -0.01    0.15
  -7   2   0    0.46    0.18
  -7   2   0   -0.06    0.20
  -7   2   0    0.29    0.12
  -7   2   0    0.09    0.13
  -7   2  -1    0.38    0.14
  -7   2  -1    0.00    0.22
  -7   2  -2    0.00    0.13
  -7   2  -2    0.19    0.13
  -7   2  -3   -0.05    0.17
  -7   2  -3    0.00    0.11
   7  -1  -5    0.00    0.13
  -7   1   5    0.15    0.13
  -7   1   5    0.36    0.17
   7  -1  -4   -0.00    0.18
  -7   1   4   -0.00    0.14
  -7   1   4    0.11    0.11
  -7   1   4    0.23    0.15
  -7   1   3    0.00    0.07
  -7   1   3    0.00    0.08
  -7   1   3   -0.02    0.06
  -7   1   3    0.04    0.09
  -7   1   2   -0.00    0.22
  -7   1   2    0.23    0.12
  -7   1   2    0.13    0.11
  -7   1   2    0.31    0.15
  -7   1   1    0.03    0.11
  -7   1   1   -0.01    0.14
  -7   1   1   -0.04    0.10
  -7   1   1    0.01    0.11
  -7   1   0    1.10    0.17
  -7   1   0    1.18    0.15
  -7   1   0   -0.00    0.19
  -7   1   0    0.67    0.21
  -7   1  -1    1.13    0.23
  -7   1  -1   -0.01    0.16
  -7   1  -1    0.00    0.13
  -7   1  -1    0.66    0.13
  -7   1  -2   -0.01    0.13
  -7   1  -2    0.00    0.13
  -7   1  -2    0.08    0.15
  -7   1  -2   -0.00    0.11
  -7   1  -3   -0.01    0.15
  -7   1  -3    0.07    0.11
  -7   1  -3   -0.00    0.15
  -7   1  -3    0.00    0.11
  -7   1  -4    0.19    0.13
  -7   1  -4    0.13    0.13
  -7   1  -4    0.00    0.14
  -7   1  -4    0.00    0.20
  -7   0   5    0.07    0.27
  -7   0   4    0.29    0.29
  -7   0   4    0.41    0.31
  -7   0   3    0.14    0.26
  -7   0   3    0.44    0.29
  -7   0   2   -0.00    0.21
  -7   0   2   -0.09    0.14
  -7   0   1   -0.01    0.15
  -7   0   1    0.37    0.16
  -7   0   0   -0.02    0.12
  -7   0   0   -0.01    0.12
  -7   0  -1    0.17    0.14
  -7   0  -1   -0.01    0.15
  -7   0  -2    0.34    0.23
  -7   0  -2   -0.01    0.24
  -7   0  -3    0.28    0.15
  -7   0  -3   -0.00    0.25
  -7   0  -4    0.06    0.12
  -7   0  -4   -0.01    0.13
  -7  -1   4    0.90    0.27
  -7  -1   3   -0.00    0.18
  -7  -1   3    0.43    0.20
  -7  -1   2   -0.01    0.12
  -7  -1   2    0.04    0.20
  -7  -1   1    0.00    0.13
  -7  -1   1   -0.06    0.21
  -7  -1   0    0.46    0.19
  -7  -1   0   -0.01    0.31
  -7  -1  -1    1.05    0.32
  -7  -1  -1    0.00    0.33
  -7  -1  -2    0.17    0.23
  -7  -1  -2   -0.01    0.25
  -7  -1  -3    0.15    0.15
  -7  -1  -3    0.00    0.26
  -7  -1  -4    0.23    0.16
  -7  -1  -4    0.01    0.17
   7   1   5    0.29    0.30
  -7  -1  -5    0.20    0.18
  -7  -2   4    0.04    0.18
  -7  -2   3   -0.00    0.19
  -7  -2   3    0.30    0.20
  -7  -2   2   -0.00    0.15
  -7  -2   2    0.04    0.15
  -7  -2   1    0.01    0.35
  -7  -2   1    0.79    0.24
  -7  -2   0   -0.00    0.17
  -7  -2   0    0.18    0.18
  -7  -2  -1    0.00    0.21
  -7  -2  -1    0.64    0.22
  -7  -2  -2   -0.01    0.22
  -7  -2  -2    1.52    0.35
  -7  -2  -3   -0.01    0.18
  -7  -2  -3    0.63    0.30
  -7  -2  -4   -0.01    0.14
  -7  -2  -4    0.06    0.15
   7   2   5    0.07    0.24
  -7  -2  -5    0.01    0.15
  -7  -3   3   -0.00    0.35
  -7  -3   3    0.36    0.24
  -7  -3   2   -0.00    0.35
  -7  -3   2    0.36    0.23
  -7  -3   1   -0.00    0.21
  -7  -3   1    0.47    0.22
  -7  -3   0   -0.00    0.19
  -7  -3   0    0.17    0.20
  -7  -3  -1    7.66    0.51
  -7  -3  -1    8.21    0.53
  -7  -3  -2    0.01    0.30
  -7  -3  -2    6.26    0.53
  -7  -3  -3   -0.01    0.42
  -7  -3  -3    1.81    0.43
  -7  -3  -4    0.00    0.30
  -7  -3  -4   -0.18    0.20
   7   3   5    0.33    0.21
  -7  -3  -5   -0.00    0.33
  -7  -4   2    0.00    0.21
  -7  -4   2    0.21    0.21
  -7  -4   1    0.00    0.17
  -7  -4   1   -0.06    0.19
  -7  -4   0    0.00    0.29
  -7  -4   0    1.45    0.29
  -7  -4  -1   -0.00    0.14
  -7  -4  -2    0.01    0.16
  -7  -4  -3   -0.00    0.15
  -7  -4  -4   -0.02    0.18
  -7  -4  -4   -0.06    0.19
   7   4   5   -0.08    0.17
  -7  -4  -5    0.01    0.18
  -7  -5   1    0.01    0.23
  -7  -5   1    0.23    0.23
  -7  -5   0   -0.01    0.29
  -7  -5   0    0.98    0.29
  -7  -5  -4    0.01    0.37
  -7  -5  -4    0.25    0.24
  -7  -6  -2    0.00    0.15
  -7  -6  -3    0.00    0.16
   0   0   0    0.00    0.00
;
_shelx_hkl_checksum              97098
loop_
_space_group_symop_operation_xyz
'x, y, z'
'-x, -y, -z'
loop_
_atom_site_label
_atom_site_type_symbol
_atom_site_fract_x
_atom_site_fract_y
_atom_site_fract_z
_atom_site_U_iso_or_equiv
_atom_site_adp_type
_atom_site_occupancy
_atom_site_site_symmetry_order
_atom_site_calc_flag
_atom_site_refinement_flags_posn
_atom_site_refinement_flags_adp
C1 C 0.6928(3) 0.29136(18) 0.42338(17) 0.0599(5) Uani 1 1 d . .
H1 H 0.8109 0.2477 0.4743 0.072 Uiso 1 1 calc R U
C2 C 0.5182(4) 0.3481(2) 0.4657(2) 0.0711(6) Uani 1 1 d . .
H2 H 0.5207 0.3442 0.5445 0.085 Uiso 1 1 calc R U
C3 C 0.3390(4) 0.4110(2) 0.3909(2) 0.0686(6) Uani 1 1 d . .
H3 H 0.2197 0.4476 0.4203 0.082 Uiso 1 1 calc R U
C4 C 0.3360(3) 0.41980(18) 0.27341(18) 0.0593(5) Uani 1 1 d . .
H4 H 0.2152 0.4618 0.2234 0.071 Uiso 1 1 calc R U
O5 O 0.5039(2) 0.37488(12) 0.11293(11) 0.0588(4) Uani 1 1 d . .
C6 C 0.7218(3) 0.36725(18) 0.05854(17) 0.0585(5) Uani 1 1 d . .
H6A H 0.7969 0.4418 0.0429 0.070 Uiso 1 1 calc R U
H6B H 0.6941 0.3569 -0.0170 0.070 Uiso 1 1 calc R U
C7 C 1.0478(3) 0.21284(15) 0.08237(15) 0.0446(4) Uani 1 1 d . .
C8 C 1.3961(3) 0.07177(17) 0.11970(18) 0.0548(5) Uani 1 1 d . .
H8 H 1.4150 0.0876 0.0388 0.066 Uiso 1 1 calc R U
C9 C 1.5491(3) -0.00536(19) 0.1977(2) 0.0625(5) Uani 1 1 d . .
H9 H 1.6730 -0.0404 0.1698 0.075 Uiso 1 1 calc R U
C10 C 1.5207(3) -0.03227(18) 0.32008(19) 0.0637(6) Uani 1 1 d . .
H10 H 1.6257 -0.0853 0.3727 0.076 Uiso 1 1 calc R U
C11 C 1.3411(3) 0.01851(18) 0.36227(18) 0.0601(5) Uani 1 1 d . .
H11 H 1.3220 -0.0017 0.4436 0.072 Uiso 1 1 calc R U
N12 N 1.0130(2) 0.15515(13) 0.33147(13) 0.0514(4) Uani 1 1 d . .
C13 C 1.0568(3) 0.24207(15) -0.04969(15) 0.0455(4) Uani 1 1 d . .
C14 C 0.9220(3) 0.18289(19) -0.10413(17) 0.0594(5) Uani 1 1 d . .
H14 H 0.8296 0.1231 -0.0585 0.071 Uiso 1 1 calc R U
C15 C 0.9230(3) 0.2118(2) -0.22650(18) 0.0655(6) Uani 1 1 d . .
H15 H 0.8301 0.1720 -0.2625 0.079 Uiso 1 1 calc R U
C16 C 1.0602(3) 0.29861(19) -0.29415(17) 0.0619(5) Uani 1 1 d . .
H16 H 1.0613 0.3176 -0.3760 0.074 Uiso 1 1 calc R U
C17 C 1.1960(3) 0.35749(19) -0.24103(18) 0.0660(6) Uani 1 1 d . .
H17 H 1.2892 0.4167 -0.2869 0.079 Uiso 1 1 calc R U
C18 C 1.1948(3) 0.32915(18) -0.11927(17) 0.0582(5) Uani 1 1 d . .
H18 H 1.2882 0.3693 -0.0839 0.070 Uiso 1 1 calc R U
C4A C 0.5154(3) 0.36512(16) 0.23066(16) 0.0493(4) Uani 1 1 d . .
C6A C 0.8832(3) 0.26751(15) 0.13182(15) 0.0457(4) Uani 1 1 d . .
C7A C 1.2082(3) 0.12834(15) 0.15978(16) 0.0461(4) Uani 1 1 d . .
C11A C 1.1826(3) 0.10196(16) 0.28350(16) 0.0479(4) Uani 1 1 d . .
C12A C 0.8736(3) 0.23649(15) 0.25694(15) 0.0455(4) Uani 1 1 d . .
C12B C 0.6939(3) 0.29887(16) 0.30482(16) 0.0479(4) Uani 1 1 d . .
loop_
_atom_site_aniso_label
_atom_site_aniso_U_11
_atom_site_aniso_U_22
_atom_site_aniso_U_33
_atom_site_aniso_U_23
_atom_site_aniso_U_13
_atom_site_aniso_U_12
C1 0.0707(11) 0.0661(12) 0.0424(11) -0.0184(9) 0.0044(8) 0.0018(9)
C2 0.0846(14) 0.0777(15) 0.0526(12) -0.0249(11) 0.0157(10) 0.0013(11)
C3 0.0705(12) 0.0676(13) 0.0659(14) -0.0210(11) 0.0247(10) 0.0009(10)
C4 0.0565(10) 0.0610(11) 0.0571(12) -0.0163(10) 0.0093(8) 0.0014(8)
O5 0.0546(7) 0.0746(9) 0.0472(8) -0.0224(7) -0.0015(5) 0.0099(6)
C6 0.0576(10) 0.0671(12) 0.0477(11) -0.0173(9) 0.0021(8) 0.0106(9)
C7 0.0481(9) 0.0476(9) 0.0389(9) -0.0153(7) 0.0006(7) -0.0055(7)
C8 0.0550(10) 0.0562(11) 0.0537(11) -0.0196(9) 0.0024(8) 0.0002(8)
C9 0.0556(10) 0.0602(12) 0.0707(14) -0.0221(10) -0.0006(9) 0.0075(8)
C10 0.0650(11) 0.0604(12) 0.0610(13) -0.0158(10) -0.0145(9) 0.0095(9)
C11 0.0672(11) 0.0607(12) 0.0514(12) -0.0190(9) -0.0121(9) 0.0062(9)
N12 0.0592(9) 0.0525(9) 0.0428(9) -0.0169(7) -0.0040(6) 0.0014(7)
C13 0.0461(8) 0.0482(9) 0.0426(10) -0.0162(8) 0.0004(7) 0.0010(7)
C14 0.0643(11) 0.0694(12) 0.0469(11) -0.0207(9) 0.0076(8) -0.0191(9)
C15 0.0691(12) 0.0856(15) 0.0493(12) -0.0307(11) 0.0006(9) -0.0169(10)
C16 0.0674(11) 0.0756(13) 0.0414(11) -0.0186(10) 0.0032(8) -0.0008(9)
C17 0.0772(13) 0.0724(13) 0.0464(11) -0.0154(10) 0.0134(9) -0.0213(10)
C18 0.0629(10) 0.0658(12) 0.0496(11) -0.0224(9) 0.0042(8) -0.0162(9)
C4A 0.0529(9) 0.0499(10) 0.0460(10) -0.0169(8) 0.0062(7) -0.0057(7)
C6A 0.0486(9) 0.0489(10) 0.0406(9) -0.0164(8) -0.0002(7) -0.0016(7)
C7A 0.0485(9) 0.0462(9) 0.0452(10) -0.0171(8) -0.0008(7) -0.0040(7)
C11A 0.0532(9) 0.0489(10) 0.0420(10) -0.0160(8) -0.0037(7) -0.0015(7)
C12A 0.0489(9) 0.0483(9) 0.0402(9) -0.0162(8) 0.0006(7) -0.0034(7)
C12B 0.0529(9) 0.0478(10) 0.0444(10) -0.0174(8) 0.0052(7) -0.0040(7)
loop_
_atom_type_symbol
_atom_type_description
_atom_type_scat_dispersion_real
_atom_type_scat_dispersion_imag
_atom_type_scat_source
C C 0.0033 0.0016 'International Tables Vol C Tables 4.2.6.8 and 6.1.1.4'
H H 0.0000 0.0000 'International Tables Vol C Tables 4.2.6.8 and 6.1.1.4'
N N 0.0061 0.0033 'International Tables Vol C Tables 4.2.6.8 and 6.1.1.4'
O O 0.0106 0.0060 'International Tables Vol C Tables 4.2.6.8 and 6.1.1.4'
loop_
_geom_angle_atom_site_label_1
_geom_angle_atom_site_label_2
_geom_angle_atom_site_label_3
_geom_angle
C2 C1 C12B 120.54(18)
C1 C2 C3 120.0(2)
C4 C3 C2 120.58(17)
C3 C4 C4A 119.11(18)
C4A O5 C6 115.42(13)
O5 C6 C6A 113.96(15)
C6A C7 C7A 117.97(15)
C6A C7 C13 120.56(14)
C7A C7 C13 121.46(14)
C9 C8 C7A 121.04(18)
C8 C9 C10 120.30(18)
C11 C10 C9 120.55(17)
C10 C11 C11A 120.64(19)
C12A N12 C11A 117.09(15)
C14 C13 C18 118.51(17)
C14 C13 C7 120.01(15)
C18 C13 C7 121.46(15)
C13 C14 C15 120.57(17)
C16 C15 C14 120.15(18)
C15 C16 C17 119.81(18)
C16 C17 C18 120.17(18)
C13 C18 C17 120.78(17)
O5 C4A C4 117.17(16)
O5 C4A C12B 121.47(15)
C4 C4A C12B 121.30(17)
C7 C6A C12A 119.76(15)
C7 C6A C6 122.55(16)
C12A C6A C6 117.51(15)
C11A C7A C8 118.30(15)
C11A C7A C7 118.13(15)
C8 C7A C7 123.54(16)
N12 C11A C11 117.83(17)
N12 C11A C7A 123.04(15)
C11 C11A C7A 119.12(16)
N12 C12A C6A 123.91(15)
N12 C12A C12B 118.83(16)
C6A C12A C12B 117.25(15)
C4A C12B C1 118.42(16)
C4A C12B C12A 119.37(16)
C1 C12B C12A 122.19(16)
loop_
_geom_bond_atom_site_label_1
_geom_bond_atom_site_label_2
_geom_bond_distance
C1 C2 1.379(3)
C1 C12B 1.394(2)
C2 C3 1.385(3)
C3 C4 1.377(3)
C4 C4A 1.387(3)
O5 C4A 1.378(2)
O5 C6 1.429(2)
C6 C6A 1.502(2)
C7 C6A 1.372(2)
C7 C7A 1.423(2)
C7 C13 1.503(2)
C8 C9 1.361(3)
C8 C7A 1.419(2)
C9 C10 1.403(3)
C10 C11 1.359(3)
C11 C11A 1.417(2)
N12 C12A 1.318(2)
N12 C11A 1.371(2)
C13 C14 1.379(2)
C13 C18 1.379(3)
C14 C15 1.389(3)
C15 C16 1.367(3)
C16 C17 1.370(3)
C17 C18 1.383(3)
C4A C12B 1.391(3)
C6A C12A 1.420(2)
C7A C11A 1.418(3)
C12A C12B 1.475(2)
