#------------------------------------------------------------------------------
#$Date: 2017-09-12 06:49:08 +0300 (Tue, 12 Sep 2017) $
#$Revision: 200682 $
#$URL: file:///home/coder/svn-repositories/cod/cif/4/03/25/4032575.cif $
#------------------------------------------------------------------------------
#
# This file is available in the Crystallography Open Database (COD),
# http://www.crystallography.net/
#
# All data on this site have been placed in the public domain by the
# contributors.
#
data_4032575
loop_
_publ_author_name
'Anguera, Gonzalo'
'Kauffmann, Brice'
'Borrell, Jos\'e I'
'Borr\'os, Salvador'
'S\'anchez-Garc\'ia, David'
_publ_section_title
;
 Stable 5,5'-Substituted 2,2'-Bipyrroles: Building Blocks for Macrocyclic
 and Materials Chemistry.
;
_journal_issue                   13
_journal_name_full               'The Journal of organic chemistry'
_journal_page_first              6904
_journal_page_last               6912
_journal_paper_doi               10.1021/acs.joc.7b00961
_journal_volume                  82
_journal_year                    2017
_chemical_formula_sum            'C38 H32 N2 O4'
_chemical_formula_weight         580.65
_space_group_crystal_system      triclinic
_space_group_IT_number           2
_space_group_name_Hall           '-P 1'
_space_group_name_H-M_alt        'P -1'
_symmetry_space_group_name_Hall  '-P 1'
_symmetry_space_group_name_H-M   'P -1'
_atom_sites_solution_hydrogens   geom
_audit_creation_method           SHELXL-2014/7
_cell_angle_alpha                63.31(3)
_cell_angle_beta                 68.71(3)
_cell_angle_gamma                66.74(3)
_cell_formula_units_Z            1
_cell_length_a                   8.15680(10)
_cell_length_b                   10.0681(6)
_cell_length_c                   11.0261(4)
_cell_measurement_reflns_used    631
_cell_measurement_temperature    120(2)
_cell_measurement_theta_max      70.6
_cell_measurement_theta_min      30.7
_cell_volume                     724.0(2)
_computing_cell_refinement
;
CrystalClear-SM Expert 2.1 b43 (Rigaku, 2015)
;
_computing_data_collection
;
CrystalClear-SM Expert 2.1 b43 (Rigaku, 2015)
;
_computing_data_reduction
;
CrystalClear-SM Expert 2.1 b43 (Rigaku, 2015)
;
_computing_molecular_graphics    'Shelxle (Dittrich, 2011)'
_computing_structure_refinement  'SHELXL-2014/7 (Sheldrick, 2014)'
_computing_structure_solution    'SHELXT (Sheldrick, 2015)'
_diffrn_ambient_temperature      120(2)
_diffrn_detector                 PILT
_diffrn_detector_area_resol_mean 5.8140
_diffrn_measured_fraction_theta_full 0.967
_diffrn_measured_fraction_theta_max 0.966
_diffrn_measurement_device_type
;
AFC11 (Right): Eulerian 3 circle
;
_diffrn_measurement_method       'profile data from \w-scans'
_diffrn_radiation_type           CuK\a
_diffrn_radiation_wavelength     1.54178
_diffrn_reflns_av_R_equivalents  0.0125
_diffrn_reflns_av_unetI/netI     0.0137
_diffrn_reflns_Laue_measured_fraction_full 0.967
_diffrn_reflns_Laue_measured_fraction_max 0.966
_diffrn_reflns_limit_h_max       9
_diffrn_reflns_limit_h_min       -9
_diffrn_reflns_limit_k_max       12
_diffrn_reflns_limit_k_min       -9
_diffrn_reflns_limit_l_max       13
_diffrn_reflns_limit_l_min       -13
_diffrn_reflns_number            7593
_diffrn_reflns_point_group_measured_fraction_full 0.967
_diffrn_reflns_point_group_measured_fraction_max 0.966
_diffrn_reflns_theta_full        67.679
_diffrn_reflns_theta_max         68.205
_diffrn_reflns_theta_min         4.608
_diffrn_source                   'Rigaku FRX rotating anode'
_exptl_absorpt_coefficient_mu    0.690
_exptl_absorpt_correction_T_max  1.000
_exptl_absorpt_correction_T_min  0.929
_exptl_absorpt_correction_type   multi-scan
_exptl_crystal_colour            'green dark'
_exptl_crystal_density_diffrn    1.332
_exptl_crystal_description       Prism
_exptl_crystal_F_000             306
_exptl_crystal_size_max          0.200
_exptl_crystal_size_mid          0.200
_exptl_crystal_size_min          0.200
_refine_diff_density_max         0.298
_refine_diff_density_min         -0.283
_refine_diff_density_rms         0.064
_refine_ls_extinction_coef       0.0186(15)
_refine_ls_extinction_expression Fc^*^=kFc[1+0.001xFc^2^\l^3^/sin(2\q)]^-1/4^
_refine_ls_extinction_method     'SHELXL-2014/7 (Sheldrick 2014'
_refine_ls_goodness_of_fit_ref   1.172
_refine_ls_hydrogen_treatment    constr
_refine_ls_matrix_type           full
_refine_ls_number_parameters     201
_refine_ls_number_reflns         2570
_refine_ls_number_restraints     0
_refine_ls_restrained_S_all      1.172
_refine_ls_R_factor_all          0.0601
_refine_ls_R_factor_gt           0.0566
_refine_ls_shift/su_max          0.000
_refine_ls_shift/su_mean         0.000
_refine_ls_structure_factor_coef Fsqd
_refine_ls_weighting_details
'w=1/[\s^2^(Fo^2^)+(0.0385P)^2^+1.5234P] where P=(Fo^2^+2Fc^2^)/3'
_refine_ls_weighting_scheme      calc
_refine_ls_wR_factor_gt          0.1531
_refine_ls_wR_factor_ref         0.1545
_reflns_Friedel_coverage         0.000
_reflns_number_gt                2357
_reflns_number_total             2570
_reflns_threshold_expression     'I > 2\s(I)'
_cod_data_source_file            jo7b00961_si_004.cif
_cod_data_source_block           pb3_abs_a
_cod_depositor_comments
;
The following automatic conversions were performed:

'_exptl_absorpt_correction_type' value 'Multi-scan' changed to
'multi-scan' according to
/home/data/users/saulius/crontab/automatic-downloads/rss-feeds/ACS/lib/dictionaries/cif_core.dic
dictionary named 'cif_core.dic' version 2.4.2 from 2011-04-26.

Automatic conversion script
Id: cif_fix_values 4973 2017-02-22 13:04:09Z antanas 

 Adding full bibliography for 4032575--4032576.cif.
;
_cod_original_cell_volume        724.0(3)
_cod_database_code               4032575
_shelx_shelxl_version_number     2014/7
_shelx_space_group_comment
;
The symmetry employed for this shelxl refinement is uniquely defined
by the following loop, which should always be used as a source of
symmetry information in preference to the above space-group names.
They are only intended as comments.
;
_shelx_estimated_absorpt_t_min   0.874
_shelx_estimated_absorpt_t_max   0.874
_shelx_res_file
;

    pb3_abs_a.res created by SHELXL-2014/7


TITL pb3_abs_a.res in P-1
REM Old TITL pb3_abs in P-1

REM SHELXT solution in P-1
REM R1 0.124,  Rweak 0.014,  Alpha 0.056,  Orientation as input
REM Formula found by SHELXT:  C19 N O2

CELL  1.54178   8.1568  10.0681  11.0261   63.314   68.708   66.745
ZERR    1.000   0.0001   0.0006   0.0004    0.030    0.026    0.032
LATT  1
SFAC C H N O
UNIT 38 32 2 4
TEMP 100.150
SIZE 0.20 0.20 0.20
OMIT 3   3   0
OMIT 1  -2   2
OMIT 1  -1   2
OMIT 2  -1   4
ACTA
CONF
L.S. 30
BOND $H
LIST 6
FMAP 2
PLAN 20
WGHT    0.038500    1.523400
EXTI    0.018576
FVAR       1.44431
O001  4    0.201936    0.302191    0.205405    11.00000    0.02006    0.03010 =
         0.02633   -0.01911   -0.00714   -0.00099
O002  4   -0.046461    0.494752    0.234505    11.00000    0.02033    0.03315 =
         0.02189   -0.01544   -0.00660   -0.00110
N003  3    0.222243    0.414975    0.547185    11.00000    0.01731    0.01970 =
         0.01713   -0.01085   -0.00240   -0.00387
AFIX  43
H003  2    0.201443    0.435427    0.620100    11.00000   -1.20000
AFIX   0
C004  1    0.098343    0.405749    0.265542    11.00000    0.01793    0.02218 =
         0.01599   -0.00797    0.00085   -0.00849
C005  1    0.512535    0.252121    0.276124    11.00000    0.01534    0.02166 =
         0.01769   -0.00879   -0.00498   -0.00372
C006  1    0.389148    0.336206    0.489127    11.00000    0.01693    0.01720 =
         0.01819   -0.00888    0.00030   -0.00500
C007  1    0.179677    0.397734    0.368210    11.00000    0.01748    0.01687 =
         0.01699   -0.00782   -0.00100   -0.00583
C008  1    0.093373    0.457173    0.477019    11.00000    0.01729    0.01757 =
         0.01591   -0.00611   -0.00255   -0.00611
C009  1    0.367732    0.321860    0.376684    11.00000    0.01841    0.01531 =
         0.01649   -0.00524   -0.00262   -0.00616
C00A  1    0.601237    0.345326    0.152517    11.00000    0.02192    0.02271 =
         0.02239   -0.00962   -0.00295   -0.00752
AFIX  43
H00A  2    0.574020    0.450131    0.135400    11.00000   -1.20000
AFIX   0
C00B  1    0.548458    0.286330    0.548605    11.00000    0.01885    0.01452 =
         0.02064   -0.00498   -0.00441   -0.00648
C00C  1    0.725918    0.214697    0.487804    11.00000    0.02082    0.02287 =
         0.02538   -0.01259   -0.00412   -0.00505
AFIX  43
H00C  2    0.745317    0.196791    0.407287    11.00000   -1.20000
AFIX   0
C00D  1    0.872421    0.170321    0.545845    11.00000    0.01804    0.02006 =
         0.03151   -0.01124   -0.00451   -0.00286
AFIX  43
H00D  2    0.988918    0.123031    0.503900    11.00000   -1.20000
AFIX   0
C00E  1    0.557550    0.095052    0.300362    11.00000    0.02552    0.02044 =
         0.01956   -0.00728   -0.00680   -0.00469
AFIX  43
H00E  2    0.500087    0.030964    0.382804    11.00000   -1.20000
AFIX   0
C00F  1    0.527039    0.310892    0.669538    11.00000    0.01988    0.02181 =
         0.02088   -0.00784   -0.00357   -0.00485
AFIX  43
H00F  2    0.411265    0.358699    0.711980    11.00000   -1.20000
AFIX   0
C00G  1    0.847576    0.195498    0.665540    11.00000    0.02127    0.02132 =
         0.02899   -0.00466   -0.01118   -0.00641
AFIX  43
H00G  2    0.946437    0.165567    0.704180    11.00000   -1.20000
AFIX   0
C00H  1    0.686860    0.033816    0.202884    11.00000    0.03125    0.02323 =
         0.02929   -0.01451   -0.01309    0.00216
AFIX  43
H00H  2    0.716293   -0.071376    0.220606    11.00000   -1.20000
AFIX   0
C00I  1    0.772820    0.126877    0.079582    11.00000    0.01912    0.03591 =
         0.02495   -0.01852   -0.00634    0.00166
AFIX  43
H00I  2    0.858713    0.085208    0.013815    11.00000   -1.20000
AFIX   0
C00J  1    0.673309    0.265942    0.727061    11.00000    0.02918    0.02690 =
         0.01977   -0.00823   -0.00680   -0.00983
AFIX  43
H00J  2    0.654988    0.282995    0.807808    11.00000   -1.20000
AFIX   0
C00K  1    0.271579    0.171039    0.052608    11.00000    0.03755    0.03124 =
         0.02540   -0.01763   -0.00610   -0.00741
AFIX 137
H00B  2    0.237047    0.170072   -0.021403    11.00000   -1.50000
H00K  2    0.269898    0.075109    0.129860    11.00000   -1.50000
H00L  2    0.392666    0.183690    0.020215    11.00000   -1.50000
AFIX   0
C00L  1    0.729858    0.283418    0.054594    11.00000    0.02007    0.03708 =
         0.01980   -0.01236    0.00053   -0.00917
AFIX  43
H00M  2    0.787582    0.346965   -0.028138    11.00000   -1.20000
AFIX   0
C00M  1    0.139737    0.301902    0.097891    11.00000    0.02582    0.04382 =
         0.03164   -0.02546   -0.00873   -0.00577
AFIX  23
H00N  2    0.136387    0.399193    0.019708    11.00000   -1.20000
H00O  2    0.017550    0.288326    0.134234    11.00000   -1.20000
AFIX   0
HKLF 4

REM  pb3_abs_a.res in P-1
REM R1 =  0.0566 for    2357 Fo > 4sig(Fo)  and  0.0601 for all    2570 data
REM    201 parameters refined using      0 restraints

END

WGHT      0.0355      1.3466

REM Highest difference peak  0.298,  deepest hole -0.283,  1-sigma level  0.064
Q1    1   0.0741  0.2415  0.2775  11.00000  0.05    0.30
Q2    1   0.2906  0.1728  0.2634  11.00000  0.05    0.29
Q3    1   0.8666  0.2308  0.5725  11.00000  0.05    0.24
Q4    1   0.5446  0.3526  0.5748  11.00000  0.05    0.24
Q5    1   0.9113  0.3268  0.4777  11.00000  0.05    0.23
Q6    1   0.1476  0.4024  0.3221  11.00000  0.05    0.23
Q7    1   0.0323  0.1871  0.2403  11.00000  0.05    0.23
Q8    1   0.7826  0.0808  0.1716  11.00000  0.05    0.22
Q9    1   0.2517  0.5293  0.6477  11.00000  0.05    0.22
Q10   1   0.8228  0.2461  0.4809  11.00000  0.05    0.21
Q11   1   0.0000  0.5000  0.5000  10.50000  0.05    0.21
Q12   1   0.1312  0.4604  0.4010  11.00000  0.05    0.21
Q13   1   0.5580  0.4756  0.4632  11.00000  0.05    0.21
Q14   1   0.5292  0.3779  0.3593  11.00000  0.05    0.20
Q15   1   0.2266  0.2013  0.1680  11.00000  0.05    0.20
Q16   1   0.5830  0.0930  0.2193  11.00000  0.05    0.19
Q17   1   0.2522  0.2383  0.1143  11.00000  0.05    0.19
Q18   1   0.5405  0.0134  0.4363  11.00000  0.05    0.19
Q19   1   0.6292  0.3285  0.6605  11.00000  0.05    0.19
Q20   1   0.5404  0.0394  0.2170  11.00000  0.05    0.19
;
_shelx_res_checksum              38797
_shelx_hkl_file
;
   0   0  -1 2725.42   17.13
   0   0  -2    0.17    6.49
   0   0   2    1.69    4.08
   0   0  -2   -4.60    8.68
   0   0   2   -0.14    3.02
   0   0  -2   -2.16    6.63
   0   0  -3  271.15    9.37
   0   0   3  267.47    5.63
   0   0  -3  275.01    6.43
   0   0   3  261.03    5.07
   0   0  -3  268.82    6.76
   0   0  -4 2157.47   19.60
   0   0  -4 2173.19   15.22
   0   0  -4 2205.93   15.00
   0   0   5  748.08    8.98
   0   0  -5  735.47    9.62
   0   0  -5  729.04    9.04
   0   0  -6    1.36    2.97
   0   0  -6    0.80    2.55
   0   0   7  468.36    4.66
   0   0  -7  466.78    6.79
   0   0   7  461.38    4.69
   0   0  -7  463.87    5.46
   0   0   7  465.45    4.91
   0   0  -7  455.69    5.18
   0   0   8    4.85    2.50
   0   0  -8    6.71    4.10
   0   0  -8    5.85    3.08
   0   0  -8    5.74    3.96
   0   0   8    6.49    2.63
   0   0  -8    5.13    3.24
   0   0   9   35.68    3.33
   0   0  -9   36.32    2.69
   0   0  -9   37.32    3.11
   0   0   9   35.21    3.58
   0   0  -9   35.35    3.35
   0   0  10   59.91    3.11
   0   0 -10   58.94    4.24
   0   0  10   60.88    3.11
   0   0 -10   58.17    3.55
   0   0  11   69.53    3.44
   0   0 -11   69.06    3.38
   0   0  11   73.25    3.80
   0  -1  11   45.30    2.77
   0   1 -11   46.69    3.33
   0  -1  11   44.69    2.80
   0   1 -11   47.22    3.30
   0  -1  10   29.06    2.52
   0   1 -10   29.47    4.19
   0  -1  10   30.80    3.22
   0   1 -10   29.64    3.24
   0  -1   9    1.00    3.19
   0   1  -9   -0.69    3.08
   0  -1   9   -0.33    3.24
   0   1  -9   -0.75    4.33
   0  -1   8  112.45    4.57
   0   1  -8  109.15    3.08
   0   1  -8  117.00    4.99
   0  -1   8  111.26    5.41
   0   1  -8  111.04    4.91
   0  -1   7   73.83    2.61
   0   1  -7   71.95    2.52
   0   1  -7   75.30    3.22
   0  -1   7   74.00    2.69
   0   1  -7   74.19    4.35
   0  -1   6  687.17    5.35
   0   1  -6  684.09    7.76
   0   1  -6  688.09    6.16
   0  -1   6  674.75    5.71
   0   1  -6  676.19    6.13
   0  -1   5   10.81    2.88
   0   1  -5    3.47    2.66
   0   1  -5    3.44    3.05
   0   1  -4    2.50    4.05
   0  -1   4    3.41    3.27
   0   1  -4    3.30    3.49
   0   1  -4    3.19    3.91
   0   1  -3 1191.38   14.83
   0  -1   3 1202.39   11.09
   0   1  -3 1209.40   10.92
   0   1  -3 1227.09   10.79
   0   1  -2 3954.12   27.25
   0   1  -2 3983.56   21.71
   0   1  -2 3977.19   21.43
   0   1  -1 7049.31   38.54
   0   1   0 3140.44   24.79
   0   1   0 3229.38   18.05
   0   1   1   82.29    3.83
   0   1   1   80.51    3.85
   0  -1  -3    5.68    6.96
   0   1   3    9.62    3.19
   0  -1  -3    8.04    6.21
   0   1   3    8.12    3.33
   0  -1  -3   12.86    7.71
   0  -1  -4  858.82   12.45
   0   1   4  838.02   12.25
   0  -1  -4  857.51    9.84
   0   1   4  849.22    8.51
   0  -1  -4  852.58    9.93
   0  -1  -5   82.79    4.38
   0   1   5   75.47    3.08
   0  -1  -5   78.63    5.35
   0  -1  -6  635.35    7.76
   0  -1  -6  631.64    8.01
   0  -1  -7  331.73    6.43
   0   1   7  313.99    6.13
   0  -1  -7  321.75    4.57
   0   1   7  326.66    4.19
   0  -1  -7  328.63    5.79
   0  -1  -8  747.20    8.48
   0   1   8  747.44    5.99
   0  -1  -8  732.50    6.07
   0  -1  -9    1.58    3.44
   0  -1  -9   -0.67    2.97
   0  -1 -10  908.33   12.59
   0  -1 -10  899.38   12.31
   0   1  11  254.10    4.96
   0  -1 -11  249.61    5.32
   0  -1 -11  238.30    4.82
   0   2 -10   91.99    3.52
   0  -2  10   88.33    3.24
   0   2 -10   94.65    4.38
   0  -2   9   35.46    3.16
   0  -2   9   36.13    3.52
   0   2  -9   34.88    3.66
   0  -2   8   47.63    2.91
   0   2  -8   46.83    2.97
   0  -2   8   47.96    2.77
   0   2  -8   52.46    4.24
   0  -2   7   96.07    3.38
   0   2  -7   96.54    3.27
   0  -2   7   96.82    2.99
   0   2  -7  100.70    3.88
   0  -2   6  192.25    3.58
   0   2  -6  191.33    3.30
   0   2  -6  197.79    4.02
   0  -2   6  191.05    3.47
   0   2  -6  198.82    4.21
   0  -2   5 1128.33   10.04
   0   2  -5 1116.22    9.70
   0   2  -4  369.88    8.57
   0  -2   4  373.24    6.32
   0   2  -4  365.81    6.40
   0   2  -4  381.50    6.49
   0   2  -3   93.52    6.24
   0  -2   3   92.94    4.82
   0   2  -3   93.10    4.27
   0   2  -3   95.57    4.60
   0   2  -2  228.71    7.37
   0  -2   2  222.55    5.35
   0   2  -2  226.15    5.07
   0   2  -2  232.84    5.60
   0   2  -1  379.42    9.34
   0   2  -1  397.11    6.35
   0   2  -1  392.40    5.82
   0   2  -1  392.31    7.13
   0  -2   0 5439.50   33.82
   0   2   0 5471.19   25.78
   0   2   1  797.93    8.51
   0   2   1  779.33    8.12
   0   2   1  785.76    8.21
   0   2   1  793.36    8.29
   0   2   2  700.15    8.37
   0  -2  -3  533.99    7.87
   0   2   3  544.52    7.07
   0  -2  -3  539.20    8.76
   0  -2  -4  315.90    9.32
   0   2   4  321.56    5.66
   0  -2  -4  313.32    6.43
   0  -2  -5   27.64    4.44
   0   2   5   30.17    3.41
   0  -2  -5   31.75    5.18
   0  -2  -6   14.61    3.83
   0   2   6   12.01    2.91
   0  -2  -6   15.14    4.33
   0   2   7  139.01    3.38
   0  -2  -7  139.60    5.60
   0   2   7  135.96    3.80
   0   2   7  136.57    2.91
   0  -2  -7  139.40    4.49
   0   2   8   78.16    2.86
   0  -2  -8   77.10    3.16
   0  -2  -8   80.02    4.16
   0   2   8   80.32    3.13
   0  -2  -8   75.94    3.52
   0   2   8   79.16    2.86
   0  -2  -8   74.22    4.46
   0   2   9  796.66    9.43
   0   2   9  791.50    9.07
   0  -2  -9  784.93    9.34
   0   2   9  794.86    9.04
   0   2  10   45.66    3.91
   0  -2 -10   47.49    3.27
   0  -2 -10   43.78    3.72
   0   2  10   45.61    3.55
   0   2  11    0.42    2.44
   0  -2 -11    1.41    3.05
   0   2  11   -0.28    2.97
   0   2  12    6.90    2.91
   0  -2 -12    6.99    2.58
   0   2  12    6.79    2.38
   0   3  -9    5.49    3.49
   0   3  -9    5.63    3.58
   0   3  -8    6.04    2.55
   0   3  -8    5.24    3.13
   0   3  -7    2.00    3.33
   0   3  -7    1.16    3.94
   0   3  -6    6.65    3.05
   0   3  -6    7.46    3.13
   0   3  -6    7.26    3.52
   0   3  -6    9.95    3.58
   0  -3   5   10.76    2.83
   0   3  -5    8.35    2.97
   0   3  -5   10.01    2.02
   0   3  -5   10.26    2.36
   0   3  -5    9.73    2.50
   0  -3   4   55.64    4.55
   0   3  -4   58.08    3.63
   0  -3   3  341.96    7.07
   0   3  -3  335.06    5.63
   0   3  -2 1245.83   16.25
   0  -3   2 1249.02   13.31
   0   3  -2 1212.43   12.23
   0   3  -2 1219.91   12.06
   0   3  -1  922.42   13.45
   0   3  -1  894.19    8.98
   0   3  -1  910.86    9.20
   0   3  -1  904.20    8.65
   0   3  -1  925.83    9.07
   0   3   0  489.99    6.63
   0   3   0  502.66    6.65
   0   3   0  501.97    6.63
   0   3   0  501.69    7.29
   0  -3  -1  738.38   12.03
   0   3   1  734.36    8.35
   0   3   1  733.89    7.96
   0   3   1  731.53    8.10
   0   3   1  730.42    8.51
   0   3   2    7.93    2.38
   0   3   2    7.21    3.63
   0   3   2    5.30    3.94
   0   3   2    6.16    3.69
   0  -3  -3   -1.86    2.44
   0  -3  -3    4.44    3.13
   0  -3  -4 2117.77   21.88
   0  -3  -4 2170.06   18.58
   0   3   4 2191.93   18.10
   0  -3  -4 2133.32   18.96
   0  -3  -5  901.74   13.50
   0  -3  -5  939.28   10.73
   0   3   5  909.69    9.98
   0  -3  -5  927.88   11.23
   0   3   6  483.45    6.49
   0  -3  -6  503.68    7.62
   0   3   7    0.30    1.69
   0   3   7    0.44    2.50
   0   3   7   -0.17    1.75
   0  -3  -7    1.61    4.71
   0   3   8    0.53    2.08
   0  -3  -8   -1.05    4.13
   0   3   8   -0.50    2.99
   0  -3  -8   -0.78    3.88
   0   3   9   57.97    2.91
   0  -3  -9   58.42    3.19
   0   3   9   58.53    3.33
   0   3   9   58.56    3.69
   0   3  10  180.38    4.91
   0   3  10  178.74    4.35
   0   3  10  175.33    4.16
   0   3  11   89.86    3.16
   0  -3 -11   88.00    3.47
   0   3  11   89.66    4.10
   0   3  12   42.25    2.55
   0  -3 -12   39.40    3.35
   0   3  12   40.40    2.74
   0   4  -9   13.56    3.16
   0   4  -9   13.81    2.94
   0   4  -8    7.40    3.27
   0   4  -8    6.40    3.58
   0   4  -8    7.32    4.19
   0   4  -7    0.50    2.77
   0   4  -7    0.28    2.97
   0   4  -7    1.11    3.58
   0   4  -6    1.94    3.52
   0   4  -6    2.77    2.52
   0   4  -6    2.00    2.77
   0   4  -6    2.66    3.24
   0  -4   5   13.06    4.16
   0   4  -5   13.59    2.47
   0   4  -5   13.31    2.97
   0   4  -5   12.81    3.33
   0   4  -5   15.94    2.99
   0  -4   4   60.55    3.69
   0   4  -4   61.83    3.44
   0   4  -4   60.22    3.33
   0   4  -4   60.22    3.16
   0   4  -4   60.66    2.83
   0  -4   3    4.49    3.91
   0   4  -3    2.99    3.16
   0   4  -2  140.21    3.94
   0  -4   1  499.64    8.87
   0   4  -1  501.80    8.15
   0  -4   0   29.89    3.35
   0   4   0   29.22    2.94
   0   4   0   29.47    3.05
   0   4   0   29.67    4.02
   0   4   1  734.80    8.12
   0   4   1  734.75    8.12
   0   4   1  733.64    8.07
   0   4   1  736.83    8.48
   0   4   2 1642.31   12.12
   0   4   2 1659.41   12.34
   0   4   2 1626.47   11.78
   0  -4  -3  693.82   11.45
   0  -4  -3  692.83    9.29
   0   4   3  684.76    8.93
   0   4   3  687.78    8.37
   0  -4  -4 2388.78   23.87
   0  -4  -4 2472.45   20.60
   0  -4  -4 2381.77   21.10
   0  -4  -5  303.45    6.85
   0   4   5  304.76    5.68
   0  -4  -5  305.45    6.29
   0  -4  -6  266.74    7.07
   0   4   6  271.54    5.49
   0  -4  -6  275.01    6.60
   0   4   7  126.15    3.19
   0   4   7  113.62    2.99
   0  -4  -7  130.06    6.13
   0   4   7  124.54    4.08
   0   4   7  120.55    4.08
   0  -4  -7  126.32    5.07
   0   4   8  161.19    3.16
   0   4   8  164.94    4.16
   0  -4  -8  157.45    5.35
   0   4   8  157.73    3.96
   0   4   8  159.00    3.38
   0  -4  -8  159.56    6.16
   0   4   9  333.45    5.41
   0   4   9  316.23    5.27
   0   4   9  326.30    5.10
   0   4  10   -1.75    2.94
   0  -4 -10    1.19    3.02
   0   4  10    0.06    2.61
   0   4  11  198.98    4.35
   0  -4 -11  200.15    4.55
   0   4  11  198.54    3.88
   0   4  12   10.67    2.66
   0  -4 -12    9.93    2.61
   0   4  12    9.18    2.77
   0   5  -8    1.05    2.22
   0   5  -8   -0.03    2.94
   0   5  -8   -0.53    3.47
   0   5  -7   50.43    2.94
   0   5  -7   49.21    2.94
   0   5  -7   49.60    3.41
   0   5  -6    7.57    3.77
   0   5  -6    6.32    2.77
   0   5  -6    5.93    3.27
   0   5  -5   39.12    3.13
   0   5  -5   41.48    3.05
   0   5  -5   38.62    3.19
   0   5  -5   39.84    3.72
   0  -5   4    4.41    3.83
   0   5  -4    3.69    2.80
   0   5  -4    3.91    2.50
   0   5  -4    3.55    3.16
   0   5  -4    2.72    3.58
   0  -5   3   63.68    5.05
   0   5  -3   60.75    2.58
   0   5  -3   63.38    2.83
   0  -5   2   84.95    3.88
   0   5  -2   84.51    3.35
   0   5  -2   87.28    3.19
   0   5  -2   87.75    3.35
   0  -5   1  198.21    5.49
   0   5  -1  204.45    4.44
   0  -5   0  571.86    7.29
   0   5   0  558.94    7.18
   0  -5  -1  585.61    8.71
   0   5   1  594.43    7.79
   0   5   1  595.51   14.28
   0  -5  -2  864.06    9.87
   0   5   2  885.79    9.90
   0   5   2  902.01   10.15
   0   5   2  889.45   10.06
   0  -5  -3  685.98    8.73
   0   5   3  700.15    8.48
   0   5   3  690.66    8.32
   0  -5  -4    3.22    2.83
   0   5   4    2.91    3.96
   0  -5  -5   14.50    4.30
   0   5   5   16.83    2.99
   0  -5  -5   16.80    5.38
   0   5   6  270.13    4.13
   0   5   6  267.94    4.21
   0  -5  -6  265.08    5.82
   0   5   6  264.25    3.88
   0   5   6  276.34    5.99
   0  -5  -6  268.02    6.71
   0   5   7   31.05    2.61
   0   5   7   28.56    3.11
   0  -5  -7   30.83    4.96
   0   5   7   29.83    3.27
   0   5   7   30.39    3.91
   0  -5  -7   30.11    4.33
   0   5   8  126.79    4.38
   0   5   8  115.78    3.96
   0  -5  -8  121.52    4.69
   0   5   8  123.43    3.47
   0   5   8  121.52    4.80
   0  -5  -8  120.19    6.24
   0   5   9   33.66    4.08
   0   5  10  283.38    5.99
   0  -5 -11    0.44    2.97
   0   6  -7  180.85    4.05
   0   6  -7  179.33    4.30
   0   6  -7  182.99    4.10
   0   6  -6   18.69    3.52
   0   6  -6   18.10    3.47
   0   6  -6   18.88    3.88
   0   6  -5   29.86    3.58
   0   6  -5   29.78    2.69
   0   6  -5   30.69    3.05
   0   6  -4  237.88    5.32
   0   6  -4  246.59    4.91
   0   6  -4  232.64    4.08
   0   6  -4  237.88    4.52
   0  -6   2    6.46    3.30
   0   6  -2    8.35    3.83
   0   6  -2    8.87    3.05
   0  -6   1   10.59    3.80
   0   6  -1    9.73    2.25
   0   6  -1   10.70    3.16
   0   6  -1   10.34    2.38
   0   6   0  116.86    2.66
   0  -6   0  112.92    3.99
   0   6   0  111.84    3.44
   0   6   0  113.15    3.63
   0   6   0  116.11    3.74
   0  -6  -1  126.21    4.82
   0   6   1  131.67    4.71
   0   6   2  560.41    6.99
   0   6   2  554.28    6.74
   0   6   3   34.10    3.58
   0   6   3   34.05    4.10
   0   6   4   15.50    2.86
   0   6   4   17.11    4.21
   0  -6  -4   13.81    5.41
   0   6   5  412.11    4.96
   0   6   5  417.65    5.05
   0  -6  -5  403.85    6.74
   0   6   5  418.18    6.82
   0   6   6  257.12    5.07
   0  -6  -6  260.15    6.65
   0   6   6  261.75    5.13
   0   6   6  264.89    6.27
   0  -6  -6  267.94    6.82
   0   6   7  822.97    6.24
   0   6   7  809.47    6.18
   0  -6  -7  784.60    9.65
   0   6   7  801.20    6.76
   0   6   7  808.27    8.26
   0  -6  -7  801.68    9.43
   0   6   8  106.58    4.52
   0   6   8   95.37    4.19
   0   6   8   99.73    3.24
   0   6   9    1.89    3.02
   0   6   9    3.27    2.91
   0   6   9    2.86    3.49
   0   6  10   -0.42    2.99
   0  -6 -11  249.14    5.30
   0   6  11  257.26    4.94
   0  -6 -12    2.52    2.44
   0   7  -6   13.20    2.30
   0   7  -5   26.70    3.05
   0   7  -3   48.52    3.33
   0   7  -2  466.92    5.85
   0   7  -2  464.84    6.07
   0   7  -1   -0.47    2.61
   0   7  -1   -0.58    2.61
   0   7   0  185.65    3.19
   0  -7   0  181.91    5.43
   0   7   0  187.39    3.72
   0   7   0  182.68    3.52
   0   7   1   13.42    2.86
   0   7   1   14.25    2.63
   0   7   1   13.59    3.80
   0   7   2   77.46    2.72
   0   7   2   74.19    3.41
   0   7   2   77.66    3.60
   0   7   3   20.43    2.25
   0   7   3   20.52    2.74
   0   7   3   21.10    2.02
   0   7   3   20.52    2.91
   0   7   3   20.74    2.99
   0   7   4  570.09    8.35
   0   7   4  566.87    8.18
   0   7   4  564.18    9.32
   0  -7  -4  558.08   10.20
   0   7   5   60.33    2.83
   0   7   5   61.22    3.74
   0   7   5   59.61    4.52
   0  -7  -5   62.05    5.35
   0   7   6  947.51    7.32
   0   7   6  949.51    6.79
   0   7   6  941.58    8.84
   0   7   7    3.08    2.77
   0   7   8  152.88    4.94
   0   7   8  150.16    4.66
   0   7   8  143.98    4.10
   0   7   9    8.79    3.05
   0   7   9    8.48    3.11
   0   7   9    8.43    2.63
   0   7  10   11.87    2.66
   0   7  10   11.95    3.49
   0   8  -3   12.73    2.63
   0   8  -2    3.94    3.80
   0   8  -2    2.47    3.47
   0   8  -1  101.78    3.66
   0   8  -1   98.23    3.55
   0   8   0  225.27    4.08
   0   8   0  222.52    4.77
   0   8   1  100.37    3.13
   0   8   1   99.84    3.83
   0   8   2  683.90    7.98
   0   8   2  672.67    8.12
   0   8   3  152.99    3.58
   0   8   3  150.74    3.99
   0   8   4  104.03    3.19
   0   8   4  104.00    3.22
   0   8   5   30.05    2.80
   0   8   5   30.33    2.91
   0   8   6 2572.79   16.72
   0   8   6 2591.06   11.87
   0   8   7  599.45    6.52
   0   8   8   29.78    3.24
   0   8   9    3.44    4.27
   0   8   9    3.58    2.91
   0   8  10   71.53    3.83
   0   8  10   66.43    3.30
   0  -8 -11   60.88    3.08
   0   9  -3    3.38    2.77
   0   9  -2    7.46    2.58
   0   9  -1   11.31    2.63
   0   9   0   33.44    3.63
   0   9   1   68.48    2.99
   0   9   2  144.78    4.16
   0   9   2  135.49    4.19
   0   9   3  139.85    3.77
   0   9   3  130.25    4.02
   0   9   4    0.03    2.50
   0   9   4   -0.19    2.44
   0   9   5  187.20    4.94
   0   9   5  184.98    4.60
   0   9   6  874.62   12.09
   0   9   6  893.34   12.20
   0   9   7  317.01    4.63
   0   9   7  323.80    4.71
   0   9   9  156.43    3.74
   0   9  10  204.89    3.94
   0  10  -1    2.58    2.55
   0  10   0  145.53    3.33
   0  10   1   92.52    3.02
   0  10   2   18.33    2.91
   0  10   3   77.05    3.05
   0  10   4   31.61    3.24
   0  10   5    6.02    3.38
   0  10   5    4.82    3.05
   0  10   6   -1.11    2.47
   0  10   6    1.03    3.47
   0  10   7   28.42    2.83
   0  10   7   29.00    3.66
   0  10   8    3.58    3.27
   0  10   8    3.66    2.61
   0  11   5  193.66    4.10
   0  11   6   12.37    2.83
  -1  10   7    1.41    2.58
  -1  10   7    2.38    3.22
  -1  10   6   33.33    3.16
  -1  10   6   39.65    3.49
  -1  10   5   87.25    3.19
  -1   9   9    4.46    3.05
  -1   9   8   19.88    3.69
  -1   9   7   18.10    2.77
  -1   9   7   18.16    3.72
  -1   9   6  127.84    3.66
  -1   9   6  129.73    4.19
  -1   9   5  136.05    4.27
  -1   9   5  136.60    3.80
  -1   9   4   18.30    2.83
  -1   9   4   20.57    2.83
  -1   9   0  431.13    6.60
  -1   9  -1    1.28    2.27
  -1   9  -2   48.85    3.05
  -1   8  10    8.54    2.72
  -1   8   9   86.56    3.96
  -1   8   8  126.18    3.69
  -1   8   8  133.08    4.02
  -1   8   7   69.78    3.91
  -1   8   6   23.95    3.05
  -1   8   6   23.68    3.85
  -1   8   5   82.01    3.11
  -1   8   5   81.40    4.02
  -1   8   4  183.68    4.44
  -1   8   4  188.89    4.74
  -1   8   3   -1.19    2.86
  -1   8   3    1.00    2.77
  -1   8   1  401.32    5.10
  -1   8   0   58.69    2.94
  -1   8   0   53.68    2.97
  -1   8  -1  232.45    4.82
  -1   8  -1  228.23    5.30
  -1   8  -2    7.93    3.69
  -1   8  -2    8.01    2.52
  -1   8  -3   53.54    3.11
  -1   8  -3   54.65    2.94
  -1   8  -4    2.52    2.30
   1  -7 -10  106.85    3.58
  -1   7   9  116.83    4.44
  -1   7   8   43.81    3.94
  -1   7   7  154.90    3.85
  -1   7   7  162.19    3.94
  -1   7   6   57.11    3.83
  -1   7   5  309.22    4.99
  -1   7   5  323.55    6.04
  -1   7   4  208.85    4.10
  -1   7   4  207.86    4.24
  -1   7   4  201.09    5.10
   1  -7  -4  194.99    5.88
  -1   7   3  107.05    2.97
  -1   7   3  106.13    3.38
  -1   7   3  108.13    4.13
   1  -7  -3  107.55    4.96
  -1   7   2  160.45    3.72
   1  -7  -2  151.16    6.18
  -1   7   1  340.36    5.02
  -1   7   0   11.06    2.69
  -1   7   0   12.34    2.25
  -1   7  -1    2.02    2.94
  -1   7  -1    0.89    2.38
  -1   7  -2   54.67    3.27
  -1   7  -2   52.98    3.02
  -1   7  -3    5.71    3.60
  -1   7  -3    5.68    3.44
  -1   7  -4  138.63    3.72
  -1   7  -5   43.06    3.47
   1  -6 -11   87.47    3.55
   1  -6 -11   88.39    3.16
   1  -6 -10   89.16    4.27
  -1   6   9    1.75    3.55
  -1   6   9    2.30    2.58
  -1   6   8 1034.84    8.21
  -1   6   8 1029.58    7.13
  -1   6   7 1549.54   15.61
  -1   6   7 1621.29   21.60
  -1   6   6 1209.49   10.18
   1  -6  -6 1195.93   11.92
  -1   6   5   53.12    2.72
   1  -6  -5   48.46    5.18
  -1   6   4    2.99    2.27
  -1   6   4    3.60    2.27
  -1   6   4    2.91    3.05
   1  -6  -4    1.11    3.83
  -1   6   3 2053.36    9.51
  -1   6   3 2086.27   25.70
  -1   6   3 2049.98   13.25
   1  -6  -3 2044.65   14.42
  -1   6   2  187.03    3.49
  -1   6   2  189.47    5.18
   1  -6  -2  185.59    6.07
   1  -6  -1  474.93    7.37
  -1   6   1  476.99    6.21
   1  -6   0   38.84    3.99
  -1   6   0   37.87    2.30
  -1   6   0   37.26    2.86
   1  -6   1   -0.30    3.08
  -1   6  -1   -0.17    2.58
  -1   6  -1    0.53    2.11
   1  -6   2    2.63    4.46
  -1   6  -2    2.36    2.61
  -1   6  -2    3.77    3.49
  -1   6  -3    7.26    3.91
  -1   6  -3    6.35    2.77
  -1   6  -4  219.00    4.19
  -1   6  -5  236.55    5.41
  -1   6  -5  233.06    4.24
  -1   6  -6  107.07    4.08
  -1   6  -7   48.69    3.33
   1  -5 -11   11.53    2.66
   1  -5 -11   13.00    3.52
   1  -5 -10   54.37    4.02
   1  -5 -10   52.62    3.91
  -1   5   9   23.68    2.97
  -1   5   8   54.09    4.38
  -1   5   8   42.92    3.58
  -1   5   8   52.12    4.08
  -1   5   7  101.20    4.69
   1  -5  -7  106.58    4.33
  -1   5   7  109.46    3.11
  -1   5   7  110.85    4.49
   1  -5  -7  107.35    6.38
  -1   5   6  548.13    8.35
  -1   5   6  542.94    8.10
   1  -5  -6  531.27    9.37
  -1   5   6  528.08    7.68
  -1   5   6  549.99    9.57
  -1   5   5  517.94    5.41
  -1   5   5  519.32    5.05
   1  -5  -5  509.56    7.82
  -1   5   5  519.71    6.74
   1  -5  -5  524.45    8.62
  -1   5   4  780.38    5.91
  -1   5   4  796.80    8.54
   1  -5  -4  807.94    9.93
  -1   5   3   27.23    3.24
   1  -5  -3   30.05    5.35
  -1   5   2  120.58    4.88
   1  -5  -2  105.38    4.41
  -1   5   1  924.36    8.43
  -1   5   1  938.69    8.57
  -1   5   1  917.79    8.18
  -1   5   0  134.58    4.10
  -1   5   0  132.91    3.66
   1  -5   1  481.56    6.82
  -1   5  -1  476.15    4.96
   1  -5   2   60.64    4.08
  -1   5  -2   56.98    3.05
  -1   5  -2   57.92    2.72
  -1   5  -3  278.39    4.69
  -1   5  -4 1593.48   16.11
  -1   5  -4 1594.45   16.88
  -1   5  -4 1593.01   16.52
  -1   5  -5   50.54    3.41
  -1   5  -5   48.60    4.10
  -1   5  -6    4.33    2.94
  -1   5  -6    4.82    3.85
  -1   5  -6    4.60    2.36
  -1   5  -6    4.46    3.38
  -1   5  -7  290.26    5.91
  -1   5  -7  279.75    5.46
  -1   5  -7  284.82    5.93
  -1   5  -8  202.64    3.94
  -1   5  -8  200.65    4.69
  -1   4  11  181.99    4.02
   1  -4 -11  174.70    3.96
  -1   4  10   78.88    3.72
   1  -4 -10   74.47    3.22
   1  -4 -10   77.13    3.77
  -1   4   9  113.06    3.94
  -1   4   9  109.99    4.24
  -1   4   8  597.04    7.32
  -1   4   8  609.37    7.85
  -1   4   7  873.26    6.49
  -1   4   7  893.25    6.52
   1  -4  -7  872.90    9.37
  -1   4   7  879.83    6.82
  -1   4   7  874.32    8.90
   1  -4  -7  877.20    9.59
  -1   4   6   -0.55    2.72
   1  -4  -6    1.64    3.60
  -1   4   6   -0.17    2.33
  -1   4   6    1.25    3.47
   1  -4  -6    0.03    5.66
   1  -4  -5    8.93    4.55
  -1   4   5   10.56    2.94
   1  -4  -4  147.22    4.38
  -1   4   4  158.64    4.44
   1  -4  -4  155.73    5.21
   1  -4  -3 1093.10   11.98
  -1   4   3 1123.40   11.48
   1  -4  -3 1149.46   13.31
  -1   4   2   42.42    2.94
   1  -4  -2   37.37    2.91
  -1   4   2   39.62    3.55
   1  -4  -2   39.48    3.80
  -1   4   1   41.62    2.86
  -1   4   1   43.39    3.91
  -1   4   1   40.92    3.33
  -1   4   0   62.55    9.51
  -1   4   0   59.75    5.32
  -1   4   0   58.08    7.71
  -1   4  -1   93.05    3.85
  -1   4  -1   92.66    3.52
  -1   4  -2  261.73    5.66
   1  -4   3   77.69    3.94
  -1   4  -3   77.24    2.61
   1  -4   4   87.31    4.44
  -1   4  -4   83.79    2.97
  -1   4  -4   85.39    2.91
  -1   4  -4   84.06    2.99
   1  -4   5   11.87    3.08
  -1   4  -5   10.48    3.05
  -1   4  -5    9.54    2.22
  -1   4  -5   11.34    3.22
  -1   4  -6  382.80    5.52
  -1   4  -6  391.04    5.82
  -1   4  -6  391.01    5.16
  -1   4  -6  397.80    5.71
  -1   4  -7   68.26    4.08
  -1   4  -7   73.42    4.13
  -1   4  -7   70.06    3.27
  -1   4  -7   70.84    3.83
  -1   4  -8   -0.69    3.63
  -1   4  -8    0.97    2.55
  -1   4  -8    1.75    4.19
  -1   4  -9   46.58    2.99
  -1   4  -9   44.00    3.16
  -1   4  -9   46.02    3.19
  -1   3  11  349.95    4.91
   1  -3 -11  339.58    4.52
   1  -3 -11  335.31    4.66
  -1   3  11  346.84    4.82
  -1   3  10    8.40    2.86
   1  -3 -10    7.76    3.19
  -1   3  10    8.43    3.47
  -1   3   9  564.87    5.27
   1  -3  -9  568.01    6.60
  -1   3   9  564.54    5.55
  -1   3   9  572.44    5.82
  -1   3   8  114.34    3.22
   1  -3  -8  109.43    5.79
  -1   3   8  109.96    4.44
  -1   3   8  113.26    3.38
   1  -3  -8  111.93    4.57
  -1   3   7   17.69    2.13
   1  -3  -7   20.82    5.10
  -1   3   7   18.35    3.52
  -1   3   7   16.58    2.00
   1  -3  -7   18.10    4.13
  -1   3   6   55.37    2.61
   1  -3  -6   54.31    4.94
  -1   3   6   52.79    3.13
  -1   3   6   54.59    3.55
   1  -3  -6   54.95    4.44
   1  -3  -5  432.51    6.90
  -1   3   5  426.50    6.04
   1  -3  -5  421.31    8.15
   1  -3  -4   94.93    4.27
  -1   3   4   93.85    4.46
   1  -3  -3  474.91    7.68
  -1   3   3  474.27    7.04
   1  -3  -3  483.00    8.48
  -1   3   2  546.80    6.76
   1  -3  -2  557.50    7.93
  -1   3   2  555.89    7.82
   1  -3  -2  563.16    8.40
  -1   3   1  109.82    3.52
   1  -3  -1  107.32    4.10
  -1   3   1  111.01    4.94
  -1   3   1  108.38    4.13
   1  -3   0  617.61   10.62
  -1   3   0  621.21    7.74
  -1   3   0  613.39    7.60
  -1   3   0  621.05    7.35
   1  -3   1  283.19    7.35
  -1   3  -1  299.43    6.29
  -1   3  -1  285.21    5.35
  -1   3  -2  274.37    4.82
  -1   3  -3  113.81    3.96
   1  -3   4  122.19    5.32
   1  -3   5    6.71    3.96
  -1   3  -5    6.68    2.05
  -1   3  -5    8.43    3.11
  -1   3  -5    6.65    2.52
  -1   3  -5    5.41    3.44
   1  -3   6   23.23    4.35
  -1   3  -6   24.87    2.61
  -1   3  -6   25.34    2.61
  -1   3  -6   26.31    2.61
  -1   3  -6   25.23    3.66
  -1   3  -7  192.83    4.41
  -1   3  -7  204.06    4.02
  -1   3  -7  200.15    4.08
  -1   3  -7  203.50    5.38
  -1   3  -8  112.45    4.52
  -1   3  -8  113.95    4.77
  -1   3  -8  113.98    4.41
  -1   3  -9    6.18    2.91
  -1   3  -9    5.13    2.77
  -1   3 -10   35.93    3.16
  -1   2  11  169.76    4.05
   1  -2 -11  170.09    4.35
  -1   2  11  170.29    4.21
  -1   2  10  368.33    4.63
   1  -2 -10  368.52    4.91
   1  -2 -10  371.44    5.07
  -1   2  10  370.27    5.24
  -1   2   9  145.64    3.69
   1  -2  -9  126.57    4.19
   1  -2  -9  134.11    4.19
  -1   2   9  147.33    4.49
  -1   2   8  119.25    3.44
   1  -2  -8  118.75    3.74
   1  -2  -8  111.84    4.69
  -1   2   8  114.26    3.47
   1  -2  -8  115.56    4.52
  -1   2   7  383.77    4.60
  -1   2   7  395.67    4.80
   1  -2  -7  392.78    6.54
   1  -2  -6  440.89    6.79
   1  -2  -6  443.05    7.15
   1  -2  -5   63.13    3.99
  -1   2   5   64.93    3.41
   1  -2  -5   67.07    5.27
  -1   2   4 3270.11   24.51
   1  -2  -4 3195.94   25.76
  -1   2   3  284.38    4.94
   1  -2  -3  284.32    5.71
  -1   2   3  286.37    5.21
  -1   2   2 1248.11   10.12
   1  -2  -2 1262.75   11.20
   1  -2  -2 1286.34   12.17
  -1   2   1   90.11    6.40
   1  -2  -1   94.40    4.52
  -1   2   1   93.77   25.51
   1  -2   0  632.66   11.48
  -1   2   0  669.68    7.76
  -1   2   0  654.54    7.46
   1  -2   1 1717.19   18.88
  -1   2  -1 1738.84   12.61
  -1   2  -1 1605.24   60.52
  -1   2  -1 1777.13   12.95
   1  -2   2  448.82    9.12
  -1   2  -2  476.96    6.54
  -1   2  -3   53.43    5.85
  -1   2  -3   61.25    3.52
  -1   2  -3   57.56    3.02
  -1   2  -4    4.13    3.52
   1  -2   5   53.29    4.38
   1  -2   6   64.74    2.27
   1  -2   6   69.15    3.41
  -1   2  -6   61.25    2.94
  -1   2  -6   68.65    2.63
  -1   2  -6   69.56    2.80
  -1   2  -6   65.99    3.33
   1  -2   7   63.85    3.11
  -1   2  -7   63.96    2.88
  -1   2  -7   67.37    3.63
   1  -2   8   28.28    3.22
  -1   2  -8   26.75    2.72
  -1   2  -8   26.78    3.22
  -1   2  -8   28.34    3.49
   1  -2   9  149.22    3.27
  -1   2  -9  148.52    3.99
  -1   2  -9  153.43    3.96
  -1   2  -9  156.12    4.55
  -1   2 -10  112.79    3.11
  -1   2 -10  114.28    3.55
  -1   2 -10  112.31    4.60
  -1   1  11   10.67    3.16
  -1   1  11    9.37    3.19
   1  -1 -10   76.74    3.30
  -1   1  10   82.95    3.77
   1  -1  -9   87.56    3.08
   1  -1  -9   86.36    3.30
   1  -1  -9   83.43    3.02
  -1   1   9   87.09    3.33
   1  -1  -8  314.29    5.41
   1  -1  -8  319.64    5.41
   1  -1  -8  304.51    5.24
  -1   1   8  311.05    5.38
   1  -1  -8  307.25    6.88
   1  -1  -7   20.16    2.33
   1  -1  -7   18.58    3.55
  -1   1   7   19.57    2.47
  -1   1   7   19.32    2.33
   1  -1  -7   21.49    3.33
   1  -1  -6   20.77    3.41
   1  -1  -6   24.73    3.49
   1  -1  -5  419.79    8.07
  -1   1   4 1069.36   10.98
   1  -1  -4 1089.30   12.20
  -1   1   3  116.03    3.72
   1  -1  -3  108.05    4.52
  -1   1   3  116.89    3.69
   1  -1  -3  105.02    6.43
  -1   1   2  350.20   16.27
   1  -1  -2  346.26    6.71
  -1   1   2  353.39    6.40
  -1   1   1  348.01   15.28
   1  -1  -1  352.00    6.79
   1  -1  -1  338.64   19.44
  -1   1   0 1575.54   11.62
   1  -1   0 1644.38   13.42
  -1   1   0 1624.56   12.28
  -1   1   0 1600.55   11.59
   1  -1   1 1662.05   18.16
  -1   1  -1 1690.49   12.31
   1  -1   2 2481.08   21.99
  -1   1  -2 2455.24   41.37
   1  -1   3  237.38    7.74
  -1   1  -3  242.10    8.98
  -1   1  -3  235.22    4.96
  -1   1  -3  233.31    5.10
  -1   1  -3  238.77    5.10
  -1   1  -4  768.04   13.14
  -1   1  -4  766.35    9.12
  -1   1  -4  773.98    9.45
  -1   1  -4  783.77    9.34
   1  -1   5  342.96    6.27
  -1   1  -6  474.18    4.69
  -1   1  -6  488.38    5.38
  -1   1  -6  478.23    5.13
   1  -1   7  161.92    3.85
  -1   1  -7  166.82    4.08
  -1   1  -7  172.17    4.08
   1  -1   7  166.21    3.91
  -1   1  -7  169.23    4.66
   1  -1   8  137.54    3.13
  -1   1  -8  135.63    3.80
  -1   1  -8  139.87    3.72
   1  -1   8  139.37    3.96
  -1   1  -8  140.26    4.16
   1  -1   9   51.43    2.77
  -1   1  -9   49.10    2.86
   1  -1   9   49.88    3.16
  -1   1  -9   46.55    3.69
   1  -1  10    2.41    3.30
  -1   1 -10    1.69    2.52
   1  -1  10    3.16    3.16
  -1   1 -10    1.25    3.30
   1  -1  11   68.32    2.69
   1  -1  11   69.59    2.88
  -1   1 -11   68.65    3.91
  -1   0  11   54.65    3.11
  -1   0  11   53.65    3.16
  -1   0  10   76.16    3.13
   1   0 -10   77.82    3.35
   1   0 -10   74.00    3.96
  -1   0  10   78.80    3.30
  -1   0   9  397.33    7.10
   1   0  -9  383.50    6.57
   1   0  -9  370.80    6.82
  -1   0   9  377.04    6.82
   1   0  -9  380.03    6.82
  -1   0   8   20.02    3.69
   1   0  -8   19.46    2.47
   1   0  -8   18.41    3.83
   1   0  -8   18.44    2.72
   1   0  -8   18.08    3.72
  -1   0   7  329.99    5.74
   1   0  -7  332.45    5.88
   1   0  -7  329.29    7.79
   1   0  -7  339.69    6.43
   1   0  -7  326.49    5.85
   1   0  -7  330.98    7.21
   1   0  -7  317.09    5.77
  -1   0   6   96.01    2.94
   1   0  -6  101.00    4.27
  -1   0   6   95.96    2.77
   1   0  -6   96.54    3.99
   1   0  -5   54.09    3.74
   1   0  -5   54.67    3.72
  -1   0   4  460.68    6.79
   1   0  -4  444.41    7.29
   1   0  -4  445.30    7.37
  -1   0   3  377.59    5.52
   1   0  -3  363.31    7.13
  -1   0   3  370.77    5.71
   1   0  -3  367.78    6.93
  -1   0   2  597.87    7.46
  -1   0   2  592.10    7.96
  -1   0   1 2049.92   13.67
   1   0  -1 2029.02   14.97
  -1   0   0  359.10    5.91
   1   0   0  357.16    6.49
   1   0   0  367.00    7.62
  -1   0  -1  372.77    5.85
   1   0   1  371.35    6.38
  -1   0  -2 2058.32   20.66
  -1   0  -2 2000.10   13.53
  -1   0  -2 2000.21   14.31
  -1   0  -2 2006.34   14.47
   1   0   3  238.99    8.15
  -1   0  -3  226.96    9.68
  -1   0  -3  235.17    4.88
  -1   0  -3  228.96    5.77
  -1   0  -3  224.13    5.18
  -1   0  -4   15.33    5.85
  -1   0  -4   18.66    3.02
  -1   0  -4   18.77    3.02
  -1   0  -4   18.24    3.05
  -1   0  -5  522.37   10.45
   1   0   5  518.02    7.49
  -1   0  -5  505.57    7.82
  -1   0  -5  520.85    7.54
  -1   0  -6  578.32    7.49
   1   0   7  102.92    2.88
  -1   0  -7   99.01    2.91
   1   0   7  104.58    3.27
  -1   0  -7  103.66    3.11
   1   0   8  146.94    3.24
  -1   0  -8  145.31    3.74
  -1   0  -8  150.58    3.63
   1   0   8  150.66    3.33
  -1   0  -8  148.86    4.57
   1   0   9   45.77    3.69
  -1   0  -9   39.56    3.22
  -1   0  -9   40.48    4.02
   1   0   9   43.53    3.60
  -1   0  -9   43.22    3.77
   1   0  10    0.42    3.47
  -1   0 -10    1.36    3.16
   1   0  10    1.52    3.72
  -1   0 -10    1.94    4.08
  -1   0 -11   22.57    3.60
   1   0  11   22.57    2.88
  -1   0 -11   22.07    2.88
  -1  -1  10   22.21    3.08
   1   1 -10   21.96    2.74
  -1  -1  10   22.57    2.72
   1   1 -10   21.85    3.80
  -1  -1   9    7.57    3.41
   1   1  -9    7.21    3.44
   1   1  -9    6.93    3.88
  -1  -1   9    6.85    2.69
   1   1  -9    6.68    3.19
  -1  -1   8  233.89    6.74
   1   1  -8  238.77    4.24
   1   1  -8  233.64    5.13
  -1  -1   8  242.35    4.19
   1   1  -8  237.58    5.35
  -1  -1   7  265.00    4.49
   1   1  -7  256.90    3.85
   1   1  -7  256.96    5.52
   1   1  -7  255.35    3.99
   1   1  -7  263.72    4.24
  -1  -1   7  256.15    4.33
   1   1  -7  257.84    5.41
  -1  -1   6   37.35    2.55
   1   1  -6   38.45    2.27
   1   1  -6   38.65    4.35
   1   1  -6   38.21    2.80
   1   1  -6   36.82    3.19
  -1  -1   6   38.59    2.50
   1   1  -6   36.96    3.27
   1   1  -6   37.60    2.77
  -1  -1   5  191.44    4.13
   1   1  -5  185.34    4.85
   1   1  -5  193.47    5.66
   1   1  -4  446.21    9.68
  -1  -1   4  434.57    6.74
   1   1  -4  434.79    7.57
   1   1  -4  445.54    7.82
  -1  -1   3  243.40    5.24
   1   1  -3  239.96    6.29
   1   1  -3  239.93    5.46
  -1  -1   2 1242.73   10.92
   1   1  -2 1257.01   11.48
   1   1  -2 1282.32   12.03
  -1  -1   1 1135.57   10.12
   1   1  -1 1138.76   10.95
   1   1   0  640.09    8.01
   1   1   1  606.02   11.34
  -1  -1  -1  595.48    7.26
   1   1   1  584.84    7.62
   1   1   1  614.64    7.46
   1   1   2  891.75   12.86
  -1  -1  -2  881.61   13.89
  -1  -1  -2  882.66    8.59
   1   1   2  867.47    8.84
   1   1   3   76.91    7.24
  -1  -1  -3   72.42    8.93
  -1  -1  -3   70.81    3.55
  -1  -1  -3   77.80    6.52
  -1  -1  -3   77.77    5.30
  -1  -1  -4  138.65    4.08
  -1  -1  -4  148.25    5.38
  -1  -1  -4  147.17    5.13
  -1  -1  -5 1693.82   16.03
   1   1   5 1679.79   14.78
  -1  -1  -5 1670.75   15.30
  -1  -1  -6 1023.78   10.15
  -1  -1  -6  993.20    9.54
  -1  -1  -7  188.50    5.63
  -1  -1  -7  182.40    3.41
   1   1   7  185.26    3.27
  -1  -1  -8   64.43    2.50
  -1  -1  -8   67.57    4.66
   1   1   8   64.49    3.30
  -1  -1  -8   67.23    3.80
   1   1   8   66.37    3.52
  -1  -1  -8   62.30    2.86
  -1  -1  -9   54.37    2.55
  -1  -1  -9   57.17    3.66
   1   1   9   56.53    2.99
  -1  -1  -9   55.53    3.11
   1   1  10  557.80    8.65
  -1  -1 -10  566.07    8.59
   1   1  10  560.69    8.23
  -1  -1 -10  541.45    8.71
   1   1  11   97.57    4.13
  -1  -1 -11   96.04    4.38
   1   1  11   95.82    3.33
   1   1  12   56.20    3.19
  -1  -1 -12   54.01    2.77
   1   1  12   55.03    2.91
   1   2 -10   40.92    2.86
  -1  -2  10   39.51    2.91
   1   2 -10   41.67    3.74
  -1  -2   9   38.90    2.61
   1   2  -9   41.14    4.27
  -1  -2   9   40.92    3.72
   1   2  -9   41.95    3.60
  -1  -2   8  565.32    8.32
   1   2  -8  588.44    9.18
  -1  -2   8  575.41    8.35
   1   2  -8  600.25    9.20
  -1  -2   7  270.49    4.46
   1   2  -7  277.89    5.21
   1   2  -7  270.02    4.91
  -1  -2   7  271.76    4.96
   1   2  -7  278.89    5.43
  -1  -2   6   14.67    2.80
   1   2  -6   13.83    2.55
   1   2  -6   14.47    3.08
   1   2  -6   14.20    2.19
   1   2  -6   13.61    3.66
  -1  -2   6   16.11    2.47
   1   2  -6   13.22    3.41
   1   2  -6   12.75    4.08
  -1  -2   5  620.93    7.54
   1   2  -5  614.72    7.76
   1   2  -5  614.17    5.63
   1   2  -5  619.74    7.79
   1   2  -5  611.79    6.40
   1   2  -4  658.42   11.26
  -1  -2   4  666.15    8.73
   1   2  -4  663.88    8.98
   1   2  -4  669.73    8.57
   1   2  -3  176.33    6.99
  -1  -2   3  185.23    4.82
   1   2  -3  174.86    5.32
   1   2  -3  177.05    5.35
   1   2  -2  546.38    9.68
  -1  -2   2  527.94    7.62
   1   2  -2  542.97    8.23
   1   2  -2  543.72    8.10
  -1  -2   0 9777.56   28.00
   1   2   1  106.83    7.49
  -1  -2  -1  117.80    4.63
   1   2   1  104.08    4.44
   1   2   1  114.64    4.46
   1   2   2 1086.50   15.97
  -1  -2  -2 1072.66   14.89
  -1  -2  -2 1052.89    9.57
   1   2   2 1066.20    9.54
  -1  -2  -3 2106.29   20.68
  -1  -2  -3 2045.87   20.29
  -1  -2  -4 1784.06   18.77
  -1  -2  -4 1815.98   13.70
  -1  -2  -4 1824.93   14.42
  -1  -2  -5   91.19    5.93
  -1  -2  -5   89.25    4.46
   1   2   5   95.18    3.80
  -1  -2  -5   88.72    4.19
  -1  -2  -6  173.12    6.04
   1   2   6  165.55    4.13
  -1  -2  -6  173.59    4.80
  -1  -2  -7   35.43    3.80
  -1  -2  -7   33.46    2.91
   1   2   8   17.80    2.16
  -1  -2  -8   16.39    2.30
  -1  -2  -8   18.83    3.35
   1   2   8   17.94    2.41
  -1  -2  -8   18.10    3.05
   1   2   8   16.97    3.11
   1   2   9  158.48    3.66
  -1  -2  -9  149.88    3.38
  -1  -2  -9  151.52    4.85
   1   2   9  159.25    3.88
  -1  -2  -9  153.15    4.35
   1   2   9  156.90    3.69
   1   2  10   27.31    3.38
  -1  -2 -10   24.37    4.24
   1   2  11  467.50    5.16
  -1  -2 -11  456.41    5.55
  -1  -2 -11  456.50    5.32
   1   2  12   89.47    3.47
  -1  -2 -12   85.09    3.44
   1   3  -9   54.09    3.08
   1   3  -9   55.17    4.35
   1   3  -8   92.80    4.24
  -1  -3   8   90.63    3.63
   1   3  -8   91.58    4.05
  -1  -3   7  253.66    4.46
   1   3  -7  270.68    5.77
   1   3  -6    8.93    2.72
  -1  -3   6    9.45    2.08
   1   3  -5  197.27    3.35
  -1  -3   5  204.50    5.35
   1   3  -5  193.58    3.27
  -1  -3   5  191.05    3.58
   1   3  -5  197.96    5.16
   1   3  -5  194.91    4.05
  -1  -3   4  287.84    6.02
   1   3  -4  284.52    5.35
   1   3  -4  279.39    5.96
  -1  -3   3   30.03    3.38
   1   3  -3   27.50    2.97
   1   3  -3   26.95    3.91
   1   3  -2  527.47    9.93
  -1  -3   2  530.11    7.68
   1   3  -2  512.17    7.85
   1   3  -2  529.19    7.96
   1   3  -1 6891.53   31.19
   1   3  -1 6900.68   31.05
   1   3   0 9999.00   28.14
  -1  -3  -1 5968.00   27.73
   1   3   1 5876.09   27.50
  -1  -3  -2   49.46    5.85
  -1  -3  -2   43.83    4.38
   1   3   2   51.60    5.07
   1   3   2   53.34    4.49
  -1  -3  -3  610.68   11.12
  -1  -3  -3  583.73    7.04
   1   3   3  593.79    7.60
   1   3   3  611.56    7.65
  -1  -3  -4 1377.14   15.94
  -1  -3  -4 1406.39   12.84
  -1  -3  -5  355.22    9.12
  -1  -3  -5  344.35    6.60
   1   3   5  370.74    6.49
  -1  -3  -5  345.87    7.54
  -1  -3  -6  743.70    9.51
  -1  -3  -6  755.60    9.90
  -1  -3  -7 1223.90   11.12
   1   3   7 1176.94    9.65
  -1  -3  -7 1217.75   11.31
   1   3   8   73.36    3.16
  -1  -3  -8   70.87    5.32
   1   3   8   70.67    3.58
   1   3   8   71.34    3.41
   1   3   9   21.29    2.91
  -1  -3  -9   19.80    4.88
   1   3   9   21.07    3.94
  -1  -3  -9   17.16    2.74
   1   3   9   21.96    2.63
   1   3  10 1699.56   10.31
   1   3  10 1688.97    9.23
  -1  -3 -10 1686.30   10.06
   1   3  10 1690.02    8.87
   1   3  11   82.18    3.69
  -1  -3 -11   78.91    4.05
  -1  -3 -11   71.48    3.58
   1   3  11   78.35    3.94
   1   3  12   37.98    2.61
  -1  -3 -12   35.85    2.63
   1   3  12   37.98    2.80
   1   4  -9  107.21    4.10
   1   4  -8  113.56    4.52
   1   4  -7   81.21    3.58
   1   4  -7   77.74    3.55
   1   4  -7   82.40    4.13
   1   4  -6  222.47    4.35
   1   4  -6  220.28    4.41
   1   4  -6  220.22    4.74
  -1  -4   5   11.95    3.05
   1   4  -5   11.67    2.33
   1   4  -5   11.37    3.27
   1   4  -5   13.11    2.97
   1   4  -4   28.34    2.05
  -1  -4   4   27.59    3.22
   1   4  -4   26.51    2.86
   1   4  -4   26.56    2.19
   1   4  -4   29.22    3.47
   1   4  -4   26.51    2.91
   1   4  -4   26.39    3.19
  -1  -4   3   63.02    4.46
   1   4  -3   62.74    4.38
  -1  -4   2   34.60    4.19
   1   4  -2   32.30    3.52
   1   4  -2   34.19    3.88
  -1  -4   1  464.48    7.24
   1   4  -1  469.53    6.96
   1   4  -1  472.08    7.40
  -1  -4   0   22.60    3.24
   1   4   0   20.77    2.88
   1   4   0   23.29    2.41
   1   4   0   24.95    4.57
  -1  -4  -1  517.33    7.49
   1   4   1  514.39    6.93
   1   4   1  515.02    6.60
   1   4   1  520.96    7.51
  -1  -4  -2    4.63    3.44
   1   4   2    6.49    3.47
   1   4   2    7.37    3.99
  -1  -4  -3   75.22    4.66
  -1  -4  -3   75.14    3.22
   1   4   3   77.52    3.69
   1   4   3   81.29    4.27
   1   4   3   81.46    4.19
  -1  -4  -4   46.86    4.35
   1   4   4   47.27    4.27
   1   4   4   50.54    3.80
  -1  -4  -5   19.55    3.60
  -1  -4  -5   19.24    5.27
   1   4   5   20.49    3.02
  -1  -4  -5   20.71    5.60
   1   4   6  932.21    8.82
  -1  -4  -6  945.54    9.73
   1   4   7   50.82    3.85
  -1  -4  -7   50.13    4.99
   1   4   8   57.97    2.61
   1   4   8   57.64    2.52
  -1  -4  -8   62.33    4.24
   1   4   8   59.53    2.94
   1   4   8   58.72    3.11
  -1  -4  -8   60.33    4.16
   1   4   9  196.66    4.35
  -1  -4  -9  193.44    5.57
   1   4   9  197.15    4.24
   1   4   9  196.66    3.85
   1   4  10  678.58    5.66
   1   4  10  699.79    6.32
   1   4  10  685.56    6.29
   1   4  11   17.11    2.94
   1   4  11   15.61    4.08
   1   4  11   15.97    2.88
   1   4  12  145.36    3.35
  -1  -4 -12  142.62    4.21
   1   4  12  147.94    3.80
   1   5  -8    3.27    3.33
   1   5  -8    3.91    3.02
   1   5  -7    6.65    2.41
   1   5  -7    6.79    3.22
   1   5  -7    8.48    3.33
   1   5  -6   56.42    2.94
   1   5  -6   57.89    3.49
   1   5  -6   59.28    3.69
   1   5  -5   54.06    2.86
   1   5  -5   58.69    3.88
   1   5  -5   53.98    3.49
  -1  -5   4  180.10    4.80
   1   5  -4  186.81    4.82
   1   5  -4  189.92    3.58
   1   5  -4  182.18    4.38
   1   5  -4  186.12    4.02
   1   5  -3  906.37    6.76
  -1  -5   3  900.85   13.83
   1   5  -3  904.84   12.06
   1   5  -3  898.38   12.12
   1   5  -3  911.63   12.31
   1   5  -3  888.84   13.36
   1   5  -3  922.31   12.42
   1   5  -2   60.30    2.69
   1   5  -2   62.74    2.58
   1   5  -2   60.77    3.41
  -1  -5   1  345.79    5.93
   1   5  -1  339.30    5.99
  -1  -5   0  987.63   10.81
   1   5   0  973.77   10.54
   1   5   0  983.83   10.48
  -1  -5  -1  592.38    8.26
   1   5   1  598.56    7.82
   1   5   1  610.26    7.65
   1   5   1  600.78    8.23
  -1  -5  -2    8.82    4.24
   1   5   2    8.26    3.11
   1   5   2    7.65    2.58
   1   5   2    7.57    3.05
   1   5   3  244.23    5.43
   1   5   3  248.67    4.96
   1   5   4  351.67    6.07
   1   5   4  355.38    6.04
   1   5   4  359.04    6.63
  -1  -5  -5  203.81    5.99
  -1  -5  -5  199.68    5.57
  -1  -5  -6  168.46    5.05
   1   5   6  169.35    5.21
  -1  -5  -6  162.72    6.29
   1   5   7    0.69    1.91
   1   5   7    2.99    1.89
  -1  -5  -7    0.25    3.55
   1   5   7    1.69    2.19
   1   5   7    2.69    2.63
  -1  -5  -7    1.08    3.38
   1   5   8  228.23    3.72
   1   5   8  227.18    3.49
  -1  -5  -8  226.52    5.96
   1   5   8  229.87    4.19
   1   5   8  225.18    4.69
  -1  -5  -8  225.71    5.74
   1   5   9 1198.53   19.07
   1   5   9 1250.71   12.59
   1   5  10   16.03    2.63
   1   5  10   13.70    2.77
   1   5  11  313.79    4.08
   1   5  11  319.17    5.43
   1   5  11  315.04    4.19
   1   5  12   20.66    2.61
  -1  -5 -12   15.86    3.69
   1   5  12   17.49    2.86
   1   6  -7   14.14    3.02
   1   6  -7   15.42    3.66
   1   6  -6   36.82    3.41
   1   6  -6   38.21    2.94
   1   6  -6   38.98    3.24
   1   6  -5   10.98    2.58
   1   6  -5   11.28    2.72
   1   6  -5    9.93    3.94
   1   6  -4  245.78    4.96
   1   6  -4  239.02    4.30
   1   6  -4  240.24    5.07
   1   6  -3   94.85    4.46
   1   6  -3   86.45    3.30
   1   6  -3   83.51    4.16
   1   6  -2  373.40    4.49
  -1  -6   2  368.47    6.74
   1   6  -2  365.72    4.66
   1   6  -2  377.73    4.91
   1   6  -2  369.80    5.16
   1   6  -2  362.62    5.74
   1   6  -1  269.74    3.69
  -1  -6   1  266.36    5.35
   1   6  -1  265.05    4.30
   1   6  -1  263.17    4.19
   1   6  -1  268.66    5.07
   1   6   0  149.25    2.94
  -1  -6   0  158.78    4.52
   1   6   0  157.76    4.30
  -1  -6  -1   17.74    2.86
   1   6   1   17.38    4.05
  -1  -6  -2  239.55    4.82
   1   6   2  237.58    4.82
   1   6   2  237.16    4.82
   1   6   2  249.78    5.02
   1   6   3 1301.15   10.34
   1   6   3 1304.58   10.01
   1   6   3 1297.21    9.84
   1   6   4  203.59    4.57
   1   6   4  204.61    5.32
   1   6   5   66.21    2.44
   1   6   5   68.95    2.38
  -1  -6  -5   69.40    3.74
   1   6   5   76.36    3.77
  -1  -6  -5   67.93    4.38
   1   6   6   59.91    2.50
   1   6   6   61.05    2.44
  -1  -6  -6   59.28    3.83
   1   6   6   59.89    2.55
   1   6   6   61.33    3.41
  -1  -6  -6   58.72    4.27
   1   6   7  159.78    4.24
   1   6   7  161.14    4.19
  -1  -6  -7  158.95    5.24
   1   6   7  159.97    3.88
   1   6   7  158.75    4.69
  -1  -6  -7  161.11    6.24
   1   6   8   82.45    3.85
   1   6   8   80.74    2.83
  -1  -6  -8   81.35    5.60
   1   6   8   81.76    4.08
   1   6   8   81.21    3.80
  -1  -6  -8   83.54    6.13
   1   6  10  376.68    6.79
   1   6  11   58.94    4.16
   1   7  -6    6.29    2.27
   1   7  -6    9.59    3.16
   1   7  -5   11.53    2.55
   1   7  -5   11.53    3.11
   1   7  -5   12.53    3.69
   1   7  -4   32.55    2.94
   1   7  -4   33.85    3.52
   1   7  -3  337.28    4.80
   1   7  -3  329.07    4.57
   1   7  -2    1.33    2.69
   1   7  -2    1.14    4.13
   1   7  -2    1.39    2.97
   1   7  -1    7.32    2.11
  -1  -7   1    6.10    4.27
   1   7  -1    5.99    2.66
   1   7  -1    8.48    3.60
   1   7   0    3.22    2.02
  -1  -7   0    1.64    4.05
   1   7   0    3.58    2.33
   1   7   0    3.55    2.50
   1   7   0    3.49    2.69
   1   7   1  310.77    5.24
  -1  -7  -1  308.42    6.76
   1   7   1  314.79    5.38
   1   7   1  308.72    5.30
   1   7   1  314.88    6.38
   1   7   2   49.13    3.22
   1   7   2   46.47    2.52
   1   7   2   41.87    4.57
   1   7   3  193.16    3.94
   1   7   3  189.81    3.35
   1   7   3  194.05    4.38
   1   7   3  194.08    5.49
   1   7   4  167.60    3.41
   1   7   4  161.72    3.22
   1   7   4  163.14    3.35
   1   7   4  173.84    4.35
   1   7   4  170.09    4.49
   1   7   5   12.73    2.88
  -1  -7  -5   12.50    3.83
   1   7   5   12.95    3.91
  -1  -7  -5   10.12    3.96
   1   7   6  566.34    5.43
   1   7   6  555.31    5.16
  -1  -7  -6  556.53    7.51
   1   7   6  561.52    5.27
   1   7   6  551.46    6.82
  -1  -7  -6  561.55    8.43
   1   7   7  206.77    4.63
   1   7   7  204.45    3.77
  -1  -7  -7  194.16    5.77
   1   7   7  197.76    4.19
   1   7   7  198.57    5.10
  -1  -7  -7  193.74    6.65
   1   7   8  105.61    3.69
   1   7   8  113.17    3.33
   1   7   8  106.16    3.47
   1   7   9  128.42    3.66
   1   7   9  128.92    4.27
   1   7   9  117.22    4.52
   1   7  10   33.99    2.94
   1   7  10   33.58    2.91
   1   7  10   34.80    3.58
   1   7  11   17.47    3.44
   1   7  12    3.33    2.36
   1   8  -4    3.05    2.61
   1   8  -3   30.80    3.91
   1   8  -1    5.46    2.27
   1   8   0   26.28    2.86
   1   8   0   26.92    2.80
   1   8   0   26.56    2.91
   1   8   1    3.77    3.11
   1   8   1    3.99    2.52
   1   8   2   85.87    3.72
   1   8   2   80.93    3.47
   1   8   2   75.86    4.21
   1   8   3   55.01    2.66
   1   8   3   54.59    3.05
   1   8   3   52.62    3.41
   1   8   4    6.40    2.50
   1   8   4    5.60    3.02
   1   8   4    5.13    2.33
   1   8   4    7.10    3.72
   1   8   4    5.02    3.08
   1   8   5  257.18    4.52
   1   8   5  257.76    5.13
   1   8   5  252.22    6.16
   1   8   6  202.78    4.91
   1   8   7   70.67    4.16
   1   8   7   69.65    3.08
   1   8   7   70.59    2.86
   1   8   8  307.03    4.55
   1   8   8  307.97    5.27
   1   8   8  289.84    4.44
   1   8   9   31.88    3.13
   1   8   9   26.56    4.08
   1   8   9   29.00    3.83
   1   8  10   20.52    2.97
   1   8  10   21.27    3.99
   1   8  10   21.35    3.19
   1   8  11   86.56    3.38
   1   8  11   84.45    3.55
   1   9  -3   12.70    3.02
   1   9  -1   18.49    3.24
   1   9   0   19.05    2.66
   1   9   0   17.52    2.88
   1   9   1  369.52    6.46
   1   9   1  361.76    6.21
   1   9   2   37.43    2.63
   1   9   2   37.76    2.80
   1   9   3   51.21    2.91
   1   9   3   49.46    3.63
   1   9   4    2.91    2.58
   1   9   4    3.52    2.44
   1   9   5  150.83    3.72
   1   9   5  147.72    3.49
   1   9   6  398.66    4.85
   1   9   6  398.22    5.66
   1   9   7    4.52    3.60
   1   9   8   57.34    3.85
   1   9   8   53.68    3.94
   1   9   9   14.81    3.85
   1   9   9   14.92    3.69
   1   9  10   21.29    3.30
   1   9  10   24.73    2.88
   1   9  10   21.32    3.19
   1   9  11  147.19    3.44
   1   9  11  143.81    3.77
   1  10  -1  330.51    4.94
   1  10   0    4.91    2.99
   1  10   1   70.59    2.83
   1  10   1   72.45    3.11
   1  10   2  147.55    3.80
   1  10   2  152.02    4.49
   1  10   3   11.67    3.49
   1  10   3   12.92    2.55
   1  10   4   46.00    3.22
   1  10   5  314.46    5.30
   1  10   6  157.90    3.83
   1  10   6  164.19    3.99
   1  10   7   45.61    3.44
   1  10   7   48.30    3.08
   1  10   8   99.06    4.30
   1  10   9   15.39    2.86
   1  10  10    6.54    3.19
   1  11   3   37.62    2.94
   1  11   5  393.42    5.24
   1  11   6  730.92    7.21
   1  11   7  610.73    6.38
   1  11   7  610.70    6.29
   1  11   8   27.59    3.13
   1  11   8   28.34    2.50
  -2   9   7   11.42    2.86
  -2   9   6    7.18    2.50
  -2   9   6    7.74    3.60
  -2   9   5   54.29    3.16
  -2   9   4   57.72    3.22
  -2   8   9    1.19    2.94
  -2   8   8  185.68    4.41
  -2   8   7    6.18    2.72
  -2   8   6   20.79    2.83
  -2   8   6   20.07    4.13
  -2   8   5   17.74    3.55
  -2   8   5   18.38    3.88
  -2   8   4  271.96    5.27
  -2   8   4  273.84    5.77
  -2   8   3   20.66    3.08
  -2   8  -1   17.66    2.88
  -2   8  -2   57.36    3.08
  -2   8  -2   55.51    2.72
  -2   8  -3   25.04    3.22
  -2   8  -3   21.99    2.80
  -2   7   9    6.52    2.99
  -2   7   9    7.74    2.77
  -2   7   8    7.15    2.94
  -2   7   8    8.32    2.72
  -2   7   7    6.76    3.02
  -2   7   7    5.93    3.16
  -2   7   7    5.32    3.27
  -2   7   6  291.56    5.43
  -2   7   6  288.84    5.68
  -2   7   5  151.44    3.66
  -2   7   5  154.24    4.44
  -2   7   5  147.55    3.88
  -2   7   4   28.39    3.05
  -2   7   4   27.73    2.94
  -2   7   4   25.56    2.77
  -2   7   3  764.08    7.57
  -2   7   2   91.41    3.08
  -2   7   0  511.31    6.16
  -2   7  -1   71.36    3.02
  -2   7  -1   68.62    3.24
  -2   7  -2   16.86    3.66
  -2   7  -2   14.31    2.74
  -2   7  -3    6.07    3.85
  -2   7  -3    6.93    3.30
  -2   7  -4    9.81    3.85
  -2   7  -4   10.04    2.47
  -2   7  -5   84.51    2.97
   2  -6 -10   64.54    3.41
  -2   6   9   14.75    3.41
  -2   6   8  225.82    4.82
  -2   6   7    9.43    3.13
  -2   6   7    5.18    3.72
  -2   6   6  197.07    4.88
  -2   6   6  203.95    4.41
  -2   6   5   95.57    3.77
  -2   6   4  453.75    5.24
  -2   6   4  457.69    5.13
  -2   6   4  449.40    5.43
   2  -6  -4  443.38    7.98
  -2   6   3   85.50    3.52
  -2   6   3   84.92    3.08
  -2   6   3   80.04    2.83
   2  -6  -3   77.66    5.57
  -2   6   2   17.36    3.52
  -2   6   2   15.75    2.30
  -2   6   1  205.67    3.83
   2  -6   0   37.93    3.38
  -2   6   0   42.20    3.16
  -2   6   0   41.12    2.47
   2  -6   1   34.21    4.57
  -2   6  -1   37.84    2.72
  -2   6  -1   33.02    2.63
  -2   6  -1   34.68    3.16
  -2   6  -2   17.91    2.72
  -2   6  -2   17.02    2.74
  -2   6  -3    5.07    2.97
  -2   6  -3    6.21    3.08
  -2   6  -4   38.79    3.33
  -2   6  -5  152.07    4.57
  -2   6  -5  148.77    3.80
  -2   6  -6   61.91    4.10
  -2   6  -6   59.91    3.72
   2  -5 -10  112.87    3.72
   2  -5 -10  109.82    3.99
   2  -5  -9   -0.50    2.69
  -2   5   8   20.32    3.41
   2  -5  -8   19.96    2.97
  -2   5   7   67.26    3.41
  -2   5   7   57.53    4.38
  -2   5   6   49.46    3.13
  -2   5   6   49.18    4.30
   2  -5  -6   40.67    4.44
  -2   5   5  158.59    3.52
  -2   5   5  148.19    4.55
  -2   5   5  148.03    5.43
   2  -5  -5  142.62    5.35
  -2   5   4    8.18    3.05
   2  -5  -4    6.52    5.32
  -2   5   3   52.62    2.61
  -2   5   3   55.81    3.47
  -2   5   3   57.09    4.80
   2  -5  -3   53.23    4.74
  -2   5   2  111.01    2.91
  -2   5   2  113.78    3.38
   2  -5  -2  106.24    4.91
  -2   5   1  111.98    3.69
  -2   5   1  101.28    3.24
  -2   5   1  111.51    3.02
  -2   5   0   22.54    2.91
  -2   5   0   21.82    2.66
  -2   5   0   22.35    2.52
  -2   5  -1   15.72    2.91
  -2   5  -1   17.38    2.52
  -2   5  -1   16.69    2.66
  -2   5  -2  341.60    5.82
  -2   5  -2  349.09    4.91
  -2   5  -2  347.84    4.24
  -2   5  -2  343.16    4.94
   2  -5   3  115.70    5.77
  -2   5  -3  114.73    3.52
  -2   5  -3  104.86    4.10
  -2   5  -3  111.23    4.16
  -2   5  -4  308.17    5.43
  -2   5  -5   32.74    3.69
  -2   5  -5   30.19    3.88
  -2   5  -5   29.80    2.88
  -2   5  -6  210.63    4.49
  -2   5  -6  212.90    4.16
  -2   5  -6  210.21    5.10
  -2   5  -7   33.24    2.94
  -2   5  -7   34.77    2.91
  -2   5  -7   35.13    3.05
  -2   5  -8   61.27    3.63
  -2   4  11  130.53    3.27
   2  -4 -11  126.98    3.16
   2  -4 -11  129.50    3.44
  -2   4  10   16.03    2.36
   2  -4 -10   16.50    2.80
   2  -4 -10   17.19    3.33
  -2   4   9  155.18    4.33
   2  -4  -9  150.74    4.74
   2  -4  -9  148.72    4.19
  -2   4   8 1654.42    9.29
   2  -4  -8 1660.27    9.93
  -2   4   7  383.19    5.49
  -2   4   7  354.88    8.07
  -2   4   7  371.21    5.96
  -2   4   6   83.26    3.22
  -2   4   6   76.55    3.27
   2  -4  -6   78.60    3.96
  -2   4   6   78.82    2.80
   2  -4  -6   81.43    4.82
  -2   4   5   81.18    3.19
  -2   4   5   76.08    2.97
   2  -4  -5   74.61    4.46
  -2   4   5   84.23    3.85
   2  -4  -5   76.99    5.21
  -2   4   4  548.52    5.02
  -2   4   4  557.58    5.24
  -2   4   4  552.09    7.01
   2  -4  -4  568.40    8.10
   2  -4  -3  252.30    6.40
  -2   4   2  101.83    3.99
   2  -4  -2   95.35    4.27
  -2   4   1  360.76    5.57
   2  -4  -1  356.55    6.76
  -2   4   0  642.98    7.07
   2  -4   0  629.36    8.35
  -2   4  -1  272.93    5.13
  -2   4  -2  268.05    6.13
  -2   4  -3   98.48    2.99
  -2   4  -3  101.56    3.74
   2  -4   4   57.50    3.80
  -2   4  -4   60.41    3.24
  -2   4  -4   56.42    3.19
  -2   4  -4   60.80    2.69
  -2   4  -5    4.19    2.66
  -2   4  -5    4.88    3.44
  -2   4  -5    5.82    3.96
  -2   4  -6  213.93    4.57
  -2   4  -6  218.17    4.05
  -2   4  -6  221.28    5.30
  -2   4  -7   72.92    3.63
  -2   4  -7   74.44    4.49
  -2   4  -8    8.84    2.63
  -2   4  -8    8.43    3.94
  -2   4  -9  398.63    5.07
  -2   4  -9  398.33    5.71
  -2   3  11   32.63    2.41
   2  -3 -11   32.99    2.94
   2  -3 -11   32.83    3.22
  -2   3  10   46.16    3.05
   2  -3 -10   45.97    3.88
   2  -3 -10   44.19    3.58
  -2   3  10   43.06    3.22
  -2   3   9  288.26    5.21
   2  -3  -9  292.17    5.57
   2  -3  -9  300.18    6.21
  -2   3   9  292.03    5.52
  -2   3   8  173.09    3.91
   2  -3  -8  167.38    4.13
   2  -3  -8  175.75    5.35
  -2   3   8  173.53    3.72
  -2   3   7  573.19    7.24
   2  -3  -7  560.55    8.79
  -2   3   7  569.06    7.07
   2  -3  -7  558.53    9.04
  -2   3   6 1227.78   15.39
   2  -3  -6 1254.10   17.44
  -2   3   6 1219.25   15.61
  -2   3   5 1020.29    6.74
   2  -3  -5 1035.34    9.73
  -2   3   5 1031.30    9.73
   2  -3  -5 1045.41   10.34
   2  -3  -4    3.66    3.80
  -2   3   4    5.16    2.88
   2  -3  -4    7.96    5.77
   2  -3  -3   86.78    4.46
  -2   3   3   88.44    4.94
   2  -3  -3   89.33    6.88
   2  -3  -2 5456.47   38.62
   2  -3  -2 5514.27   39.29
  -2   3   1  356.49    6.07
  -2   3   1  344.65    6.18
   2  -3  -1  344.82    6.96
  -2   3   0  113.95    3.83
   2  -3   0  112.31    4.52
  -2   3  -1  847.06    9.81
  -2   3  -2  670.59    8.32
  -2   3  -4  679.63    7.54
  -2   3  -4  672.09    6.07
  -2   3  -4  674.69    5.96
  -2   3  -4  660.61    6.27
  -2   3  -4  674.33    5.88
   2  -3   5    6.65    3.13
  -2   3  -5    4.82    3.24
  -2   3  -5    6.32    3.22
  -2   3  -5    5.96    2.44
   2  -3   6   22.07    3.69
  -2   3  -6   23.10    2.61
  -2   3  -6   22.37    2.74
  -2   3  -6   25.23    3.41
  -2   3  -6   23.43    3.58
  -2   3  -7  719.64    6.79
  -2   3  -7  717.39    6.82
  -2   3  -7  735.16    8.01
  -2   3  -8  197.10    3.99
  -2   3  -8  194.10    4.85
  -2   3  -8  197.24    5.05
  -2   3  -9   32.30    2.88
  -2   3  -9   29.50    3.60
  -2   3  -9   31.99    3.69
  -2   2  11  270.82    4.52
   2  -2 -11  268.82    4.27
   2  -2 -11  267.66    4.69
  -2   2  11  266.83    4.02
  -2   2  10    8.10    3.49
   2  -2 -10    9.04    2.61
  -2   2  10    8.26    3.08
  -2   2   9   25.04    2.88
   2  -2  -9   25.29    2.99
  -2   2   9   22.73    2.91
  -2   2   8  210.88    3.94
   2  -2  -8  204.56    4.13
   2  -2  -8  203.95    4.24
  -2   2   8  202.75    3.77
  -2   2   7  343.71    4.85
   2  -2  -7  341.49    7.01
  -2   2   7  343.02    4.24
   2  -2  -7  342.68    6.65
  -2   2   6  184.51    3.30
   2  -2  -6  179.69    5.30
  -2   2   6  181.63    3.60
  -2   2   6  186.54    3.24
   2  -2  -6  184.26    6.29
   2  -2  -5  539.48    7.71
   2  -2  -4  233.22    6.04
  -2   2   4  229.32    4.96
   2  -2  -4  232.95    5.82
  -2   2   3  245.90    4.33
   2  -2  -3  256.32    5.99
  -2   2   3  258.65    5.68
   2  -2  -3  258.01    6.65
  -2   2   2   15.36    2.25
   2  -2  -2   14.22    3.58
  -2   2   2   16.27    4.38
   2  -2  -2   14.17    5.07
  -2   2   1   16.41    3.94
   2  -2  -1   13.95    3.91
  -2   2   1   18.63    5.02
   2  -2  -1   14.92    6.27
  -2   2   0  557.47    7.26
   2  -2   0  554.70    7.90
   2  -2   1  312.44    7.90
  -2   2  -1  324.05    6.16
   2  -2   1  309.47    6.16
   2  -2   2    6.46    4.27
  -2   2  -3  354.91    6.46
  -2   2  -4  628.03    7.85
  -2   2  -5  260.98    5.05
  -2   2  -5  255.10    4.05
  -2   2  -5  261.03    4.02
  -2   2  -5  262.28    4.05
  -2   2  -6   60.03    2.80
   2  -2   6   61.22    4.19
  -2   2  -6   60.14    2.63
  -2   2  -6   60.97    2.74
  -2   2  -6   64.99    4.21
   2  -2   7  311.13    4.91
  -2   2  -7  320.06    5.91
  -2   2  -7  318.92    5.43
  -2   2  -7  322.81    5.66
   2  -2   8    7.24    2.94
  -2   2  -8    6.29    2.94
  -2   2  -8    6.85    2.86
   2  -2   9  343.49    4.80
  -2   2  -9  353.05    4.77
  -2   2  -9  356.35    4.91
  -2   2 -10  849.06    7.10
  -2   2 -10  838.08    7.21
  -2   2 -10  851.41    8.21
   2  -1 -10  102.06    3.35
   2  -1 -10  101.45    4.38
  -2   1  10  103.97    3.94
   2  -1  -9  100.92    3.44
   2  -1  -9   99.12    4.71
  -2   1   9   99.23    4.35
   2  -1  -8  633.38    6.60
   2  -1  -8  617.19    7.29
  -2   1   8  625.12    6.27
  -2   1   7  990.32    6.79
   2  -1  -7  996.14    7.18
  -2   1   7  990.43    6.88
   2  -1  -7  999.83    9.68
  -2   1   6  470.97    4.69
   2  -1  -6  472.77    5.16
   2  -1  -6  477.82    7.62
  -2   1   6  465.70    5.07
   2  -1  -6  472.85    7.04
   2  -1  -5   38.26    4.77
   2  -1  -5   39.59    5.10
   2  -1  -4  185.79    4.99
  -2   1   3  480.89    7.04
   2  -1  -3  472.63    7.74
   2  -1  -3  465.76    8.65
  -2   1   2  300.04    5.30
   2  -1  -2  300.99    6.24
   2  -1  -2  300.43    6.63
  -2   1   1  249.22    5.43
   2  -1  -1  246.84    4.99
   2  -1  -1  255.27    6.16
  -2   1   0   61.86   10.62
   2  -1   0   59.36    3.47
   2  -1   0   51.37    7.10
   2  -1   1  254.02    8.59
  -2   1  -1  253.08    5.41
   2  -1   1  250.61    5.68
   2  -1   2  232.42    7.49
   2  -1   3  540.39   10.31
  -2   1  -3  553.78    7.82
  -2   1  -4  215.20    8.37
  -2   1  -4  241.54    5.10
  -2   1  -5  145.22    4.19
  -2   1  -6  754.93    6.35
   2  -1   6  759.12    8.62
  -2   1  -6  765.63    6.43
   2  -1   7   17.91    3.02
  -2   1  -7   17.58    3.52
  -2   1  -7   18.24    2.58
   2  -1   7   17.72    2.16
  -2   1  -7   17.19    2.80
   2  -1   8  235.83    4.19
  -2   1  -8  239.57    4.55
  -2   1  -8  240.88    4.66
   2  -1   8  234.28    4.13
  -2   1  -8  244.31    4.96
   2  -1   9   37.12    2.69
  -2   1  -9   37.90    3.69
  -2   1  -9   36.96    3.80
   2  -1   9   35.65    2.61
  -2   1  -9   37.43    3.63
   2  -1  10   74.64    2.88
  -2   1 -10   76.77    3.30
  -2   1 -10   77.58    3.41
  -2   1 -10   78.60    4.57
   2  -1  11  112.31    3.24
  -2   1 -11  110.26    3.24
  -2   1 -11  112.81    3.96
  -2   1 -11  112.43    4.19
  -2   0  10    2.38    3.38
   2   0 -10    2.30    2.80
   2   0 -10    1.69    2.61
  -2   0   9   27.00    2.99
   2   0  -9   24.70    3.52
   2   0  -9   23.62    3.22
  -2   0   9   27.61    3.91
  -2   0   8   41.98    3.77
   2   0  -8   43.61    2.91
   2   0  -8   41.56    4.16
  -2   0   8   40.59    2.99
  -2   0   7  887.54    9.90
   2   0  -7  895.69   10.54
   2   0  -7  878.64   11.62
   2   0  -7  887.24    9.95
  -2   0   7  891.51   10.26
   2   0  -7  866.77   11.98
  -2   0   6   17.58    2.30
   2   0  -6   16.72    3.35
   2   0  -6   17.33    4.82
   2   0  -6   16.08    3.47
  -2   0   6   17.55    2.33
   2   0  -6   16.00    4.63
   2   0  -5  425.11    7.51
  -2   0   4   73.25    2.88
   2   0  -4   68.92    4.05
  -2   0   3   89.64    3.35
   2   0  -3   84.70    5.24
  -2   0   2  783.65    8.43
   2   0  -2  774.09    8.90
   2   0  -2  765.24    9.48
  -2   0   1   51.82    4.63
   2   0  -1   52.51    4.60
   2   0  -1   50.63    4.35
  -2   0   0 1376.70   11.23
   2   0   0 1361.56   11.81
   2   0   0 1393.67   12.78
   2   0   1 5313.35   25.78
  -2   0  -2 4122.16   20.77
   2   0   2 4135.75   21.24
   2   0   3  209.63    7.04
  -2   0  -3  209.13    9.07
  -2   0  -3  211.29    4.49
  -2   0  -3  210.02    4.66
  -2   0  -4  124.24    7.71
  -2   0  -4  136.74    3.85
  -2   0  -4  130.36    4.33
  -2   0  -5   89.61    3.96
  -2   0  -6  172.34    4.13
  -2   0  -7  246.12    4.08
  -2   0  -7  239.19    3.80
  -2   0  -7  249.67    4.19
   2   0   7  248.17    4.02
  -2   0  -7  244.48    4.57
   2   0   8  242.82    3.72
  -2   0  -8  245.48    4.24
  -2   0  -8  243.87    4.08
   2   0   8  241.13    4.24
  -2   0  -8  240.82    4.33
   2   0   9   83.29    3.08
  -2   0  -9   83.81    3.94
  -2   0  -9   82.09    3.35
   2   0   9   82.82    3.83
  -2   0  -9   81.18    3.58
   2   0  10   -0.83    3.49
  -2   0 -10   -2.02    3.55
  -2   0 -10    0.39    2.99
   2   0  10    0.86    2.50
  -2   0 -10   -1.72    3.63
   2   0  11   37.40    3.24
  -2   0 -11   37.15    3.30
   2   0  11   36.68    2.66
  -2   0 -11   35.46    4.13
  -2  -1  10   38.43    2.94
   2   1 -10   36.51    3.13
  -2  -1  10   39.67    3.22
  -2  -1   9    2.44    2.66
   2   1  -9    3.88    2.91
   2   1  -9    3.35    3.38
   2   1  -9    2.16    2.88
  -2  -1   9    3.19    3.16
   2   1  -9    2.33    3.47
  -2  -1   8   43.81    2.88
   2   1  -8   43.67    2.88
   2   1  -8   45.08    3.22
   2   1  -8   42.75    3.94
  -2  -1   8   41.92    3.63
   2   1  -8   42.20    4.16
  -2  -1   7   31.19    3.77
   2   1  -7   32.58    3.66
   2   1  -7   33.08    3.66
   2   1  -7   31.16    2.74
  -2  -1   7   32.66    2.86
   2   1  -7   31.30    3.05
  -2  -1   6   64.13    3.41
   2   1  -6   62.22    3.74
   2   1  -6   63.49    4.35
   2   1  -6   61.83    3.02
   2   1  -6   60.94    2.74
  -2  -1   6   62.96    3.11
   2   1  -6   61.77    5.02
   2   1  -6   62.41    3.13
  -2  -1   5   27.00    2.72
   2   1  -5   28.34    2.30
   2   1  -5   28.89    4.91
   2   1  -5   29.31    3.49
  -2  -1   4  645.72    7.24
   2   1  -4  642.39    8.23
   2   1  -4  635.27    7.79
  -2  -1   3  204.97    4.88
   2   1  -3  199.29    5.66
  -2  -1   2   70.37    4.60
  -2  -1   1 2340.76   15.08
   2   1  -1 2314.95   15.64
   2   1  -1 2280.79   15.50
  -2  -1   0 3446.05   18.66
   2   1   0 3447.80   19.60
   2   1   0 3396.32   19.44
   2   1   1 2290.88   15.25
   2   1   1 2303.83   15.33
   2   1   2 7061.40   39.87
   2   1   2 7223.26   31.58
  -2  -1  -3 7238.90   35.32
  -2  -1  -3 7212.39   30.78
   2   1   4   56.17    5.18
  -2  -1  -4   53.98    3.49
  -2  -1  -4   55.64    3.44
  -2  -1  -5   60.58    3.22
  -2  -1  -5   65.02    4.27
  -2  -1  -6 1922.52   13.42
  -2  -1  -7   97.07    3.52
  -2  -1  -7  105.52    2.77
   2   1   7  101.06    3.02
  -2  -1  -7   97.84    2.88
  -2  -1  -8  151.16    4.24
   2   1   8  149.61    3.94
  -2  -1  -8  146.47    4.10
   2   1   9    2.94    2.47
  -2  -1  -9    2.25    2.61
   2   1   9    2.16    3.19
  -2  -1  -9    2.11    3.80
   2   1  10   27.86    2.80
  -2  -1 -10   26.53    3.22
  -2  -1 -10   26.28    3.72
   2   1  10   27.17    3.88
  -2  -1 -10   27.14    3.16
   2   1  11    9.73    3.47
  -2  -1 -11   10.29    2.52
  -2  -1 -11    9.87    4.21
   2   1  11    8.73    2.69
  -2  -1 -11    9.54    3.13
   2   1  12  123.41    3.58
  -2  -1 -12  117.53    3.99
   2   1  12  116.83    3.47
  -2  -2   9    3.27    2.86
   2   2  -9    2.77    2.88
   2   2  -9    2.22    3.38
  -2  -2   9    3.24    3.30
   2   2  -9    2.22    3.77
  -2  -2   8   12.34    3.49
   2   2  -8   13.56    3.22
   2   2  -8   12.42    3.47
   2   2  -8   11.89    3.60
  -2  -2   8   12.70    2.91
   2   2  -8   12.98    4.08
  -2  -2   7   54.73    2.66
   2   2  -7   54.59    2.83
   2   2  -7   54.73    2.99
   2   2  -7   56.92    3.16
  -2  -2   7   57.61    3.69
   2   2  -7   55.78    3.49
  -2  -2   6   26.89    3.19
   2   2  -6   25.37    2.52
   2   2  -6   21.02    4.69
   2   2  -6   25.84    3.52
   2   2  -6   25.34    2.72
  -2  -2   6   27.12    3.44
   2   2  -6   23.15    3.35
   2   2  -6   25.23    4.46
  -2  -2   5  185.70    3.24
   2   2  -5  184.23    3.41
   2   2  -5  189.25    4.99
   2   2  -5  187.67    3.49
   2   2  -5  186.40    3.99
  -2  -2   5  185.26    3.30
   2   2  -5  186.20    4.88
   2   2  -5  190.00    4.05
  -2  -2   4  222.13    4.55
   2   2  -4  214.04    5.13
   2   2  -4  218.42    5.13
  -2  -2   3  537.59    7.79
   2   2  -3  539.28    7.96
   2   2  -3  545.22    7.93
  -2  -2   2 1107.79   11.28
   2   2  -2 1132.47   12.48
  -2  -2   1  992.73    9.62
   2   2  -1  999.69   10.15
   2   2   0 6300.54   29.06
  -2  -2  -1  905.87    9.18
   2   2   1  863.86    9.95
   2   2   1  884.52    9.37
   2   2   2 2957.90   24.90
  -2  -2  -2 2962.78   16.94
   2   2   2 2965.33   17.63
   2   2   2 2974.56   17.13
   2   2   3  277.92    8.18
  -2  -2  -3  274.06   10.34
  -2  -2  -3  271.74    5.30
   2   2   3  276.61    6.24
   2   2   3  274.62    5.21
   2   2   4  146.08    6.85
  -2  -2  -4  143.70    6.88
  -2  -2  -4  141.68    3.77
   2   2   4  150.08    4.99
  -2  -2  -4  146.83    4.74
  -2  -2  -5  584.50   11.42
  -2  -2  -5  594.60    8.43
  -2  -2  -5  571.33    8.40
  -2  -2  -6  394.78    6.82
  -2  -2  -7  490.10    7.13
   2   2   8   43.39    2.63
  -2  -2  -8   45.00    3.19
  -2  -2  -8   46.41    3.49
   2   2   8   42.45    2.86
  -2  -2  -8   45.44    3.11
   2   2   9   51.74    2.86
  -2  -2  -9   44.14    2.74
   2   2   9   39.18    3.66
  -2  -2  -9   45.03    3.02
   2   2   9   51.35    2.83
  -2  -2  -9   39.81    2.77
   2   2  10   75.27    3.58
  -2  -2 -10   74.53    2.94
  -2  -2 -10   75.44    3.38
   2   2  10   76.88    3.85
   2   2  11  217.84    3.88
  -2  -2 -11  215.31    3.77
  -2  -2 -11  223.44    5.30
   2   2  11  217.59    4.41
  -2  -2 -12   -0.39    3.66
   2   2  12   -0.14    2.47
   2   3  -9   20.32    3.30
  -2  -3   9   21.85    2.33
   2   3  -9   20.07    2.94
   2   3  -8   54.01    4.33
  -2  -3   8   54.09    3.80
   2   3  -8   52.68    4.60
   2   3  -7   63.88    3.69
   2   3  -7   63.71    3.11
   2   3  -7   62.66    4.30
  -2  -3   7   61.74    3.80
   2   3  -7   67.54    5.32
   2   3  -6   40.01    3.58
   2   3  -6   39.31    3.52
   2   3  -6   40.01    4.27
  -2  -3   6   41.64    3.63
   2   3  -6   41.20    4.38
   2   3  -5   16.05    3.13
  -2  -3   5   14.92    3.69
   2   3  -5   13.89    3.02
   2   3  -5   15.83    2.33
   2   3  -5   15.66    2.69
  -2  -3   5   15.25    2.25
   2   3  -5   15.36    4.05
   2   3  -5   15.80    4.35
   2   3  -4  348.15    4.30
  -2  -3   4  349.20    5.74
   2   3  -4  345.68    6.02
   2   3  -4  348.04    4.38
   2   3  -4  348.26    4.99
  -2  -3   4  342.41    4.38
   2   3  -4  347.31    5.93
  -2  -3   3   12.86    2.86
   2   3  -3   12.73    3.08
   2   3  -3   12.89    4.02
  -2  -3   2 3990.05   29.53
   2   3  -2 4011.43   29.58
   2   3  -2 4051.57   30.17
  -2  -3   1  575.02    8.21
   2   3  -1  582.23    8.48
  -2  -3   0  185.84    5.21
   2   3   0  190.00    6.07
   2   3   0  183.62    4.82
  -2  -3  -1   50.38    3.27
   2   3   1   48.55    3.96
   2   3   1   48.57    4.02
   2   3   2   51.10    4.77
  -2  -3  -2   51.93    3.74
   2   3   2   53.04    4.08
   2   3   3   69.31    5.32
  -2  -3  -3   66.10    3.38
   2   3   3   66.26    3.05
   2   3   4   45.58    3.99
  -2  -3  -4   44.19    4.74
  -2  -3  -4   44.83    2.63
   2   3   4   49.71    4.46
   2   3   4   49.07    3.44
  -2  -3  -5 2770.42   27.28
  -2  -3  -5 2783.12   22.54
  -2  -3  -5 2741.92   22.60
  -2  -3  -6  240.02    7.49
  -2  -3  -6  235.80    6.10
  -2  -3  -6  234.64    5.49
  -2  -3  -7    1.86    4.60
   2   3   7    3.30    2.61
   2   3   8   46.94    2.91
  -2  -3  -8   42.45    4.35
   2   3   8   42.84    2.94
   2   3   8   44.47    2.72
   2   3   9   69.51    2.83
  -2  -3  -9   67.40    3.60
  -2  -3  -9   61.19    3.96
   2   3   9   70.17    2.97
   2   3   9   73.94    3.41
   2   3  10  297.60    4.94
  -2  -3 -10  279.03    4.24
   2   3  10  293.36    4.99
  -2  -3 -10  284.63    5.30
   2   3  10  289.95    4.85
   2   3  11    9.29    2.58
  -2  -3 -11    7.13    2.80
   2   3  11    7.51    3.49
  -2  -3 -11    7.35    2.83
   2   3  11    9.07    3.60
   2   3  12  310.22    4.52
  -2  -3 -12  307.89    4.74
   2   3  12  302.59    4.24
   2   4  -8  357.02    5.18
   2   4  -8  384.24    6.38
   2   4  -7   88.19    3.80
  -2  -4   7   85.42    3.30
   2   4  -6    4.27    2.66
   2   4  -6    4.94    4.41
  -2  -4   6    4.13    3.11
   2   4  -5   30.97    2.77
  -2  -4   5   31.69    2.38
   2   4  -5   27.00    3.41
   2   4  -4  155.73    3.72
  -2  -4   4  157.20    5.02
   2   4  -4  153.35    5.16
   2   4  -4  158.98    4.19
  -2  -4   4  150.55    3.60
   2   4  -4  157.92    4.88
   2   4  -4  160.36    5.07
   2   4  -3  153.04    3.11
  -2  -4   3  153.43    4.46
   2   4  -3  146.86    4.69
   2   4  -3  150.35    4.52
   2   4  -3  147.25    3.66
  -2  -4   2  845.81    8.98
   2   4  -2  836.80    8.79
   2   4  -2  844.37    8.96
   2   4  -1 3105.87   24.23
   2   4  -1 3216.43   24.92
  -2  -4   0    3.72    4.33
   2   4   0    3.02    3.11
  -2  -4  -1  252.08    6.07
   2   4   1  256.68    5.74
   2   4   1  253.63    6.40
  -2  -4  -2  248.53    5.35
   2   4   2  249.47    5.85
   2   4   2  252.36    5.41
  -2  -4  -3  144.61    4.05
   2   4   3  146.00    4.49
   2   4   3  142.62    4.52
  -2  -4  -4  136.93    6.54
   2   4   4  124.74    4.91
   2   4   4  134.44    4.24
  -2  -4  -5  263.64    5.71
  -2  -4  -6  637.15   11.03
  -2  -4  -6  634.63    8.35
   2   4   6  629.67    6.96
  -2  -4  -6  645.61    8.54
  -2  -4  -7   27.56    4.88
   2   4   7   19.19    5.41
  -2  -4  -7   25.37    3.74
   2   4   8  580.71    4.91
  -2  -4  -8  593.74    7.96
   2   4   8  587.80    5.43
   2   4   8  585.45    5.32
   2   4   9   48.19    2.41
  -2  -4  -9   49.18    4.13
   2   4   9   49.32    2.94
   2   4   9   48.99    3.58
   2   4  10   23.59    2.44
  -2  -4 -10   24.43    3.16
   2   4  10   25.67    3.38
  -2  -4 -10   22.43    3.44
   2   4  10   25.67    3.66
   2   4  11    4.46    2.66
  -2  -4 -11    3.30    2.25
   2   4  11    3.47    2.69
  -2  -4 -11    2.66    3.05
   2   4  11    3.77    3.52
   2   4  12   69.92    3.49
  -2  -4 -12   70.17    3.94
  -2  -4 -12   67.87    3.77
   2   4  12   67.51    2.97
   2   4  13   19.16    2.63
   2   4  13   17.99    2.83
   2   5  -7    2.41    3.24
   2   5  -6   88.17    3.44
   2   5  -6   86.11    3.69
   2   5  -6   90.63    3.99
   2   5  -5  350.20    4.46
   2   5  -5  349.95    6.07
   2   5  -5  341.38    5.35
   2   5  -4   82.45    3.58
   2   5  -4   81.57    2.91
   2   5  -4   81.01    4.30
   2   5  -4   78.07    4.24
   2   5  -4   83.81    4.30
   2   5  -3    0.75    2.16
  -2  -5   3    1.19    3.58
   2   5  -3   -0.72    2.83
   2   5  -3    0.33    3.52
   2   5  -3   -0.39    3.55
   2   5  -3    0.97    3.60
   2   5  -2 1780.93    9.09
  -2  -5   2 1799.78   13.00
   2   5  -2 1791.02    9.18
   2   5  -2 1785.17   12.59
   2   5  -2 1788.36    9.45
   2   5  -2 1789.75   12.17
   2   5  -2 1792.16   10.70
  -2  -5   1 6265.27   24.79
   2   5  -1 6280.96   25.76
   2   5  -1 6193.68   23.34
  -2  -5   0 3839.20   28.50
   2   5   0 3882.81   29.36
   2   5   0 3863.85   28.61
  -2  -5  -1  707.49    9.09
   2   5   1  711.37    9.48
   2   5   1  690.44    8.43
  -2  -5  -2  211.54    4.57
   2   5   2  216.20    5.43
   2   5   2  221.80    5.38
  -2  -5  -3  207.50    4.63
   2   5   3  213.01    4.82
   2   5   3  217.26    5.38
   2   5   4 2719.10   21.49
   2   5   4 2776.07   21.60
   2   5   5  108.88    3.94
   2   5   5  112.51    3.85
   2   5   6   72.92    5.07
  -2  -5  -6   76.33    5.52
   2   5   7  342.68    5.77
  -2  -5  -7  338.55    7.04
  -2  -5  -8   87.33    4.57
   2   5   8   91.60    3.33
   2   5   8   91.69    4.74
   2   5   8   92.94    2.88
  -2  -5  -9  508.79    9.32
   2   5   9  518.05    7.62
   2   5   9  514.77    6.54
   2   5  10  374.24    4.91
  -2  -5 -10  365.09    5.16
   2   5  10  380.25    5.24
  -2  -5 -10  370.58    4.82
   2   5  10  380.03    5.21
   2   5  11   55.23    2.77
   2   5  11   56.84    4.57
  -2  -5 -11   50.82    2.83
   2   5  11   55.64    3.58
   2   5  12   18.80    2.86
   2   5  12   17.27    3.60
   2   5  12   18.94    2.47
  -2  -5 -13   10.04    2.69
   2   5  13   10.12    2.63
   2   6  -7   52.18    3.47
  -2  -6   7   59.03    2.77
   2   6  -6    1.05    3.60
   2   6  -6    1.50    3.94
   2   6  -5   17.55    2.44
   2   6  -5   18.77    4.27
   2   6  -5   18.13    3.11
   2   6  -4   15.94    2.52
   2   6  -4   14.83    3.35
   2   6  -4   16.11    3.47
   2   6  -4   15.30    3.69
   2   6  -3   19.46    2.61
   2   6  -3   18.52    3.22
   2   6  -3   21.24    2.94
   2   6  -3   20.77    3.35
   2   6  -2  394.53    4.52
   2   6  -2  391.20    5.07
   2   6  -2  392.51    5.35
   2   6  -2  390.21    6.10
   2   6  -2  396.25    5.07
   2   6  -1  201.87    3.74
  -2  -6   1  200.76    5.27
   2   6  -1  207.63    4.19
   2   6  -1  208.49    3.74
   2   6  -1  198.57    5.24
   2   6   0  376.51    4.46
  -2  -6   0  392.17    6.79
   2   6   0  387.16    4.66
   2   6   0  382.47    4.35
   2   6   0  381.17    6.29
   2   6   0  383.72    6.24
  -2  -6  -1  342.74    5.68
   2   6   1  347.18    6.04
   2   6   1  343.52    6.35
  -2  -6  -2  114.03    4.35
   2   6   2  115.67    4.46
   2   6   2  111.62    3.47
   2   6   3 1015.55    8.98
   2   6   3 1025.34    8.98
   2   6   3 1037.92    8.84
   2   6   4  146.94    4.74
   2   6   4  148.83    4.16
   2   6   4  148.25    4.21
   2   6   5  279.19    5.21
   2   6   5  273.15    5.68
   2   6   5  278.61    4.99
   2   6   6  192.36    4.46
  -2  -6  -6  212.24    5.96
   2   6   6  200.73    4.02
  -2  -6  -6  204.47    5.82
   2   6   7  629.36    5.30
   2   6   7  642.14    5.82
  -2  -6  -7  641.87    8.07
   2   6   7  640.92    5.55
   2   6   7  640.54    7.76
  -2  -6  -7  632.08    8.18
   2   6   8  105.22    3.27
  -2  -6  -8  111.29    4.63
   2   6   8  109.93    3.27
   2   6   8  106.55    4.24
  -2  -6  -8  112.45    5.55
   2   6   9 1321.61   15.58
   2   6  10  307.17    4.77
   2   6  11  168.43    4.08
   2   6  11  165.63    3.35
   2   6  12    2.36    2.61
   2   6  12    2.63    2.66
  -2  -6 -13   80.65    3.27
  -2  -7   6  155.87    3.69
   2   7  -5   44.28    2.66
   2   7  -5   44.14    3.52
   2   7  -5   47.72    3.55
   2   7  -4   31.52    2.94
   2   7  -4   29.89    3.63
   2   7  -4   31.00    2.91
   2   7  -4   30.25    3.11
   2   7  -3  274.67    4.52
   2   7  -3  272.21    4.57
   2   7  -3  280.72    4.52
   2   7  -3  280.08    4.63
   2   7  -2  102.72    3.24
   2   7  -2  104.50    3.30
   2   7  -2  103.08    3.74
   2   7  -1 1619.15   16.39
  -2  -7   1 1564.98   17.22
   2   7  -1 1609.87   16.22
   2   7  -1 1599.50   16.19
   2   7  -1 1570.25   17.91
   2   7   0   44.14    3.49
  -2  -7   0   36.79    3.33
   2   7   0   36.35    3.52
   2   7   0   34.93    2.97
   2   7   0   43.42    4.24
   2   7   1  223.19    3.74
  -2  -7  -1  224.93    5.16
   2   7   1  230.26    4.05
   2   7   1  230.18    5.21
   2   7   2    2.55    1.97
  -2  -7  -2    3.13    3.02
   2   7   2    1.75    2.86
   2   7   3   88.94    3.24
   2   7   3   90.02    4.19
   2   7   3   90.97    3.47
   2   7   4   59.44    2.55
   2   7   4   58.39    2.41
   2   7   4   58.89    3.05
   2   7   4   59.50    3.69
   2   7   4   57.97    2.61
   2   7   4   61.13    3.22
   2   7   4   58.28    3.38
   2   7   5  142.26    2.99
   2   7   5  144.81    3.02
   2   7   5  145.36    3.27
   2   7   5  144.31    4.16
   2   7   5  145.14    3.30
   2   7   5  147.80    5.18
   2   7   5  143.76    4.27
   2   7   6    0.86    2.91
   2   7   6    0.97    2.58
  -2  -7  -6   -0.06    3.27
   2   7   6    1.30    2.13
   2   7   6    0.39    3.38
  -2  -7  -6    0.30    4.74
   2   7   7 1091.52    7.37
  -2  -7  -7 1078.79   10.12
   2   7   7 1079.43    7.21
  -2  -7  -7 1087.27   11.34
   2   7   8 1027.03   11.17
   2   7   8 1028.22   11.23
   2   7   8 1033.21   11.06
  -2  -7  -8 1019.43   13.67
   2   7   9  361.68    4.77
   2   7   9  365.25    4.80
   2   7   9  368.69    5.16
   2   7  10   27.78    3.35
   2   7  10   26.01    3.13
   2   7  10   29.64    3.16
   2   7  11   18.60    3.35
   2   8  -4    3.02    2.47
   2   8  -3   49.96    2.61
   2   8  -3   49.49    3.58
   2   8  -2   63.10    3.55
   2   8  -2   62.99    4.10
   2   8  -2   63.13    3.16
   2   8  -1   67.12    3.30
   2   8  -1   67.90    4.13
   2   8   0   17.22    2.55
   2   8   0   19.27    2.94
   2   8   1  476.51    6.27
   2   8   2  156.29    3.52
   2   8   2  147.14    3.47
   2   8   2  144.12    4.38
   2   8   3  207.58    4.27
   2   8   3  206.83    4.60
   2   8   3  199.40    5.52
   2   8   4  102.61    3.02
   2   8   4  104.19    3.11
   2   8   4  101.47    3.77
   2   8   5  171.87    3.41
   2   8   5  168.04    3.52
   2   8   5  168.68    3.52
  -2  -8  -5  168.18    5.55
   2   8   5  169.51    3.80
   2   8   5  168.49    4.38
   2   8   5  168.07    4.57
   2   8   6  134.16    3.63
   2   8   6  133.36    3.47
  -2  -8  -6  132.11    4.94
   2   8   6  128.62    3.41
   2   8   6  133.80    4.38
  -2  -8  -6  137.10    5.43
   2   8   7  339.88    5.52
   2   8   7  328.41    5.10
   2   8   7  328.71    5.43
   2   8   8  402.90    5.10
   2   8   8  388.57    5.13
   2   8   9  146.69    4.38
   2   8   9  147.55    4.10
   2   8   9  142.54    4.88
   2   8  10   21.79    2.88
   2   8  10   23.87    2.77
   2   8  10   23.76    3.58
   2   8  11  119.55    3.63
   2   8  11  128.70    4.69
   2   8  12  118.44    3.49
   2   9  -3    2.69    2.86
   2   9  -2   17.66    2.19
   2   9  -2   17.08    3.41
   2   9  -1  113.12    3.58
   2   9  -1  116.28    3.49
   2   9   0   22.62    3.38
   2   9   0   23.07    3.69
   2   9   1    6.21    3.13
   2   9   2   68.20    4.05
   2   9   2   70.95    3.35
   2   9   3  331.98    5.46
   2   9   3  329.51    5.30
   2   9   4   10.54    2.61
   2   9   4   12.03    2.74
   2   9   5   61.86    2.91
   2   9   6    2.44    3.41
   2   9   6    3.85    3.41
   2   9   7   28.34    2.99
   2   9   7   28.39    3.80
   2   9   7   25.37    3.49
   2   9   8  280.61    5.43
   2   9   8  275.09    5.85
   2   9   8  263.67    5.77
   2   9   9   68.51    4.02
   2   9   9   69.51    3.77
   2   9   9   63.57    3.08
   2   9  10    8.90    3.58
   2   9  10   10.09    3.55
   2   9  10    9.70    2.50
   2   9  11    7.32    2.74
   2   9  11    7.60    2.55
   2  10  -1    2.33    2.47
   2  10   0    9.43    2.74
   2  10   1    5.10    2.69
   2  10   1    6.10    2.74
   2  10   2   13.28    2.50
   2  10   2   13.83    3.05
   2  10   3    6.10    2.63
   2  10   3    5.52    2.91
   2  10   4  114.42    3.55
   2  10   4  115.84    4.41
   2  10   5   62.74    4.16
   2  10   6   57.09    3.83
   2  10   7    5.79    3.88
   2  10   7    5.27    2.86
   2  10   8    1.19    3.22
   2  10   8    0.53    3.47
   2  10   9   16.19    3.69
   2  10   9   15.94    2.83
   2  10  10   17.02    3.08
   2  10  10   24.01    2.80
   2  10  10   15.28    2.55
   2  11   1   35.54    2.61
   2  11   1   36.04    3.11
   2  11   2    9.57    3.19
   2  11   3   65.46    3.47
   2  11   4   63.96    2.97
   2  11   5   36.65    2.77
   2  11   6   19.13    3.02
   2  11   7   51.32    2.74
   2  11   8    7.01    3.38
   2  11   8    6.85    2.41
   2  11   9   16.75    3.30
   2  11   9   15.94    2.94
   3  -8  -7   23.43    2.55
  -3   8   7   26.51    3.24
  -3   8   6   54.26    3.13
  -3   8   5   78.68    4.05
  -3   8   4   29.00    3.02
  -3   8   3   17.19    3.47
  -3   8  -2  634.69    6.49
   3  -7  -8    5.63    2.55
  -3   7   8    3.47    2.74
  -3   7   8    5.66    2.72
  -3   7   7   10.26    3.94
  -3   7   7   10.23    2.52
  -3   7   6    4.16    3.22
  -3   7   5   51.01    3.49
  -3   7   5   54.95    4.27
  -3   7   5   51.40    3.02
  -3   7   4   95.87    5.05
  -3   7   4   91.47    3.33
  -3   7   3  262.70    5.93
  -3   7   3  261.64    5.52
  -3   7   2  275.64    6.04
  -3   7   2  266.63    5.60
  -3   7   1  200.98    4.57
  -3   7   0  137.07    3.74
  -3   7  -1    3.88    3.44
  -3   7  -1    4.24    3.22
  -3   7  -2  118.30    3.49
  -3   7  -3   19.16    3.30
  -3   7  -4   39.04    3.38
   3  -6  -9    5.27    2.80
  -3   6   9    5.49    2.36
   3  -6  -8  104.44    3.63
  -3   6   8  108.49    4.27
  -3   6   8  103.75    3.74
  -3   6   7    1.97    4.19
  -3   6   7    0.58    3.35
  -3   6   6    3.47    3.08
  -3   6   6    3.05    2.72
  -3   6   5  101.78    4.35
  -3   6   5   93.88    4.21
  -3   6   4  458.33    5.68
  -3   6   4  470.94    5.82
  -3   6   4  470.16    6.02
  -3   6   3   60.16    4.30
  -3   6   3   53.73    2.88
  -3   6   2 1106.07   12.89
  -3   6   2 1105.85   12.09
  -3   6   0  122.63    3.88
  -3   6   0  120.63    3.33
  -3   6  -1    3.11    2.30
  -3   6  -1    2.72    2.61
  -3   6  -2   75.52    3.91
  -3   6  -2   77.35    4.24
  -3   6  -3  100.92    3.55
  -3   6  -4    6.76    2.86
  -3   6  -4    7.87    2.61
  -3   6  -5  211.02    4.38
  -3   6  -6    0.25    3.24
  -3   6  -6    0.47    2.63
   3  -5  -9   82.98    3.80
   3  -5  -8   46.25    3.80
  -3   5   7    2.16    2.83
  -3   5   6   77.24   10.59
  -3   5   5   33.66    3.88
  -3   5   5   30.11    3.24
  -3   5   4   56.98    2.97
   3  -5  -4   37.21    4.24
  -3   5   3 1368.10    9.37
  -3   5   3 1372.65   13.81
  -3   5   2  128.62    4.33
  -3   5   2  125.37    3.74
  -3   5   1 1161.77   14.94
  -3   5   1 1180.43    7.51
  -3   5   0   24.87    3.94
  -3   5   0   26.51    2.47
  -3   5   0   29.33    3.22
  -3   5  -1   26.34    3.85
  -3   5  -1   27.09    2.55
  -3   5  -1   28.64    2.58
  -3   5  -2  156.15    3.80
  -3   5  -2  152.88    4.33
  -3   5  -3   85.70    3.83
  -3   5  -3   84.76    3.22
  -3   5  -3   87.61    3.41
  -3   5  -4   89.91    4.57
  -3   5  -5  111.51    4.88
  -3   5  -5  104.72    4.13
  -3   5  -6  377.06    6.46
  -3   5  -6  377.37    6.07
  -3   5  -7    5.93    3.13
  -3   5  -7    6.60    2.94
  -3   4  10    7.62    2.30
   3  -4 -10    7.62    2.99
   3  -4 -10    7.32    2.91
  -3   4   9   18.27    3.02
   3  -4  -9   17.58    3.44
  -3   4   8    1.75    2.33
   3  -4  -8    2.00    3.88
   3  -4  -8    2.02    3.52
  -3   4   7    7.60    2.69
  -3   4   7    5.07    3.24
   3  -4  -7    4.35    3.16
  -3   4   6  386.63    5.85
  -3   4   6  372.35    6.46
  -3   4   5   44.67    3.85
  -3   4   5   31.50    3.19
   3  -4  -5   36.74    5.74
  -3   4   4    2.44    3.08
  -3   4   4    2.30    3.05
   3  -4  -4    3.30    4.94
   3  -4  -3  228.18    5.68
  -3   4   2  283.85    4.13
  -3   4   2  275.98    3.91
  -3   4   1   30.64    3.66
  -3   4   1   33.52    2.33
  -3   4   1   26.75    2.41
  -3   4   0  152.85    4.05
  -3   4   0  141.87    4.16
  -3   4   0  148.86    3.47
  -3   4   0  151.52    3.38
  -3   4  -1   28.95    3.08
  -3   4  -1   28.11    3.05
  -3   4  -1   29.83    2.44
  -3   4  -2   18.91    4.38
  -3   4  -2   18.08    2.33
  -3   4  -2   16.66    2.44
  -3   4  -3   17.05    3.83
  -3   4  -3   18.35    2.74
  -3   4  -3   14.22    2.19
  -3   4  -3   16.50    2.63
  -3   4  -5   83.76    4.02
  -3   4  -5   81.43    3.77
  -3   4  -5   80.65    3.30
  -3   4  -6   22.15    3.66
  -3   4  -6   19.91    2.88
  -3   4  -6   19.63    3.02
  -3   4  -7  438.72    6.21
  -3   4  -7  442.86    6.18
  -3   4  -7  445.27    7.18
  -3   4  -8    3.24    3.22
  -3   4  -8    3.80    2.72
  -3   3  10   29.78    2.58
   3  -3 -10   29.56    2.80
   3  -3 -10   29.08    3.22
  -3   3   9    5.38    2.66
   3  -3  -9    3.74    3.33
   3  -3  -9    3.47    3.30
  -3   3   8   19.05    3.38
   3  -3  -8   15.91    3.35
  -3   3   7    5.93    3.30
   3  -3  -7    3.85    2.80
  -3   3   6  204.58    4.49
  -3   3   6  209.44    4.16
   3  -3  -6  202.53    4.38
  -3   3   5   25.70    2.22
  -3   3   5   10.56    6.35
   3  -3  -5   17.25    4.57
  -3   3   4  369.11    4.19
  -3   3   4  379.73    4.99
  -3   3   4  380.58    5.24
   3  -3  -4  373.54    7.68
  -3   3   3  112.59    3.08
   3  -3  -3  111.26    4.52
  -3   3   2  363.15    5.57
   3  -3  -2  378.37    6.82
  -3   3   1   63.10    3.08
   3  -3  -1   57.95    3.63
  -3   3   0   24.90    2.77
  -3   3  -1   34.99    4.13
  -3   3  -2  233.75    5.63
  -3   3  -3  217.01    3.69
  -3   3  -4  269.13    6.43
  -3   3  -4  276.92    5.05
  -3   3  -4  271.07    4.80
  -3   3  -4  274.06    5.43
  -3   3  -4  268.96    4.99
  -3   3  -5   10.98    3.13
  -3   3  -5   10.06    3.55
  -3   3  -5   10.40    2.25
  -3   3  -5   10.67    2.52
  -3   3  -6  121.24    4.27
  -3   3  -6  121.63    3.38
  -3   3  -6  124.87    3.69
  -3   3  -7   -0.17    2.94
  -3   3  -7   -0.58    3.27
  -3   3  -7    1.22    4.33
  -3   3  -8   42.00    3.38
  -3   3  -8   41.31    3.94
  -3   3  -8   44.39    4.02
  -3   3  -9   76.97    4.24
  -3   2  10   14.14    2.72
   3  -2 -10   13.97    2.50
   3  -2 -10   14.39    2.88
  -3   2  10   15.14    2.25
  -3   2   9  493.48    6.32
   3  -2  -9  493.65    6.57
   3  -2  -9  500.27    7.13
  -3   2   9  482.45    6.60
  -3   2   8   24.54    2.97
   3  -2  -8   23.01    3.30
   3  -2  -8   23.40    3.77
  -3   2   8   25.53    3.19
  -3   2   7    6.35    2.58
   3  -2  -7    4.55    2.88
  -3   2   7    3.91    2.27
  -3   2   6   90.11    3.44
   3  -2  -6   79.24    4.19
   3  -2  -6   86.53    3.22
   3  -2  -6   82.21    4.55
  -3   2   5  144.14    4.10
   3  -2  -5  147.03    5.71
   3  -2  -5  140.71    4.10
   3  -2  -5  144.67    5.16
  -3   2   4  199.04    3.33
   3  -2  -4  200.87    5.49
   3  -2  -4  194.83    5.74
   3  -2  -3  644.70    7.57
   3  -2  -3  657.17    8.96
  -3   2   2  471.88    6.40
   3  -2  -2  463.98    7.49
  -3   2   1   75.58    4.52
   3  -2  -1   70.70    4.24
  -3   2   0  155.46    4.63
   3  -2   0  149.08    5.38
  -3   2  -1  518.13    7.68
  -3   2  -2  769.54    8.96
  -3   2  -4   30.33    3.24
  -3   2  -4   32.24    2.91
  -3   2  -4   33.21    3.22
  -3   2  -5  324.83    4.33
  -3   2  -5  330.10    5.93
  -3   2  -5  332.26    4.13
  -3   2  -5  328.99    4.55
  -3   2  -5  331.93    4.55
  -3   2  -6   67.57    2.88
  -3   2  -6   62.69    3.58
  -3   2  -6   66.12    3.24
  -3   2  -6   66.01    3.72
  -3   2  -6   66.93    3.13
   3  -2   7   78.32    2.74
  -3   2  -7   78.16    3.22
  -3   2  -7   80.54    3.77
  -3   2  -7   79.18    3.80
  -3   2  -7   82.70    4.82
   3  -2   8  499.05    7.85
  -3   2  -8  504.93    8.37
  -3   2  -8  511.86    8.04
  -3   2  -8  512.89    8.65
   3  -2   9  726.57    8.29
  -3   2  -9  738.52    8.96
  -3   2  -9  763.03    8.32
  -3   2 -10    0.72    2.52
  -3   2 -10    0.55    3.08
   3  -1 -10   74.50    3.19
  -3   1  10   73.08    3.22
   3  -1  -9  484.03    7.37
  -3   1   9  484.75    7.65
   3  -1  -8  282.66    5.57
   3  -1  -8  285.68    5.60
  -3   1   8  282.99    5.21
  -3   1   7 1724.07   12.42
   3  -1  -7 1740.87   13.53
   3  -1  -7 1720.93   12.98
  -3   1   7 1711.67   12.31
  -3   1   6  157.37    3.88
   3  -1  -6  153.13    5.46
   3  -1  -6  155.34    4.10
  -3   1   6  159.14    3.35
  -3   1   5  116.61    2.99
   3  -1  -5  115.86    4.35
   3  -1  -5  114.70    3.11
  -3   1   5  117.86    3.38
   3  -1  -5  120.16    5.88
   3  -1  -4   15.25    3.16
   3  -1  -4   15.30    3.60
  -3   1   3 1594.37   10.84
   3  -1  -3 1595.64   11.78
   3  -1  -3 1600.74   12.42
  -3   1   2 3619.64   26.62
   3  -1  -2 3598.32   27.50
   3  -1  -2 3708.45   28.75
  -3   1   1  318.20    5.77
   3  -1  -1  311.24    5.79
   3  -1  -1  315.65    5.99
  -3   1   0   57.20    3.41
   3  -1   0   45.52    4.10
  -3   1  -1  310.47    6.07
  -3   1  -3 1488.32   13.70
  -3   1  -4   15.58    3.66
  -3   1  -5   60.22    4.38
  -3   1  -5   48.21    2.77
  -3   1  -6  300.10    4.33
  -3   1  -6  296.63    5.27
  -3   1  -6  294.28    4.10
  -3   1  -6  301.93    3.96
  -3   1  -6  302.18    3.99
  -3   1  -6  307.31    4.30
  -3   1  -7  133.28    4.19
  -3   1  -7  134.27    3.30
  -3   1  -7  136.96    3.91
  -3   1  -7  135.47    3.60
   3  -1   8   30.58    2.91
  -3   1  -8   26.56    3.66
   3  -1   9    3.33    2.30
  -3   1  -9    2.41    2.69
  -3   1  -9    3.41    3.30
   3  -1  10  120.91    3.38
  -3   1 -10  127.12    4.33
  -3   1 -10  122.60    4.30
  -3   1 -10  128.23    5.32
   3  -1  11    8.04    2.33
  -3   1 -11    8.35    2.94
  -3   1 -11    8.35    3.02
  -3   1 -11    7.65    2.86
  -3   0  10  103.97    2.99
   3   0 -10  101.11    3.22
   3   0 -10  101.22    3.22
  -3   0  10  101.81    3.08
  -3   0   9   41.42    2.88
   3   0  -9   38.76    2.94
   3   0  -9   37.48    3.85
  -3   0   9   40.62    2.91
  -3   0   8   32.47    3.49
   3   0  -8   32.27    3.80
  -3   0   8   33.35    2.97
  -3   0   7   37.15    3.94
   3   0  -7   36.24    3.88
  -3   0   7   39.23    3.02
  -3   0   6  307.11    4.21
   3   0  -6  299.90    4.80
   3   0  -6  293.83    6.90
   3   0  -6  305.78    5.35
  -3   0   6  305.03    4.24
   3   0  -6  297.46    6.27
  -3   0   5  886.46    7.01
   3   0  -5  874.57    9.07
   3   0  -5  859.79    6.68
  -3   0   5  877.64    6.46
   3   0  -4   83.48    4.16
   3   0  -4   79.46    4.96
  -3   0   3  491.96    6.63
   3   0  -3  502.05    7.01
   3   0  -3  491.21    7.43
  -3   0   2  795.47    9.57
   3   0  -2  792.28    9.68
   3   0  -2  779.99    9.76
  -3   0   1  341.49    6.07
   3   0  -1  338.50    6.60
   3   0  -1  336.25    6.04
  -3   0   0 1022.15    9.40
   3   0   0 1038.26    9.98
   3   0   0 1042.39   10.51
  -3   0  -1  393.92    5.79
   3   0   1  381.39    5.99
   3   0   1  377.98    5.96
  -3   0  -2  582.51    7.29
  -3   0  -3 5102.22   35.32
  -3   0  -4  566.82    7.62
  -3   0  -5  228.57    4.60
  -3   0  -6  222.30    3.88
  -3   0  -6  221.97    4.57
  -3   0  -7  307.08    6.16
  -3   0  -7  316.84    5.41
  -3   0  -7  312.19    5.57
   3   0   7  313.57    5.46
  -3   0  -7  314.65    5.66
  -3   0  -8 1122.15   12.03
  -3   0  -8 1127.39   12.53
   3   0   8 1117.97   11.53
  -3   0  -8 1133.13   12.12
   3   0   9  657.98    6.46
  -3   0  -9  656.89    6.57
  -3   0  -9  663.02    6.38
   3   0   9  640.01    6.10
  -3   0  -9  646.75    6.76
   3   0  10  287.84    4.41
  -3   0 -10  297.02    4.46
  -3   0 -10  299.85    4.74
   3   0  10  287.95    4.08
  -3   0 -10  298.71    4.91
   3   0  11  192.19    4.02
  -3   0 -11  189.31    3.88
  -3   0 -11  191.91    4.19
   3   0  11  184.23    3.83
  -3   0 -11  191.00    4.21
  -3  -1   9  272.46    4.13
   3   1  -9  275.98    4.74
   3   1  -9  276.75    4.46
  -3  -1   8  576.74    6.24
   3   1  -8  575.08    6.10
   3   1  -8  567.95    6.27
  -3  -1   7  302.54    4.91
   3   1  -7  304.89    5.41
   3   1  -7  306.86    5.77
  -3  -1   7  301.71    4.49
   3   1  -7  288.01    4.71
  -3  -1   6  437.01    6.07
   3   1  -6  434.95    6.82
   3   1  -6  427.00    6.54
  -3  -1   6  445.60    6.74
   3   1  -6  437.06    6.57
  -3  -1   5    4.82    2.22
   3   1  -5    3.16    2.52
  -3  -1   5    4.33    3.41
   3   1  -5    3.99    3.35
   3   1  -5    3.24    2.44
  -3  -1   4  364.81    4.27
  -3  -1   4  370.88    5.85
   3   1  -4  380.45    6.32
   3   1  -4  361.84    4.49
  -3  -1   4  372.13    4.60
  -3  -1   3  133.00    4.57
   3   1  -3  134.88    4.52
   3   1  -3  135.41    5.49
  -3  -1   2  202.34    4.55
   3   1  -2  205.06    6.04
   3   1  -2  206.41    6.02
  -3  -1   1  298.46    5.41
   3   1  -1  289.04    5.79
   3   1  -1  292.14    6.54
  -3  -1   0  333.53    5.57
   3   1   0  325.58    6.29
   3   1   0  326.08    6.07
   3   1   1  108.13    4.35
   3   1   1  100.73    5.49
   3   1   2  397.83    9.48
  -3  -1  -2  403.40    6.21
   3   1   2  384.22    5.99
   3   1   2  395.08    5.93
   3   1   3  973.60   13.47
  -3  -1  -3  981.61    9.07
   3   1   3  960.01    9.07
  -3  -1  -4   57.06    3.47
  -3  -1  -4   57.61    3.24
  -3  -1  -5 1834.44   15.94
  -3  -1  -6   63.55    2.88
  -3  -1  -7    2.41    3.38
  -3  -1  -7    3.22    2.99
   3   1   7    2.69    2.66
  -3  -1  -7    3.52    2.38
  -3  -1  -8   73.92    3.35
  -3  -1  -8   76.63    3.19
   3   1   8   76.08    2.74
  -3  -1  -8   73.69    3.13
   3   1   9  148.61    3.41
  -3  -1  -9  152.07    3.80
  -3  -1  -9  150.77    3.94
   3   1   9  149.97    4.08
  -3  -1  -9  151.66    4.71
   3   1  10  633.30    9.59
  -3  -1 -10  638.71    9.65
  -3  -1 -10  643.81    9.93
   3   1  10  635.30    9.01
  -3  -1 -10  627.28    9.34
   3   1  11  446.93    5.96
  -3  -1 -11  460.05    6.68
  -3  -1 -11  456.75    6.49
   3   1  11  447.68    6.32
  -3  -1 -11  452.31    6.71
   3   1  12    6.93    2.88
  -3  -1 -12    5.96    2.22
  -3  -1 -12    6.46    2.58
   3   1  12    7.40    2.72
  -3  -1 -12    6.43    3.08
  -3  -2   9   17.63    2.74
   3   2  -9   17.25    2.61
   3   2  -9   18.16    2.99
  -3  -2   9   17.41    2.52
  -3  -2   8   25.31    3.27
   3   2  -8   24.04    3.72
   3   2  -8   22.04    3.02
   3   2  -8   17.86    3.52
  -3  -2   8   28.58    3.52
  -3  -2   8   23.07    2.66
  -3  -2   7   62.88    3.96
   3   2  -7   63.63    3.44
   3   2  -7   58.11    3.35
   3   2  -7   58.31    4.24
  -3  -2   7   69.78    3.58
   3   2  -7   59.86    3.74
  -3  -2   6   12.98    3.49
   3   2  -6   12.39    2.91
   3   2  -6   12.17    3.11
   3   2  -6   11.73    3.55
  -3  -2   6   13.17    2.80
   3   2  -6   12.28    3.08
  -3  -2   5   76.30    3.19
   3   2  -5   78.63    3.16
   3   2  -5   76.72    4.57
   3   2  -5   77.27    3.60
   3   2  -5   77.44    3.30
  -3  -2   5   80.85    3.11
   3   2  -5   76.16    3.99
   3   2  -5   78.38    4.44
  -3  -2   4   58.22    2.36
   3   2  -4   60.44    2.66
  -3  -2   4   61.30    3.19
   3   2  -4   61.49    5.16
   3   2  -4   62.27    3.35
   3   2  -4   56.28    2.50
  -3  -2   4   60.33    3.13
   3   2  -4   60.64    3.83
   3   2  -4   60.25    2.99
  -3  -2   3   24.54    3.63
  -3  -2   2  208.11    5.79
   3   2  -2  201.20    5.91
  -3  -2   1    6.21    3.99
   3   2  -1    2.44    3.27
   3   2  -1    2.99    3.19
  -3  -2   0 1105.90   10.29
   3   2   0 1130.69   10.95
   3   2   0 1092.65   10.23
  -3  -2  -1   26.98    3.88
   3   2   1   21.54    4.02
   3   2   1   19.24    3.60
   3   2   2 2085.49   20.24
  -3  -2  -2 2113.27   13.75
   3   2   2 2125.00   14.47
   3   2   2 2081.45   14.20
   3   2   3 1416.21   16.22
  -3  -2  -3 1424.69   10.98
   3   2   3 1398.10   11.17
   3   2   3 1393.00   10.76
  -3  -2  -4 1958.79   16.27
   3   2   4 1995.11   16.75
  -3  -2  -5   63.38    6.65
  -3  -2  -5   60.05    2.99
  -3  -2  -5   66.57    3.88
  -3  -2  -6  321.06    5.88
  -3  -2  -7   87.92    3.47
   3   2   7   84.81    3.24
  -3  -2  -8   29.80    4.05
  -3  -2  -8   30.39    3.44
   3   2   8   33.88    2.52
  -3  -2  -8   30.08    2.47
   3   2   9  224.05    4.77
  -3  -2  -9  215.26    4.19
   3   2   9  226.13    5.05
  -3  -2  -9  221.11    4.49
   3   2  10  157.34    3.69
  -3  -2 -10  161.75    3.72
   3   2  10  156.45    3.55
  -3  -2 -10  151.41    3.80
   3   2  11  143.09    3.58
  -3  -2 -11  134.11    4.46
   3   2  11  144.39    4.41
  -3  -2 -11  129.03    4.02
  -3  -2 -12  180.66    4.08
  -3  -2 -12  185.95    4.19
   3   2  12  183.10    4.24
   3   3  -8   17.58    2.47
   3   3  -8   18.66    2.69
   3   3  -8   17.86    3.60
  -3  -3   8   20.96    3.52
  -3  -3   8   18.77    3.24
   3   3  -7   35.96    2.91
   3   3  -7   35.43    3.49
   3   3  -7   34.71    3.94
  -3  -3   7   39.15    3.96
   3   3  -7   34.46    3.94
  -3  -3   6  110.85    4.80
   3   3  -6  129.12    3.63
   3   3  -6  122.96    3.63
   3   3  -6  127.73    4.19
  -3  -3   6  133.05    4.46
   3   3  -6  120.13    4.27
  -3  -3   5  202.23    3.88
   3   3  -5  215.48    4.49
   3   3  -5  196.13    5.85
   3   3  -5  214.45    4.85
   3   3  -5  208.63    4.49
   3   3  -5  200.40    5.79
   3   3  -5  210.93    5.30
   3   3  -4   66.29    3.30
  -3  -3   4   62.52    3.52
   3   3  -4   62.41    4.44
   3   3  -4   64.05    3.30
   3   3  -4   63.41    2.86
  -3  -3   4   69.45    3.47
   3   3  -4   65.63    4.44
   3   3  -4   67.95    3.83
   3   3  -3  231.70    4.05
  -3  -3   3  239.91    5.68
   3   3  -3  236.47    5.27
   3   3  -3  233.92    3.80
  -3  -3   3  231.51    4.10
   3   3  -3  234.33    5.82
   3   3  -3  234.22    4.24
  -3  -3   2  680.99    7.57
   3   3  -2  686.64    7.93
  -3  -3   1   35.65    3.52
   3   3  -1   33.05    5.02
   3   3  -1   32.80    3.52
   3   3   0  304.67    6.04
  -3  -3  -1  896.63    8.76
   3   3   1  895.28    9.76
   3   3   1  884.85    9.12
   3   3   2   72.36    5.79
  -3  -3  -2   77.19    4.33
   3   3   2   74.58    4.46
   3   3   2   75.27    4.10
   3   3   3 1068.97   14.08
  -3  -3  -3 1076.79    9.57
   3   3   3 1063.68   10.62
   3   3   3 1048.40    9.43
   3   3   4  503.21   10.42
  -3  -3  -4  495.81    7.07
   3   3   4  484.91    7.10
   3   3   4  489.07    6.76
  -3  -3  -6  144.59    4.49
  -3  -3  -7  740.04    8.79
  -3  -3  -8   71.53    3.49
  -3  -3  -8   67.29    4.27
   3   3   8   67.21    2.80
   3   3   9   62.60    2.69
  -3  -3  -9   62.99    3.05
   3   3  10   20.90    2.61
  -3  -3 -10   20.21    2.63
  -3  -3 -10   20.68    3.08
   3   3  11   22.82    2.74
  -3  -3 -11   20.54    3.63
  -3  -3 -11   21.21    3.74
   3   3  12  205.86    4.85
  -3  -3 -12  207.05    4.69
  -3  -3 -12  212.24    4.85
   3   3  12  206.47    4.33
   3   4  -8   45.08    3.11
  -3  -4   8   47.55    2.91
  -3  -4   8   46.25    2.77
   3   4  -7   73.97    3.58
   3   4  -7   73.47    3.55
   3   4  -7   76.49    3.41
  -3  -4   7   74.44    3.72
   3   4  -7   74.25    4.41
   3   4  -6   50.10    3.44
   3   4  -6   51.62    2.94
   3   4  -6   49.57    4.35
  -3  -4   6   49.91    2.88
   3   4  -6   55.62    4.02
   3   4  -5  226.96    4.10
   3   4  -5  222.77    4.13
   3   4  -5  229.70    4.49
  -3  -4   5  215.48    4.16
   3   4  -4  150.16    3.88
  -3  -4   4  151.38    4.38
   3   4  -4  151.32    4.60
   3   4  -4  157.29    3.49
   3   4  -4  149.88    3.69
  -3  -4   4  151.10    3.72
   3   4  -4  151.16    5.13
   3   4  -3   74.41    3.58
  -3  -4   3   72.83    3.74
   3   4  -3   70.59    4.82
   3   4  -3   71.95    3.49
   3   4  -3   72.39    2.88
  -3  -4   3   71.61    2.86
   3   4  -3   74.50    4.99
   3   4  -3   72.28    3.52
   3   4  -2  653.68    5.91
  -3  -4   2  679.16    8.07
   3   4  -2  685.40    7.93
   3   4  -2  642.06    8.12
  -3  -4   1  177.75    5.13
   3   4  -1  192.14    5.74
  -3  -4   0  346.54    6.16
   3   4   0  339.72    6.82
   3   4   0  350.84    6.21
  -3  -4  -1   71.25    4.52
   3   4   1   65.60    4.52
   3   4   1   70.37    4.46
  -3  -4  -2  575.58    7.54
   3   4   2  588.75    8.21
  -3  -4  -3  896.30    9.93
   3   4   3  856.99   10.79
   3   4   3  899.10   10.45
  -3  -4  -4  216.09    4.52
   3   4   4  221.64    4.88
   3   4   4  219.78    4.63
   3   4   5 1670.86   15.17
   3   4   5 1641.97   15.33
  -3  -4  -7  172.48    4.94
   3   4   8  127.51    2.86
  -3  -4  -8  130.45    5.07
   3   4   8  122.96    3.44
   3   4   8  126.84    4.10
   3   4   8  125.21    2.97
   3   4   9   22.62    2.99
  -3  -4  -9   19.91    4.30
   3   4   9   22.46    3.08
   3   4   9   24.29    2.86
   3   4  10  149.99    6.68
  -3  -4 -10  155.51    4.44
   3   4  10  146.92    5.99
   3   4  10  157.87    5.93
   3   4  11   25.87    2.55
  -3  -4 -11   25.95    2.66
   3   4  11   26.64    3.72
  -3  -4 -11   25.31    3.13
   3   4  11   26.95    2.83
   3   4  12  171.65    4.41
  -3  -4 -12  165.91    4.46
  -3  -4 -12  168.71    4.24
   3   4  12  167.71    4.66
   3   4  13   60.14    2.94
  -3  -4 -13   59.17    2.74
   3   4  13   60.19    2.69
   3   5  -7    0.28    2.08
   3   5  -7   -0.11    3.11
   3   5  -6   49.91    2.86
   3   5  -6   46.25    4.38
   3   5  -6   44.19    4.91
   3   5  -5   23.54    3.33
   3   5  -5   22.62    3.13
   3   5  -5   24.07    4.19
  -3  -5   5   25.70    3.41
   3   5  -5   23.07    5.02
   3   5  -4  192.16    4.85
   3   5  -4  189.61    4.02
   3   5  -4  195.49    5.24
  -3  -5   4  182.82    4.38
   3   5  -4  187.64    4.71
   3   5  -3  437.86    5.46
  -3  -5   3  422.78    6.65
   3   5  -3  420.31    6.90
   3   5  -3  428.36    5.21
   3   5  -3  428.80    7.18
   3   5  -3  427.36    5.85
   3   5  -2   32.52    3.30
  -3  -5   2   32.88    3.38
   3   5  -2   31.69    4.27
   3   5  -2   30.94    3.05
   3   5  -2   32.80    4.74
   3   5  -2   30.66    3.16
   3   5  -1  141.01    4.35
  -3  -5   0  213.10    4.85
   3   5   0  217.50    5.07
   3   5   0  197.63    4.71
  -3  -5  -1   67.57    3.60
   3   5   1   64.77    4.33
   3   5   1   68.07    4.35
  -3  -5  -2   79.54    5.10
   3   5   2   78.63    5.02
   3   5   2   83.23    4.71
  -3  -5  -3  551.98    7.62
   3   5   3  556.22    8.18
   3   5   3  559.58    7.96
   3   5   4 1164.16   11.51
   3   5   5  266.80    4.85
   3   5   6  120.69    5.05
  -3  -5  -6  114.67    4.71
   3   5   7   29.08    2.38
  -3  -5  -7   35.24    3.63
   3   5   7   31.11    2.50
   3   5   7   31.44    2.08
   3   5   8    5.66    2.80
  -3  -5  -8    8.04    3.52
   3   5   8    7.21    2.36
   3   5   8    7.21    3.66
   3   5   8    6.16    2.86
   3   5   9  390.43    5.71
  -3  -5  -9  393.78    7.96
   3   5   9  394.17    6.38
   3   5   9  399.38    5.52
   3   5  10  104.25    3.47
   3   5  10  105.38    4.33
   3   5  10  103.64    3.16
   3   5  11    4.44    2.19
  -3  -5 -11    4.77    2.55
   3   5  11    3.08    3.16
  -3  -5 -11    5.13    2.58
   3   5  11    3.85    3.13
   3   5  12   32.83    3.02
  -3  -5 -12   31.83    3.35
   3   5  12   35.60    2.94
  -3  -5 -12   32.08    3.74
   3   5  12   33.30    2.97
   3   5  13    3.41    2.13
  -3  -5 -13    3.22    2.86
   3   5  13    2.55    2.44
   3   6  -6   42.25    2.80
  -3  -6   6   42.00    3.55
   3   6  -5   34.82    2.66
   3   6  -5   35.60    3.44
   3   6  -4    3.77    2.58
   3   6  -4    2.25    3.19
   3   6  -4    1.39    4.08
   3   6  -3    7.15    2.72
   3   6  -3    6.60    3.74
   3   6  -3    6.63    3.52
   3   6  -2   42.48    3.55
  -3  -6   2   41.39    3.55
   3   6  -2   40.95    2.88
   3   6  -2   42.59    2.50
   3   6  -2   45.28    4.10
   3   6  -2   40.42    4.13
   3   6  -2   42.95    3.05
   3   6  -1   86.20    3.05
  -3  -6   1   86.28    4.05
   3   6  -1   89.64    4.94
   3   6  -1   88.28    3.63
   3   6  -1   87.94    4.21
   3   6  -1   87.39    4.08
   3   6  -1   80.87    3.33
  -3  -6   0  157.15    5.16
   3   6   0  156.12    3.66
   3   6   0  156.68    4.74
   3   6   0  156.73    3.38
   3   6   0  156.18    3.80
   3   6   1   14.97    2.02
  -3  -6  -1   15.53    3.27
   3   6   1   13.31    2.88
   3   6   1   15.47    2.97
  -3  -6  -2  131.39    3.91
   3   6   2  136.13    4.69
   3   6   2  140.90    4.71
  -3  -6  -3  221.44    4.69
   3   6   3  221.11    6.88
   3   6   3  227.35    7.15
   3   6   4  328.88    5.63
   3   6   4  331.54    5.49
   3   6   5  113.87    4.60
   3   6   5  112.98    4.35
   3   6   6   31.25    3.16
   3   6   6   28.58    2.38
   3   6   7  112.07    3.63
  -3  -6  -7  111.73    4.52
   3   6   7  115.75    3.99
   3   6   8  519.93    5.43
  -3  -6  -8  509.31    8.07
   3   6   8  497.83    6.40
   3   6   8  501.00    6.49
   3   6   8  503.21    6.68
   3   6   9   26.42    2.44
   3   6   9   24.01    3.05
   3   6   9   23.43    3.22
   3   6  10   38.23    2.55
   3   6  10   44.72    4.38
   3   6  10   41.95    3.38
  -3  -6 -11  257.73    5.16
   3   6  11  253.19    5.49
  -3  -6 -11  261.86    5.05
   3   6  11  260.65    4.80
  -3  -6 -12   83.48    3.13
   3   6  12   83.87    3.99
  -3  -6 -12   84.78    3.72
   3   6  12   84.09    3.52
   3   6  13   17.63    2.52
   3   7  -5   51.62    2.97
   3   7  -5   53.73    3.80
  -3  -7   5   53.20    3.19
   3   7  -4   29.47    3.33
   3   7  -4   27.23    4.10
   3   7  -3  271.90    5.10
   3   7  -3  258.59    4.99
   3   7  -3  260.59    5.91
   3   7  -3  266.38    5.77
   3   7  -2  505.60    6.24
   3   7  -2  500.52    6.04
   3   7  -2  508.18    6.57
   3   7  -2  515.14    6.27
   3   7  -1 2598.91   12.86
   3   7  -1 2569.38   24.70
   3   7   0  227.51    4.13
  -3  -7   0  223.47    5.41
   3   7   0  225.35    3.99
   3   7   0  236.47    4.24
   3   7   0  220.55    5.35
  -3  -7  -1  229.48    6.27
   3   7   1  228.35    4.52
   3   7   1  226.65    5.49
   3   7   1  227.04    4.35
   3   7   2    8.04    2.47
  -3  -7  -2    8.98    3.16
   3   7   2    8.26    2.55
   3   7   2    7.74    3.94
   3   7   2    7.82    2.80
   3   7   2    8.26    3.60
   3   7   3  292.83    4.41
   3   7   3  294.33    4.33
   3   7   3  289.06    3.91
   3   7   3  298.49    5.24
   3   7   3  293.72    6.07
   3   7   4  409.75    8.29
   3   7   4  416.66    4.52
   3   7   4  420.31    6.68
   3   7   4  418.54    4.94
   3   7   4  415.52    5.85
   3   7   4  416.79    7.04
   3   7   5  120.19    2.94
   3   7   5  114.59    3.35
   3   7   5  124.18    5.10
   3   7   5  120.47    3.80
   3   7   5  119.63    3.99
   3   7   5  121.94    4.13
   3   7   6   45.86    2.50
   3   7   6   47.52    2.63
   3   7   6   51.26    4.49
   3   7   6   50.46    3.69
   3   7   6   48.88    3.41
   3   7   6   49.24    3.24
   3   7   7   30.47    2.19
  -3  -7  -7   31.14    3.72
   3   7   7   32.88    2.72
  -3  -7  -7   31.36    4.52
   3   7   8  203.09    4.49
  -3  -7  -8  196.49    5.63
   3   7   8  204.95    4.24
   3   7   8  196.88    5.41
   3   7   9  458.58    6.27
   3   7  10    8.18    3.38
   3   7  11   19.52    3.08
   3   7  11   19.80    3.27
   3   7  12   25.92    2.94
   3   7  13    1.61    2.22
   3   8  -4   40.23    2.80
   3   8  -3  119.44    3.19
   3   8  -3  117.39    3.30
   3   8  -2  681.87    9.98
   3   8  -2  665.10    9.70
   3   8  -1 1031.24    8.15
   3   8  -1 1036.18    7.40
   3   8   0  237.16    4.08
   3   8   0  243.54    4.85
   3   8   1  107.77    3.30
   3   8   1  111.98    4.52
   3   8   2   25.29    3.69
   3   8   3  526.97    5.07
   3   8   3  526.56    5.30
   3   8   3  512.94    6.85
   3   8   3  514.05    5.18
   3   8   3  518.49    6.71
   3   8   4  324.97    6.49
   3   8   4  296.24    8.54
   3   8   4  326.35    5.88
   3   8   4  320.67    6.21
   3   8   4  325.00    7.01
   3   8   5  146.25    3.35
   3   8   5  151.52    3.60
   3   8   5  148.58    5.13
   3   8   5  150.52    4.16
   3   8   5  147.78    4.16
   3   8   5  145.50    4.33
   3   8   6  113.67    6.71
   3   8   6  121.60    9.26
   3   8   6  119.77    5.77
   3   8   6  109.29    8.23
   3   8   6  118.25    5.10
   3   8   6  110.73   10.84
   3   8   7  911.30   10.26
   3   8   7  914.99    9.95
   3   8   7  891.28    9.81
   3   8   8  116.25    3.94
   3   8   8  116.17    4.57
   3   8   9 1925.02    9.68
   3   8   9 1912.57   11.09
   3   8   9 1936.14   10.79
   3   8  10   63.46    3.72
   3   8  10   63.21    4.38
   3   8  11    9.34    2.74
   3   9  -3   12.37    2.22
   3   9  -2  143.95    3.94
   3   9  -2  137.32    3.94
   3   9  -1   44.36    3.49
   3   9  -1   45.75    3.80
   3   9   0   13.75    3.30
   3   9   0   14.72    3.63
   3   9   1    7.32    2.72
   3   9   1    7.46    2.99
   3   9   2   49.02    3.72
   3   9   2   48.66    3.85
   3   9   4   22.76    2.97
   3   9   4   25.81    3.16
   3   9   5   42.64    5.52
   3   9   5   41.37    5.57
   3   9   5   41.09    8.79
   3   9   6  461.24    5.74
   3   9   6  454.14    5.18
   3   9   6  454.53    5.93
   3   9   7  183.37    5.99
   3   9   7  192.61    3.88
   3   9   7  187.53    5.74
   3   9   8 1401.71    8.93
   3   9   8 1376.20   17.08
   3   9   8 1410.63    8.48
   3   9   9   52.82    3.72
   3   9   9   53.95    4.02
   3   9  10    9.54    2.55
   3   9  10    8.12    2.83
   3   9  10    9.07    4.02
   3   9  11   78.02    3.72
   3   9  11   74.47    4.02
   3   9  12  132.06    3.52
   3   9  12  131.47    3.88
   3  10  -1  163.80    3.27
   3  10  -1  159.92    3.52
   3  10   0  436.04    5.02
   3  10   0  435.98    5.13
   3  10   1    5.13    3.30
   3  10   1    6.24    3.19
   3  10   2    9.76    3.60
   3  10   2   12.23    2.97
   3  10   3    9.43    2.63
   3  10   4   12.06    4.08
   3  10   5  106.19    4.08
   3  10   6    8.37    3.38
   3  10   6    7.24    3.08
   3  10   7  250.77    5.35
   3  10   7  248.03    4.80
   3  10   7  242.65    5.21
   3  10   8   41.89    3.94
   3  10   8   44.69    3.27
   3  10   8   40.73    3.47
   3  10   9   87.20    3.22
   3  10   9   84.15    4.02
   3  10   9   84.92    3.11
   3  10  10    1.00    2.69
   3  10  10    0.00    3.05
   3  10  11    0.72    3.11
   3  10  11    0.50    2.30
   3  11   1   33.85    2.91
   3  11   1   39.20    3.41
   3  11   2   19.77    3.16
   3  11   3  173.50    3.72
   3  11   4    9.90    3.63
   3  11   6    0.42    2.66
   3  11   7   20.60    2.74
   3  11   7   20.74    3.19
   3  11   8   11.76    3.16
   3  11   9    1.61    2.38
   3  11   9    2.25    2.80
   3  11  10   33.66    2.77
   3  11  10   36.90    2.63
   3  12   5    1.69    2.63
  -4   8   4   57.81    3.30
  -4   8   3   41.12    4.66
  -4   7   6   10.87    2.72
  -4   7   6   10.62    3.08
  -4   7   5   13.28    3.08
  -4   7   4   23.51    3.83
  -4   7   4   24.48    3.63
  -4   7   3   40.37    3.66
  -4   7   3   36.99    3.58
  -4   7   2  118.58    4.27
  -4   7   2  120.80    3.60
  -4   7   1   17.74    2.97
  -4   7   0   36.35    3.38
  -4   7  -1   72.39    3.22
  -4   7  -1   74.77    3.69
  -4   7  -2  144.61    3.63
  -4   7  -3   73.78    3.41
   4  -6  -7   18.60    2.97
  -4   6   7   13.89    2.83
  -4   6   7   20.02    2.63
   4  -6  -6   26.06    3.49
  -4   6   6   27.42    4.24
  -4   6   6   29.17    2.86
  -4   6   5   17.83    5.55
  -4   6   5   24.90    4.05
  -4   6   4   32.97    3.74
  -4   6   4   33.13    3.08
  -4   6   3  443.38    7.74
  -4   6   3  417.76    6.76
  -4   6   2   52.71    4.24
  -4   6   2   49.71    3.27
  -4   6   1   75.77    4.21
  -4   6   1   81.79    3.41
  -4   6   0  316.18    5.96
  -4   6  -1 1130.41   14.83
  -4   6  -1 1135.10    8.01
  -4   6  -2  843.35    6.82
  -4   6  -2  848.48    7.13
  -4   6  -3    9.59    2.63
  -4   6  -4    2.58    2.50
   4  -5  -8    4.85    3.11
  -4   5   8    6.24    2.69
   4  -5  -7   63.82    3.80
  -4   5   7   68.18    3.33
  -4   5   7   69.01    3.52
  -4   5   6   14.78    3.80
  -4   5   6   16.80    3.22
  -4   5   5  326.60    6.24
  -4   5   5  313.13    5.71
  -4   5   4  184.82    4.77
  -4   5   3   43.47    4.21
  -4   5   3   45.08    4.63
  -4   5   2  668.59    7.15
  -4   5   2  629.14    6.52
  -4   5   1  191.05    4.27
  -4   5   1  192.41    4.74
  -4   5   0  175.33    4.41
  -4   5   0  179.99    3.88
  -4   5   0  187.20    3.99
  -4   5  -1   66.93    3.88
  -4   5  -1   66.40    4.30
  -4   5  -2   94.90    4.21
  -4   5  -2   94.82    4.33
  -4   5  -3  218.72    4.77
  -4   5  -3  232.09    5.07
  -4   5  -4  153.60    4.63
  -4   5  -6   26.84    3.05
  -4   5  -6   24.73    3.02
  -4   4   8   54.84    2.55
   4  -4  -8   56.12    3.77
  -4   4   7   97.18    3.11
   4  -4  -7   95.60    3.60
  -4   4   6   24.48    3.22
   4  -4  -6   25.29    2.99
  -4   4   6   13.11    4.41
  -4   4   5  416.43    6.02
  -4   4   4   83.04    4.44
  -4   4   3  344.93    5.99
  -4   4   2  184.90    4.94
  -4   4   2  170.87    3.72
  -4   4   0   76.97    3.66
  -4   4   0   78.82    3.08
  -4   4   0   77.71    3.41
  -4   4   0   79.57    3.19
  -4   4  -1  136.10    4.21
  -4   4  -1  139.60    3.55
  -4   4  -1  146.08    3.66
  -4   4  -2  176.19    4.30
  -4   4  -2  180.71    4.13
  -4   4  -3   97.68    3.30
  -4   4  -3   98.04    4.38
  -4   4  -4   80.99    3.58
  -4   4  -5  177.83    4.85
  -4   4  -5  180.16    4.52
  -4   4  -6   19.02    2.88
  -4   4  -6   18.52    2.77
  -4   4  -7  139.29    4.13
  -4   4  -7  142.87    4.02
  -4   4  -7  136.77    4.10
  -4   4  -8   44.22    2.63
  -4   4  -8   43.03    2.55
  -4   4  -8   44.86    3.24
  -4   3   9  332.79    4.77
   4  -3  -9  332.07    4.85
   4  -3  -9  317.79    4.82
  -4   3   8    1.83    2.44
   4  -3  -8    0.86    2.83
   4  -3  -8   -0.58    3.24
  -4   3   7    8.01    2.58
   4  -3  -7    8.15    3.35
  -4   3   6   54.34    3.77
   4  -3  -6   55.06    3.88
  -4   3   6   40.01    2.94
  -4   3   5    7.71    2.44
  -4   3   5    6.38    2.94
  -4   3   4   99.28    3.52
  -4   3   4  101.47    5.68
   4  -3  -4   95.85    4.82
  -4   3   3  126.26    3.55
  -4   3   3  136.63    3.74
  -4   3   2  337.83    5.49
  -4   3   1  114.28    4.13
  -4   3   1  123.16    3.44
  -4   3   0   39.26    3.44
  -4   3   0   44.55    2.69
  -4   3   0   41.67    2.94
  -4   3  -1   29.25    3.41
  -4   3  -1   26.28    2.38
  -4   3  -1   30.19    2.61
  -4   3  -2    1.50    2.77
  -4   3  -2    0.97    2.47
  -4   3  -2    1.61    2.38
  -4   3  -3  384.94    6.60
  -4   3  -3  400.74    4.74
  -4   3  -3  391.87    5.41
  -4   3  -4  176.89    4.88
  -4   3  -4  179.72    4.44
  -4   3  -4  181.38    4.77
  -4   3  -5  269.21    4.91
  -4   3  -5  257.46    4.44
  -4   3  -5  258.04    4.69
  -4   3  -6  151.02    3.77
  -4   3  -6  147.11    4.21
  -4   3  -6  149.61    4.24
  -4   3  -7  136.24    4.19
  -4   3  -7  137.41    3.99
  -4   3  -7  134.44    3.83
  -4   3  -8  384.41    6.24
  -4   3  -8  409.42    7.04
  -4   3  -8  399.52    7.26
  -4   3  -9  108.68    3.49
  -4   3  -9  107.93    4.02
  -4   2   9    1.75    2.33
   4  -2  -9    1.05    2.94
  -4   2   8    4.49    3.41
   4  -2  -8    3.19    2.83
   4  -2  -8    2.74    3.35
  -4   2   7   10.51    2.77
   4  -2  -7   10.18    3.80
   4  -2  -7    9.76    2.83
  -4   2   6   15.00    3.80
   4  -2  -6   16.33    3.44
   4  -2  -6   12.75    2.88
  -4   2   5    6.43    3.41
   4  -2  -5    5.60    3.99
  -4   2   4  239.21    4.35
  -4   2   4  245.84    4.96
   4  -2  -4  235.47    5.79
  -4   2   3    9.09    2.77
  -4   2   3    2.27    3.83
   4  -2  -3    6.52    3.83
  -4   2   2    3.13    2.16
  -4   2   2    3.13    3.44
   4  -2  -2    1.97    2.86
  -4   2   1  838.36    8.07
  -4   2   1  843.43    6.82
  -4   2   0  153.38    4.02
  -4   2  -1  514.64    7.07
  -4   2  -2   25.73    3.83
  -4   2  -2   24.04    2.25
  -4   2  -2   26.01    3.13
  -4   2  -3   77.55    2.69
  -4   2  -3   80.65    3.33
  -4   2  -4  148.27    3.96
  -4   2  -4  151.82    5.02
  -4   2  -4  150.30    3.66
  -4   2  -4  147.22    3.55
  -4   2  -5   99.42    3.80
  -4   2  -5   96.26    4.44
  -4   2  -5   95.96    3.05
  -4   2  -5  100.28    3.27
  -4   2  -5   95.49    3.08
  -4   2  -6   25.70    3.58
  -4   2  -6   24.48    2.63
  -4   2  -6   24.76    2.50
  -4   2  -6   26.28    3.58
  -4   2  -7  231.34    4.77
  -4   2  -7  230.51    4.19
  -4   2  -7  232.61    4.46
  -4   2  -7  236.80    4.41
  -4   2  -8    0.61    2.72
  -4   2  -8    0.22    2.55
  -4   2  -8   -0.58    3.13
  -4   2  -9  254.55    5.38
  -4   2  -9  255.90    5.52
  -4   2 -10   28.75    3.02
  -4   2 -10   27.75    3.52
   4  -1  -9   42.09    3.30
   4  -1  -9   41.03    3.35
  -4   1   9   40.95    2.58
  -4   1   8    6.93    2.61
   4  -1  -8    6.10    3.19
  -4   1   8    4.57    3.11
  -4   1   7   32.97    3.49
   4  -1  -7   31.66    3.30
   4  -1  -7   31.36    4.16
  -4   1   7   30.14    2.61
  -4   1   6   44.36    3.60
   4  -1  -6   43.86    3.35
   4  -1  -6   46.99    3.05
  -4   1   6   46.11    3.27
  -4   1   5  881.83    9.95
   4  -1  -5  886.35   10.20
   4  -1  -5  890.92   12.25
   4  -1  -5  893.00   10.62
  -4   1   5  900.54   10.15
   4  -1  -5  867.97   11.78
  -4   1   4   44.83    2.69
   4  -1  -4   44.47    2.72
   4  -1  -4   46.02    3.58
   4  -1  -4   45.25    2.52
   4  -1  -4   46.69    3.74
  -4   1   3  100.25    3.33
  -4   1   3  100.06    3.52
   4  -1  -3  102.81    4.66
   4  -1  -3   99.20    4.46
  -4   1   2    4.49    2.27
   4  -1  -2    3.96    2.83
  -4   1   1   37.43    3.13
   4  -1  -1   36.79    3.52
  -4   1   0   80.46    4.30
  -4   1  -1    7.01    3.33
  -4   1  -2  225.60    4.66
  -4   1  -3   92.60    4.71
  -4   1  -4  220.06    4.13
  -4   1  -4  226.88    4.82
  -4   1  -4  218.78    3.41
  -4   1  -4  219.28    3.69
  -4   1  -4  227.82    3.63
  -4   1  -5   26.70    2.52
  -4   1  -5   23.57    3.11
  -4   1  -5   23.29    3.08
  -4   1  -5   23.10    2.72
  -4   1  -5   23.90    2.63
  -4   1  -5   23.07    2.44
  -4   1  -6   14.42    2.69
  -4   1  -6   12.34    2.94
  -4   1  -6   10.51    2.97
  -4   1  -6   10.42    2.66
  -4   1  -6   13.72    2.74
  -4   1  -7  343.24    5.57
  -4   1  -7  352.53    5.74
  -4   1  -7  347.65    5.27
  -4   1  -7  353.50    5.82
  -4   1  -8   41.28    3.27
  -4   1  -8   45.33    2.97
  -4   1  -8   44.53    3.58
  -4   1  -8   46.38    3.58
   4  -1   9  148.83    3.94
  -4   1  -9  148.61    4.35
  -4   1  -9  149.77    3.55
   4  -1  10   59.03    2.91
  -4   1 -10   60.75    3.55
  -4   1 -10   61.38    2.86
  -4   0   9    9.26    3.02
   4   0  -9    8.57    2.63
   4   0  -9    8.87    3.22
  -4   0   9    9.32    2.83
  -4   0   8   13.59    3.35
   4   0  -8   10.48    3.74
   4   0  -8   10.40    2.97
  -4   0   8   13.53    3.11
  -4   0   7   49.49    3.66
   4   0  -7   46.86    3.44
  -4   0   7   47.27    3.05
  -4   0   6  931.43    8.21
   4   0  -6  928.07    8.51
   4   0  -6  907.61    8.46
  -4   0   6  900.18    8.01
   4   0  -5   41.59    4.05
   4   0  -5   37.51    3.85
   4   0  -5   40.67    3.05
  -4   0   5   43.58    3.19
   4   0  -5   33.24    4.99
   4   0  -4  528.55    8.68
   4   0  -4  541.81    9.73
   4   0  -4  545.02    8.37
  -4   0   4  537.04    8.12
   4   0  -4  530.77    9.79
   4   0  -3   58.69    2.52
  -4   0   3   64.18    3.85
   4   0  -3   64.24    4.57
   4   0  -3   57.95    2.83
  -4   0   3   61.80    2.97
   4   0  -3   61.33    3.66
  -4   0   2    1.16    2.50
   4   0  -2   -0.47    3.66
   4   0  -2    2.38    3.96
  -4   0   1   11.89    3.22
   4   0  -1    9.98    3.38
   4   0  -1   11.40    3.69
  -4   0   0   53.12    3.49
   4   0   0   39.26    2.72
   4   0   0   42.09    4.05
  -4   0  -1  829.01    9.26
  -4   0  -3   76.41    4.66
  -4   0  -4   67.90    3.44
  -4   0  -5   31.16    3.24
  -4   0  -5   30.00    2.97
  -4   0  -5   24.73    2.38
  -4   0  -5   31.33    3.19
  -4   0  -6  386.96    5.41
  -4   0  -6  386.79    6.13
  -4   0  -6  381.55    4.63
  -4   0  -6  383.44    4.80
  -4   0  -6  381.39    4.60
  -4   0  -7   23.57    3.91
  -4   0  -7   20.18    3.30
  -4   0  -7   16.94    3.11
  -4   0  -8 1820.88   18.02
  -4   0  -8 1839.74    9.84
  -4   0  -8 1837.19    9.87
   4   0   9    3.94    2.80
  -4   0  -9    0.03    3.33
  -4   0  -9   -0.50    2.86
  -4   0  -9   -0.03    3.41
   4   0  10  105.88    3.94
  -4   0 -10  104.30    3.49
  -4   0 -10  106.30    5.10
   4   0  11   22.85    2.61
  -4   0 -11   21.57    3.05
  -4  -1   8  213.57    3.91
   4   1  -8  211.16    4.21
  -4  -1   8  215.18    3.99
  -4  -1   7  138.32    4.13
   4   1  -7  140.15    4.74
  -4  -1   7  141.70    4.52
  -4  -1   6  142.31    4.02
   4   1  -6  136.30    4.82
  -4  -1   6  144.50    3.77
  -4  -1   5  208.27    4.41
   4   1  -5  204.61    4.57
   4   1  -5  201.51    4.63
  -4  -1   5  207.94    4.35
  -4  -1   5  203.31    4.35
  -4  -1   4  691.02    9.62
   4   1  -4  663.74    9.65
   4   1  -4  655.23   10.81
   4   1  -4  677.41    9.65
  -4  -1   4  671.37    9.43
   4   1  -4  666.04   11.20
  -4  -1   4  667.96    9.32
  -4  -1   3  461.51    4.91
   4   1  -3  450.20    5.41
  -4  -1   3  456.77    8.79
   4   1  -3  474.21    6.93
   4   1  -3  458.94    5.13
  -4  -1   3  469.55    5.57
   4   1  -3  464.45    6.99
  -4  -1   2   58.25    3.35
   4   1  -2   60.30    3.69
   4   1  -2   59.17    3.69
  -4  -1   1  484.61    8.23
   4   1  -1  471.72    6.96
   4   1  -1  464.23    7.98
  -4  -1   0  325.77    5.63
   4   1   0  317.79    5.77
   4   1   0  315.74    6.21
  -4  -1  -1   97.45    4.44
   4   1   1   98.01    4.16
   4   1   1   83.59    3.41
  -4  -1  -2   17.69    3.74
   4   1   2   14.39    2.47
  -4  -1  -3   30.83    2.99
  -4  -1  -4  419.95    7.10
  -4  -1  -5  520.90    9.62
  -4  -1  -6  308.97    4.33
  -4  -1  -6  310.27    5.55
  -4  -1  -6  313.96    3.88
   4   1   6  306.78    3.83
  -4  -1  -6  322.83    4.66
  -4  -1  -7  253.69    5.10
  -4  -1  -7  256.96    4.69
   4   1   7  247.97    4.52
  -4  -1  -7  262.95    5.24
  -4  -1  -8  196.71    5.57
  -4  -1  -8  200.26    4.71
   4   1   8  195.13    3.83
  -4  -1  -8  198.93    4.38
  -4  -1  -9  132.69    3.88
  -4  -1  -9  133.22    4.41
  -4  -1  -9  132.36    3.85
   4   1   9  135.16    4.05
  -4  -1  -9  133.08    4.38
   4   1  10  159.12    4.49
  -4  -1 -10  155.51    4.49
   4   1  10  147.03    4.05
  -4  -1 -10  152.57    4.38
   4   1  11   57.61    3.66
  -4  -1 -11   56.78    2.99
  -4  -1 -11   57.20    4.05
   4   1  11   56.92    3.47
  -4  -1 -11   56.64    4.08
   4   1  12   12.86    2.61
  -4  -1 -12   13.28    2.80
  -4  -1 -12   13.22    2.91
  -4  -1 -12   12.03    3.05
  -4  -2   8   39.92    3.16
   4   2  -8   39.79    3.52
   4   2  -8   40.06    3.83
  -4  -2   7  638.57    7.96
   4   2  -7  641.48    8.54
   4   2  -7  627.06    8.18
  -4  -2   7  645.83    7.60
  -4  -2   6  234.69    4.38
   4   2  -6  245.34    5.32
   4   2  -6  239.07    4.49
  -4  -2   6  242.87    4.57
  -4  -2   5  139.32    3.58
  -4  -2   5  139.74    3.30
  -4  -2   4  168.76    3.66
   4   2  -4  164.91    4.96
   4   2  -4  153.32    5.63
   4   2  -4  167.07    4.57
  -4  -2   4  172.76    4.66
   4   2  -4  156.68    6.16
  -4  -2   3  635.74    5.68
   4   2  -3  646.66    5.88
  -4  -2   3  657.31    7.46
   4   2  -3  663.85    8.62
   4   2  -3  658.81    6.40
  -4  -2   3  652.38    5.66
   4   2  -3  651.90    8.07
  -4  -2   2  409.95    6.60
   4   2  -2  420.59    6.90
  -4  -2   1  271.40    5.77
   4   2  -1  277.95    5.55
   4   2  -1  274.45    5.43
  -4  -2   0  563.10    7.57
   4   2   0  577.54    8.37
   4   2   0  569.45    8.18
   4   2   1 1145.64   18.24
   4   2   1 1146.36   15.69
  -4  -2  -2  404.40    6.46
   4   2   2  381.53    6.49
  -4  -2  -3 5935.28   20.85
   4   2   3 5892.59   40.87
  -4  -2  -4  153.51    4.16
   4   2   4  150.71    4.24
  -4  -2  -5    8.07    3.35
  -4  -2  -7  375.90    5.16
  -4  -2  -7  378.23    5.02
   4   2   7  376.56    4.91
  -4  -2  -7  381.50    5.32
  -4  -2  -8 1345.42    8.54
  -4  -2  -8 1344.65    8.48
   4   2   8 1351.27    9.62
  -4  -2  -8 1363.94    8.93
  -4  -2  -9   17.33    3.74
  -4  -2  -9   15.11    2.77
   4   2   9   15.75    2.66
  -4  -2  -9   17.52    3.08
   4   2  10   57.72    3.74
  -4  -2 -10   55.81    3.19
   4   2  10   59.61    3.74
  -4  -2 -10   56.34    3.94
  -4  -2 -11   23.37    3.91
  -4  -2 -11   21.90    4.02
   4   2  11   27.00    4.02
  -4  -2 -11   17.72    4.60
  -4  -2 -12  172.45    3.60
  -4  -2 -12  176.44    4.19
   4   2  12  172.09    3.52
   4   3  -8   76.49    3.24
   4   3  -8   77.82    3.02
  -4  -3   8   76.19    3.41
  -4  -3   8   75.86    2.91
   4   3  -7  103.44    3.52
   4   3  -7  106.60    3.69
  -4  -3   7  103.94    3.58
  -4  -3   7  106.30    3.96
  -4  -3   6   76.44    3.27
   4   3  -6   83.98    3.55
   4   3  -6   79.60    4.69
   4   3  -6   76.02    3.47
  -4  -3   6   81.01    3.58
  -4  -3   6   79.99    3.33
  -4  -3   5   13.36    3.08
   4   3  -5   13.78    4.05
   4   3  -5   14.78    3.16
   4   3  -5   12.89    3.72
  -4  -3   5   16.47    3.63
  -4  -3   4   52.59    2.55
   4   3  -4   52.10    4.10
   4   3  -4   51.76    3.27
   4   3  -4   50.82    2.80
  -4  -3   4   55.12    3.13
   4   3  -4   52.82    4.16
  -4  -3   3   23.10    2.11
   4   3  -3   23.12    2.63
  -4  -3   3   20.32    4.30
   4   3  -3   24.15    2.36
  -4  -3   3   27.67    2.66
   4   3  -3   24.70    3.47
   4   3  -3   24.90    3.38
   4   3  -2   81.79    3.33
  -4  -3   2   82.82    3.72
   4   3  -2   81.51    3.96
   4   3  -2   85.03    2.97
  -4  -3   2   82.95    2.74
   4   3  -2   84.17    4.66
   4   3  -2   83.20    3.19
  -4  -3   1 1872.45   12.06
   4   3  -1 1919.61   13.42
   4   3  -1 1889.81   12.61
  -4  -3   0  526.45    7.76
   4   3   0  553.17    7.96
   4   3   0  554.12    8.21
  -4  -3  -1   12.64    4.08
  -4  -3  -2    7.01    2.72
   4   3   2    5.77    3.66
   4   3   2    5.66    3.08
  -4  -3  -3  437.25    6.52
   4   3   3  427.19    6.65
  -4  -3  -4  561.35    7.65
   4   3   4  542.86    7.60
  -4  -3  -5 2613.16   14.22
   4   3   5 2611.52   14.25
  -4  -3  -6  173.89    5.13
  -4  -3  -7 1023.14    7.71
   4   3   7 1044.44    6.90
  -4  -3  -7 1007.48    7.93
  -4  -3  -8  519.77    8.04
   4   3   8  511.20    7.62
  -4  -3  -8  492.01    7.54
  -4  -3  -9  979.48   11.31
   4   3   9  993.89   11.09
  -4  -3  -9  949.92   10.31
   4   3  10  917.29    7.29
  -4  -3 -10  937.31    7.26
   4   3  10  928.55    6.96
  -4  -3 -10  918.90    7.54
   4   3  11  314.27    4.33
  -4  -3 -11  313.66    4.88
   4   3  11  310.44    4.33
   4   3  12   22.29    3.52
  -4  -3 -12   22.24    2.74
   4   3  12   21.38    2.63
   4   4  -7  123.41    3.44
   4   4  -7  119.47    3.35
  -4  -4   7  123.29    3.77
  -4  -4   7  126.43    3.69
   4   4  -6    5.32    3.60
   4   4  -6    4.91    3.52
   4   4  -6    5.07    3.60
  -4  -4   6    6.76    3.63
  -4  -4   6    4.60    3.16
   4   4  -5    1.33    3.30
   4   4  -5    1.89    3.88
   4   4  -5    1.16    2.97
  -4  -4   5    2.00    2.74
   4   4  -4  289.29    6.18
   4   4  -4  292.83    6.18
   4   4  -4  285.51    5.55
   4   4  -4  287.65    6.65
  -4  -4   3  318.15    6.32
   4   4  -3  311.58    5.99
   4   4  -3  319.73    4.49
   4   4  -3  323.78    5.10
  -4  -4   3  316.68    4.38
   4   4  -2  250.14    3.91
  -4  -4   2  253.05    5.99
   4   4  -2  248.78    5.85
   4   4  -2  253.82    4.21
   4   4  -2  252.52    4.38
  -4  -4   2  248.36    4.41
   4   4  -2  250.61    5.43
   4   4  -2  250.72    4.38
   4   4  -1  261.50    4.27
  -4  -4   1  263.06    5.66
   4   4  -1  251.97    3.88
  -4  -4   1  251.41    3.74
   4   4  -1  266.58    6.21
   4   4   0  467.75    6.57
  -4  -4  -1 1467.53   14.14
   4   4   1 1457.68   14.00
   4   4   1 1435.03   10.65
  -4  -4  -2  363.95    6.40
   4   4   2  368.91    6.54
   4   4   2  357.79    6.13
  -4  -4  -4  674.31    8.46
   4   4   4  668.34    8.82
   4   4   5  140.35    4.02
   4   4   6   -0.42    2.38
  -4  -4  -7   12.37    2.16
   4   4   7   14.20    2.66
  -4  -4  -7   13.28    3.05
   4   4   7   13.14    1.91
   4   4   7   12.92    2.83
  -4  -4  -8  186.56    4.99
   4   4   8  190.31    5.32
  -4  -4  -8  197.49    6.38
   4   4   8  184.79    5.07
   4   4   8  190.08    4.52
   4   4   9  264.19    4.55
   4   4  10  235.91    7.51
  -4  -4 -10  245.67    6.04
   4   4  11  117.67    3.83
  -4  -4 -11  114.23    4.30
  -4  -4 -11  116.09    3.85
   4   4  12  170.32    3.77
  -4  -4 -12  171.12    4.49
  -4  -4 -12  169.46    4.21
   4   4  13  103.61    3.19
  -4  -4 -13  102.78    3.24
  -4  -4 -13  106.96    3.83
   4   5  -6    3.08    2.50
   4   5  -6    2.19    2.47
   4   5  -6    2.33    3.16
  -4  -5   6    2.77    2.33
  -4  -5   6    2.50    2.41
   4   5  -5   74.89    3.35
   4   5  -5   73.97    3.58
   4   5  -5   72.39    3.44
  -4  -5   5   76.63    4.02
   4   5  -4   97.98    3.74
   4   5  -4  100.03    4.05
   4   5  -4   98.73    4.52
  -4  -5   4   97.32    3.41
   4   5  -4  101.95    4.10
   4   5  -3  252.36    4.69
   4   5  -3  255.02    4.77
   4   5  -3  257.12    5.30
  -4  -5   3  247.97    4.49
   4   5  -3  262.17    5.91
  -4  -5   2  260.12    5.27
   4   5  -2  265.05    5.60
   4   5  -2  262.78    4.24
   4   5  -2  265.41    5.16
  -4  -5   2  250.05    4.19
   4   5  -2  268.19    5.16
   4   5  -1  284.77    4.02
   4   5  -1  290.45    5.77
   4   5  -1  290.87    4.19
   4   5  -1  292.00    4.82
  -4  -5   1  282.63    4.38
   4   5  -1  290.31    5.60
   4   5  -1  296.88    4.57
   4   5   0   18.10    2.16
  -4  -5   0   22.29    4.27
   4   5   0   27.67    4.60
   4   5   0   24.29    3.11
   4   5   0   17.16    3.08
  -4  -5   0   13.70    1.97
   4   5   0   20.66    3.24
  -4  -5   0   17.30    2.13
  -4  -5  -1  157.01    4.38
   4   5   1  158.39    5.21
   4   5   1  156.54    5.27
  -4  -5  -2   16.86    2.91
   4   5   2   18.05    2.86
  -4  -5  -3   33.44    3.69
   4   5   3   33.96    3.41
   4   5   3   32.11    2.77
   4   5   4   17.25    3.05
   4   5   4   14.78    2.63
   4   5   5   69.76    4.44
   4   5   6   89.66    3.05
   4   5   6   91.35    3.72
   4   5   7    9.57    2.61
  -4  -5  -7   13.61    3.80
   4   5   7   12.03    2.44
   4   5   7   10.62    2.08
   4   5   8    5.82    2.88
  -4  -5  -8    6.18    4.69
   4   5   8    5.85    3.22
   4   5   8    5.32    3.05
   4   5   9  322.83    7.13
  -4  -5  -9  324.91    8.12
   4   5   9  322.06    7.18
   4   5   9  325.77    7.10
   4   5  10    2.58    2.38
   4   5  10    2.05    2.52
   4   5  10    1.77    3.47
   4   5  11   57.36    2.83
  -4  -5 -11   56.89    3.63
   4   5  11   54.09    3.52
   4   5  11   58.44    3.16
   4   5  12   15.47    2.91
  -4  -5 -12   14.81    2.99
  -4  -5 -12   14.92    3.49
   4   5  12   15.86    3.22
   4   5  13    0.61    2.22
  -4  -5 -13    0.08    2.58
  -4  -5 -13   -0.03    2.94
   4   5  13    0.75    2.27
   4   6  -6    4.91    2.44
  -4  -6   6    5.35    3.02
   4   6  -5  125.79    4.05
   4   6  -5  126.40    3.60
   4   6  -5  125.57    4.08
  -4  -6   5  131.03    4.52
   4   6  -4    1.08    3.30
   4   6  -4    1.22    3.38
   4   6  -4    0.39    3.05
  -4  -6   4    0.36    2.86
   4   6  -3  535.43    5.55
   4   6  -3  537.26    6.38
   4   6  -3  530.86    6.46
   4   6  -2   47.44    3.35
   4   6  -2   51.79    3.47
   4   6  -2   53.15    4.08
   4   6  -1  193.88    4.94
   4   6  -1  193.80    3.72
   4   6  -1  182.68    5.24
  -4  -6   1  190.72    3.52
   4   6   0   83.92    3.33
  -4  -6   0   84.73    4.96
   4   6   0   85.53    4.16
   4   6   0   83.56    3.08
   4   6   0   84.04    4.52
  -4  -6   0   84.20    3.41
   4   6   1  436.06    4.63
  -4  -6  -1  438.97    6.57
   4   6   1  441.52    6.68
   4   6   1  436.84    4.94
   4   6   1  442.77    6.60
  -4  -6  -1  438.78    4.63
   4   6   2  125.87    2.86
  -4  -6  -2  131.36    4.02
   4   6   2  130.25    4.27
   4   6   2  127.59    3.11
   4   6   2  129.87    4.05
  -4  -6  -3  405.23    6.29
   4   6   3  391.31    8.46
   4   6   3  383.41    4.46
   4   6   3  408.64    7.01
   4   6   4   26.48    3.49
   4   6   5  699.31    7.85
   4   6   5  692.47    8.18
   4   6   5  703.17    9.23
   4   6   6    2.50    2.97
   4   6   6    1.75    2.94
   4   6   6    1.75    2.11
   4   6   6    2.44    2.66
   4   6   7  134.80    4.74
   4   6   7  142.15    4.66
   4   6   7  144.78    3.66
   4   6   7  139.40    3.55
   4   6   8   30.11    3.08
  -4  -6  -8   31.52    3.99
   4   6   8   30.66    3.22
   4   6   8   31.19    3.47
   4   6   8   30.78    2.66
   4   6   9   36.35    3.05
   4   6   9   35.49    3.88
   4   6   9   35.49    2.52
   4   6  10   13.36    3.13
   4   6  10   13.83    4.05
   4   6  10   13.70    3.41
  -4  -6 -11   62.66    4.13
   4   6  11   61.61    4.05
   4   6  11   64.18    2.88
  -4  -6 -12   29.00    3.24
   4   6  12   28.25    3.02
  -4  -6 -12   27.48    2.99
   4   6  12   29.78    3.33
  -4  -6 -13   39.34    2.33
  -4  -6 -13   38.65    2.97
   4   6  13   41.03    2.41
   4   7  -5   91.35    2.77
  -4  -7   5   90.50    3.11
   4   7  -4   18.35    3.24
  -4  -7   4   20.21    3.83
   4   7  -3   71.42    3.13
   4   7  -3   68.29    3.08
  -4  -7   3   73.06    3.44
   4   7  -2   38.01    2.99
   4   7  -2   39.20    3.13
   4   7  -2   40.56    3.49
  -4  -7   2   40.23    3.72
   4   7  -1   56.53    3.30
   4   7  -1   60.16    4.52
  -4  -7   1   53.18    2.83
  -4  -7   0   39.56    4.41
   4   7   0   42.86    3.30
   4   7   0   41.73    3.38
   4   7   0   43.31    3.16
   4   7   0   44.91    4.60
  -4  -7   0   39.92    2.47
   4   7   1  274.37    4.05
  -4  -7  -1  274.98    5.43
   4   7   1  273.07    3.99
   4   7   1  270.35    5.46
   4   7   1  272.10    4.35
   4   7   1  273.65    5.30
   4   7   2   14.44    2.36
  -4  -7  -2   13.72    2.80
   4   7   2   13.11    2.22
   4   7   2   13.61    3.13
   4   7   2   14.06    2.38
   4   7   2   13.72    3.08
   4   7   3    2.99    2.00
   4   7   3    2.69    2.63
   4   7   3    1.72    3.05
   4   7   3    3.05    2.27
   4   7   3    3.30    2.86
   4   7   4  104.94    2.72
   4   7   4  104.22    3.13
   4   7   4  105.99    3.74
   4   7   4  106.24    5.02
   4   7   4  106.38    3.69
   4   7   4  106.08    3.72
   4   7   5  179.88    3.66
   4   7   5  182.49    3.83
   4   7   5  184.76    5.07
   4   7   5  183.68    3.99
   4   7   5  185.45    4.77
   4   7   6   12.61    4.91
   4   7   6   15.33    5.24
   4   7   6   15.47    4.77
   4   7   8  314.13    5.05
   4   7   8  319.39    5.21
   4   7   9   74.77    3.88
   4   7   9   75.94    4.38
   4   7   9   75.91    3.08
   4   7  10    2.66    2.83
   4   7  10    2.77    2.97
   4   7  10    1.94    3.24
   4   7  11   47.74    3.24
   4   7  11   47.88    2.63
  -4  -7 -12   10.31    3.24
   4   7  12   10.04    3.05
  -4  -7 -12    9.76    3.11
   4   7  12   11.78    2.94
  -4  -7 -13    3.27    2.61
   4   7  13    4.46    2.99
   4   7  13    1.69    2.50
   4   8  -4    0.91    2.36
  -4  -8   4    1.86    2.41
   4   8  -3   34.24    3.27
  -4  -8   3   34.60    2.80
   4   8  -2    1.52    2.58
  -4  -8   2    1.05    2.41
   4   8  -1   22.68    3.94
   4   8  -1   22.04    3.11
   4   8   0  461.38    5.16
   4   8   0  466.67    5.05
   4   8   1  100.42    3.30
   4   8   1  102.97    3.22
   4   8   1  102.14    3.16
   4   8   2  253.66    5.13
   4   8   2  254.82    5.18
   4   8   2  242.57    4.38
   4   8   3    5.60    2.50
   4   8   3    6.04    3.63
   4   8   3    6.04    2.99
   4   8   3    7.04    2.33
   4   8   3    3.63    3.02
   4   8   4  141.93    3.38
   4   8   4  141.32    3.44
   4   8   4  134.50    4.35
   4   8   4  140.04    3.33
   4   8   4  134.69    4.13
   4   8   5    6.16    3.55
   4   8   5    8.37    4.80
   4   8   5   16.14    3.66
   4   8   5   14.39    4.21
   4   8   5    8.21    5.07
   4   8   5    3.02    4.21
   4   8   6   22.32    2.55
   4   8   6   21.54    2.91
   4   8   6   21.88    4.44
   4   8   6   24.29    3.83
   4   8   6   20.68    3.35
   4   8   6   20.90    3.35
   4   8   7  355.22    5.63
   4   8   7  368.61    5.88
   4   8   7  377.23    7.40
   4   8   8    1.75    3.80
   4   8   9   62.02    6.90
   4   8  10  266.66    5.35
   4   8  10  271.54    5.35
   4   8  11  124.04    3.38
   4   8  11  124.60    4.41
  -4  -8 -12   21.54    2.99
   4   8  12   23.01    3.55
   4   9  -2  296.63    4.13
   4   9  -1   99.95    4.08
   4   9  -1   93.88    3.66
   4   9   0   30.14    3.66
   4   9   0   29.58    3.49
   4   9   1  319.45    5.74
   4   9   2   71.12    3.19
   4   9   2   69.09    3.24
   4   9   2   68.01    3.16
   4   9   3   60.33    3.19
   4   9   3   59.58    4.21
   4   9   3   55.37    2.74
   4   9   4   24.54    3.58
   4   9   4   21.15    2.91
   4   9   4   25.56    2.66
   4   9   5  232.28    5.13
   4   9   5  239.02    4.77
   4   9   5  228.51    4.10
   4   9   6    9.43    6.21
   4   9   6   10.98    5.21
   4   9   6    5.74    4.94
   4   9   7  520.01    5.77
   4   9   7  519.07    5.21
   4   9   7  507.65    5.38
   4   9   8   23.62    3.13
   4   9   8   26.81    3.08
   4   9   8   25.26    4.74
   4   9   9   88.94    5.38
   4   9  10   91.63    3.24
   4   9  10   91.33    3.88
   4   9  11   24.12    3.02
   4   9  12    0.42    2.19
  -4  -9 -12    1.16    2.11
   4  10  -1  585.11    6.46
   4  10   0   85.31    3.66
   4  10   0   81.10    3.33
   4  10   1   29.14    3.58
   4  10   1   26.03    2.69
   4  10   2  137.24    4.21
   4  10   3  277.11    6.68
   4  10   3  293.08    6.32
   4  10   4   96.96    4.41
   4  10   4   90.11    3.99
   4  10   5   25.34    2.77
   4  10   5   24.07    3.24
   4  10   6  505.54    7.57
   4  10   6  497.67    7.62
   4  10   6  491.04    7.37
   4  10   7    3.11    3.83
   4  10   7    9.59    3.33
   4  10   7    5.10    5.18
   4  10   8  301.26    4.24
   4  10   8  301.68    4.85
   4  10   8  300.71    4.41
   4  10   9  470.97    6.07
   4  10   9  467.25    6.74
   4  10   9  465.70    6.60
   4  10  10    8.23    2.69
   4  10  11  193.16    4.13
   4  10  11  184.18    3.88
   4  11   1   17.02    2.69
   4  11   2   76.22    3.08
   4  11   4   12.59    3.22
   4  11   5  397.77    6.71
   4  11   6  235.61    4.82
   4  11   7  180.80    4.10
   4  11   7  181.30    3.88
   4  11   7  176.91    4.41
   4  11   8  150.38    3.41
   4  11   8  148.41    3.30
   4  11   8  145.56    3.91
   4  11   9  268.99    4.33
   4  11   9  275.89    4.57
   4  11   9  259.62    4.46
   4  11  10   26.17    2.72
   4  11  10   24.40    2.86
   4  12   5   24.04    2.38
   4  12   6   30.97    2.47
   4  12   7    2.88    2.63
  -5   7   3   10.04    2.80
  -5   7   2    0.89    2.86
  -5   7   1    6.96    2.63
  -5   7   0    0.91    2.63
  -5   6   5   30.28    3.49
  -5   6   5   31.36    2.88
  -5   6   4   68.76    3.96
  -5   6   4   69.15    3.19
  -5   6   3   60.50    4.27
  -5   6   3   56.48    3.58
  -5   6   2   51.24    3.88
  -5   6   2   48.52    3.47
  -5   6   1  197.46    6.46
  -5   6   1  207.91    4.55
  -5   6   0  350.50    5.93
  -5   6  -1   19.55    3.02
  -5   6  -1   18.05    3.05
  -5   6  -2   60.36    2.74
  -5   6  -2   62.08    3.08
  -5   6  -3   85.75    2.94
  -5   5   6    7.62    3.58
  -5   5   5   64.96    4.41
  -5   5   5   65.85    3.47
  -5   5   4  113.01    4.27
  -5   5   4  106.27    3.58
  -5   5   3   68.84    3.69
  -5   5   3   66.90    4.24
  -5   5   2  247.95    4.69
  -5   5   2  244.15    5.10
  -5   5   1  209.60    4.80
  -5   5   1  206.64    5.10
  -5   5   0   45.83    3.83
  -5   5   0   48.99    2.66
  -5   5   0   46.44    3.72
  -5   5  -1  317.37    4.27
  -5   5  -1  317.59    5.35
  -5   5  -2  108.02    4.08
  -5   5  -2  102.47    3.80
  -5   5  -3  107.10    4.05
  -5   5  -3  111.23    4.16
  -5   5  -4  121.21    4.16
   5  -4  -7    4.38    2.74
  -5   4   7    5.74    2.50
   5  -4  -6   11.42    2.74
  -5   4   6    1.75    3.41
  -5   4   6   10.90    3.44
  -5   4   5   23.62    5.02
  -5   4   5   31.08    3.77
  -5   4   4   33.85    4.88
  -5   4   3   98.65    4.10
  -5   4   2  199.54    4.41
  -5   4   1    9.84    3.19
  -5   4   0 1577.73   17.30
  -5   4   0 1557.60   11.20
  -5   4  -1  612.73    8.26
  -5   4  -1  611.42    5.85
  -5   4  -1  604.83    5.91
  -5   4  -2   66.40    3.08
  -5   4  -2   66.32    4.46
  -5   4  -3  218.67    5.13
  -5   4  -3  213.98    5.41
  -5   4  -4    7.57    2.86
  -5   4  -4   10.65    4.33
  -5   4  -6   34.66    3.38
  -5   4  -7    6.96    2.58
  -5   3   7   41.64    3.08
   5  -3  -7   40.42    3.41
  -5   3   7   41.95    3.47
  -5   3   6    6.29    2.63
   5  -3  -6    5.49    3.16
  -5   3   6    8.10    3.16
  -5   3   5  144.12    3.83
   5  -3  -5  138.18    3.88
  -5   3   5  145.22    4.24
  -5   3   5  145.83    4.24
  -5   3   4   96.65    3.19
  -5   3   4   95.98    4.41
  -5   3   4   94.60    4.35
  -5   3   3 1401.07   10.95
  -5   3   3 1441.91   12.50
  -5   3   3 1424.75   11.01
  -5   3   2  198.26    4.02
  -5   3   2  195.02    4.33
  -5   3   1    0.78    2.58
  -5   3   1    1.94    3.05
  -5   3   1    0.61    2.91
  -5   3   0  252.44    5.77
  -5   3   0  269.35    5.82
  -5   3   0  253.05    4.52
  -5   3   0  272.18    5.02
  -5   3  -1  810.52   10.34
  -5   3  -1  808.69    9.01
  -5   3  -1  794.25    9.81
  -5   3  -2  886.49    9.79
  -5   3  -3  142.90    4.88
  -5   3  -5   65.38    4.10
  -5   3  -6  223.69    4.94
  -5   3  -6  220.89    4.10
  -5   3  -7  169.12    4.05
  -5   3  -7  174.28    4.82
  -5   3  -8  288.95    4.52
  -5   3  -8  290.95    4.16
  -5   3  -8  292.17    4.88
  -5   2   8   21.96    2.86
   5  -2  -8   20.77    3.02
  -5   2   8   20.52    2.74
  -5   2   7    1.30    3.33
   5  -2  -7    2.11    3.52
  -5   2   6   63.38    3.85
   5  -2  -6   62.55    3.77
  -5   2   5  501.74    8.04
   5  -2  -5  501.30    7.82
  -5   2   4   11.56    2.97
   5  -2  -4   11.98    2.50
  -5   2   4   12.89    3.35
  -5   2   3  492.79    6.93
  -5   2   3  502.19    7.18
  -5   2   2  131.14    3.27
  -5   2   2  133.50    3.99
  -5   2   2  129.89    3.38
  -5   2   1    7.96    2.33
  -5   2   1    7.29    3.35
  -5   2   1    7.65    2.11
  -5   2   1    7.71    2.58
  -5   2   0  155.59    3.66
  -5   2   0  149.88    4.05
  -5   2   0  163.52    4.19
  -5   2   0  152.21    3.60
  -5   2   0  162.03    3.55
  -5   2  -1  148.72    4.02
  -5   2  -1  147.30    4.10
  -5   2  -1  150.85    4.02
  -5   2  -1  152.05    3.52
  -5   2  -1  148.83    3.44
  -5   2  -2   21.85    2.41
  -5   2  -2   18.99    3.11
  -5   2  -2   21.13    2.66
  -5   2  -2   19.07    3.52
  -5   2  -2   21.99    2.80
  -5   2  -3  256.29    4.10
  -5   2  -3  252.72    5.18
  -5   2  -3  252.44    4.99
  -5   2  -3  258.43    4.19
  -5   2  -4  109.35    4.24
  -5   2  -4  105.83    4.16
  -5   2  -4  109.18    4.19
  -5   2  -4  102.47    3.60
  -5   2  -5  188.95    4.91
  -5   2  -5  186.98    4.05
  -5   2  -5  188.39    4.41
  -5   2  -5  185.48    4.69
  -5   2  -6  255.35    4.91
  -5   2  -6  259.09    4.57
  -5   2  -6  251.88    4.35
  -5   2  -7    1.75    3.38
  -5   2  -7    1.19    3.49
  -5   2  -7    2.47    2.97
  -5   2  -7    2.00    2.86
   5  -2   8    9.45    2.13
  -5   2  -8    5.77    2.72
  -5   2  -8    8.23    3.02
  -5   2  -8    9.23    2.91
  -5   2  -9    2.58    2.36
  -5   2  -9    2.41    3.33
  -5   1   8    7.24    2.41
   5  -1  -8    8.43    3.08
   5  -1  -8    6.90    2.77
  -5   1   7    4.44    3.52
   5  -1  -7    3.60    3.16
   5  -1  -7    4.74    2.97
  -5   1   6    1.00    3.72
   5  -1  -6   -0.22    3.13
   5  -1  -6    2.08    2.97
  -5   1   5  140.73    3.91
   5  -1  -5  146.89    3.83
   5  -1  -5  136.93    3.72
  -5   1   4  178.94    9.15
   5  -1  -4  164.60    4.63
  -5   1   3   17.58    3.49
  -5   1   3   12.70    3.24
  -5   1   2   10.87    3.49
  -5   1   2   10.67    2.61
  -5   1   1   35.54    2.94
  -5   1   1   21.15    5.68
  -5   1   1   26.03    3.52
  -5   1   1   24.34    2.69
  -5   1   1   31.44    2.55
  -5   1   0  786.76    6.35
  -5   1   0  795.99    7.76
  -5   1   0  797.68    6.24
  -5   1   0  796.32    6.46
  -5   1  -1   73.22    2.69
  -5   1  -1   76.19    3.80
  -5   1  -1   78.13    3.41
  -5   1  -1   73.00    3.11
  -5   1  -1   74.58    3.47
  -5   1  -2  171.45    3.60
  -5   1  -2  157.73    4.60
  -5   1  -2  174.84    3.77
  -5   1  -2  160.67    3.72
  -5   1  -3  122.52    3.11
  -5   1  -3  124.93    3.44
  -5   1  -3  122.46    2.86
  -5   1  -4   65.32    2.88
  -5   1  -4   64.99    4.41
  -5   1  -4   67.23    2.83
  -5   1  -4   63.27    2.86
  -5   1  -4   64.52    3.33
  -5   1  -5  635.68    6.10
  -5   1  -5  622.40    7.60
  -5   1  -5  631.89    5.60
  -5   1  -5  641.89    6.54
  -5   1  -5  650.07    6.29
  -5   1  -6   50.71    4.24
  -5   1  -6   51.98    2.83
  -5   1  -6   51.90    3.77
  -5   1  -7  429.10    6.16
  -5   1  -7  430.74    4.91
  -5   1  -7  429.41    4.82
  -5   1  -7  437.84    5.63
  -5   1  -8   22.35    3.49
  -5   1  -8   20.29    3.11
  -5   1  -8   21.51    3.44
  -5   1  -8   22.73    3.72
   5  -1   9   60.11    3.35
  -5   1  -9   56.92    2.83
  -5   1  -9   56.56    4.63
   5  -1  10   14.86    2.63
  -5   1 -10   14.92    2.88
  -5   1 -10   16.27    3.58
  -5   0   8   26.14    3.02
   5   0  -8   26.12    2.52
   5   0  -8   26.03    2.80
  -5   0   8   27.75    2.50
  -5   0   7    0.72    3.41
   5   0  -7    1.30    2.74
   5   0  -7    2.08    2.86
  -5   0   7    1.25    2.50
   5   0  -6   57.34    3.33
   5   0  -6   58.58    4.05
  -5   0   6   57.61    3.52
   5   0  -5   43.94    4.08
   5   0  -5   48.16    4.27
  -5   0   5   51.60    4.13
   5   0  -4  535.24   19.27
   5   0  -4  581.93    7.68
  -5   0   4  590.77    7.60
   5   0  -3  142.04    3.52
  -5   0   3  151.55    3.91
   5   0  -3  140.93    4.66
  -5   0   2  170.95    4.94
  -5   0   2  120.66   12.56
  -5   0   2   84.89   24.70
  -5   0   2  125.26   11.01
  -5   0   1  700.98    6.35
  -5   0   1  699.51    7.82
  -5   0   1  714.04    6.88
  -5   0   1  692.69    6.57
  -5   0   0   11.34    2.22
  -5   0   0    6.40    3.19
  -5   0   0   10.62    2.33
  -5   0   0    9.12    2.00
  -5   0  -1  992.45    7.21
  -5   0  -1 1002.32   10.84
  -5   0  -1  989.51    8.98
  -5   0  -2   57.72    5.66
  -5   0  -2   49.21    4.63
  -5   0  -3   38.01    2.47
  -5   0  -3   38.65    3.16
  -5   0  -3   37.12    2.74
  -5   0  -3   36.96    2.50
  -5   0  -3   33.74    2.47
  -5   0  -4   96.96    2.97
  -5   0  -4   94.24    3.63
  -5   0  -4   93.68    2.80
  -5   0  -4   93.32    2.80
  -5   0  -4   96.62    3.35
  -5   0  -5  695.54    9.81
  -5   0  -5  694.41   10.70
  -5   0  -5  718.80   10.09
  -5   0  -5  696.68    9.79
  -5   0  -5  696.32    9.65
  -5   0  -6   29.72    3.05
  -5   0  -6   31.61    3.88
  -5   0  -6   30.58    2.38
  -5   0  -6   28.28    2.50
  -5   0  -6   31.97    2.77
  -5   0  -7  261.62    5.71
  -5   0  -7  248.11    5.35
  -5   0  -7  262.20    5.32
  -5   0  -7  253.85    5.13
  -5   0  -8   17.74    3.80
  -5   0  -8   18.94    3.16
  -5   0  -8   17.94    4.13
  -5   0  -9   80.96    3.69
   5   0  10   30.58    3.08
  -5   0 -10   30.50    3.35
  -5   0 -10   34.55    4.10
   5   0  11    6.74    2.44
  -5   0 -11    5.66    2.72
  -5   0 -11    4.02    2.88
  -5  -1   7   56.09    3.69
   5   1  -7   58.06    3.08
   5   1  -7   56.86    3.83
  -5  -1   7   61.38    3.63
  -5  -1   6   63.46    3.19
   5   1  -6   66.51    3.41
   5   1  -6   63.16    3.41
  -5  -1   6   64.13    3.16
  -5  -1   5  605.33    5.74
   5   1  -5  605.96    6.38
   5   1  -5  610.20    6.57
  -5  -1   5  598.53    5.71
  -5  -1   4  221.44    5.21
   5   1  -4  212.87    5.27
   5   1  -4  215.98    4.46
  -5  -1   4  218.23    4.96
  -5  -1   3   75.22    3.58
   5   1  -3   71.64    2.94
   5   1  -3   74.05    3.99
   5   1  -3   71.48    2.97
  -5  -1   3   72.64    3.22
   5   1  -3   70.81    4.38
  -5  -1   3   72.64    2.61
  -5  -1   2  110.40    3.94
   5   1  -2  101.61    3.83
  -5  -1   2  101.56    5.82
   5   1  -2  110.12    4.41
   5   1  -2  108.63    3.24
  -5  -1   2  111.82    3.35
   5   1  -2  105.94    5.18
  -5  -1   2  107.55    4.05
  -5  -1   1  325.38    4.13
  -5  -1   1  325.66    5.63
  -5  -1   1  336.53    5.10
   5   1  -1  332.26    6.02
  -5  -1   1  332.48    4.27
  -5  -1   0   29.86    2.25
  -5  -1   0   32.85    3.02
  -5  -1  -1  355.55    5.68
  -5  -1  -3  315.79    6.27
  -5  -1  -4  487.10    6.27
  -5  -1  -4  476.24    4.96
  -5  -1  -5  302.26    5.66
  -5  -1  -5  296.41    4.35
   5   1   5  305.92    4.27
  -5  -1  -5  299.79    4.02
  -5  -1  -6  815.95   11.15
  -5  -1  -6  815.37   12.03
  -5  -1  -6  808.44   10.84
  -5  -1  -6  843.54   11.37
   5   1   6  795.99   10.59
  -5  -1  -7   25.81    3.13
  -5  -1  -7   24.90    2.36
   5   1   7   24.26    2.08
  -5  -1  -8  238.38    5.60
  -5  -1  -8  233.14    4.52
  -5  -1  -8  235.19    5.02
   5   1   8  227.51    4.21
  -5  -1  -8  232.75    4.85
  -5  -1  -9  192.19    4.80
  -5  -1  -9  190.28    4.85
  -5  -1  -9  184.76    4.52
   5   1   9  180.41    3.99
  -5  -1  -9  191.50    5.49
   5   1  10   15.11    2.69
  -5  -1 -10   15.30    3.44
  -5  -1 -10   16.41    2.97
  -5  -1 -10   15.53    4.35
   5   1  11    5.05    2.47
  -5  -1 -11    2.05    3.16
  -5  -1 -11    4.80    2.41
  -5  -1 -11    2.86    3.66
  -5  -2   7   93.85    2.99
  -5  -2   7   95.32    3.96
  -5  -2   6  333.09    5.77
   5   2  -6  330.37    5.52
   5   2  -6  330.35    5.71
  -5  -2   6  328.77    5.63
  -5  -2   6  333.40    5.38
  -5  -2   5    3.08    2.69
   5   2  -5    1.19    3.02
   5   2  -5   -0.25    4.30
  -5  -2   5    1.61    2.88
  -5  -2   5    2.22    2.41
  -5  -2   4  335.28    5.96
   5   2  -4  340.83    5.52
   5   2  -4  343.10    6.27
  -5  -2   4  339.38    6.13
  -5  -2   4  338.44    5.24
  -5  -2   3  180.52    3.58
   5   2  -3  180.10    4.41
   5   2  -3  179.19    5.82
   5   2  -3  183.54    4.57
  -5  -2   3  184.68    3.72
   5   2  -3  174.11    4.94
  -5  -2   3  181.10    3.63
  -5  -2   2    4.57    2.25
   5   2  -2    4.33    2.11
  -5  -2   2    4.08    2.77
   5   2  -2    4.71    3.08
   5   2  -2    4.69    2.33
  -5  -2   2    4.96    2.33
   5   2  -2    2.58    3.69
  -5  -2   2    3.94    2.16
  -5  -2   1   45.25    2.47
  -5  -2   1   39.62    4.57
   5   2  -1   44.17    3.41
   5   2  -1   44.50    2.83
  -5  -2   1   50.21    2.61
   5   2  -1   45.28    4.38
  -5  -2   1   45.52    3.24
  -5  -2   0  152.74    5.02
   5   2   0  149.08    5.02
   5   2   0  146.56    4.33
  -5  -2  -1   36.43    3.27
   5   2   1   38.04    2.99
  -5  -2  -2    0.86    2.72
   5   2   2    0.17    2.88
  -5  -2  -3    7.21    3.74
  -5  -2  -4   52.21    3.24
  -5  -2  -5 1940.30    9.65
  -5  -2  -5 1968.27   11.95
   5   2   5 1950.58    9.68
  -5  -2  -5 1949.42    9.54
  -5  -2  -6   31.50    2.69
  -5  -2  -6   30.72    2.74
  -5  -2  -6   31.38    2.77
   5   2   6   29.67    2.22
  -5  -2  -6   29.75    2.41
  -5  -2  -7  636.21    6.71
  -5  -2  -7  633.58    5.82
   5   2   7  636.10    5.41
  -5  -2  -7  637.68    6.40
  -5  -2  -8   71.67    4.05
  -5  -2  -8   67.51    2.88
   5   2   8   68.73    2.83
  -5  -2  -8   71.28    3.91
  -5  -2  -9   21.46    4.52
   5   2   9   22.15    3.94
  -5  -2  -9   23.07    3.94
   5   2  10  145.72    4.35
  -5  -2 -10  150.80    3.96
  -5  -2 -10  150.24    4.46
   5   2  10  152.93    4.57
  -5  -2 -10  149.74    4.13
  -5  -2 -11    7.49    2.66
  -5  -2 -11    8.18    2.63
   5   2  11    7.68    2.44
  -5  -2 -11    7.01    3.58
  -5  -2 -12   42.20    2.66
   5   2  12   40.76    2.55
  -5  -2 -12   42.34    3.19
   5   3  -7    2.44    2.99
   5   3  -7    1.69    2.58
  -5  -3   7    4.35    3.08
  -5  -3   7    1.16    2.27
  -5  -3   6   51.74    3.19
  -5  -3   6   57.36    3.41
  -5  -3   5   20.10    3.41
   5   3  -5   23.04    4.33
  -5  -3   5   19.88    3.77
  -5  -3   4   13.78    3.38
   5   3  -4   14.61    3.05
   5   3  -4   15.19    3.35
  -5  -3   4   14.94    3.58
  -5  -3   3   35.46    3.24
   5   3  -3   37.73    4.21
   5   3  -3   38.37    4.10
  -5  -3   3   38.68    3.41
  -5  -3   2   85.42    3.22
   5   3  -2   86.59    3.22
  -5  -3   2   68.09    6.76
   5   3  -2   88.39    4.19
   5   3  -2   90.19    3.27
  -5  -3   2   89.44    3.02
   5   3  -2   81.48    4.08
  -5  -3   2   86.23    3.19
  -5  -3   1   10.37    1.97
   5   3  -1    9.79    2.44
  -5  -3   1   10.51    4.10
   5   3  -1   10.18    3.77
   5   3  -1   11.67    2.74
  -5  -3   1   10.29    2.80
   5   3  -1   10.92    3.60
  -5  -3   1   10.23    2.19
  -5  -3   0  206.55    7.51
   5   3   0  227.54    6.07
   5   3   0  217.87    4.13
  -5  -3   0  215.40    3.99
   5   3   1  198.26    4.91
   5   3   1  188.00    4.77
  -5  -3  -2    8.84    2.97
   5   3   2    7.65    3.66
  -5  -3  -3   12.84    3.85
   5   3   3   11.56    2.94
  -5  -3  -4   51.51    3.05
   5   3   4   50.13    2.83
  -5  -3  -5   42.92    3.99
   5   3   5   45.94    2.36
  -5  -3  -5   46.08    2.41
  -5  -3  -6  354.83    4.55
   5   3   6  366.75    4.35
  -5  -3  -6  354.69    4.21
  -5  -3  -7   30.00    3.80
   5   3   7   29.36    2.47
  -5  -3  -7   28.39    2.55
  -5  -3  -8  285.24    5.16
  -5  -3  -8  289.04    4.44
   5   3   8  288.90    4.74
  -5  -3  -8  270.07    4.74
  -5  -3  -9  156.23    5.18
  -5  -3  -9  151.10    4.33
   5   3   9  154.26    4.46
  -5  -3  -9  152.79    4.49
   5   3  10   33.24    2.91
  -5  -3 -10   33.16    2.99
   5   3  10   34.55    3.74
  -5  -3 -10   29.97    3.30
   5   3  11   34.82    4.69
  -5  -3 -11   36.02    3.99
  -5  -3 -11   35.41    4.21
   5   3  11   37.04    3.77
  -5  -3 -11   33.71    3.19
   5   3  12   20.54    3.19
  -5  -3 -12   20.29    3.55
   5   3  12   21.82    3.02
   5   4  -6  135.35    4.24
   5   4  -6  133.94    4.13
  -5  -4   6  132.97    3.99
  -5  -4   6  137.24    3.83
   5   4  -5    1.55    3.69
  -5  -4   5    1.22    3.22
  -5  -4   5    0.94    3.02
   5   4  -4  184.98    4.55
   5   4  -4  186.31    4.80
   5   4  -4  174.53    4.41
  -5  -4   4  184.37    4.49
  -5  -4   4  184.10    4.44
   5   4  -3  357.27    6.29
   5   4  -3  349.01    5.85
  -5  -4   3  358.63    5.63
  -5  -4   3  356.57    6.10
   5   4  -2   45.58    2.91
  -5  -4   2   42.92    3.41
   5   4  -2   44.72    5.18
   5   4  -2   45.58    4.21
   5   4  -2   41.53    2.77
  -5  -4   2   45.58    3.33
   5   4  -2   44.00    3.74
  -5  -4   2   46.38    3.91
   5   4  -1  111.65    3.74
  -5  -4   1   99.28    6.38
   5   4  -1  119.08    5.66
   5   4  -1  115.92    3.99
   5   4  -1  112.45    3.44
   5   4  -1  114.37    4.88
   5   4   0   16.00    2.47
   5   4   0   20.49    3.91
   5   4   0   20.38    2.52
  -5  -4   0   23.93    3.24
   5   4   0   18.13    4.10
  -5  -4  -1  239.71    6.16
   5   4   1  230.70    5.49
   5   4   1  227.04    3.91
  -5  -4  -1  235.03    4.08
   5   4   1  229.95    5.52
  -5  -4  -1  229.45    3.74
  -5  -4  -2  534.93    6.82
   5   4   2  542.36    7.62
  -5  -4  -3    4.57    2.72
   5   4   3    5.79    3.11
  -5  -4  -4   45.72    4.63
   5   4   4   39.37    3.08
  -5  -4  -5   -0.55    2.69
   5   4   5    0.67    2.44
  -5  -4  -6   71.36    3.22
   5   4   6   74.22    3.41
  -5  -4  -6   72.22    3.63
  -5  -4  -7  473.44    7.62
   5   4   7  471.55    7.60
  -5  -4  -7  477.87    7.24
  -5  -4  -8   50.85    3.08
   5   4   8   49.38    2.97
  -5  -4  -8   51.07    3.38
  -5  -4  -9  361.56    5.88
  -5  -4  -9  350.31    5.55
   5   4   9  359.35    6.16
  -5  -4  -9  346.43    5.41
   5   4  10   13.97    6.68
  -5  -4 -10   11.78    4.02
   5   4  10   13.61    5.32
  -5  -4 -10    8.79    5.85
   5   4  11  112.98    3.72
  -5  -4 -11  113.29    4.19
   5   4  11  116.28    3.44
   5   4  12    4.52    2.99
  -5  -4 -12    6.29    2.47
  -5  -4 -12    6.27    3.02
   5   4  12    5.27    2.47
   5   5  -6  158.75    3.83
   5   5  -6  157.40    4.02
  -5  -5   6  156.26    3.83
  -5  -5   6  164.27    3.49
   5   5  -5    0.28    3.35
   5   5  -5    1.58    3.41
  -5  -5   5    1.00    3.38
  -5  -5   5    1.44    2.61
   5   5  -4  102.06    4.46
   5   5  -4  105.36    3.77
  -5  -5   4  102.58    3.41
  -5  -5   4  105.61    4.10
   5   5  -3   12.81    2.94
   5   5  -3   11.31    4.05
   5   5  -3   13.75    3.13
  -5  -5   3   12.59    3.05
   5   5  -2  661.69    8.10
   5   5  -2  666.10    8.93
   5   5  -2  680.77    8.48
  -5  -5   2  650.88    8.37
  -5  -5   2  662.33    8.62
   5   5  -1   49.30    3.35
  -5  -5   1   50.63    4.21
   5   5  -1   51.96    3.08
  -5  -5   1   48.24    2.86
   5   5  -1   48.60    4.27
  -5  -5   1   52.15    2.91
   5   5   0  121.30    3.47
  -5  -5   0  126.87    3.74
   5   5   0  124.96    4.88
  -5  -5   0  122.05    4.27
   5   5   1   45.58    2.27
  -5  -5  -1   48.66    3.41
   5   5   1   45.89    3.74
   5   5   1   45.33    2.66
  -5  -5  -1   48.10    2.86
   5   5   1   47.55    3.72
  -5  -5  -1   46.13    2.38
  -5  -5  -2   84.37    4.46
   5   5   2   83.81    3.91
   5   5   2   81.18    2.80
  -5  -5  -2   85.37    3.35
   5   5   2   84.20    4.24
  -5  -5  -2   83.31    2.61
  -5  -5  -3 1205.44   10.20
   5   5   3 1213.34   10.70
   5   5   3 1187.78    8.04
   5   5   3 1205.94    8.18
  -5  -5  -3 1192.66    7.32
  -5  -5  -4 1541.44   12.73
   5   5   4 1561.68   11.51
   5   5   4 1526.75    8.62
   5   5   4 1565.01    8.82
   5   5   5  142.06    4.30
   5   5   5  140.15    3.08
   5   5   5  139.98    3.08
  -5  -5  -5  138.74    3.27
   5   5   6  467.00    7.54
   5   5   6  486.38    7.40
   5   5   6  475.29    7.26
   5   5   6  485.36    7.18
   5   5   7 1957.10    9.62
   5   5   7 1920.11   24.59
   5   5   7 1913.43   23.10
   5   5   7 1903.20   23.15
   5   5   8  532.08    5.57
   5   5   8  538.84    5.79
   5   5   8  549.15    5.27
  -5  -5  -9  522.95    8.21
   5   5   9  527.22    9.18
   5   5   9  533.46    8.54
   5   5   9  545.49   10.23
   5   5  10  618.44    5.27
  -5  -5 -10  625.90    6.04
   5   5  10  631.72    5.68
   5   5  11    0.72    2.13
   5   5  11    3.22    3.63
   5   5  12    1.50    2.72
  -5  -5 -12    1.50    3.33
  -5  -5 -12    2.38    3.74
   5   5  12    0.94    3.19
   5   5  13   49.27    2.55
  -5  -5 -13   47.85    2.77
  -5  -5 -13   47.38    2.97
   5   6  -5    6.68    3.02
   5   6  -5    5.68    2.86
   5   6  -4  317.62    5.57
   5   6  -4  316.48    5.57
  -5  -6   4  304.12    5.35
  -5  -6   4  318.87    5.55
   5   6  -3    9.87    3.66
  -5  -6   3    7.65    3.58
  -5  -6   3    8.65    4.02
   5   6  -2  147.39    4.38
   5   6  -2  147.33    4.13
  -5  -6   2  146.28    4.21
  -5  -6   2  150.38    3.88
   5   6  -1   58.58    3.69
   5   6  -1   59.78    4.21
  -5  -6   1   55.70    2.91
  -5  -6   1   58.25    4.13
   5   6   0   79.79    2.99
  -5  -6   0   71.20    5.46
   5   6   0   83.26    5.18
   5   6   0   85.95    4.10
  -5  -6   0   87.47    3.35
   5   6   0   79.38    4.02
  -5  -6   0   76.94    4.24
   5   6   1   78.85    3.49
  -5  -6  -1   80.15    3.80
   5   6   1   77.74    4.27
   5   6   1   77.99    3.08
  -5  -6  -1   75.94    3.19
   5   6   1   79.46    4.52
  -5  -6  -1   78.74    3.49
  -5  -6  -2  112.26    5.16
  -5  -6  -2  112.07    3.44
   5   6   2  113.81    4.41
  -5  -6  -2  114.95    3.74
  -5  -6  -3  620.49    7.26
   5   6   3  613.78    5.63
   5   6   3  632.19    7.57
   5   6   3  626.04    5.63
   5   6   3  627.09    5.60
   5   6   3  620.19    7.24
  -5  -6  -3  624.90    6.43
  -5  -6  -4   32.30    2.80
   5   6   4   35.02    2.99
   5   6   4   37.65    4.38
   5   6   4   36.10    3.41
   5   6   4   35.74    2.36
   5   6   5   18.05    6.96
   5   6   5   26.62    5.02
   5   6   5   22.18    4.10
   5   6   5   25.40    3.91
   5   6   6  489.05    7.26
   5   6   6  489.24    8.98
   5   6   6  487.41    7.62
   5   6   6  488.88    7.49
   5   6   7    0.33    2.44
   5   6   7    0.39    3.35
   5   6   7    0.58    2.77
   5   6   7    3.13    2.63
   5   6   8  167.63    4.74
  -5  -6  -8  152.79    5.43
   5   6   8  162.22    4.24
   5   6   8  161.44    4.33
   5   6   9 1242.26    9.57
   5   6   9 1203.50   20.41
   5   6   9 1226.70    9.79
   5   6  10  383.86    4.60
   5   6  10  382.44    5.66
   5   6  10  396.39    5.82
   5   6  11    0.36    2.58
  -5  -6 -12   69.95    3.02
  -5  -6 -12   70.09    4.02
   5   6  12   68.51    2.74
  -5  -6 -13   83.90    3.22
  -5  -6 -13   87.00    3.52
   5   6  13   85.23    3.19
   5   7  -4   55.56    2.88
   5   7  -4   53.68    2.69
  -5  -7   4   56.01    3.41
   5   7  -3  147.80    3.83
   5   7  -3  147.58    4.38
  -5  -7   3  151.38    4.63
   5   7  -2   53.79    4.08
  -5  -7   2   50.82    2.99
   5   7  -1   56.81    4.21
   5   7  -1   54.45    3.63
  -5  -7   1   53.68    3.08
   5   7   0  117.36    3.41
   5   7   0  115.84    3.44
  -5  -7   0  111.90    3.30
   5   7   1  301.37    4.96
   5   7   1  309.39    5.55
  -5  -7  -1  295.69    5.35
   5   7   2  228.62    3.74
  -5  -7  -2  222.19    6.40
   5   7   2  232.09    5.60
   5   7   2  237.36    4.33
   5   7   2  228.93    4.96
  -5  -7  -2  225.77    4.33
   5   7   3   71.06    2.61
  -5  -7  -3   70.12    4.30
   5   7   3   75.47    4.02
   5   7   3   72.61    3.02
   5   7   3   74.66    3.52
   5   7   4   46.91    2.27
   5   7   4   49.93    2.61
   5   7   5   93.21    3.11
   5   7   5   88.91    4.74
   5   7   5   92.41    4.16
   5   7   5   89.05    2.80
   5   7   6   39.92    2.63
   5   7   6   35.52    4.41
   5   7   6   40.42    3.63
   5   7   6   39.56    2.41
   5   7   7  196.27    4.96
   5   7   7  191.89    5.10
   5   7   7  200.20    4.33
   5   7   7  193.55    4.10
   5   7   8   95.29    8.48
   5   7   8   97.45    7.40
   5   7   8   96.90    7.79
   5   7   9    6.16    3.02
   5   7   9    6.52    2.88
   5   7   9    6.96    2.50
   5   7  10    9.79    7.26
   5   7  10    6.60    4.57
   5   7  11   66.29    2.91
   5   7  11   66.60    3.27
   5   7  11   64.66    3.63
  -5  -7 -12   23.57    3.60
   5   7  12   22.26    3.30
   5   7  12   22.73    2.86
  -5  -7 -13    4.24    2.58
  -5  -7 -13    3.24    2.80
   5   7  13    4.16    1.97
   5   8  -3   91.27    3.47
  -5  -8   3   90.91    3.35
   5   8  -2    7.87    2.52
   5   8  -2    8.73    2.38
  -5  -8   2    8.01    2.61
   5   8  -1   22.18    2.83
  -5  -8   1   18.22    3.52
   5   8   0   47.19    3.27
   5   8   0   47.02    2.97
  -5  -8   0   43.97    2.74
   5   8   1  304.06    4.57
   5   8   1  300.96    4.66
   5   8   2  566.45    6.57
   5   8   2  574.77    6.18
   5   8   2  570.67    6.63
   5   8   3   64.57    4.46
   5   8   3   66.07    4.13
   5   8   4  118.14    5.63
   5   8   4  141.15    4.38
   5   8   5   81.54    4.27
   5   8   5   81.76    3.85
   5   8   5   85.34    3.80
   5   8   6    2.91    3.41
   5   8   7  100.95    4.85
   5   8   8   83.90   17.08
   5   8   9   78.85    3.55
   5   8   9   78.41    4.71
   5   8  10   80.93    3.47
   5   8  10   80.63    3.83
   5   8  10   77.85    2.94
   5   8  11  199.76    4.46
   5   8  11  206.41    4.33
   5   8  11  195.82    4.27
  -5  -8 -12   32.74    2.66
   5   8  12   32.80    2.94
   5   9  -2   29.17    3.02
   5   9   0   35.74    3.19
   5   9   1   74.36    3.22
   5   9   1   71.50    3.66
   5   9   1   70.56    3.72
   5   9   2   43.11    3.11
   5   9   2   40.65    2.74
   5   9   2   42.31    3.38
   5   9   3    9.37    2.80
   5   9   3    9.81    2.86
   5   9   4   26.95    4.24
   5   9   4   26.34    3.74
   5   9   5  117.92   11.87
   5   9   5   98.37   12.01
   5   9   5  117.06   14.81
   5   9   6    2.72    2.55
   5   9   6    1.86    3.33
   5   9   6    4.30    3.80
   5   9   7  245.90    4.27
   5   9   7  246.53    4.60
   5   9   8  126.79    3.74
   5   9   8  124.46    4.52
   5   9  10  237.85    4.33
   5   9  10  242.82    5.10
   5   9  11  299.60    4.41
   5   9  12    3.91    2.72
  -5  -9 -12    4.02    2.86
   5   9  12    3.91    2.47
   5  10   2   22.49    2.80
   5  10   2   20.85    3.02
   5  10   3    4.21    3.08
   5  10   3    2.94    2.80
   5  10   4   13.61    3.91
   5  10   4    8.43    3.02
   5  10   5   29.61    2.69
   5  10   5   28.14    2.83
   5  10   6    4.49    2.94
   5  10   6    3.72    3.11
   5  10   6    3.33    3.27
   5  10   7  175.20    4.02
   5  10   7  175.20    4.30
   5  10   8   47.60    3.33
   5  10   8   48.82    3.47
   5  10   9    8.82    3.77
   5  10   9    7.65    3.83
   5  10  10  103.08    4.35
   5  10  11  179.55    3.77
   5  11   2    3.74    2.47
   5  11   3   30.36    3.19
   5  11   4   12.73    2.50
   5  11   5   98.01    4.08
   5  11   5   98.20    4.21
   5  11   6  197.99    4.38
   5  11   6  199.15    4.60
   5  11   7  174.45    3.91
   5  11   7  183.10    3.74
   5  11   7  177.55    4.24
   5  11   8   20.16    2.47
   5  11   8   18.80    3.16
   5  11   9    2.74    2.99
   5  11   9    1.89    3.05
   5  11  10    4.57    2.25
   5  11  10    4.74    2.55
   5  12   6  168.21    3.47
   5  12   7   23.84    2.47
  -6   5   1   18.44    3.63
  -6   5   0   27.34    2.88
  -6   5  -1  183.98    3.74
  -6   5  -1  185.45    3.83
  -6   5  -2    4.10    2.94
  -6   5  -2    5.96    3.41
  -6   5  -3   10.73    2.91
  -6   4   5    7.29    2.52
  -6   4   4  152.07    3.94
  -6   4   4  146.72    3.63
  -6   4   3   95.37    3.88
  -6   4   3   94.40    3.63
  -6   4   2  145.22    4.33
  -6   4   2  146.20    4.57
  -6   4   1   10.73    4.19
  -6   4   1    9.93    3.44
  -6   4   0  375.34    4.41
  -6   4  -1   53.68    2.80
  -6   4  -2  505.40    6.63
  -6   4  -3    0.86    2.80
  -6   4  -4   54.45    2.86
  -6   3   6    7.62    2.55
  -6   3   6    6.21    2.88
  -6   3   5  239.46    4.33
  -6   3   5  238.13    4.80
  -6   3   4   78.68    3.44
  -6   3   4   70.62    5.63
  -6   3   4   78.52    4.44
  -6   3   3    8.71    2.58
  -6   3   3    6.74    3.85
  -6   3   3    9.68    3.85
  -6   3   2   31.25    3.13
  -6   3   2   29.11    4.30
  -6   3   2   33.80    3.41
  -6   3   1  143.84    4.41
  -6   3   1  147.72    5.05
  -6   3   1  147.83    4.33
  -6   3   0    5.27    3.27
  -6   3   0    5.02    4.49
  -6   3   0    4.55    2.41
  -6   3   0    5.35    4.46
  -6   3  -1  114.12    3.58
  -6   3  -1  114.70    5.10
  -6   3  -2   21.99    3.55
  -6   3  -2   21.15    3.33
  -6   3  -3   51.82    3.16
  -6   3  -3   57.09    4.46
  -6   3  -4    7.26    4.10
  -6   3  -4   10.98    3.83
  -6   3  -5  104.66    4.08
  -6   3  -6   68.37    3.77
  -6   3  -7    0.33    2.74
  -6   2   6    5.27    2.91
  -6   2   6    4.94    2.36
  -6   2   5   31.02    2.86
  -6   2   5   30.91    2.83
  -6   2   4   72.39    3.22
  -6   2   4   71.45    3.24
  -6   2   3  119.61    7.46
  -6   2   3   93.52   14.11
  -6   2   3  120.24    7.62
  -6   2   2   35.63    6.13
  -6   2   2   13.17    9.84
  -6   2   2   39.18    4.08
  -6   2   1   49.52    3.47
  -6   2   1   47.55    3.85
  -6   2   1   43.33    3.83
  -6   2   1   50.10    3.35
  -6   2   0  269.41    4.66
  -6   2   0  283.02    5.07
  -6   2   0  258.73    5.41
  -6   2   0  268.99    4.69
  -6   2  -1  122.10    3.60
  -6   2  -1  132.94    3.99
  -6   2  -1  130.59    3.77
  -6   2  -2  145.34    3.66
  -6   2  -2  143.09    4.52
  -6   2  -2  145.36    4.08
  -6   2  -3  570.92    5.66
  -6   2  -3  584.92    5.66
  -6   2  -3  577.79    5.74
  -6   2  -4  151.88    4.57
  -6   2  -4  151.57    3.99
  -6   2  -5  159.61    4.27
  -6   2  -5  161.00    4.02
  -6   2  -5  163.77    4.46
  -6   2  -5  160.17    4.02
  -6   2  -6   65.15    3.22
  -6   2  -6   67.37    3.99
  -6   2  -6   66.85    3.74
  -6   2  -7    1.72    2.94
  -6   2  -7    1.11    2.77
  -6   2  -8   15.58    2.72
  -6   2  -8   16.08    3.35
  -6   1   6   -0.53    2.80
   6  -1  -6    0.06    3.02
  -6   1   6    0.22    2.66
  -6   1   5   82.68    3.74
   6  -1  -5   78.71    3.11
  -6   1   5   81.93    3.19
  -6   1   4  395.45    6.90
  -6   1   4  391.51    6.85
  -6   1   3  413.74    5.10
  -6   1   3  416.54    5.35
  -6   1   3  372.29   16.88
  -6   1   2   21.21    4.08
  -6   1   2   20.96    3.11
  -6   1   2   20.46    2.74
  -6   1   1  189.50    5.99
  -6   1   1  164.77    9.57
  -6   1   1  158.73    6.71
  -6   1   1  182.96    4.46
  -6   1   0 1136.74   12.34
  -6   1   0 1123.51   12.09
  -6   1   0 1149.46   12.50
  -6   1  -1 2220.18   21.40
  -6   1  -1 2224.37   21.57
  -6   1  -1 2227.75   20.93
  -6   1  -2    2.00    3.24
  -6   1  -2    1.08    3.35
  -6   1  -2    2.41    3.13
  -6   1  -3   52.01    3.55
  -6   1  -3   37.43    3.30
  -6   1  -3   46.58    2.91
  -6   1  -3   37.71    2.86
  -6   1  -4  284.57    5.68
  -6   1  -4  281.11    5.13
  -6   1  -4  280.83    5.07
  -6   1  -4  271.37    4.94
  -6   1  -5   55.84    3.30
  -6   1  -5   57.86    3.99
  -6   1  -5   56.92    3.83
  -6   1  -5   56.61    3.74
  -6   1  -6  445.66    7.82
  -6   1  -6  452.59    7.40
  -6   1  -6  447.15    7.15
  -6   1  -7  157.01    4.27
  -6   1  -7  159.64    3.58
  -6   1  -7  154.76    3.85
  -6   1  -8    6.38    3.60
  -6   1  -8    3.44    2.61
  -6   1  -8    4.13    2.86
   6  -1   9   13.22    2.19
  -6   1  -9   10.20    3.44
   6   0  -6  201.42    3.96
   6   0  -6  188.28    3.85
   6   0  -5   14.22    3.69
   6   0  -4   87.20    4.10
  -6   0   3   26.78    2.66
  -6   0   2  399.44    5.96
  -6   0   2  399.41    6.16
  -6   0   2  400.08    5.85
  -6   0   1   40.98    3.02
  -6   0   1   40.78    2.58
  -6   0   1   38.43    2.55
  -6   0   0   35.60    3.83
  -6   0   0   36.79    3.66
  -6   0   0   36.49    2.50
  -6   0   0   35.65    2.38
  -6   0  -1   13.14    2.74
  -6   0  -1   12.31    3.02
  -6   0  -1   12.45    2.99
  -6   0  -1   11.51    2.55
  -6   0  -1   11.15    2.08
  -6   0  -2  522.68    5.79
  -6   0  -2  503.96    6.54
  -6   0  -2  536.73    5.74
  -6   0  -2  510.87    5.21
  -6   0  -2  525.53    5.07
  -6   0  -3  814.65    6.85
  -6   0  -3  801.87    6.27
  -6   0  -3  796.71    6.40
  -6   0  -4  140.65    4.66
  -6   0  -4  142.04    4.44
  -6   0  -4  141.09    4.05
  -6   0  -4  137.93    3.77
  -6   0  -4  140.23    3.47
  -6   0  -5  546.22    7.35
  -6   0  -5  535.04    6.90
  -6   0  -5  515.80    9.90
  -6   0  -5  542.33    7.54
  -6   0  -6  303.92    5.93
  -6   0  -6  310.05    4.66
  -6   0  -6  301.48    5.35
  -6   0  -7    3.16    3.19
  -6   0  -7    2.74    2.36
  -6   0  -7    2.22    3.47
  -6   0  -8   41.70    3.30
  -6   0  -8   45.52    4.16
  -6   0  -9  194.24    4.52
  -6   0  -9  194.52    4.08
  -6   0  -9  196.05    4.71
   6   0  10  135.55    3.49
  -6   0 -10  136.21    3.08
  -6  -1   6  114.53    4.05
   6   1  -6  110.96    3.88
   6   1  -6  109.32    3.91
  -6  -1   6  110.46    3.13
  -6  -1   5    4.02    2.74
   6   1  -5    2.08    2.63
   6   1  -5    4.02    3.55
  -6  -1   5    2.02    2.99
  -6  -1   4  126.82    4.66
   6   1  -4  122.60    3.66
   6   1  -4  124.10    4.46
  -6  -1   4  124.10    3.69
  -6  -1   3  436.87    5.85
   6   1  -3  415.38    5.46
   6   1  -3  430.43    5.68
  -6  -1   3  433.29    5.32
  -6  -1   2   37.54    3.94
  -6  -1   2   33.91    2.58
  -6  -1   2   36.26    3.05
  -6  -1   2   37.54    3.58
  -6  -1   1  541.00    7.29
  -6  -1   1  536.93    8.43
  -6  -1   1  555.09    6.85
  -6  -1   1  488.96   27.64
  -6  -1   1  555.92    6.85
  -6  -1   0  503.10    5.21
  -6  -1   0  483.03    7.15
  -6  -1   0  496.75    5.02
  -6  -1   0  488.82    5.21
  -6  -1   0  493.20    4.88
  -6  -1  -1  280.16    5.30
  -6  -1  -1  280.41    4.57
   6   1   1  268.52    3.94
  -6  -1  -1  281.91    3.96
  -6  -1  -2    2.19    2.80
  -6  -1  -2    1.28    3.05
  -6  -1  -2    3.44    2.16
  -6  -1  -3   14.00    2.88
  -6  -1  -3   15.19    3.19
  -6  -1  -3   14.03    3.16
  -6  -1  -4  330.57    5.99
  -6  -1  -4  328.85    4.16
  -6  -1  -4  328.93    4.71
  -6  -1  -5   89.55    3.41
  -6  -1  -5   82.37    4.19
  -6  -1  -5   88.69    2.94
  -6  -1  -5   89.91    3.72
  -6  -1  -5   88.14    3.52
  -6  -1  -6    3.24    3.80
  -6  -1  -6    2.11    2.66
  -6  -1  -6    3.88    3.55
  -6  -1  -7  294.66    4.94
  -6  -1  -7  291.48    4.49
  -6  -1  -7  295.86    5.57
  -6  -1  -8   87.53    4.94
  -6  -1  -8   87.69    3.35
  -6  -1  -9    1.61    3.13
  -6  -1  -9    1.30    2.69
   6   1  10   72.56    2.97
  -6  -1 -10   72.67    3.16
  -6  -1 -10   75.41    3.44
   6   1  11   84.40    3.08
  -6  -1 -11   85.64    2.86
  -6  -1 -11   88.78    3.94
  -6  -2   6   80.90    3.16
   6   2  -6   81.43    3.60
   6   2  -6   83.40    3.22
  -6  -2   6   81.04    3.49
  -6  -2   5   39.56    3.13
   6   2  -5   39.45    3.99
   6   2  -5   39.98    3.88
  -6  -2   5   41.31    3.02
  -6  -2   4   49.85    3.41
   6   2  -4   48.82    3.96
   6   2  -4   50.57    4.27
  -6  -2   4   52.57    3.66
  -6  -2   4   52.98    2.91
  -6  -2   3   29.75    3.47
   6   2  -3   26.53    3.33
   6   2  -3   30.69    3.77
  -6  -2   3   28.89    3.30
  -6  -2   3   29.64    3.41
  -6  -2   2  544.08    7.13
   6   2  -2  532.57    6.93
   6   2  -2  546.02    7.26
  -6  -2   2  537.65    7.07
  -6  -2   2  555.50    7.07
  -6  -2   1   31.44    3.88
   6   2  -1   28.72    2.80
  -6  -2   1   33.35    3.60
  -6  -2   1   25.48    3.55
  -6  -2   0    5.63    3.35
  -6  -2   0    3.08    2.91
  -6  -2   0    6.88    2.44
  -6  -2   0    6.49    2.27
  -6  -2  -1  161.78    4.52
  -6  -2  -1  121.63    9.87
  -6  -2  -1  138.18    4.66
  -6  -2  -1  160.78    3.77
  -6  -2  -1  145.75    4.71
  -6  -2  -2  402.99    4.71
   6   2   2  402.13    4.63
  -6  -2  -2  407.42    4.60
  -6  -2  -3   24.56    2.58
  -6  -2  -3   20.46    4.16
  -6  -2  -3   19.52    2.38
   6   2   3   23.71    2.58
  -6  -2  -3   23.37    3.22
  -6  -2  -4  121.71    3.88
  -6  -2  -4  118.47    4.30
  -6  -2  -4  115.42    4.02
   6   2   4  115.73    3.19
  -6  -2  -4  118.30    3.85
  -6  -2  -5  827.54    7.18
  -6  -2  -5  826.32    7.90
  -6  -2  -5  824.13    6.43
   6   2   5  815.04    6.04
  -6  -2  -5  824.05    6.79
  -6  -2  -6  281.16    4.57
  -6  -2  -6  268.46    5.07
  -6  -2  -6  258.18    7.26
   6   2   6  277.81    3.94
  -6  -2  -7  933.15   11.15
   6   2   7  908.75    9.90
  -6  -2  -7  934.34   10.56
  -6  -2  -8  188.03    3.58
   6   2   8  180.16    3.96
  -6  -2  -8  187.15    4.80
  -6  -2  -9    4.41    2.72
  -6  -2  -9    6.21    2.99
   6   2   9    5.57    3.16
  -6  -2  -9    5.41    3.63
  -6  -2 -10   43.69    3.05
  -6  -2 -10   42.81    3.44
   6   2  10   42.61    2.63
  -6  -2 -10   45.28    3.24
  -6  -2 -11    1.03    2.77
  -6  -2 -11   -0.61    2.38
  -6  -2 -11    0.58    3.41
   6   3  -6  222.05    4.05
   6   3  -6  222.61    4.30
  -6  -3   6  220.97    4.02
  -6  -3   5    3.66    2.91
   6   3  -5    4.60    2.69
   6   3  -5    2.58    3.63
  -6  -3   5    2.52    3.58
  -6  -3   5    3.85    2.88
  -6  -3   4    6.90    3.02
   6   3  -4    7.18    2.80
   6   3  -4    6.52    3.38
  -6  -3   4    5.91    4.16
  -6  -3   4    6.18    2.55
  -6  -3   3   33.38    2.74
   6   3  -3   31.99    3.94
   6   3  -3   33.52    3.99
  -6  -3   3   35.27    3.60
  -6  -3   3   32.49    3.44
  -6  -3   2   44.80    3.22
   6   3  -2   40.48    2.77
   6   3  -2   44.42    2.99
  -6  -3   2   46.74    3.13
  -6  -3   2   42.34    4.02
  -6  -3   1  146.11    4.35
  -6  -3   1  130.84    7.43
   6   3  -1  144.86    4.85
   6   3  -1  146.33    3.80
  -6  -3   1  150.46    3.83
  -6  -3   1  146.47    4.74
  -6  -3   0  566.15    6.16
   6   3   0  565.98    7.96
   6   3   0  565.23    6.21
  -6  -3   0  574.38    6.07
  -6  -3   0  565.01    6.57
  -6  -3  -1  115.95    3.63
   6   3   1  112.59    4.24
  -6  -3  -1  116.11    4.16
  -6  -3  -1  115.95    4.21
  -6  -3  -2   49.02    3.27
  -6  -3  -2   30.47    5.21
  -6  -3  -2   49.13    2.72
  -6  -3  -2   37.35    3.85
  -6  -3  -3   46.05    3.30
  -6  -3  -3   45.58    3.74
  -6  -3  -3   47.22    2.88
   6   3   3   48.02    2.66
  -6  -3  -4  525.23    5.21
  -6  -3  -4  535.32    6.63
  -6  -3  -4  525.86    5.02
   6   3   4  519.04    7.65
  -6  -3  -5  128.15    3.63
  -6  -3  -5  124.49    4.19
  -6  -3  -5  122.85    3.94
   6   3   5  126.73    3.41
  -6  -3  -5  125.73    3.85
  -6  -3  -6 1829.92   10.73
   6   3   6 1807.41    9.54
  -6  -3  -6 1801.25    9.43
  -6  -3  -7  469.50    6.65
  -6  -3  -7  462.12    5.99
   6   3   7  464.34    6.68
  -6  -3  -7  483.22    7.10
  -6  -3  -8  266.91    5.35
   6   3   8  254.52    5.18
  -6  -3  -8  263.67    3.99
   6   3   8  260.20    4.35
  -6  -3  -8  263.58    4.63
  -6  -3  -9  109.54    4.19
  -6  -3  -9  110.73    4.05
   6   3   9  109.85    3.52
  -6  -3  -9  109.60    3.83
  -6  -3 -10    5.52    3.91
  -6  -3 -10    2.30    3.52
  -6  -3 -10    4.19    3.52
   6   3  10    3.49    2.52
  -6  -3 -10    2.30    2.91
   6   3  11    0.30    2.30
  -6  -3 -11    1.05    2.38
  -6  -3 -11    0.61    2.55
   6   3  11    1.03    2.58
  -6  -3 -11    0.91    3.55
   6   3  12   32.44    3.30
  -6  -3 -12   32.44    3.27
  -6  -3 -12   33.55    3.11
   6   3  12   33.13    2.80
  -6  -3 -12   30.39    3.02
   6   4  -5    2.99    3.24
  -6  -4   5    2.91    3.19
  -6  -4   5    4.02    2.58
   6   4  -4    1.25    3.80
   6   4  -4    1.72    3.88
  -6  -4   4    4.35    2.72
  -6  -4   4    1.91    2.66
   6   4  -3    0.42    2.86
   6   4  -3    0.19    3.08
  -6  -4   3    0.08    3.13
   6   4  -2   22.57    4.55
   6   4  -2   24.90    4.60
  -6  -4   2   25.45    3.08
   6   4  -1   78.24    4.27
   6   4  -1   89.11    4.19
  -6  -4   1   76.85    4.24
  -6  -4   0    2.94    3.55
   6   4   0   11.64    3.41
   6   4   0   11.56    2.63
  -6  -4   0   10.12    3.19
   6   4   1   46.86    4.10
   6   4   1   46.80    3.27
  -6  -4  -1   53.79    3.30
  -6  -4  -2  235.42    4.74
  -6  -4  -2  254.43    5.96
   6   4   2  247.39    6.49
  -6  -4  -2  245.70    4.91
  -6  -4  -2  245.95    4.77
  -6  -4  -3  162.03    3.83
  -6  -4  -3  165.30    5.38
   6   4   3  159.53    4.66
   6   4   3  158.56    3.91
   6   4   3  168.38    3.99
  -6  -4  -3  169.71    4.55
  -6  -4  -4   19.93    2.63
  -6  -4  -4    4.91    4.30
   6   4   4   12.45    2.99
  -6  -4  -4   13.42    4.13
  -6  -4  -5  678.38    9.48
  -6  -4  -5  691.11   10.87
  -6  -4  -5  691.11    9.37
   6   4   5  693.08    9.68
  -6  -4  -5  698.12    9.57
  -6  -4  -6  112.68    3.33
   6   4   6  112.56    3.16
  -6  -4  -6  115.23    4.02
  -6  -4  -7  301.57    5.68
   6   4   7  308.67    5.35
  -6  -4  -7  302.62    5.18
  -6  -4  -8   32.22    4.74
   6   4   8   32.88    5.46
  -6  -4  -8   35.96    4.88
   6   4   8   42.56    4.52
  -6  -4  -8   35.82    6.43
  -6  -4  -9   36.15    3.30
   6   4   9   36.60    2.58
  -6  -4  -9   36.54    3.05
   6   4   9   36.76    4.10
  -6  -4  -9   36.51    3.52
  -6  -4 -10   15.08    3.69
  -6  -4 -10   18.16    3.47
   6   4  10   17.02    3.38
  -6  -4 -10   14.22    3.72
   6   4  11  147.39    3.52
  -6  -4 -11  149.88    3.85
  -6  -4 -11  148.03    3.91
   6   4  11  148.16    3.94
  -6  -4 -11  145.36    4.13
   6   4  12   22.32    2.41
  -6  -4 -12   23.18    3.13
  -6  -4 -12   22.79    2.61
   6   4  12   22.37    2.94
   6   5  -5    5.96    2.52
   6   5  -5    6.57    2.80
  -6  -5   5    6.85    2.88
  -6  -5   5    5.21    2.80
   6   5  -4   33.80    3.49
   6   5  -4   35.82    3.05
  -6  -5   4   36.90    3.27
  -6  -5   4   34.96    3.35
   6   5  -3   19.71    2.86
  -6  -5   3   18.33    2.91
  -6  -5   3   18.19    3.02
   6   5  -2  114.62    3.74
   6   5  -2  113.34    4.05
  -6  -5   2  114.28    3.88
  -6  -5   2  104.00    4.33
   6   5  -1   94.99    3.16
   6   5  -1   97.84    4.74
  -6  -5   1   99.06    4.27
   6   5   0   13.03    3.33
   6   5   0   12.67    4.19
  -6  -5   0   14.00    2.88
  -6  -5   0   13.28    2.83
  -6  -5  -1  197.15    5.68
   6   5   1  200.23    6.02
   6   5   1  200.51    4.71
  -6  -5  -1  199.23    3.85
  -6  -5  -1  204.70    3.85
  -6  -5  -2   49.13    4.27
   6   5   2   61.11    4.02
   6   5   2   60.66    2.94
  -6  -5  -2   64.85    3.47
  -6  -5  -2   60.36    4.33
  -6  -5  -3   18.58    3.52
   6   5   3   16.58    3.99
   6   5   3   15.72    3.19
   6   5   3   18.69    3.60
  -6  -5  -3   15.89    2.41
  -6  -5  -4   88.67    4.35
   6   5   4   87.58    3.85
   6   5   4   87.81    3.58
   6   5   4   88.39    3.52
  -6  -5  -4   89.22    3.66
   6   5   5  125.62    4.74
   6   5   5  123.79    3.69
   6   5   5  119.77    3.66
  -6  -5  -5  124.15    3.96
   6   5   6  195.49    4.74
  -6  -5  -6  183.43    5.27
   6   5   7   14.92    5.27
  -6  -5  -7   13.70    5.13
  -6  -5  -8  185.32    4.46
   6   5   8  199.01    4.16
  -6  -5  -8  190.53    3.96
  -6  -5  -9   70.17    5.27
   6   5   9   73.80    5.99
  -6  -5  -9   66.24    5.27
  -6  -5 -10   17.91    3.63
   6   5  11   21.49    2.33
  -6  -5 -11   23.65    3.24
   6   5  12    0.94    1.97
  -6  -5 -12    1.08    3.05
  -6  -5 -12    0.78    2.66
   6   5  12    2.22    3.11
   6   6  -4   28.11    2.61
   6   6  -4   28.20    2.69
  -6  -6   4   30.61    2.55
   6   6  -3   68.92    3.33
   6   6  -3   67.51    3.27
  -6  -6   3   69.34    3.35
   6   6  -2   55.56    3.08
   6   6  -2   56.81    3.94
  -6  -6   2   56.17    3.91
  -6  -6   2   57.81    3.38
   6   6  -1   40.17    4.02
  -6  -6   1   38.79    4.10
  -6  -6   1   39.48    3.72
   6   6   0   14.72    2.55
  -6  -6   0   21.43    3.88
  -6  -6   0   12.03    3.05
   6   6   1   22.60    3.27
   6   6   1   31.22    3.66
  -6  -6  -1   33.77    3.02
  -6  -6  -1   21.27    4.74
  -6  -6  -2    2.30    3.22
   6   6   2    7.74    4.69
   6   6   2    8.46    4.02
  -6  -6  -2    4.30    2.72
   6   6   3   21.99    6.07
   6   6   3   44.14    4.27
   6   6   3   45.72    3.52
   6   6   3   40.65    3.60
  -6  -6  -4   52.82    5.60
   6   6   4   61.61    4.33
   6   6   4   52.04    5.38
   6   6   4   53.09    4.66
   6   6   4   47.13    5.66
  -6  -6  -4   52.59    7.51
   6   6   5   24.07    3.05
   6   6   5   21.93    3.16
   6   6   5   23.48    2.50
   6   6   5   23.37    3.58
  -6  -6  -5   23.59    2.30
   6   6   6   19.27    3.60
   6   6   6   17.13    3.69
   6   6   6   16.47    2.88
   6   6   6   16.27    3.35
  -6  -6  -6   16.14    2.27
   6   6   7   26.67    2.52
   6   6   7   27.92    2.86
   6   6   8  241.74    5.85
   6   6   8  245.34    5.05
   6   6   8  246.20    5.93
   6   6   9  184.46    6.10
   6   6   9  189.25    4.19
   6   6   9  184.32    4.10
   6   6  10   64.54    5.77
   6   6  10   74.14    3.30
  -6  -6 -11  183.01    4.19
   6   6  11  182.43    4.99
  -6  -6 -12  192.58    4.52
   6   6  12  191.33    4.69
   6   7  -3  242.07    4.38
   6   7  -3  245.56    4.57
  -6  -7   3  239.27    3.96
   6   7  -2   71.89    3.16
   6   7  -2   74.14    3.55
  -6  -7   2   70.39    3.55
  -6  -7   2   75.88    4.16
   6   7  -1   25.92    3.74
   6   7  -1   25.73    3.94
  -6  -7   1   26.48    2.74
  -6  -7   1   25.01    3.49
   6   7   0   31.33    3.60
   6   7   0   35.41    3.27
  -6  -7   0   37.04    3.66
  -6  -7   0   26.12    3.22
   6   7   1   13.47    3.44
  -6  -7  -1   14.06    2.77
   6   7   2  505.57    7.32
   6   7   2  521.40    7.37
  -6  -7  -2  528.53    7.57
   6   7   3  432.71    6.24
   6   7   3  421.12    6.24
  -6  -7  -3  422.20    5.96
   6   7   4    4.33    2.16
   6   7   4    2.00    2.91
   6   7   4    1.89    2.77
  -6  -7  -4    1.97    3.02
   6   7   5   43.94   11.95
   6   7   5   79.60    9.20
   6   7   5   68.18   17.41
   6   7   6  634.02   14.58
   6   7   6  626.40   11.53
   6   7   6  622.76   13.70
   6   7   7 1126.78   12.20
   6   7   7 1112.31   12.31
   6   7   7 1094.59   12.12
   6   7   8    5.21    2.72
   6   7   8    1.30    2.69
   6   7   8    0.89    3.13
   6   7   9   12.81    5.91
   6   7   9   11.73    5.79
   6   7   9   11.76    6.21
   6   7  10   57.31    3.69
   6   7  10   55.59    5.46
   6   7  10   52.46    4.02
   6   7  11    0.86    3.05
  -6  -7 -11   -0.22    3.63
   6   7  11   -0.08    2.66
   6   7  11    0.83    3.41
   6   7  12    1.36    2.86
   6   8  -2   60.16    2.77
   6   8  -2   60.64    3.16
  -6  -8   2   63.02    3.44
   6   8  -1   -0.22    2.52
   6   8  -1   -0.19    2.55
  -6  -8   1   -0.06    3.11
   6   8   0   13.89    3.63
   6   8   0   14.17    3.72
  -6  -8   0   14.64    2.63
   6   8   1   33.85    3.02
   6   8   1   36.87    3.66
  -6  -8  -1   32.33    2.99
   6   8   2  128.92    4.44
   6   8   2  133.86    4.94
  -6  -8  -2  125.57    4.30
   6   8   3   75.80    4.30
   6   8   3   96.48    4.05
   6   8   5   54.01    2.74
   6   8   5   57.39    4.30
   6   8   5   52.43    2.58
   6   8   6  478.12    5.82
   6   8   6  485.36    6.18
   6   8   6  482.84    8.51
   6   8   7  254.10    4.02
   6   8   7  265.30    5.35
   6   8   7  255.88    3.94
   6   8   8  890.56   12.48
   6   8   8  904.56   12.59
   6   8   8  873.79   11.64
   6   8   9  997.28   13.28
   6   8   9 1004.71   13.00
   6   8   9  967.17   12.45
   6   8  10  137.99    4.30
   6   8  10  137.79    4.57
   6   8  10  131.58    3.35
   6   8  11   84.15    3.16
   6   8  11   84.42    4.02
   6   8  11   84.04    3.55
   6   8  12    8.76    2.55
   6   8  12   10.62    2.83
   6   8  12   10.54    2.55
   6   9  -1   40.56    2.55
   6   9  -1   40.01    2.80
   6   9   0   46.02    2.94
   6   9   0   45.44    3.24
   6   9   1  111.01    3.99
   6   9   1  109.32    3.99
   6   9   2  184.12    3.96
   6   9   2  180.21    3.85
   6   9   3  227.43    4.57
   6   9   3  241.32    5.46
   6   9   4   40.20    3.16
   6   9   4   38.59    3.55
   6   9   5   16.30    3.88
   6   9   6   46.47    2.99
   6   9   7   77.88    4.16
   6   9   8  234.28    4.60
   6   9   8  238.83    4.74
   6   9   9   64.49    3.13
   6   9   9   65.24    3.27
   6   9  10  262.86    5.55
   6   9  10  252.80    5.41
   6   9  11   66.43    3.63
   6   9  11   69.78    3.35
   6  10   1    0.58    2.36
   6  10   1    1.61    2.22
   6  10   2    7.98    3.11
   6  10   2    7.71    2.97
   6  10   3    4.66    3.19
   6  10   3    4.96    2.77
   6  10   4  151.19    5.57
   6  10   4  152.66    5.77
   6  10   5    0.39    2.36
   6  10   5    0.91    3.69
   6  10   6   22.76    4.71
   6  10   7   56.25    2.83
   6  10   7   57.28    4.10
   6  10   8  176.61    4.19
   6  10   9  142.29    3.88
   6  10  10    1.03    3.49
   6  10  11   59.14    2.69
   6  10  11   60.44    2.91
   6  11   3    3.83    2.25
   6  11   3    2.72    2.50
   6  11   4   34.07    2.91
   6  11   4   35.16    3.16
   6  11   5   88.14    3.52
   6  11   5   92.60    3.69
   6  11   6  137.24    3.58
   6  11   6  134.77    4.16
   6  11   7  213.60    4.02
   6  11   8   78.38    2.69
   6  11   8   80.04    3.69
   6  11   9    9.95    2.74
   6  11   9   10.70    2.55
  -7   4   2    6.52    3.02
  -7   4   1   30.94    3.41
  -7   4   0   31.33    3.16
  -7   4  -1  264.25    4.69
  -7   4  -2  138.96    3.55
  -7   4  -2  138.99    4.24
  -7   4  -3   24.95    2.80
  -7   3   3   45.22    3.08
  -7   3   2   47.63    2.99
  -7   3   1  134.30    5.13
  -7   3   0   41.20    4.02
  -7   3  -1   38.76    2.77
  -7   3  -1   42.61    3.19
  -7   3  -2   65.99    3.05
  -7   3  -2   71.61    4.21
  -7   3  -3    5.24    2.63
  -7   3  -3    8.87    3.02
  -7   3  -4  100.70    3.77
  -7   2   4  123.82    3.38
  -7   2   4  125.60    3.80
  -7   2   3  241.71    4.41
  -7   2   3  247.48    4.63
  -7   2   2   36.04    3.30
  -7   2   2   34.60    3.05
  -7   2   1  450.37    6.21
  -7   2   1  447.46    6.88
  -7   2   0    3.49    3.11
  -7   2   0    4.57    3.08
  -7   2   0    3.91    3.91
  -7   2  -1   58.81    3.22
  -7   2  -1   59.53    3.38
  -7   2  -1   61.47    3.27
  -7   2  -2   57.47    3.49
  -7   2  -2   56.67    4.02
  -7   2  -2   57.97    3.19
  -7   2  -3  252.99    4.33
  -7   2  -3  253.66    5.41
  -7   2  -3  248.11    4.35
  -7   2  -4    6.27    2.66
  -7   2  -4    6.04    2.58
  -7   2  -4    7.65    3.91
  -7   2  -5   20.99    3.47
  -7   2  -5   17.86    2.86
  -7   2  -6    5.32    3.13
  -7   2  -7   33.02    2.86
  -7   1   5  225.93    4.38
  -7   1   4   23.93    2.83
  -7   1   3  286.21    5.52
  -7   1   3  273.20    5.52
  -7   1   2   13.56    3.02
  -7   1   2   14.42    2.74
  -7   1   1   10.40    3.63
  -7   1   1   10.45    2.22
  -7   1   1   10.70    3.63
  -7   1   0   39.40    4.24
  -7   1   0   33.38    2.80
  -7   1   0   39.04    3.77
  -7   1  -1   27.97    3.44
  -7   1  -1   29.03    2.91
  -7   1  -1   27.81    2.94
  -7   1  -2   90.00    4.19
  -7   1  -2   92.21    4.52
  -7   1  -2   86.92    3.38
  -7   1  -3   -0.53    2.80
  -7   1  -3   -0.55    3.74
  -7   1  -3    0.11    2.61
  -7   1  -4   49.13    4.10
  -7   1  -4   47.69    4.05
  -7   1  -4   30.94    2.61
  -7   1  -5   15.11    3.72
  -7   1  -5   12.59    3.49
  -7   1  -5   13.34    2.69
  -7   1  -6   15.00    2.86
  -7   1  -6   15.00    2.74
  -7   1  -6   13.72    3.19
  -7   1  -7   10.12    2.72
  -7   1  -7    8.29    3.30
  -7   1  -7    7.82    2.55
  -7   1  -8    8.37    2.41
  -7   1  -8    7.93    2.94
  -7   0   3  115.48    4.41
  -7   0   2   95.51    4.63
  -7   0   1   26.67    3.41
  -7   0   1   27.73    2.52
  -7   0   0   12.48    3.22
  -7   0   0    7.04    3.24
  -7   0  -1   12.14    3.88
  -7   0  -1   12.03    2.97
  -7   0  -2  137.21    4.41
  -7   0  -2  139.90    3.47
  -7   0  -2  132.67    4.05
  -7   0  -2  137.30    3.74
  -7   0  -3  108.77    3.66
  -7   0  -3  108.82    3.24
  -7   0  -3  100.84    4.33
  -7   0  -4   88.14    4.49
  -7   0  -4   92.10    4.19
  -7   0  -4   85.92    3.94
  -7   0  -4   85.03    3.94
  -7   0  -5   16.25    3.77
  -7   0  -5   15.83    2.91
  -7   0  -5   15.17    3.63
  -7   0  -5   15.28    3.52
  -7   0  -6   34.46    4.38
  -7   0  -6   35.24    3.80
  -7   0  -6   33.74    2.80
  -7   0  -7   17.69    3.08
  -7   0  -7   17.02    2.66
  -7   0  -7   18.10    2.86
  -7   0  -8   55.92    3.99
  -7   0  -8   54.62    3.19
  -7   0  -8   56.25    3.08
   7   0   9   24.15    2.30
  -7   0  -9   20.05    3.44
  -7  -1   5    0.97    2.41
  -7  -1   4  456.91    5.74
  -7  -1   4  435.73    6.52
  -7  -1   3   18.58    3.85
  -7  -1   3   17.72    2.50
  -7  -1   2    9.59    3.11
  -7  -1   2    6.32    2.41
  -7  -1   1  853.36   11.62
  -7  -1   1  837.75   12.20
  -7  -1   0  636.27    6.07
  -7  -1   0  645.39    6.18
  -7  -1   0  616.80   11.37
  -7  -1  -1  213.82    3.96
  -7  -1  -1  211.46    4.27
  -7  -1  -2  304.34    5.46
  -7  -1  -2  298.79    4.80
  -7  -1  -3   18.60    3.47
  -7  -1  -4  118.08    3.94
  -7  -1  -4  114.56    3.24
  -7  -1  -5  410.83    5.18
  -7  -1  -5  420.40    5.32
  -7  -1  -5  417.63    5.18
  -7  -1  -6   78.24    3.66
  -7  -1  -6   72.03    4.08
  -7  -1  -6   76.08    3.55
  -7  -1  -7   99.26    4.49
  -7  -1  -7  102.20    3.60
  -7  -1  -7  100.75    4.30
  -7  -1  -8    2.13    3.16
  -7  -1  -8    3.33    3.80
  -7  -1  -9    6.63    4.05
  -7  -1  -9    7.10    2.69
   7   1  10    8.54    2.16
  -7  -2   5   41.84    3.22
  -7  -2   5   40.26    3.13
  -7  -2   4  125.93    4.08
   7   2  -4  118.97    3.52
   7   2  -4  119.86    3.74
  -7  -2   4  124.96    3.35
  -7  -2   3   61.66    3.33
  -7  -2   3   58.14    3.47
  -7  -2   2  746.86   10.62
  -7  -2   2  729.01    9.87
  -7  -2   2  743.42   10.54
  -7  -2   2  725.18   10.34
  -7  -2   1   12.53    3.69
  -7  -2   1    4.33    3.55
  -7  -2   1   10.76    2.88
  -7  -2   1    5.79    2.74
  -7  -2   0  211.82    4.38
  -7  -2   0  213.32    4.66
  -7  -2   0  210.99    3.94
  -7  -2   0  203.48    4.63
  -7  -2  -1 1036.37   11.28
  -7  -2  -1 1027.66   11.56
   7   2   1  999.08   12.59
  -7  -2  -1 1008.45   11.01
  -7  -2  -2  523.29    6.99
   7   2   2  519.52    7.18
  -7  -2  -2  520.15    6.90
  -7  -2  -3  204.72    4.38
  -7  -2  -3  209.77    4.94
   7   2   3  198.51    4.24
  -7  -2  -3  201.81    4.88
  -7  -2  -4  275.56    5.85
  -7  -2  -4  262.67    5.91
   7   2   4  255.35    5.27
  -7  -2  -4  266.30    4.80
  -7  -2  -5  923.53   10.92
  -7  -2  -5  929.32   10.09
   7   2   5  902.37    7.85
  -7  -2  -5  915.21   10.51
  -7  -2  -6   -0.75    4.41
  -7  -2  -6    0.17    2.47
   7   2   6   -0.19    2.86
  -7  -2  -6   -0.47    2.83
  -7  -2  -7  138.18    5.02
  -7  -2  -7  124.65    5.38
   7   2   7  127.70    3.72
  -7  -2  -9   64.88    4.46
  -7  -2 -10  289.04    5.18
  -7  -3   4    7.24    2.38
   7   3  -4    6.60    2.38
   7   3  -4    6.02    2.83
  -7  -3   4    8.84    3.35
  -7  -3   4    3.33    2.80
  -7  -3   3  209.88    4.74
   7   3  -3  202.03    4.44
  -7  -3   3  210.88    4.30
   7   3  -3  209.77    4.55
  -7  -3   3  215.62    4.44
  -7  -3   3  203.92    4.10
  -7  -3   2   16.61    3.83
  -7  -3   2   13.61    3.55
   7   3  -2   17.86    2.86
  -7  -3   2   16.36    2.97
  -7  -3   2   14.61    2.74
  -7  -3   1  702.06   10.18
  -7  -3   1  721.44    9.98
   7   3  -1  691.61    9.84
  -7  -3   1  706.11    9.95
  -7  -3   1  707.71   10.06
  -7  -3   0   52.73    3.94
  -7  -3   0   43.47    3.22
  -7  -3   0   55.37    3.44
  -7  -3   0   45.14    3.66
  -7  -3  -1   37.90    2.99
  -7  -3  -1   26.17    4.13
  -7  -3  -1   40.06    3.30
  -7  -3  -2  167.74    4.57
   7   3   2  168.18    4.55
  -7  -3  -2  172.70    4.91
  -7  -3  -3  119.36    4.44
  -7  -3  -3   84.67    7.85
   7   3   3  109.35    4.05
  -7  -3  -3   97.04    5.88
  -7  -3  -4  531.60    7.07
  -7  -3  -4  538.87    7.32
   7   3   4  516.27    7.07
  -7  -3  -4  537.37    7.40
  -7  -3  -5  109.27    5.43
  -7  -3  -5  110.29    4.46
   7   3   5  119.25    4.08
  -7  -3  -6    9.01    3.88
  -7  -3  -6    9.65    3.49
   7   3   6   15.69    2.61
  -7  -3  -7  148.08    4.19
   7   3   7  140.79    4.08
  -7  -3  -7  146.97    4.19
  -7  -3  -8   18.71    3.47
   7   3   8   10.09    2.83
   7   3   8   15.17    2.47
  -7  -3  -8   15.47    4.27
  -7  -3  -9    7.13    3.63
   7   3   9    7.29    2.55
  -7  -3  -9    6.40    3.11
  -7  -3 -10   15.61    3.05
  -7  -3 -10   15.05    2.77
   7   3  10   14.83    2.44
  -7  -3 -10   14.33    2.94
   7   3  11    1.86    2.25
  -7  -3 -11    0.78    2.44
   7   3  11    0.97    2.22
  -7  -3 -11    1.08    3.16
   7   4  -4   51.79    2.83
   7   4  -4   53.87    2.88
  -7  -4   4   55.92    3.69
  -7  -4   4   55.37    3.13
   7   4  -3    4.13    2.69
  -7  -4   3    3.83    2.50
   7   4  -3    3.05    3.83
  -7  -4   3    5.93    3.58
  -7  -4   3    4.19    2.52
   7   4  -2  106.24    3.77
   7   4  -2  108.60    3.58
  -7  -4   2  110.65    3.72
  -7  -4   2  115.20    3.74
  -7  -4   1  151.41    4.52
   7   4  -1  156.37    5.05
  -7  -4   1  157.17    4.99
  -7  -4   1  152.88    4.69
  -7  -4   0   40.09    3.77
   7   4   0   39.26    3.08
  -7  -4   0   41.45    3.22
  -7  -4   0   38.79    3.72
  -7  -4  -1  157.62    4.21
   7   4   1  156.43    3.66
  -7  -4  -1  157.06    3.77
  -7  -4  -1  163.33    3.77
  -7  -4  -2  350.86    5.43
  -7  -4  -2  360.35    5.93
   7   4   2  364.17    5.77
  -7  -4  -2  353.86    5.49
  -7  -4  -3   17.97    4.10
   7   4   3   25.65    2.97
  -7  -4  -4  857.02   10.04
  -7  -4  -4  874.15    9.62
   7   4   4  893.53   10.34
  -7  -4  -4  917.32   10.06
  -7  -4  -5   55.98    3.08
  -7  -4  -5   46.63    3.85
   7   4   5   54.65    3.91
  -7  -4  -5   53.65    3.96
  -7  -4  -6  440.86    6.43
  -7  -4  -6  444.63    5.93
   7   4   6  459.35    6.93
  -7  -4  -6  445.99    6.63
  -7  -4  -7  260.65    4.60
   7   4   7  269.16    4.41
  -7  -4  -7  258.93    4.35
  -7  -4  -8   39.40    4.88
   7   4   8   26.23    8.87
   7   4   8   39.79    5.21
  -7  -4  -8   31.97    8.48
  -7  -4  -9   87.50    4.10
  -7  -4  -9   87.45    2.83
   7   4   9   89.03    3.13
  -7  -4  -9   87.89    3.30
  -7  -4 -10   12.98    4.35
  -7  -4 -10   14.00    3.16
   7   4  10   14.64    3.85
  -7  -4 -10   12.59    3.08
   7   4  11  130.50    3.47
  -7  -4 -11  129.31    3.27
  -7  -4 -11  132.58    3.77
   7   4  11  127.95    3.11
  -7  -4 -11  128.70    3.91
   7   5  -3   12.92    2.99
  -7  -5   3    2.86    3.11
   7   5  -3   13.31    2.88
  -7  -5   3   17.80    2.91
  -7  -5   3    6.54    3.66
   7   5  -2  288.54    5.24
   7   5  -2  303.04    5.24
  -7  -5   2  298.30    5.60
  -7  -5   2  307.97    5.91
   7   5  -1   43.17    3.24
  -7  -5   1   39.01    4.19
   7   5   0  276.98    5.52
   7   5   1    4.41    3.74
   7   5   2   52.15    5.82
  -7  -5  -2   52.51    6.02
   7   5   3  299.63    4.91
  -7  -5  -3  310.86    5.32
  -7  -5  -4  116.17    4.33
  -7  -5  -4  118.19    4.19
  -7  -5  -5  267.58    7.40
  -7  -5  -5  275.78    5.93
  -7  -5  -6   20.41    4.02
   7   5   6   39.37    6.38
  -7  -5  -6   11.06    9.76
  -7  -5  -7    4.16    2.94
   7   5   7    3.55    3.24
   7   5   7    5.49    3.94
  -7  -5  -7    1.75    3.60
  -7  -5  -8  132.44    3.88
   7   5   8  141.23    3.99
   7   5   8  139.26    4.80
  -7  -5  -8  137.16    3.85
  -7  -5  -9   14.08    5.43
   7   5   9    9.15    8.23
  -7  -5  -9   11.76    5.57
   7   5   9   19.10    5.77
  -7  -5 -10   -0.19    3.66
   7   5  10   -1.00    2.86
  -7  -5 -10   -0.53    2.94
   7   5  10   -0.06    3.47
  -7  -5 -10    0.33    2.55
   7   5  11   16.22    2.44
  -7  -5 -11   15.94    2.74
   7   5  11   16.61    3.30
  -7  -5 -12   38.62    2.77
  -7  -5 -12   37.35    2.55
   7   5  12   35.99    2.33
   7   6  -3   35.93    2.80
   7   6  -3   37.43    2.58
  -7  -6   3   38.32    2.94
   7   6  -2   14.50    2.52
   7   6  -2   14.33    3.55
  -7  -6   2   13.17    3.63
   7   6  -1  117.47    3.96
   7   6  -1  121.05    4.30
  -7  -6   1  116.67    4.02
   7   6   0   11.95    3.13
   7   6   0   14.03    3.96
  -7  -6   0   11.42    2.99
  -7  -6   0   11.67    3.19
   7   6   1  149.77    4.33
   7   6   1  145.36    4.30
  -7  -6  -1  145.53    4.16
   7   6   2   60.80    4.02
   7   6   2   44.17    5.30
  -7  -6  -2   50.10    4.60
   7   6   3   38.07    3.16
   7   6   3   40.89    3.27
   7   6   3   40.76    3.27
  -7  -6  -3   38.23    3.16
   7   6   4  143.06    3.41
  -7  -6  -4  140.98    3.38
   7   6   4  142.29    4.19
   7   6   4  145.67    3.80
  -7  -6  -4  144.03    3.77
   7   6   5   36.04    3.88
  -7  -6  -5   23.32    4.19
   7   6   5   35.71    2.94
   7   6   5   37.57    3.47
  -7  -6  -5   25.45    4.80
   7   6   6   51.15    3.63
   7   6   6   50.18    3.83
   7   6   6   50.68    3.52
  -7  -6  -6   48.21    3.63
   7   6   7   16.11    8.73
   7   6   8  371.27    8.90
   7   6   8  366.53   12.34
  -7  -6  -8  351.78    8.62
   7   6   9   64.43    3.30
  -7  -6  -9   62.77    3.16
   7   6   9   58.47    3.05
   7   6  10    4.94    2.66
  -7  -6 -10    5.91    2.83
  -7  -6 -11    7.54    3.05
  -7  -6 -12    0.33    2.19
  -7  -6 -12    1.05    2.25
   7   7  -2  207.99    4.02
   7   7  -2  212.79    4.49
   7   7  -2  207.36    4.30
  -7  -7   2  219.06    4.41
   7   7  -1   15.00    2.69
   7   7  -1   16.33    3.19
  -7  -7   1   14.39    3.55
   7   7   0    0.80    2.66
   7   7   0    2.33    3.22
   7   7   0    2.22    3.05
  -7  -7   0   -0.36    3.69
   7   7   1    0.67    2.88
   7   7   1    2.19    2.69
  -7  -7  -1    1.14    3.24
   7   7   2   26.75    3.94
   7   7   2   29.83    3.77
  -7  -7  -2   28.36    2.88
   7   7   3   59.75    3.91
   7   7   3   60.00    3.96
  -7  -7  -3   57.06    3.22
   7   7   4  430.49    4.88
   7   7   4  449.65    5.24
   7   7   4  440.55    5.32
  -7  -7  -4  442.13    5.18
   7   7   5   45.30    2.88
   7   7   5   44.25    3.38
   7   7   5   43.67    3.11
  -7  -7  -5   41.09    4.24
   7   7   6    4.91    3.58
   7   7   6    7.15    2.69
   7   7   6    5.18    3.08
  -7  -7  -6    4.27    3.05
   7   7   7  183.07    4.21
   7   7   7  181.10    4.19
   7   7   7  191.86    4.49
   7   7   8   17.00    3.35
   7   7   8   18.52    2.80
   7   7   9   92.24    3.83
   7   7   9   93.07    3.27
   7   7  10    6.13    3.41
  -7  -7 -10    5.99    3.47
   7   7  10    5.79    2.52
   7   7  11    2.61    2.33
  -7  -7 -11    3.52    2.41
   7   7  11    4.99    3.11
  -7  -7 -12    8.48    2.69
   7   7  12    9.68    2.80
   7   8  -1    8.48    2.55
   7   8  -1    7.32    3.08
  -7  -8   1    7.57    2.16
   7   8   0   13.17    2.36
   7   8   0   13.97    3.41
  -7  -8   0   14.17    3.16
   7   8   1   17.72    2.99
   7   8   1   19.60    3.16
  -7  -8  -1   19.13    2.61
   7   8   2   71.31    3.38
   7   8   2   62.22    4.35
  -7  -8  -2   70.78    3.30
   7   8   3  542.89    8.62
   7   8   3  524.09    7.85
  -7  -8  -3  527.92    8.07
   7   8   4   10.67    4.10
   7   8   4    9.87    2.86
   7   8   5   91.66    3.11
   7   8   5   87.78    3.60
   7   8   5   83.65    3.22
   7   8   6   10.76    2.66
   7   8   6    9.40    3.66
   7   8   6    8.21    2.38
   7   8   7  180.91    4.27
   7   8   7  179.77    4.27
   7   8   7  168.87    4.24
   7   8   8    9.57    2.77
   7   8   8   10.15    2.69
   7   8   8    9.23    2.50
   7   8   9   19.99    3.47
   7   8   9   19.52    3.33
   7   8  10  117.50    3.63
   7   8  10  112.73    4.24
   7   8  10  111.62    3.47
   7   8  11    4.63    2.27
  -7  -8 -11    5.16    2.36
   7   8  11    4.13    2.77
   7   9   0   33.71    2.30
   7   9   0   35.04    3.05
   7   9   1    0.14    2.74
   7   9   1    0.58    3.02
   7   9   2  273.98    4.27
   7   9   2  274.51    4.35
   7   9   3    8.29    2.83
   7   9   5  164.36    3.80
   7   9   6  142.79    3.60
   7   9   6  148.64    4.91
   7   9   7   -0.03    2.86
   7   9   7   -0.69    2.83
   7   9   7    0.58    2.13
   7   9   8   91.83    4.66
   7   9   8   91.99    5.30
   7   9   8   86.86    3.66
   7   9   9    3.55    3.41
   7   9   9    3.85    3.27
   7   9   9    3.72    2.16
   7   9  10    1.05    2.47
   7   9  10    0.50    2.55
   7   9  10   -0.22    2.13
   7   9  11   36.02    2.99
  -7  -9 -11   37.71    3.02
   7   9  11   35.79    2.83
   7  10   2  205.22    3.88
   7  10   2  204.34    4.16
   7  10   3   15.91    2.80
   7  10   3   16.27    2.58
   7  10   4  143.20    3.52
   7  10   5  181.82    4.44
   7  10   7  482.06    4.94
   7  10   8  564.74    5.30
   7  10   8  586.17    5.88
   7  10   9   64.93    2.83
   7  10   9   65.07    3.69
   7  10  10   39.43    2.52
   7  10  10   40.40    3.41
   7  11   5    2.11    2.88
   7  11   6    5.13    3.44
   7  11   7  366.44    5.41
   7  11   8  521.35    5.68
  -8   2   1  112.90    3.24
  -8   2   0   34.41    2.99
  -8   2   0   32.27    3.05
  -8   2  -1   13.56    2.91
  -8   2  -1   12.14    2.61
  -8   2  -1   12.64    2.69
  -8   2  -2   24.04    3.05
  -8   2  -2   23.95    2.83
  -8   2  -2   23.37    3.35
  -8   2  -3  123.79    3.27
  -8   2  -4   56.81    3.16
  -8   1   2    3.94    3.05
  -8   1   1   53.81    3.55
  -8   1   0    2.63    2.69
  -8   1   0    1.80    2.19
  -8   1  -1   31.55    2.94
  -8   1  -1   32.08    2.61
  -8   1  -2    8.07    3.58
  -8   1  -2    1.08    2.63
  -8   1  -2    5.18    2.99
  -8   1  -3  237.30    4.74
  -8   1  -3  239.02    4.60
  -8   1  -3  229.34    4.16
  -8   1  -4    8.07    2.97
  -8   1  -5    1.58    2.72
  -8   1  -5    1.05    3.08
  -8   1  -6  243.54    4.66
  -8   1  -6  250.94    4.44
  -8   0   2  160.06    4.24
  -8   0   1   74.97    4.02
  -8   0   1   72.81    3.05
  -8   0   0   28.72    3.27
  -8   0   0   19.19    3.88
  -8   0  -1   41.17    3.16
  -8   0  -1   41.64    2.83
  -8   0  -2  302.21    5.55
  -8   0  -2  308.28    4.91
  -8   0  -3  101.92    4.02
  -8   0  -3  106.85    3.41
  -8   0  -4  178.63    5.02
  -8   0  -4  173.48    4.24
  -8   0  -5   67.87    3.44
  -8   0  -5   67.48    3.13
  -8   0  -5   67.43    3.60
  -8   0  -6    7.68    2.91
  -8   0  -6    4.91    2.97
  -8   0  -7    5.21    3.44
  -8   0  -7    3.33    2.27
  -8   0  -7    3.19    2.91
  -8  -1   3   27.06    3.24
  -8  -1   2   51.82    3.16
  -8  -1   1  117.61    4.63
  -8  -1   1  111.23    3.66
  -8  -1   0    3.44    2.74
  -8  -1  -1  285.54    4.82
  -8  -1  -2   16.22    2.83
  -8  -1  -2   15.39    3.11
  -8  -1  -3   47.74    2.86
  -8  -1  -4   86.95    3.60
  -8  -1  -4   91.41    3.41
  -8  -1  -4   87.86    3.85
  -8  -1  -5    6.82    3.52
  -8  -1  -5    1.55    2.72
  -8  -1  -5    3.13    3.44
  -8  -1  -6   41.20    3.35
  -8  -1  -6   41.95    3.16
  -8  -1  -6   40.01    3.58
  -8  -1  -7    3.96    3.24
  -8  -1  -7    0.97    3.11
  -8  -1  -7    3.13    3.19
  -8  -1  -8    2.63    3.44
  -8  -1  -8    4.16    3.19
  -8  -2   3   32.16    2.83
  -8  -2   2    4.71    3.49
  -8  -2   2    4.41    2.47
   8   2  -2    3.05    2.47
  -8  -2   1   98.90    4.46
  -8  -2   1   95.57    3.55
   8   2  -1   91.38    3.88
  -8  -2   1   94.04    3.08
  -8  -2   0  463.90    7.04
  -8  -2   0  457.38    6.43
   8   2   0  445.85    6.35
  -8  -2   0  443.33    6.32
  -8  -2  -1    5.77    3.85
  -8  -2  -1    8.26    2.74
  -8  -2  -1    7.85    3.35
  -8  -2  -2    3.38    4.33
  -8  -2  -2    0.61    2.83
  -8  -2  -2    1.28    3.30
  -8  -2  -3   19.35    3.83
  -8  -2  -3    9.57    3.94
  -8  -2  -4   19.38    3.72
  -8  -2  -4    1.14    3.96
  -8  -2  -4    5.57    3.96
  -8  -2  -5   35.35    4.57
  -8  -2  -5   24.56    3.41
  -8  -2  -5   28.95    3.66
  -8  -2  -6    4.96    3.88
  -8  -2  -6    1.33    3.35
  -8  -2  -6    1.94    3.60
  -8  -2  -7    0.55    2.36
  -8  -2  -7   -0.44    3.30
  -8  -2  -8    5.05    3.35
  -8  -3   3   20.57    2.77
   8   3  -3   19.63    2.83
  -8  -3   2    4.80    2.58
  -8  -3   2   -0.03    2.38
   8   3  -2    2.99    3.38
  -8  -3   2    0.22    2.74
  -8  -3   1  538.42    8.29
  -8  -3   1  519.65    7.93
   8   3  -1  536.10    8.35
  -8  -3   1  534.65    7.68
  -8  -3   0   46.83    3.99
  -8  -3   0   43.64    2.88
   8   3   0   42.28    4.05
  -8  -3   0   44.94    3.24
  -8  -3  -1  190.25    4.55
  -8  -3  -1  175.58    5.96
   8   3   1  183.07    4.80
  -8  -3  -1  175.00    5.16
  -8  -3  -2  106.27    3.72
   8   3   2  109.46    4.21
  -8  -3  -2  112.81    3.60
  -8  -3  -3   38.26    4.41
  -8  -3  -3   26.56    3.35
   8   3   3   33.69    3.49
  -8  -3  -3   28.89    3.72
  -8  -3  -4  308.47    6.46
  -8  -3  -4  288.09    7.65
   8   3   4  284.99    5.32
  -8  -3  -4  295.50    5.79
  -8  -3  -5  130.75    4.66
  -8  -3  -5  127.84    4.38
   8   3   5  127.18    4.21
  -8  -3  -5  129.59    3.85
  -8  -3  -6   54.26    4.05
  -8  -3  -6   34.43    5.16
   8   3   6   46.66    3.74
  -8  -3  -6   44.03    4.99
  -8  -3  -7  464.18    5.82
  -8  -3  -7  441.39    6.35
   8   3   7  444.85    4.85
  -8  -3  -8  466.28    7.32
   8   3   8  450.29    6.93
  -8  -3  -8  454.92    7.04
  -8  -3  -9   45.91    3.94
  -8  -3  -9   46.69    3.80
  -8  -3 -10  101.81    3.91
  -8  -4   2   81.84    3.19
   8   4  -2   85.34    3.38
   8   4  -2   87.39    3.41
  -8  -4   2   84.34    3.38
  -8  -4   1  278.25    5.30
  -8  -4   1  268.35    8.32
  -8  -4   1  274.65    8.48
  -8  -4   0  357.63    5.93
  -8  -4   0  363.42    5.91
   8   4   0  374.07    6.38
  -8  -4   0  368.47    5.66
  -8  -4  -1  411.44    5.74
  -8  -4  -1  424.50    5.82
   8   4   1  436.64    5.38
  -8  -4  -1  432.21    5.16
  -8  -4  -2    1.47    3.47
   8   4   2    2.36    2.86
  -8  -4  -2    0.11    3.85
  -8  -4  -3   51.68    3.16
  -8  -4  -3   53.95    6.27
  -8  -4  -3   62.46    3.85
  -8  -4  -4  268.74    6.07
  -8  -4  -4  267.35    6.35
   8   4   4  270.02    5.88
  -8  -4  -5  560.24    8.84
  -8  -4  -5  564.29    8.35
   8   4   5  564.93    8.29
  -8  -4  -6   46.61    3.55
  -8  -4  -6   44.30    2.63
   8   4   6   47.94    3.85
  -8  -4  -6   47.96    3.22
  -8  -4  -7  120.58    5.68
   8   4   7  124.54    3.60
   8   4   7  126.76    4.08
  -8  -4  -7  127.20    6.16
  -8  -4  -8  124.71    5.63
   8   4   8  117.72    4.85
   8   4   8  120.83    3.49
  -8  -4  -8  121.24    6.38
  -8  -4  -9  630.00    6.82
   8   4   9  599.53    9.23
   8   4   9  619.69    8.79
  -8  -4  -9  633.61    6.85
  -8  -4 -10   87.14    4.16
   8   4  10   89.30    2.80
  -8  -4 -10   88.58    3.47
  -8  -5   2    2.72    2.52
   8   5  -2    6.52    2.47
  -8  -5   2    4.30    3.05
  -8  -5   1    4.38    2.69
   8   5  -1    8.96    3.24
  -8  -5   1    6.13    3.41
  -8  -5   0   81.32    5.52
   8   5   0  101.09    3.91
  -8  -5   0   93.16    4.85
   8   5   1  324.75    4.57
   8   5   1  342.82    5.02
  -8  -5  -1  336.50    6.27
  -8  -5  -2  472.77    7.32
   8   5   2  464.92    8.07
  -8  -5  -3   97.70    4.74
   8   5   3   99.45    3.69
  -8  -5  -4  607.85    9.76
   8   5   4  590.05    9.12
  -8  -5  -4  598.06    9.65
  -8  -5  -5  223.33    4.85
  -8  -5  -5  226.04    5.13
   8   5   5  231.26    5.60
  -8  -5  -5  231.39    5.63
  -8  -5  -6    3.11    3.08
  -8  -5  -6    0.00    3.11
   8   5   6    2.91    2.86
  -8  -5  -6    2.22    3.02
  -8  -5  -7  316.04    5.52
   8   5   7  340.74    5.71
   8   5   7  333.48    4.88
  -8  -5  -7  317.84    4.82
  -8  -5  -8   32.02    3.99
   8   5   8   34.46    3.60
   8   5   8   36.18    2.88
  -8  -5  -8   35.90    3.08
  -8  -5  -9    6.07    5.49
   8   5   9    3.77    3.19
   8   5   9    8.68    4.52
  -8  -5  -9    4.33    6.63
   8   5  10   92.85    3.02
  -8  -5 -10   90.86    3.52
  -8  -6   1  268.24    4.27
   8   6  -1  267.05    4.35
   8   6  -1  263.67    4.38
  -8  -6   1  266.77    4.77
  -8  -6   0  250.91    4.08
   8   6   0  244.37    4.19
   8   6   0  244.07    4.27
   8   6   1    7.82    2.66
   8   6   1    9.84    3.83
  -8  -6  -1    9.37    2.74
  -8  -6  -2    1.64    2.99
   8   6   2    0.89    3.13
   8   6   2    1.19    3.02
  -8  -6  -2    1.86    2.88
   8   6   3  195.02    4.66
  -8  -6  -3  203.06    5.24
   8   6   3  193.66    4.88
   8   6   3  201.45    4.60
  -8  -6  -3  205.44    4.66
   8   6   4  336.42    5.74
  -8  -6  -4  339.14    6.29
   8   6   4  329.46    6.07
  -8  -6  -4  344.87    6.63
   8   6   5  368.75    6.57
  -8  -6  -5  352.17    6.18
  -8  -6  -5  364.31    6.65
   8   6   6   61.83    3.85
  -8  -6  -6   57.92    3.05
  -8  -6  -7    0.11    3.41
   8   6   8   31.66    5.57
  -8  -6  -8   28.78    3.99
   8   6   9    3.44    3.02
   8   6   9    2.99    2.66
  -8  -6  -9    3.08    2.61
   8   6  10   12.67    3.08
   8   6  10   12.45    2.80
  -8  -6 -11   45.64    2.80
   8   6  11   45.89    2.69
   8   7   0    7.29    3.16
   8   7   0    6.88    2.97
  -8  -7   0    6.76    2.52
  -8  -7  -1   61.27    2.99
   8   7   1   60.83    3.85
   8   7   1   58.36    3.63
  -8  -7  -1   61.13    3.44
  -8  -7  -2   41.28    3.74
   8   7   2   42.67    3.88
   8   7   2   41.26    3.66
  -8  -7  -2   41.20    3.72
  -8  -7  -3   99.51    3.94
   8   7   3   98.87    4.13
   8   7   3   98.56    3.55
  -8  -7  -3   99.64    3.52
   8   7   4   11.15    2.38
  -8  -7  -4    7.04    3.13
   8   7   4   12.67    3.55
   8   7   4   10.51    2.77
  -8  -7  -4    6.85    3.35
   8   7   5   79.79    3.80
  -8  -7  -5   72.45    3.05
   8   7   5   74.61    2.97
   8   7   5   81.62    4.19
  -8  -7  -5   76.27    3.49
   8   7   6   48.66    2.86
   8   7   6   47.91    3.47
   8   7   6   49.96    4.05
  -8  -7  -6   47.49    3.72
   8   7   7   60.33    3.41
   8   7   7   58.50    4.33
  -8  -7  -7   54.40    4.91
   8   7   8    0.50    3.38
   8   7   9   47.11    3.27
   8   7   9   47.72    3.41
   8   7  10   45.50    3.16
   8   7  10   44.42    3.33
   8   7  11    0.25    2.66
  -8  -8  -1   34.55    3.16
   8   8   1   33.41    2.94
   8   8   1   32.72    2.41
  -8  -8  -1   33.66    2.52
  -8  -8  -2   33.02    3.05
   8   8   2   35.60    3.55
   8   8   2   33.77    2.80
  -8  -8  -2   33.41    3.30
  -8  -8  -3    7.49    2.63
   8   8   3    9.26    2.83
   8   8   3    9.95    2.88
  -8  -8  -3    8.84    2.58
  -8  -8  -4    8.21    2.74
   8   8   4    9.04    2.77
   8   8   4   10.20    2.83
  -8  -8  -4    7.51    2.99
   8   8   5    6.43    2.99
   8   8   5    6.52    2.99
   8   8   5    5.13    2.97
  -8  -8  -5    2.55    2.52
   8   8   6    6.65    2.86
   8   8   6    5.93    3.72
   8   8   6    0.28    3.60
   8   8   7   37.18    2.86
   8   8   7   37.62    2.77
   8   8   7   37.54    2.83
   8   8   8  295.16    5.16
   8   8   8  291.17    5.30
   8   8   8  294.39    5.66
   8   8   9   68.84    2.94
   8   8  10   62.96    2.83
   8   8  10   60.33    2.86
  -8  -9  -2    8.68    3.13
  -8  -9  -3   36.79    2.47
   8   9   3   37.40    3.33
   8   9   4  170.43    3.69
   8   9   4  164.30    3.85
   8   9   5   22.35    3.24
   8   9   5   22.85    2.74
   8   9   6  138.88    3.55
   8   9   6  144.50    4.30
   8   9   6  136.82    3.72
   8   9   7   31.61    3.08
   8   9   7   31.99    3.60
   8   9   7   29.92    2.63
   8   9   8   72.75    3.05
   8   9   8   74.14    3.27
   8   9   8   70.31    3.16
   8   9   9   32.66    3.30
   8   9   9   32.33    3.13
   8   9   9   31.02    2.41
   8   9  10    4.60    2.22
   8  10   5  162.22    4.27
   8  10   6    5.16    3.27
   8  10   7   36.79    2.91
   8  10   8   27.56    2.66
   8  10   8   26.87    3.08
  -9   0  -2    8.18    2.77
  -9   0  -2    9.26    2.55
  -9   0  -3  201.04    4.69
  -9   0  -3  190.36    5.35
  -9  -1  -1   12.61    2.50
  -9  -1  -2   91.74    3.52
  -9  -1  -3  258.37    5.05
  -9  -1  -3  270.18    4.05
  -9  -1  -4    6.07    3.02
  -9  -1  -5   20.32    3.47
  -9  -1  -5   19.80    3.02
  -9  -1  -5   18.94    2.30
  -9  -1  -6   31.50    2.94
  -9  -1  -6   16.97    2.61
  -9  -1  -6   20.68    2.55
  -9  -2   0   36.15    2.86
  -9  -2   0   28.86    3.16
  -9  -2  -1   31.58    2.94
  -9  -2  -1   30.97    2.74
  -9  -2  -2   66.87    4.08
  -9  -2  -2   68.45    3.52
  -9  -2  -2   64.54    3.08
  -9  -2  -3    9.62    4.05
  -9  -2  -3    1.75    2.91
  -9  -2  -4   21.88    3.49
  -9  -2  -4   19.41    3.38
  -9  -2  -4   19.46    3.19
  -9  -2  -5  144.53    4.08
  -9  -2  -5  127.43    5.10
  -9  -2  -5  129.70    3.66
  -9  -2  -6   30.58    3.77
  -9  -2  -6   16.00    3.41
  -9  -2  -6   17.94    2.77
   9   2   7    2.72    2.50
  -9  -2  -7    3.63    2.55
  -9  -2  -7    4.27    3.02
  -9  -3   0    8.46    2.47
  -9  -3   0    7.43    2.44
  -9  -3   0    6.40    2.13
  -9  -3  -1  119.52    3.96
  -9  -3  -1  120.80    3.63
   9   3   1  116.72    3.30
  -9  -3  -1  120.02    3.16
  -9  -3  -2   52.35    3.24
  -9  -3  -2   55.62    3.11
   9   3   2   52.98    2.66
  -9  -3  -2   53.81    2.80
  -9  -3  -3   21.51    3.72
  -9  -3  -3   21.15    3.41
  -9  -3  -4   19.85    3.55
  -9  -3  -4   19.88    2.86
  -9  -3  -4   18.88    3.41
  -9  -3  -5   52.48    3.63
  -9  -3  -5   37.10    4.52
  -9  -3  -5   44.89    4.27
  -9  -3  -6    3.11    3.27
  -9  -3  -6    0.03    2.52
  -9  -3  -6    1.05    2.86
  -9  -3  -7   16.00    2.88
   9   3   7   15.91    2.69
  -9  -3  -7   15.80    2.83
  -9  -3  -7   16.91    3.38
  -9  -3  -8   12.89    2.72
  -9  -4   0  175.56    3.99
   9   4   0  171.04    3.99
  -9  -4   0  170.84    3.77
  -9  -4  -1   52.90    3.27
  -9  -4  -1   47.52    3.33
   9   4   1   53.95    2.88
  -9  -4  -1   48.57    3.38
  -9  -4  -2    3.47    3.22
   9   4   2    2.66    3.24
  -9  -4  -2    0.83    2.83
  -9  -4  -3   21.35    2.97
  -9  -4  -3   14.00    4.24
   9   4   3   20.96    3.38
  -9  -4  -3   16.91    2.83
  -9  -4  -4    1.05    3.35
  -9  -4  -4    2.05    2.77
   9   4   4    0.55    2.47
  -9  -4  -4    1.91    2.63
  -9  -4  -5  147.36    4.74
  -9  -4  -5  144.28    4.44
   9   4   5  159.97    4.13
  -9  -4  -5  150.49    5.24
  -9  -4  -6   20.60    3.11
   9   4   6   22.01    2.77
  -9  -4  -6   21.13    2.58
   9   4   6   20.13    2.91
  -9  -4  -7    0.64    3.47
   9   4   7    2.16    3.44
   9   4   7    0.44    2.83
  -9  -4  -8    1.03    3.24
   9   4   8    1.97    2.22
   9   4   8    1.28    2.25
  -9  -4  -8    0.72    3.05
  -9  -5  -1   17.83    2.44
   9   5   1   16.03    3.33
  -9  -5  -1   15.30    2.88
   9   5   2   34.41    3.58
  -9  -5  -2   31.99    3.41
   9   5   3    3.55    2.99
  -9  -5  -3    3.88    2.44
   9   5   3    4.30    3.05
  -9  -5  -3    4.63    2.69
   9   5   4  287.79    5.32
  -9  -5  -4  292.25    5.43
   9   5   4  285.21    5.68
   9   5   5    4.96    3.38
  -9  -5  -5    5.13    3.08
   9   5   5    6.74    2.97
  -9  -5  -5    7.24    3.35
  -9  -5  -6  200.59    3.96
   9   5   6  210.10    4.49
  -9  -5  -6  207.08    3.94
   9   5   6  203.89    4.55
  -9  -5  -6  205.69    4.55
  -9  -5  -7   60.61    3.27
   9   5   7   67.82    3.77
   9   5   7   65.15    2.88
  -9  -5  -7   66.40    3.11
  -9  -5  -8  159.89    3.69
   9   5   8  166.27    4.13
   9   5   8  166.93    3.33
  -9  -5  -8  167.52    4.10
   9   5   9   29.19    2.86
   9   5   9   33.46    3.05
  -9  -5  -9   31.41    3.19
  -9  -6  -2   87.75    3.63
  -9  -6  -3   78.93    3.66
   9   6   3   78.38    3.02
  -9  -6  -3   76.74    3.05
   9   6   4  395.81    5.07
  -9  -6  -4  390.73    4.66
   9   6   4  398.25    4.82
  -9  -6  -4  392.87    4.99
   9   6   5    1.44    3.13
  -9  -6  -5    1.16    3.08
   9   6   5    1.94    3.13
  -9  -6  -5    2.22    2.97
   9   6   6    0.91    2.97
   9   6   6    2.02    3.13
  -9  -6  -6    0.78    2.83
   9   6   7    6.13    3.13
   9   6   7    5.46    3.30
  -9  -6  -7    5.93    3.33
   9   6   8    1.55    2.63
   9   6   8    3.30    2.99
  -9  -6  -8    1.44    3.16
   9   6   9   48.74    2.63
   9   6   9   51.43    3.13
  -9  -6  -9   50.46    2.99
  -9  -7  -2  122.38    3.11
   9   7   2  118.39    3.44
   9   7   2  119.52    3.22
  -9  -7  -2  120.99    3.22
  -9  -7  -3  246.28    4.38
   9   7   3  252.19    4.08
  -9  -7  -3  244.31    3.96
  -9  -7  -4  286.37    4.27
   9   7   4  289.20    5.60
  -9  -7  -4  284.05    5.02
   9   7   5   53.20    3.13
  -9  -7  -5   48.91    2.97
   9   7   5   51.18    4.63
  -9  -7  -5   48.35    2.77
   9   7   6  143.48    3.85
   9   7   6  138.10    3.85
  -9  -7  -6  131.69    3.30
   9   7   7    1.36    3.35
  -9  -7  -7   -0.58    3.16
  -9  -7  -8    6.43    2.74
   9   7   9  212.15    3.72
  -9  -8  -4   14.25    2.41
   9   8   4   16.05    2.86
   9   8   4   14.44    2.88
  -9  -8  -4   14.89    2.30
   9   8   5   22.29    2.77
  -9  -8  -5   19.63    2.50
   9   8   6   26.81    2.77
   9   8   6   25.92    3.60
   9   8   7   13.47    2.91
   9   8   7   12.31    2.52
   9   8   8   22.65    2.99
   9   8   8   22.07    2.86
   0   0   0    0.00    0.00

_computing_structure_solution     'SHELXT 2014/5 (Sheldrick, 2014)'
;
_shelx_hkl_checksum              68595
loop_
_space_group_symop_operation_xyz
'x, y, z'
'-x, -y, -z'
loop_
_atom_site_label
_atom_site_type_symbol
_atom_site_fract_x
_atom_site_fract_y
_atom_site_fract_z
_atom_site_U_iso_or_equiv
_atom_site_adp_type
_atom_site_occupancy
_atom_site_site_symmetry_order
_atom_site_calc_flag
_atom_site_refinement_flags_posn
_atom_site_refinement_flags_adp
O001 O 0.2019(3) 0.3022(2) 0.2054(2) 0.0233(5) Uani 1 1 d . .
O002 O -0.0465(3) 0.4948(2) 0.2345(2) 0.0245(5) Uani 1 1 d . .
N003 N 0.2222(3) 0.4150(3) 0.5472(2) 0.0172(5) Uani 1 1 d . .
H003 H 0.2014 0.4354 0.6201 0.021 Uiso 1 1 calc R U
C004 C 0.0983(4) 0.4057(3) 0.2655(3) 0.0187(6) Uani 1 1 d . .
C005 C 0.5125(4) 0.2521(3) 0.2761(3) 0.0176(6) Uani 1 1 d . .
C006 C 0.3891(4) 0.3362(3) 0.4891(3) 0.0177(6) Uani 1 1 d . .
C007 C 0.1797(4) 0.3977(3) 0.3682(3) 0.0169(6) Uani 1 1 d . .
C008 C 0.0934(3) 0.4572(3) 0.4770(3) 0.0168(6) Uani 1 1 d . .
C009 C 0.3677(4) 0.3219(3) 0.3767(3) 0.0168(6) Uani 1 1 d . .
C00A C 0.6012(4) 0.3453(3) 0.1525(3) 0.0219(6) Uani 1 1 d . .
H00A H 0.5740 0.4501 0.1354 0.026 Uiso 1 1 calc R U
C00B C 0.5485(4) 0.2863(3) 0.5486(3) 0.0179(6) Uani 1 1 d . .
C00C C 0.7259(4) 0.2147(3) 0.4878(3) 0.0221(6) Uani 1 1 d . .
H00C H 0.7453 0.1968 0.4073 0.027 Uiso 1 1 calc R U
C00D C 0.8724(4) 0.1703(3) 0.5458(3) 0.0236(6) Uani 1 1 d . .
H00D H 0.9889 0.1230 0.5039 0.028 Uiso 1 1 calc R U
C00E C 0.5576(4) 0.0951(3) 0.3004(3) 0.0218(6) Uani 1 1 d . .
H00E H 0.5001 0.0310 0.3828 0.026 Uiso 1 1 calc R U
C00F C 0.5270(4) 0.3109(3) 0.6695(3) 0.0214(6) Uani 1 1 d . .
H00F H 0.4113 0.3587 0.7120 0.026 Uiso 1 1 calc R U
C00G C 0.8476(4) 0.1955(3) 0.6655(3) 0.0237(6) Uani 1 1 d . .
H00G H 0.9464 0.1656 0.7042 0.028 Uiso 1 1 calc R U
C00H C 0.6869(4) 0.0338(4) 0.2029(3) 0.0273(7) Uani 1 1 d . .
H00H H 0.7163 -0.0714 0.2206 0.033 Uiso 1 1 calc R U
C00I C 0.7728(4) 0.1269(4) 0.0796(3) 0.0264(7) Uani 1 1 d . .
H00I H 0.8587 0.0852 0.0138 0.032 Uiso 1 1 calc R U
C00J C 0.6733(4) 0.2659(3) 0.7271(3) 0.0242(6) Uani 1 1 d . .
H00J H 0.6550 0.2830 0.8078 0.029 Uiso 1 1 calc R U
C00K C 0.2716(4) 0.1710(4) 0.0526(3) 0.0294(7) Uani 1 1 d . .
H00B H 0.2370 0.1701 -0.0214 0.044 Uiso 1 1 calc R U
H00K H 0.2699 0.0751 0.1299 0.044 Uiso 1 1 calc R U
H00L H 0.3927 0.1837 0.0202 0.044 Uiso 1 1 calc R U
C00L C 0.7299(4) 0.2834(4) 0.0546(3) 0.0259(7) Uani 1 1 d . .
H00M H 0.7876 0.3470 -0.0281 0.031 Uiso 1 1 calc R U
C00M C 0.1397(4) 0.3019(4) 0.0979(3) 0.0296(7) Uani 1 1 d . .
H00N H 0.1364 0.3992 0.0197 0.036 Uiso 1 1 calc R U
H00O H 0.0176 0.2883 0.1342 0.036 Uiso 1 1 calc R U
loop_
_atom_site_aniso_label
_atom_site_aniso_U_11
_atom_site_aniso_U_22
_atom_site_aniso_U_33
_atom_site_aniso_U_23
_atom_site_aniso_U_13
_atom_site_aniso_U_12
O001 0.0201(10) 0.0301(11) 0.0263(10) -0.0191(9) -0.0071(8) -0.0010(8)
O002 0.0203(10) 0.0331(12) 0.0219(10) -0.0154(9) -0.0066(8) -0.0011(9)
N003 0.0173(11) 0.0197(12) 0.0171(11) -0.0109(9) -0.0024(9) -0.0039(9)
C004 0.0179(13) 0.0222(14) 0.0160(13) -0.0080(11) 0.0009(10) -0.0085(11)
C005 0.0153(13) 0.0217(14) 0.0177(13) -0.0088(11) -0.0050(10) -0.0037(11)
C006 0.0169(13) 0.0172(13) 0.0182(13) -0.0089(11) 0.0003(10) -0.0050(10)
C007 0.0175(13) 0.0169(13) 0.0170(13) -0.0078(10) -0.0010(10) -0.0058(11)
C008 0.0173(13) 0.0176(13) 0.0159(12) -0.0061(10) -0.0026(10) -0.0061(11)
C009 0.0184(13) 0.0153(13) 0.0165(12) -0.0052(10) -0.0026(10) -0.0062(10)
C00A 0.0219(14) 0.0227(15) 0.0224(14) -0.0096(12) -0.0030(11) -0.0075(12)
C00B 0.0188(13) 0.0145(13) 0.0206(13) -0.0050(10) -0.0044(11) -0.0065(11)
C00C 0.0208(14) 0.0229(15) 0.0254(14) -0.0126(12) -0.0041(11) -0.0050(12)
C00D 0.0180(14) 0.0201(15) 0.0315(15) -0.0112(12) -0.0045(12) -0.0029(11)
C00E 0.0255(15) 0.0204(15) 0.0196(13) -0.0073(11) -0.0068(11) -0.0047(12)
C00F 0.0199(13) 0.0218(15) 0.0209(14) -0.0078(11) -0.0036(11) -0.0048(11)
C00G 0.0213(14) 0.0213(15) 0.0290(15) -0.0047(12) -0.0112(12) -0.0064(11)
C00H 0.0312(16) 0.0232(16) 0.0293(16) -0.0145(13) -0.0131(13) 0.0022(13)
C00I 0.0191(14) 0.0359(18) 0.0249(15) -0.0185(13) -0.0063(12) 0.0017(12)
C00J 0.0292(15) 0.0269(16) 0.0198(14) -0.0082(12) -0.0068(12) -0.0098(13)
C00K 0.0375(18) 0.0312(17) 0.0254(15) -0.0176(13) -0.0061(13) -0.0074(14)
C00L 0.0201(14) 0.0371(18) 0.0198(14) -0.0124(13) 0.0005(11) -0.0092(13)
C00M 0.0258(15) 0.0438(19) 0.0316(16) -0.0255(15) -0.0087(13) -0.0058(14)
loop_
_atom_type_symbol
_atom_type_description
_atom_type_scat_dispersion_real
_atom_type_scat_dispersion_imag
_atom_type_scat_source
C C 0.0181 0.0091 'International Tables Vol C Tables 4.2.6.8 and 6.1.1.4'
H H 0.0000 0.0000 'International Tables Vol C Tables 4.2.6.8 and 6.1.1.4'
N N 0.0311 0.0180 'International Tables Vol C Tables 4.2.6.8 and 6.1.1.4'
O O 0.0492 0.0322 'International Tables Vol C Tables 4.2.6.8 and 6.1.1.4'
loop_
_geom_angle_atom_site_label_1
_geom_angle_atom_site_label_2
_geom_angle_atom_site_label_3
_geom_angle
_geom_angle_site_symmetry_3
C004 O001 C00M 117.3(2) .
C008 N003 C006 112.3(2) .
C008 N003 H003 123.9 .
C006 N003 H003 123.8 .
O002 C004 O001 121.5(2) .
O002 C004 C007 126.7(2) .
O001 C004 C007 111.9(2) .
C00E C005 C00A 118.7(3) .
C00E C005 C009 121.4(2) .
C00A C005 C009 119.9(2) .
N003 C006 C009 107.1(2) .
N003 C006 C00B 119.9(2) .
C009 C006 C00B 133.0(2) .
C008 C007 C009 107.0(2) .
C008 C007 C004 128.3(2) .
C009 C007 C004 124.7(2) .
N003 C008 C007 106.4(2) .
N003 C008 C008 120.4(3) 2_566
C007 C008 C008 133.2(3) 2_566
C006 C009 C007 107.1(2) .
C006 C009 C005 127.4(2) .
C007 C009 C005 125.4(2) .
C00L C00A C005 120.6(3) .
C00L C00A H00A 119.7 .
C005 C00A H00A 119.7 .
C00F C00B C00C 117.1(3) .
C00F C00B C006 120.3(2) .
C00C C00B C006 122.5(2) .
C00D C00C C00B 121.0(3) .
C00D C00C H00C 119.5 .
C00B C00C H00C 119.5 .
C00G C00D C00C 120.7(3) .
C00G C00D H00D 119.6 .
C00C C00D H00D 119.6 .
C00H C00E C005 120.5(3) .
C00H C00E H00E 119.8 .
C005 C00E H00E 119.8 .
C00J C00F C00B 121.6(3) .
C00J C00F H00F 119.2 .
C00B C00F H00F 119.2 .
C00D C00G C00J 119.1(3) .
C00D C00G H00G 120.5 .
C00J C00G H00G 120.5 .
C00I C00H C00E 120.7(3) .
C00I C00H H00H 119.6 .
C00E C00H H00H 119.6 .
C00H C00I C00L 119.3(3) .
C00H C00I H00I 120.3 .
C00L C00I H00I 120.3 .
C00F C00J C00G 120.5(3) .
C00F C00J H00J 119.8 .
C00G C00J H00J 119.8 .
C00M C00K H00B 109.5 .
C00M C00K H00K 109.5 .
H00B C00K H00K 109.5 .
C00M C00K H00L 109.5 .
H00B C00K H00L 109.5 .
H00K C00K H00L 109.5 .
C00A C00L C00I 120.2(3) .
C00A C00L H00M 119.9 .
C00I C00L H00M 119.9 .
O001 C00M C00K 107.3(2) .
O001 C00M H00N 110.3 .
C00K C00M H00N 110.3 .
O001 C00M H00O 110.3 .
C00K C00M H00O 110.3 .
H00N C00M H00O 108.5 .
loop_
_geom_bond_atom_site_label_1
_geom_bond_atom_site_label_2
_geom_bond_distance
_geom_bond_site_symmetry_2
O001 C004 1.326(3) .
O001 C00M 1.450(3) .
O002 C004 1.224(3) .
N003 C008 1.352(3) .
N003 C006 1.365(3) .
N003 H003 0.8600 .
C004 C007 1.466(4) .
C005 C00E 1.393(4) .
C005 C00A 1.390(4) .
C005 C009 1.487(4) .
C006 C009 1.388(4) .
C006 C00B 1.476(4) .
C007 C008 1.411(4) .
C007 C009 1.435(4) .
C008 C008 1.454(5) 2_566
C00A C00L 1.386(4) .
C00A H00A 0.9300 .
C00B C00F 1.401(4) .
C00B C00C 1.404(4) .
C00C C00D 1.384(4) .
C00C H00C 0.9300 .
C00D C00G 1.383(4) .
C00D H00D 0.9300 .
C00E C00H 1.381(4) .
C00E H00E 0.9300 .
C00F C00J 1.377(4) .
C00F H00F 0.9300 .
C00G C00J 1.385(4) .
C00G H00G 0.9300 .
C00H C00I 1.378(4) .
C00H H00H 0.9300 .
C00I C00L 1.388(4) .
C00I H00I 0.9300 .
C00J H00J 0.9300 .
C00K C00M 1.491(4) .
C00K H00B 0.9600 .
C00K H00K 0.9600 .
C00K H00L 0.9600 .
C00L H00M 0.9300 .
C00M H00N 0.9700 .
C00M H00O 0.9700 .
loop_
_geom_torsion_atom_site_label_1
_geom_torsion_atom_site_label_2
_geom_torsion_atom_site_label_3
_geom_torsion_atom_site_label_4
_geom_torsion
_geom_torsion_site_symmetry_4
C00M O001 C004 O002 2.0(4) .
C00M O001 C004 C007 -177.8(2) .
C008 N003 C006 C009 -1.8(3) .
C008 N003 C006 C00B 177.6(2) .
O002 C004 C007 C008 18.4(5) .
O001 C004 C007 C008 -161.8(3) .
O002 C004 C007 C009 -163.1(3) .
O001 C004 C007 C009 16.7(4) .
C006 N003 C008 C007 2.1(3) .
C006 N003 C008 C008 -179.8(3) 2_566
C009 C007 C008 N003 -1.5(3) .
C004 C007 C008 N003 177.3(3) .
C009 C007 C008 C008 -179.3(4) 2_566
C004 C007 C008 C008 -0.6(6) 2_566
N003 C006 C009 C007 0.7(3) .
C00B C006 C009 C007 -178.5(3) .
N003 C006 C009 C005 176.6(2) .
C00B C006 C009 C005 -2.6(5) .
C008 C007 C009 C006 0.5(3) .
C004 C007 C009 C006 -178.3(2) .
C008 C007 C009 C005 -175.5(2) .
C004 C007 C009 C005 5.7(4) .
C00E C005 C009 C006 89.6(4) .
C00A C005 C009 C006 -92.8(3) .
C00E C005 C009 C007 -95.3(3) .
C00A C005 C009 C007 82.3(3) .
C00E C005 C00A C00L 0.9(4) .
C009 C005 C00A C00L -176.7(3) .
N003 C006 C00B C00F 4.0(4) .
C009 C006 C00B C00F -176.9(3) .
N003 C006 C00B C00C -175.4(2) .
C009 C006 C00B C00C 3.7(5) .
C00F C00B C00C C00D 0.2(4) .
C006 C00B C00C C00D 179.6(3) .
C00B C00C C00D C00G 0.0(4) .
C00A C005 C00E C00H -0.4(4) .
C009 C005 C00E C00H 177.2(3) .
C00C C00B C00F C00J -0.4(4) .
C006 C00B C00F C00J -179.8(3) .
C00C C00D C00G C00J 0.1(4) .
C005 C00E C00H C00I -0.4(4) .
C00E C00H C00I C00L 0.8(4) .
C00B C00F C00J C00G 0.5(4) .
C00D C00G C00J C00F -0.3(4) .
C005 C00A C00L C00I -0.6(4) .
C00H C00I C00L C00A -0.3(4) .
C004 O001 C00M C00K -176.8(2) .
