#------------------------------------------------------------------------------
#$Date: 2017-09-11 17:09:03 +0300 (Mon, 11 Sep 2017) $
#$Revision: 200456 $
#$URL: file:///home/coder/svn-repositories/cod/cif/4/03/27/4032789.cif $
#------------------------------------------------------------------------------
#
# This file is available in the Crystallography Open Database (COD),
# http://www.crystallography.net/
#
# All data on this site have been placed in the public domain by the
# contributors.
#
data_4032789
loop_
_publ_author_name
'Huang, Adrian'
'Wo, Kellie'
'Lee, So Yeun Christine'
'Kneitschel, Nika'
'Chang, Jennifer'
'Zhu, Kathleen'
'Mello, Tatsiana'
'Bancroft, Laura'
'Norman, Natalie J.'
'Zheng, Shao-Liang'
_publ_section_title
;
 Regioselective Synthesis, NMR, and Crystallographic Analysis of
 N1-Substituted Pyrazoles.
;
_journal_issue                   17
_journal_name_full               'The Journal of organic chemistry'
_journal_page_first              8864
_journal_page_last               8872
_journal_paper_doi               10.1021/acs.joc.7b01006
_journal_volume                  82
_journal_year                    2017
_chemical_absolute_configuration ad
_chemical_formula_sum            'C6 H9 N3 O2'
_chemical_formula_weight         155.16
_space_group_crystal_system      monoclinic
_space_group_IT_number           8
_space_group_name_Hall           'C -2y'
_space_group_name_H-M_alt        'C 1 m 1'
_symmetry_space_group_name_Hall  'C -2y'
_symmetry_space_group_name_H-M   'C 1 m 1'
_atom_sites_solution_hydrogens   geom
_audit_creation_method           SHELXL-2014/6
_cell_angle_alpha                90
_cell_angle_beta                 101.9002(12)
_cell_angle_gamma                90
_cell_formula_units_Z            2
_cell_length_a                   7.6930(2)
_cell_length_b                   6.6662(2)
_cell_length_c                   7.3655(2)
_cell_measurement_reflns_used    4237
_cell_measurement_temperature    100(2)
_cell_measurement_theta_max      66.5
_cell_measurement_theta_min      6.14
_cell_volume                     369.608(18)
_computing_cell_refinement       'SAINT 8.34C (Bruker-AXS, 2014)'
_computing_data_collection       'APEX2 v2014.3.0 (Bruker-AXS, 2014)'
_computing_data_reduction        'SAINT 8.34C (Bruker-AXS, 2014)'
_computing_molecular_graphics    'Bruker SHELXTL (Sheldrick, 2015)'
_computing_publication_material  'Bruker SHELXTL (Sheldrick, 2015)'
_computing_structure_refinement  'SHELXL-2014 (Sheldrick, 2015)'
_computing_structure_solution    'SHELXT-2014 (Sheldrick, 2015)'
_diffrn_ambient_temperature      100(2)
_diffrn_measured_fraction_theta_full 0.994
_diffrn_measured_fraction_theta_max 0.994
_diffrn_measurement_device_type
;
Bruker D8 goniometer with CCD area detector  
;
_diffrn_measurement_method       'omega and phi scans'
_diffrn_radiation_monochromator  graphite
_diffrn_radiation_source         'I\mS microfocus tube'
_diffrn_radiation_type           CuK\a
_diffrn_radiation_wavelength     1.54178
_diffrn_reflns_av_R_equivalents  0.0221
_diffrn_reflns_av_unetI/netI     0.0128
_diffrn_reflns_Laue_measured_fraction_full 0.994
_diffrn_reflns_Laue_measured_fraction_max 0.994
_diffrn_reflns_limit_h_max       9
_diffrn_reflns_limit_h_min       -8
_diffrn_reflns_limit_k_max       7
_diffrn_reflns_limit_k_min       -7
_diffrn_reflns_limit_l_max       7
_diffrn_reflns_limit_l_min       -8
_diffrn_reflns_number            4234
_diffrn_reflns_point_group_measured_fraction_full 0.910
_diffrn_reflns_point_group_measured_fraction_max 0.910
_diffrn_reflns_theta_full        66.500
_diffrn_reflns_theta_max         66.480
_diffrn_reflns_theta_min         6.140
_exptl_absorpt_coefficient_mu    0.905
_exptl_absorpt_correction_T_max  0.8642
_exptl_absorpt_correction_T_min  0.7970
_exptl_absorpt_correction_type   multi-scan
_exptl_absorpt_process_details   sadabs
_exptl_crystal_colour            colorless
_exptl_crystal_density_diffrn    1.394
_exptl_crystal_description       block
_exptl_crystal_F_000             164
_exptl_crystal_size_max          0.120
_exptl_crystal_size_mid          0.020
_exptl_crystal_size_min          0.020
_refine_diff_density_max         0.204
_refine_diff_density_min         -0.110
_refine_diff_density_rms         0.042
_refine_ls_abs_structure_details
;
 Flack x determined using 284 quotients [(I+)-(I-)]/[(I+)+(I-)]
 (Parsons, Flack and Wagner, Acta Cryst. B69 (2013) 249-259).
;
_refine_ls_abs_structure_Flack   0.06(17)
_refine_ls_extinction_coef       0.021(3)
_refine_ls_extinction_expression Fc^*^=kFc[1+0.001xFc^2^\l^3^/sin(2\q)]^-1/4^
_refine_ls_extinction_method     SHELXL
_refine_ls_goodness_of_fit_ref   1.129
_refine_ls_hydrogen_treatment    constr
_refine_ls_matrix_type           full
_refine_ls_number_parameters     66
_refine_ls_number_reflns         638
_refine_ls_number_restraints     2
_refine_ls_restrained_S_all      1.127
_refine_ls_R_factor_all          0.0232
_refine_ls_R_factor_gt           0.0232
_refine_ls_shift/su_max          0.000
_refine_ls_shift/su_mean         0.000
_refine_ls_structure_factor_coef Fsqd
_refine_ls_weighting_details
'w=1/[\s^2^(Fo^2^)+(0.0381P)^2^+0.1084P] where P=(Fo^2^+2Fc^2^)/3'
_refine_ls_weighting_scheme      calc
_refine_ls_wR_factor_gt          0.0606
_refine_ls_wR_factor_ref         0.0606
_reflns_Friedel_coverage         0.823
_reflns_Friedel_fraction_full    0.825
_reflns_Friedel_fraction_max     0.825
_reflns_number_gt                636
_reflns_number_total             638
_reflns_threshold_expression     'I > 2\s(I)'
_cod_data_source_file            jo7b01006_si_001.cif
_cod_data_source_block           lab5-12
_cod_original_cell_volume        369.607(18)
_cod_database_code               4032789
_shelx_space_group_comment
;
The symmetry employed for this shelxl refinement is uniquely defined
by the following loop, which should always be used as a source of
symmetry information in preference to the above space-group names.
They are only intended as comments.
;
_shelx_estimated_absorpt_t_min   0.899
_shelx_estimated_absorpt_t_max   0.982
_shelxl_version_number           2014/6
_shelx_res_file
;
TITL zsl in Cm
CELL 1.54178 7.693 6.6662 7.3655 90 101.9002 90
ZERR 2 0.0002 0.0002 0.0002 0 0.0012 0
LATT -7
SYMM +X,-Y,+Z

SFAC C H N O
UNIT 12 18 6 4

L.S. 10
PLAN  -1
SIZE 0.02 0.02 0.12
TEMP -173.16
BOND $H
LIST 4
CONF
fmap 2
acta 133
REM <HKL>G:/zsl/Huang/AHuang1512/work/zsl.hkl</HKL>

WGHT    0.038100    0.108400
EXTI    0.020584
FVAR       0.46089
C1    1   -0.550473   -0.500000   -0.623198    10.50000    0.01623    0.01384 =
         0.01632    0.00000    0.00244    0.00000
C2    1   -0.429299   -0.500000   -0.740284    10.50000    0.01892    0.01588 =
         0.01473    0.00000    0.00273    0.00000
AFIX  43
H2    2   -0.452252   -0.500000   -0.872056    10.50000   -1.20000
AFIX   0
C3    1   -0.268105   -0.500000   -0.617288    10.50000    0.01707    0.01668 =
         0.01945    0.00000    0.00764    0.00000
AFIX  43
H3    2   -0.154114   -0.500000   -0.648085    10.50000   -1.20000
AFIX   0
C4    1   -0.172929   -0.500000   -0.264621    10.50000    0.01109    0.02445 =
         0.01679    0.00000    0.00095    0.00000
AFIX  13
H4    2   -0.050533   -0.500000   -0.291035    10.50000   -1.20000
AFIX   0
C5    1   -0.195185   -0.310639   -0.157286    11.00000    0.01896    0.02086 =
         0.02014   -0.00038    0.00135   -0.00196
AFIX 137
H5A   2   -0.107946   -0.310035   -0.039739    11.00000   -1.50000
H5B   2   -0.315339   -0.306661   -0.132072    11.00000   -1.50000
H5C   2   -0.176642   -0.192952   -0.230744    11.00000   -1.50000
AFIX   0
N1    3   -0.476573   -0.500000   -0.444072    10.50000    0.01034    0.01922 =
         0.01856    0.00000    0.00231    0.00000
N2    3   -0.302426   -0.500000   -0.444072    10.50000    0.01102    0.01752 =
         0.01680    0.00000    0.00315    0.00000
N3    3   -0.741651   -0.500000   -0.678685    10.50000    0.01293    0.01549 =
         0.01954    0.00000   -0.00036    0.00000
O1    4   -0.806199   -0.500000   -0.845798    10.50000    0.02101    0.02799 =
         0.01751    0.00000   -0.00378    0.00000
O2    4   -0.830042   -0.500000   -0.557118    10.50000    0.01453    0.03129 =
         0.02360    0.00000    0.00497    0.00000
HKLF 4

REM  zsl in Cm
REM R1 =  0.0232 for     636 Fo > 4sig(Fo)  and  0.0232 for all     638 data
REM     66 parameters refined using      2 restraints

END

WGHT      0.0381      0.1084

REM Highest difference peak  0.204,  deepest hole -0.110,  1-sigma level  0.042
Q1    1  -0.6286 -0.5000 -0.6517  10.50000  0.05    0.20
;
_shelx_res_checksum              80101
_shelx_hkl_file
;
   2   0   0  337.13    8.02
   2   0   0  328.60    8.04
  -2   0   0  305.70    7.79
  -2   0   0  303.09    7.79
  -2   0   0  315.23    7.78
  -2   0   0  312.89    7.79
  -2   0   0  327.94    7.82
   2   0   0  307.14    8.02
   2   0   0  315.39    7.98
   2   0   0  319.79    7.98
  -4   0   0   54.12    1.44
  -4   0   0   54.20    1.53
   4   0   0   56.45    1.61
   4   0   0   56.46    1.53
   4   0   0   54.87    1.50
   4   0   0   56.95    1.45
   4   0   0   54.77    1.64
  -4   0   0   54.21    1.43
  -4   0   0   55.53    1.52
  -4   0   0   52.66    1.46
  -4   0   0   54.16    1.57
  -4   0   0   52.68    1.40
   6   0   0   21.18    1.10
  -6   0   0   23.18    0.76
   6   0   0   23.96    0.84
   6   0   0   22.81    0.69
  -6   0   0   22.44    1.07
  -6   0   0   23.57    0.60
   8   0   0   34.23    0.91
  -8   0   0   27.27    0.92
   8   0   0   32.88    1.21
   1  -1   0   62.58    1.58
   1  -1   0   58.08    1.58
   1  -1   0   61.39    1.58
  -1  -1   0   60.24    1.50
  -1  -1   0   57.48    1.49
  -1  -1   0   58.75    1.50
  -1  -1   0   56.68    1.51
  -1  -1   0   61.76    1.53
  -1  -1   0   58.26    1.51
   1  -1   0   61.67    1.56
   1   1   0   62.01    1.56
  -1   1   0   57.94    1.52
  -1   1   0   58.16    1.48
  -1   1   0   60.28    1.51
  -1   1   0   58.08    1.53
   1   1   0   63.37    1.58
  -1   1   0   60.03    1.52
   1   1   0   60.28    1.56
  -3  -1   0  203.10    5.33
  -3  -1   0  217.51    5.32
  -3  -1   0  207.59    5.26
  -3  -1   0  223.31    5.41
  -3  -1   0  214.95    5.34
  -3  -1   0  217.91    5.34
  -3  -1   0  203.97    5.29
  -3  -1   0  206.04    5.31
  -3  -1   0  206.60    5.28
  -3  -1   0  213.06    5.30
   3  -1   0  219.03    5.54
   3  -1   0  217.68    5.45
   3  -1   0  218.02    5.47
   3  -1   0  209.16    5.47
   3  -1   0  212.03    5.42
   3  -1   0  227.19    5.56
  -3   1   0  217.89    5.39
   3   1   0  225.57    5.53
   3   1   0  219.40    5.47
   3   1   0  213.75    5.48
  -3   1   0  204.91    5.32
  -3   1   0  215.84    5.36
   3   1   0  226.23    5.58
  -3   1   0  211.37    5.29
  -3   1   0  213.99    5.36
   3   1   0  213.17    5.43
   3   1   0  220.00    5.54
   3   1   0  219.98    5.47
  -3   1   0  208.98    5.29
  -3   1   0  202.42    5.27
  -3   1   0  214.62    5.37
   3   1   0  212.83    5.50
   5  -1   0    5.92    0.36
   5  -1   0    6.17    0.39
   5  -1   0    6.11    0.33
   5  -1   0    5.76    0.55
  -5  -1   0    5.22    0.49
  -5  -1   0    5.29    0.49
  -5  -1   0    5.37    0.34
  -5  -1   0    5.97    0.31
  -5   1   0    6.33    0.50
  -5   1   0    5.76    0.38
  -5   1   0    6.12    0.30
  -5   1   0    5.28    0.52
   5   1   0    5.86    0.37
   5   1   0    5.77    0.36
   5   1   0    5.76    0.39
   5   1   0    5.62    0.53
   7  -1   0   10.61    0.37
  -7  -1   0    9.54    0.52
   7  -1   0   10.35    0.59
  -7  -1   0   10.89    0.29
   7   1   0   10.25    0.62
  -7   1   0   10.72    0.49
   7   1   0    9.73    0.38
   0  -2   0  976.07   23.76
   0  -2   0 1000.00   23.73
   0  -2   0  957.80   23.75
   0  -2   0  947.38   23.73
   0  -2   0  962.98   23.73
   0   2   0  972.30   23.80
   0   2   0  917.64   23.71
   0   2   0  943.91   23.76
   0   2   0  946.88   23.75
   2  -2   0  158.04    4.04
  -2  -2   0  159.64    3.98
   2  -2   0  154.51    3.96
   2  -2   0  158.90    3.99
  -2  -2   0  161.26    3.96
  -2  -2   0  155.94    4.00
  -2  -2   0  155.46    3.96
   2  -2   0  166.34    4.05
  -2  -2   0  155.60    3.96
   2  -2   0  154.18    3.96
  -2  -2   0  152.46    3.92
  -2  -2   0  156.39    4.26
   2  -2   0  151.98    4.00
   2  -2   0  157.17    3.98
   2  -2   0  162.40    4.05
   2   2   0  162.01    3.99
   2   2   0  155.06    3.98
   2   2   0  153.55    4.21
  -2   2   0  158.89    4.01
  -2   2   0  159.90    4.04
  -2   2   0  166.37    3.95
   2   2   0  161.40    4.07
  -2   2   0  155.08    3.92
  -2   2   0  157.21    3.99
  -2   2   0  156.00    4.02
  -2   2   0  156.79    3.93
  -2   2   0  151.01    3.98
   2   2   0  160.49    3.95
   4  -2   0  103.51    2.61
   4  -2   0  101.41    2.58
  -4  -2   0   94.35    2.50
   4  -2   0   99.32    2.73
   4  -2   0   95.96    2.61
  -4  -2   0   99.38    2.60
  -4  -2   0   98.17    2.56
  -4  -2   0   98.42    2.64
   4   2   0  101.10    2.59
   4   2   0   99.42    2.53
   4   2   0   90.18    2.89
   4   2   0  101.06    2.59
   4   2   0   99.29    2.67
   4   2   0   96.88    2.63
  -4   2   0   97.84    2.68
  -4   2   0   96.97    2.59
  -4   2   0   95.02    2.52
   4   2   0   98.64    2.60
  -4   2   0   99.34    2.64
  -6  -2   0   33.71    1.05
   6  -2   0   35.05    0.96
  -6  -2   0   32.99    0.88
   6  -2   0   34.88    1.13
  -6  -2   0   33.37    0.83
   6  -2   0   34.86    1.06
  -6  -2   0   29.67    1.39
   6  -2   0   32.68    1.50
  -6   2   0   31.75    0.82
  -6   2   0   30.90    1.55
  -6   2   0   33.45    1.00
  -6   2   0   32.87    1.39
   6   2   0   32.82    1.25
  -6   2   0   31.74    0.91
   6   2   0   35.30    1.15
  -6   2   0   34.22    1.12
   8  -2   0    7.05    0.26
  -1  -3   0   84.97    2.19
  -1  -3   0   84.49    2.16
  -1  -3   0   86.13    2.14
   1  -3   0   78.11    2.18
   1  -3   0   84.01    2.19
   1  -3   0   86.40    2.30
   1  -3   0   84.53    2.26
   1  -3   0   88.64    2.20
   1  -3   0   83.69    2.22
  -1  -3   0   83.62    2.29
  -1  -3   0   83.73    2.19
   1  -3   0   83.33    2.16
   1  -3   0   84.30    2.16
  -1  -3   0   82.83    2.10
  -1  -3   0   85.03    2.15
   1  -3   0   85.97    2.19
  -1   3   0   83.78    2.10
  -1   3   0   78.96    2.10
  -1   3   0   77.49    2.16
  -1   3   0   82.83    2.21
  -1   3   0   81.12    2.12
   1   3   0   83.89    2.29
  -1   3   0   82.94    2.22
  -1   3   0   81.21    2.14
   1   3   0   83.06    2.22
  -1   3   0   82.28    2.16
   1   3   0   86.76    2.28
  -1   3   0   84.48    2.24
   1   3   0   85.85    2.21
   1   3   0   84.86    2.15
   1   3   0   86.83    2.18
  -3  -3   0   57.31    1.63
   3  -3   0   58.32    1.70
   3  -3   0   58.40    1.59
  -3  -3   0   55.21    1.47
   3  -3   0   58.14    1.58
  -3  -3   0   57.51    1.54
  -3  -3   0   51.15    1.61
   3  -3   0   57.32    1.60
  -3  -3   0   60.44    1.79
  -3  -3   0   55.62    1.56
  -3   3   0   58.02    1.58
  -3   3   0   55.28    1.60
   3   3   0   58.40    1.64
  -3   3   0   55.65    1.50
   3   3   0   61.71    1.61
   3   3   0   55.59    1.79
   3   3   0   59.13    1.59
   3   3   0   58.66    1.53
  -3   3   0   57.55    1.68
   5  -3   0    5.79    0.86
  -5  -3   0    4.27    0.72
   5  -3   0    5.45    0.48
   5  -3   0    5.52    0.34
  -5  -3   0    4.97    0.16
  -5  -3   0    4.97    0.22
   5  -3   0    5.65    0.42
  -5  -3   0    5.04    0.37
   5  -3   0    5.71    0.32
   5  -3   0    5.17    0.20
  -5   3   0    5.74    0.70
  -5   3   0    5.27    0.44
   5   3   0    5.20    0.56
  -5   3   0    4.32    0.78
  -5   3   0    4.81    0.17
   5   3   0    5.63    0.41
  -5   3   0    4.80    0.31
  -5   3   0    5.44    0.28
  -7  -3   0   20.42    0.83
   7  -3   0   21.79    0.63
   7  -3   0   21.84    0.89
   7   3   0   21.66    0.61
  -7   3   0   20.30    0.58
   7   3   0   21.69    0.93
  -7   3   0   19.61    0.69
   0  -4   0  487.12   12.12
   0  -4   0  508.54   12.23
   0  -4   0  491.16   12.14
   0  -4   0  488.02   12.12
   0  -4   0  478.09   12.09
   0   4   0  472.69   12.11
   0   4   0  494.78   12.10
   0   4   0  475.10   12.14
   0   4   0  457.04   12.65
   0   4   0  502.69   12.20
  -2  -4   0   54.93    1.59
  -2  -4   0   54.05    1.52
   2  -4   0   53.86    1.55
   2  -4   0   56.03    1.54
  -2  -4   0   52.99    1.54
  -2  -4   0   55.41    1.50
   2   4   0   56.23    1.59
  -2   4   0   53.99    1.53
  -2   4   0   53.06    1.64
   2   4   0   58.27    1.57
   2   4   0   56.34    1.52
   2   4   0   56.16    1.59
  -4  -4   0   30.08    1.19
  -4  -4   0   28.78    0.73
  -4  -4   0   29.31    0.93
   4  -4   0   29.32    1.34
   4  -4   0   28.22    0.96
   4  -4   0   27.95    0.98
   4  -4   0   29.63    0.76
   4  -4   0   30.18    0.98
   4  -4   0   29.46    0.92
  -4   4   0   27.55    1.19
  -4   4   0   26.18    1.21
   4   4   0   29.81    1.03
  -4   4   0   26.47    0.86
  -4   4   0   29.19    0.99
  -4   4   0   27.78    0.80
   4   4   0   29.53    1.00
   6  -4   0   11.10    0.39
   6  -4   0   12.37    0.69
  -6  -4   0   10.85    0.58
   6  -4   0   11.64    0.58
  -6   4   0   10.56    0.36
   6   4   0   11.67    0.37
  -6   4   0   10.24    0.50
  -6   4   0   10.82    0.69
   6   4   0   12.02    0.64
  -1  -5   0    9.56    0.67
  -1  -5   0    9.71    0.50
  -1  -5   0    9.64    0.32
  -1  -5   0   11.21    0.60
   1  -5   0    9.94    0.35
   1  -5   0   10.20    0.45
   1  -5   0   10.28    0.54
  -1  -5   0    9.45    0.61
   1   5   0   10.02    0.54
   1   5   0   10.18    0.47
  -1   5   0   10.21    0.75
   1   5   0   10.67    0.52
   1   5   0   11.90    0.73
   3  -5   0   50.16    1.43
  -3  -5   0   46.78    1.72
   3  -5   0   46.52    1.50
   3  -5   0   47.94    1.39
   3  -5   0   49.61    1.25
  -3  -5   0   49.65    1.23
  -3  -5   0   48.71    1.43
   3   5   0   49.98    1.29
  -3   5   0   50.26    1.50
   3   5   0   50.50    1.51
  -3   5   0   46.73    1.79
   3   5   0   48.01    1.52
  -3   5   0   48.98    1.29
   5  -5   0    4.64    0.40
  -5  -5   0    3.87    0.44
   5   5   0    4.55    0.20
  -5   5   0    4.38    0.54
   5   5   0    4.14    0.45
  -5   5   0    4.47    0.22
   0  -6   0  206.40    5.18
   0  -6   0  206.16    5.32
   0  -6   0  205.68    5.41
   0  -6   0  210.54    5.23
   0   6   0  215.14    5.41
  -2  -6   0   21.07    0.54
   2  -6   0   21.42    0.55
   2  -6   0   21.11    0.70
  -2  -6   0   20.74    0.68
  -2  -6   0   19.02    0.76
   2  -6   0   21.70    0.79
  -2   6   0   21.39    0.83
   2   6   0   20.54    0.85
   2   6   0   20.79    0.60
  -2   6   0   21.41    0.60
   4  -6   0    9.82    0.52
   4  -6   0   10.32    0.43
  -4  -6   0   10.95    0.57
  -4   6   0   10.06    0.66
   4   6   0    9.99    0.32
   4   6   0   10.99    0.63
  -4   6   0    9.81    0.34
   1  -7   0    6.24    0.64
   1  -7   0    7.10    0.33
  -1  -7   0    7.13    0.32
  -1   7   0    5.53    0.61
  -1   7   0    6.97    0.25
   3  -7   0    7.61    0.32
   3   7   0    7.57    0.25
  -3   7   0    7.07    0.24
   8   0  -1    6.00    0.56
  -8   0   1    4.91    0.40
   8   0  -1    5.45    0.24
   6   0  -1   14.51    0.90
   6   0  -1   13.75    0.49
  -6   0   1   14.15    0.53
   6   0  -1   14.21    0.61
  -6   0   1   14.28    0.85
   6   0  -1   13.97    0.39
   4   0  -1  201.04    5.08
   4   0  -1  198.91    5.15
  -4   0   1  171.55    4.74
  -4   0   1  189.09    4.77
  -4   0   1  192.46    4.88
   4   0  -1  204.65    5.09
   4   0  -1  201.99    5.23
  -4   0   1  187.42    4.69
   4   0  -1  206.10    5.22
  -4   0   1  189.98    4.82
   4   0  -1  204.86    5.08
  -4   0   1  187.05    4.73
  -4   0   1  196.83    4.76
  -2   0   1  209.22    5.46
  -2   0   1  223.53    5.47
   2   0  -1  219.00    5.37
   2   0  -1  221.61    5.38
  -2   0   1  222.43    5.46
   2   0  -1  220.20    5.39
  -2   0   1  216.01    5.43
   2   0  -1  191.43    5.33
   2   0  -1  219.88    5.32
  -2   0   1  219.03    5.44
   0   0  -1  237.34    5.84
   0   0  -1  237.95    5.86
   0   0  -1  239.38    5.85
   0   0  -1  242.14    5.85
   0   0  -1  233.09    5.86
   0   0  -1  224.46    5.85
   2   0   1  204.58    5.13
  -2   0  -1  198.64    4.99
   2   0   1  208.77    5.13
   2   0   1  202.83    5.10
  -2   0  -1  199.49    5.01
   2   0   1  202.48    5.09
  -2   0  -1  200.43    4.96
  -2   0  -1  200.43    4.97
  -2   0  -1  195.71    4.92
  -2   0  -1  201.56    4.98
  -2   0  -1  192.74    4.95
  -2   0  -1  199.29    4.98
  -2   0  -1  205.38    4.98
  -2   0  -1  187.20    4.99
   2   0   1  197.85    5.05
   4   0   1   95.20    2.57
  -4   0  -1   90.61    2.31
   4   0   1   92.39    2.46
  -4   0  -1   89.29    2.36
  -4   0  -1   93.54    2.45
   4   0   1   95.69    2.61
  -4   0  -1   88.96    2.39
   4   0   1   93.97    2.48
  -4   0  -1   90.76    2.42
  -4   0  -1   91.00    2.47
  -4   0  -1   90.94    2.45
   4   0   1   93.92    2.48
  -4   0  -1   91.01    2.35
  -4   0  -1   90.37    2.41
  -6   0  -1   75.84    2.06
  -6   0  -1   72.99    2.00
   6   0   1   79.45    1.98
   6   0   1   79.50    2.11
  -6   0  -1   73.02    2.01
   6   0   1   69.81    2.40
   6   0   1   75.67    2.16
  -6   0  -1   70.35    2.29
  -6   0  -1   76.36    1.86
   6   0   1   74.43    2.13
   8   0   1    1.19    0.14
   9  -1  -1    4.43    0.17
   9   1  -1    4.37    0.18
   7  -1  -1    5.14    0.17
   7  -1  -1    5.40    0.27
   7  -1  -1    4.45    0.46
  -7  -1   1    5.54    0.40
   7   1  -1    5.56    0.28
   7   1  -1    5.07    0.48
  -7   1   1    5.06    0.36
  -5  -1   1   16.86    0.73
   5  -1  -1   17.32    0.61
  -5  -1   1   16.62    0.55
  -5  -1   1   16.26    0.58
  -5  -1   1   16.34    0.71
   5  -1  -1   17.63    0.59
   5  -1  -1   17.75    0.65
   5  -1  -1   17.65    0.81
   5   1  -1   17.70    0.65
   5   1  -1   17.57    0.63
   5   1  -1   18.03    0.77
  -5   1   1   15.53    0.69
   5   1  -1   17.18    0.64
  -5   1   1   17.03    0.55
  -5   1   1   15.75    0.62
  -5   1   1   15.66    0.72
   3  -1  -1   15.93    0.47
   3  -1  -1   15.80    0.51
   3  -1  -1   15.42    0.47
  -3  -1   1   15.16    0.49
   3  -1  -1   15.65    0.55
   3  -1  -1   15.72    0.56
  -3  -1   1   15.33    0.47
   3  -1  -1   15.67    0.45
  -3  -1   1   14.88    0.46
   3  -1  -1   15.12    0.42
   3  -1  -1   15.79    0.64
  -3  -1   1   14.65    0.42
  -3  -1   1   15.26    0.50
  -3  -1   1   15.35    0.51
  -3  -1   1   15.21    0.56
   3   1  -1   15.45    0.61
  -3   1   1   15.29    0.54
   3   1  -1   15.95    0.51
  -3   1   1   14.98    0.51
   3   1  -1   15.82    0.56
  -3   1   1   14.56    0.42
   3   1  -1   15.90    0.55
   3   1  -1   15.66    0.45
  -3   1   1   13.99    0.48
   3   1  -1   16.18    0.48
  -3   1   1   15.25    0.42
  -3   1   1   15.58    0.56
   3   1  -1   15.46    0.51
   1  -1  -1  491.89   12.85
   1  -1  -1  527.74   12.81
  -1  -1   1  543.04   12.63
  -1  -1   1  542.72   12.68
   1  -1  -1  507.68   12.86
  -1  -1   1  536.29   12.71
  -1  -1   1  520.26   12.66
  -1   1   1  478.85   12.69
  -1   1   1  514.80   12.62
   1   1  -1  524.36   12.86
   1   1  -1  535.07   12.90
  -1   1   1  481.36   12.67
   1   1  -1  531.27   12.88
   1   1  -1  518.52   12.83
  -1   1   1  548.56   12.70
   1   1  -1  517.62   12.87
  -1   1   1  510.72   12.67
  -1   1   1  467.37   12.62
  -1   1   1  482.87   12.62
   1  -1   1   55.85    1.44
  -1  -1  -1   54.89    1.42
   1  -1   1   56.04    1.46
  -1  -1  -1   55.85    1.42
  -1  -1  -1   53.33    1.40
   1  -1   1   55.98    1.43
  -1  -1  -1   55.08    1.43
  -1  -1  -1   57.21    1.38
   1  -1   1   56.32    1.44
  -1   1  -1   54.39    1.40
   1   1   1   55.60    1.42
  -1   1  -1   54.46    1.41
   1   1   1   51.99    1.44
  -1   1  -1   54.54    1.42
   1   1   1   56.45    1.41
  -1   1  -1   52.43    1.40
  -1   1  -1   53.47    1.44
   1   1   1   54.61    1.43
  -3  -1  -1   73.07    1.90
   3  -1   1   76.36    2.03
   3  -1   1   85.69    2.15
   3  -1   1   75.07    2.02
  -3  -1  -1   73.06    2.01
  -3  -1  -1   76.15    2.01
   3  -1   1   80.80    2.28
  -3  -1  -1   75.64    1.98
   3  -1   1   77.00    2.10
  -3  -1  -1   74.88    1.99
  -3  -1  -1   76.11    1.93
  -3  -1  -1   77.75    1.99
  -3  -1  -1   72.75    1.96
  -3  -1  -1   75.72    1.96
   3  -1   1   77.16    1.96
  -3   1  -1   74.76    2.01
  -3   1  -1   74.83    2.04
  -3   1  -1   74.26    1.99
  -3   1  -1   77.23    1.97
   3   1   1   77.86    2.11
   3   1   1   77.08    2.02
  -3   1  -1   72.35    1.94
  -3   1  -1   75.72    1.94
   3   1   1   74.58    2.03
  -3   1  -1   75.33    1.92
   3   1   1   73.00    2.01
  -3   1  -1   75.91    2.01
   3   1   1   74.48    1.96
  -3   1  -1   74.30    2.00
   3   1   1   78.14    2.07
   5  -1   1   55.73    1.38
   5  -1   1   49.56    1.45
  -5  -1  -1   49.15    1.37
   5  -1   1   46.46    1.69
  -5  -1  -1   48.40    1.38
  -5  -1  -1   46.89    1.50
  -5  -1  -1   47.54    1.53
  -5  -1  -1   48.52    1.33
  -5  -1  -1   47.60    1.50
   5  -1   1   50.88    1.63
   5  -1   1   49.01    1.41
  -5  -1  -1   47.99    1.29
  -5   1  -1   49.48    1.35
   5   1   1   48.98    1.59
   5   1   1   49.07    1.44
  -5   1  -1   48.31    1.34
  -5   1  -1   48.65    1.42
  -5   1  -1   47.76    1.57
   5   1   1   49.37    1.47
   5   1   1   47.33    1.48
  -5   1  -1   48.29    1.53
  -5   1  -1   47.61    1.33
   5   1   1   48.26    1.43
  -7  -1  -1   55.48    1.37
   7  -1   1   59.16    1.75
   7  -1   1   59.19    1.54
  -7  -1  -1   56.98    1.44
  -7   1  -1   53.04    1.54
   7   1   1   56.43    1.53
  -7   1  -1   53.34    1.43
  -7   1  -1   54.04    1.37
   8  -2  -1    1.77    0.16
   6  -2  -1   11.46    0.33
   6  -2  -1   12.73    1.03
   6  -2  -1   11.02    0.42
   6  -2  -1   11.03    0.58
  -6  -2   1   10.57    0.50
  -6  -2   1   10.73    0.54
   6   2  -1   10.96    1.71
  -6   2   1   10.49    0.46
   6   2  -1   11.76    0.59
   6   2  -1   11.38    0.58
   6   2  -1   11.22    0.32
  -6   2   1    9.46    0.87
   4  -2  -1   33.92    0.96
  -4  -2   1   31.67    0.95
   4  -2  -1   34.73    1.17
  -4  -2   1   33.06    1.04
  -4  -2   1   33.26    0.92
   4  -2  -1   34.65    0.94
   4  -2  -1   33.14    1.00
   4  -2  -1   33.71    1.12
  -4  -2   1   32.24    1.02
   4  -2  -1   34.71    0.97
   4   2  -1   33.38    0.99
  -4   2   1   32.66    0.88
  -4   2   1   33.44    0.92
  -4   2   1   32.28    1.03
   4   2  -1   33.45    0.99
  -4   2   1   32.78    1.06
  -4   2   1   32.53    0.98
   4   2  -1   34.12    1.08
   4   2  -1   31.72    1.01
  -4   2   1   33.36    1.12
  -2  -2   1  102.42    2.57
   2  -2  -1  100.35    2.60
  -2  -2   1   98.29    2.50
  -2  -2   1  100.05    2.51
  -2  -2   1  101.36    2.56
   2  -2  -1   99.22    2.53
  -2  -2   1   98.84    2.57
  -2  -2   1  103.53    2.62
   2  -2  -1   95.69    2.56
  -2  -2   1  102.60    2.54
   2  -2  -1  100.65    2.60
   2  -2  -1   98.73    2.56
   2  -2  -1  103.91    2.56
  -2   2   1   99.95    2.56
  -2   2   1   93.32    2.55
  -2   2   1   97.47    2.49
   2   2  -1   93.72    2.53
   2   2  -1  100.53    2.60
   2   2  -1  104.45    2.62
   2   2  -1  103.44    2.56
  -2   2   1   96.62    2.58
  -2   2   1   96.84    2.51
  -2   2   1  102.60    2.61
   2   2  -1   99.17    2.53
   2   2  -1  103.12    2.60
   2   2  -1   99.84    2.53
   2   2  -1  103.24    2.72
   2   2  -1   99.12    2.57
   0  -2  -1  707.68   17.02
   0  -2  -1  710.15   17.01
   0  -2   1  714.41   18.17
   0  -2   1  726.82   18.21
   0  -2   1  760.27   18.25
   0  -2  -1  685.67   16.99
   0  -2   1  751.05   18.18
   0  -2  -1  676.36   16.97
   0  -2   1  726.70   18.20
   0  -2  -1  626.89   17.02
   0  -2  -1  679.97   17.06
   0   2  -1  681.32   16.97
   0   2  -1  663.02   17.01
   0   2  -1  714.93   17.04
   0   2   1  723.89   18.17
   0   2  -1  684.92   17.07
   0   2  -1  688.79   16.99
   0   2   1  745.42   18.24
   0   2   1  720.74   18.24
   0   2  -1  666.95   17.01
   0   2  -1  712.26   17.00
   0   2  -1  707.38   17.04
   0   2   1  744.06   18.19
  -2  -2  -1   79.01    2.02
  -2  -2  -1   78.45    2.04
  -2  -2  -1   79.24    2.01
  -2  -2  -1   79.45    1.98
   2  -2   1   80.42    2.08
   2  -2   1   81.78    2.13
  -2  -2  -1   79.10    2.03
  -2  -2  -1   74.99    2.01
   2  -2   1   84.33    2.20
  -2  -2  -1   78.39    2.05
  -2  -2  -1   77.37    2.05
   2   2   1   83.65    2.14
  -2   2  -1   78.67    2.01
  -2   2  -1   75.58    1.98
   2   2   1   81.59    2.20
  -2   2  -1   78.34    2.06
   2   2   1   80.63    2.17
   2   2   1   84.26    2.11
  -2   2  -1   76.75    1.98
  -2   2  -1   75.00    1.99
  -2   2  -1   76.28    2.07
  -2   2  -1   79.86    2.06
   4  -2   1   33.42    1.02
  -4  -2  -1   34.59    1.00
   4  -2   1   33.38    1.02
  -4  -2  -1   33.12    0.90
   4  -2   1   33.80    0.92
   4  -2   1   34.48    1.21
  -4  -2  -1   33.69    1.05
  -4  -2  -1   32.89    1.09
   4  -2   1   33.68    1.04
   4  -2   1   35.39    1.20
   4  -2   1   33.62    1.00
  -4  -2  -1   33.85    1.05
  -4  -2  -1   32.65    1.02
  -4  -2  -1   33.03    0.96
  -4   2  -1   32.02    0.93
  -4   2  -1   32.86    0.98
   4   2   1   34.25    1.05
   4   2   1   35.34    1.03
  -4   2  -1   32.08    1.16
  -4   2  -1   32.28    1.09
  -4   2  -1   31.98    1.02
   4   2   1   33.35    0.93
   4   2   1   34.29    1.07
  -4   2  -1   33.88    1.15
  -4   2  -1   32.96    0.95
   4   2   1   33.50    1.23
   6  -2   1   15.78    0.63
   6  -2   1   15.57    0.69
  -6  -2  -1   14.22    0.39
  -6  -2  -1   14.51    0.61
   6  -2   1   15.59    0.51
  -6  -2  -1   14.61    0.44
  -6   2  -1   14.60    0.70
  -6   2  -1   14.26    0.46
   6   2   1   16.17    0.71
  -6   2  -1   14.28    0.40
  -6   2  -1   14.33    0.56
   8  -2   1    6.90    0.24
  -7  -3   1    1.45    0.58
   7  -3  -1    0.39    0.30
   7   3  -1    0.55    0.10
   5  -3  -1   12.80    0.48
   5  -3  -1   15.91    0.98
  -5  -3   1   12.85    0.53
   5  -3  -1   12.78    0.39
   5  -3  -1   14.07    0.61
   5  -3  -1   13.75    0.53
  -5  -3   1   12.67    0.82
  -5  -3   1   12.19    0.34
   5  -3  -1   12.81    0.63
  -5   3   1   13.31    0.62
   5   3  -1   13.61    0.59
   5   3  -1   12.80    0.44
   5   3  -1   13.05    0.66
  -5   3   1   12.99    0.92
  -5   3   1   12.14    0.44
   5   3  -1   13.00    0.37
  -5   3   1   12.34    0.80
  -5   3   1   12.95    0.49
   3  -3  -1    3.20    0.24
   3  -3  -1    3.32    0.27
   3  -3  -1    3.16    0.20
   3  -3  -1    1.96    0.48
  -3  -3   1    3.27    0.23
   3  -3  -1    3.19    0.21
  -3  -3   1    3.24    0.34
   3  -3  -1    2.88    0.40
  -3  -3   1    3.22    0.33
   3   3  -1    3.43    0.25
  -3   3   1    3.15    0.25
   3   3  -1    3.36    0.27
  -3   3   1    3.48    0.19
  -3   3   1    3.68    0.36
  -3   3   1    3.59    0.34
  -3   3   1    3.59    0.22
  -3   3   1    2.77    0.43
   3   3  -1    3.57    0.37
  -1  -3   1  124.43    3.19
  -1  -3   1  129.87    3.17
   1  -3  -1  126.04    3.18
  -1  -3   1  123.58    3.30
  -1  -3   1  129.38    3.30
  -1  -3   1  125.38    3.14
  -1  -3   1  121.94    3.17
   1  -3  -1  121.37    3.15
   1  -3  -1  127.65    3.18
   1  -3  -1  129.40    3.20
   1  -3  -1  123.73    3.24
  -1  -3   1  128.34    3.23
   1   3  -1  125.61    3.23
   1   3  -1  124.53    3.16
   1   3  -1  127.53    3.20
  -1   3   1  123.39    3.14
   1   3  -1  118.22    3.19
   1   3  -1  129.50    3.20
  -1   3   1  124.14    3.15
  -1   3   1  124.08    3.15
   1   3  -1  127.53    3.26
   1   3  -1  125.67    3.19
   1   3  -1  124.82    3.24
   1   3  -1  127.17    3.16
  -1   3   1  121.72    3.27
   1   3  -1  127.47    3.22
   1   3  -1  118.83    3.59
   1  -3   1   16.89    0.59
   1  -3   1   17.04    0.49
   1  -3   1   17.09    0.65
   1  -3   1   17.86    0.54
  -1  -3  -1   17.05    0.57
  -1  -3  -1   16.22    0.52
  -1  -3  -1   16.41    0.71
   1  -3   1   16.59    0.63
  -1  -3  -1   16.75    0.58
  -1  -3  -1   16.90    0.53
   1  -3   1   16.76    0.60
  -1  -3  -1   17.30    0.56
  -1   3  -1   16.88    0.50
   1   3   1   17.56    0.57
  -1   3  -1   16.49    0.55
  -1   3  -1   17.28    0.56
   1   3   1   17.72    0.63
  -1   3  -1   17.28    0.61
  -1   3  -1   16.89    0.50
   1   3   1   16.89    0.56
  -1   3  -1   17.21    0.61
  -1   3  -1   16.61    0.57
   1   3   1   17.12    0.49
  -1   3  -1   16.61    0.53
   1   3   1   18.02    0.54
   3  -3   1   76.14    2.05
  -3  -3  -1   71.13    2.06
  -3  -3  -1   72.44    2.02
  -3  -3  -1   77.37    2.02
   3  -3   1   75.54    1.96
   3  -3   1   74.81    2.03
  -3  -3  -1   72.66    1.94
   3  -3   1   75.16    2.18
  -3  -3  -1   71.36    1.97
  -3  -3  -1   76.84    1.89
   3  -3   1   78.26    2.04
  -3  -3  -1   75.07    2.02
  -3   3  -1   74.06    2.02
  -3   3  -1   72.51    2.04
   3   3   1   76.27    1.97
   3   3   1   77.14    2.23
  -3   3  -1   72.57    1.92
  -3   3  -1   73.26    2.13
  -3   3  -1   69.76    1.96
   3   3   1   76.92    2.10
   3   3   1   76.31    2.07
   3   3   1   77.42    2.06
  -3   3  -1   73.28    1.91
   5  -3   1   31.46    0.98
  -5  -3  -1   30.43    0.79
   5  -3   1   30.98    1.41
  -5  -3  -1   29.71    0.82
   5  -3   1   32.02    1.05
  -5  -3  -1   31.83    1.01
   5  -3   1   30.36    1.08
  -5  -3  -1   29.26    1.29
  -5   3  -1   28.81    1.37
  -5   3  -1   30.86    1.05
  -5   3  -1   31.09    0.86
  -5   3  -1   31.64    1.29
  -5   3  -1   30.73    0.87
  -5   3  -1   30.40    0.79
   5   3   1   30.75    1.06
  -5   3  -1   30.35    0.93
   5   3   1   32.26    1.15
   7  -3   1   18.54    0.55
   7  -3   1   17.19    0.81
   7   3   1   18.57    0.52
  -7   3  -1   17.54    0.55
  -7   3  -1   17.46    0.64
   7   3   1   20.45    1.02
   6  -4  -1    5.31    0.47
   6  -4  -1    5.27    0.26
   6  -4  -1    5.00    0.17
   6  -4  -1    4.74    0.60
  -6  -4   1    4.69    0.45
   6   4  -1    5.13    0.22
  -6   4   1    5.23    0.62
  -6   4   1    5.40    0.42
  -6   4   1    4.51    0.25
   6   4  -1    5.68    0.52
   4  -4  -1   33.21    1.01
   4  -4  -1   32.95    1.08
   4  -4  -1   32.12    1.04
  -4  -4   1   30.27    1.20
  -4  -4   1   31.31    0.98
  -4  -4   1   30.10    0.78
   4  -4  -1   31.20    0.86
   4   4  -1   31.97    0.84
  -4   4   1   30.10    0.85
   4   4  -1   34.19    1.11
  -4   4   1   31.13    1.03
  -4   4   1   29.90    1.26
   4   4  -1   33.34    0.90
   4   4  -1   34.25    1.09
   2  -4  -1   25.74    0.77
   2  -4  -1   24.54    0.79
  -2  -4   1   24.32    0.86
   2  -4  -1   24.43    0.72
  -2  -4   1   23.97    0.76
   2  -4  -1   24.80    0.99
   2   4  -1   23.61    0.81
   2   4  -1   24.03    0.79
  -2   4   1   23.65    0.95
  -2   4   1   25.27    0.79
  -2   4   1   24.74    0.90
   0  -4  -1  144.44    3.78
   0  -4  -1  145.91    3.74
   0  -4  -1  151.08    3.88
   0  -4   1  148.68    3.80
   0  -4   1  145.87    3.81
   0  -4   1  151.91    3.87
   0  -4  -1  151.31    3.83
   0  -4  -1  144.09    3.83
   0  -4  -1  149.13    3.83
   0  -4   1  152.09    3.82
   0   4   1  150.93    3.97
   0   4   1  146.24    3.82
   0   4   1  148.01    3.80
   0   4   1  151.33    3.90
   0   4  -1  145.14    3.89
   0   4   1  152.27    3.76
   0   4  -1  150.07    3.86
   0   4   1  146.76    3.85
   0   4  -1  147.02    3.82
   0   4  -1  155.35    3.82
  -2  -4  -1   25.09    0.70
  -2  -4  -1   24.71    0.82
   2  -4   1   24.13    0.84
  -2  -4  -1   24.34    0.87
   2  -4   1   25.93    0.82
   2  -4   1   24.79    0.86
  -2  -4  -1   24.25    0.78
   2  -4   1   24.88    0.81
  -2  -4  -1   24.70    0.92
  -2  -4  -1   24.94    0.89
   2  -4   1   25.08    0.97
  -2  -4  -1   25.12    0.77
   2  -4   1   24.98    0.78
   2   4   1   25.51    0.84
  -2   4  -1   24.94    0.97
  -2   4  -1   22.79    0.95
  -2   4  -1   24.32    0.72
  -2   4  -1   24.59    0.82
   2   4   1   25.66    0.82
   2   4   1   24.49    0.72
  -2   4  -1   24.35    0.82
   2   4   1   25.59    1.04
  -2   4  -1   24.55    0.85
   2   4   1   25.61    0.86
  -4  -4  -1   20.67    0.73
  -4  -4  -1   18.00    1.05
  -4  -4  -1   19.83    0.52
   4  -4   1   20.89    0.78
   4  -4   1   21.07    0.83
   4  -4   1   19.10    1.16
   4  -4   1   21.36    0.73
  -4  -4  -1   19.34    0.56
  -4   4  -1   19.69    0.59
   4   4   1   20.26    0.88
  -4   4  -1   19.33    0.78
  -4   4  -1   19.60    0.52
  -4   4  -1   18.85    1.12
   4   4   1   20.87    0.80
  -4   4  -1   20.16    0.66
  -4   4  -1   19.17    0.60
  -4   4  -1   18.75    1.08
   6  -4   1   23.43    0.91
  -6  -4  -1   22.05    0.55
  -6  -4  -1   22.03    0.84
   6  -4   1   23.00    0.66
   6  -4   1   22.95    0.81
   6   4   1   23.58    0.64
  -6   4  -1   21.27    0.62
   6   4   1   22.91    0.90
  -6   4  -1   21.33    0.92
  -6   4  -1   20.95    0.73
   7   5  -1    6.75    0.21
  -7   5   1    5.73    0.25
  -5  -5   1    8.11    0.50
   5  -5  -1    9.42    0.52
   5  -5  -1    8.65    0.44
   5  -5  -1    9.03    0.25
   5   5  -1    8.66    0.58
  -5   5   1    8.57    0.63
  -5   5   1    8.83    0.31
   5   5  -1    8.68    0.30
   3  -5  -1   11.69    0.51
   3  -5  -1    9.55    0.66
   3  -5  -1   11.04    0.49
  -3  -5   1   11.68    0.86
  -3  -5   1   10.60    0.50
   3   5  -1   10.90    0.55
  -3   5   1   10.96    0.56
   3   5  -1   10.66    0.70
   3   5  -1   10.92    0.37
  -3   5   1   10.56    0.93
  -1  -5   1  107.04    2.79
  -1  -5   1  103.49    2.90
  -1  -5   1  106.31    2.79
   1  -5  -1  105.98    2.83
  -1  -5   1  101.75    2.86
   1  -5  -1  107.13    2.72
   1  -5  -1  107.02    2.75
   1  -5  -1  108.71    2.88
   1  -5  -1  111.85    2.81
   1  -5  -1  103.70    2.91
  -1   5   1  108.01    2.83
   1   5  -1  108.41    2.72
  -1   5   1  108.31    2.98
  -1   5   1  104.39    2.72
   1   5  -1  108.69    3.12
   1   5  -1  104.80    2.89
   1   5  -1  113.13    3.11
  -1  -5  -1   15.86    0.55
  -1  -5  -1   14.73    0.86
  -1  -5  -1   14.01    0.78
   1  -5   1   15.46    0.56
   1  -5   1   16.30    0.68
   1  -5   1   16.81    0.59
  -1  -5  -1   15.89    0.64
  -1  -5  -1   15.44    0.43
   1  -5   1   15.82    0.57
  -1  -5  -1   15.94    0.55
  -1   5  -1   14.70    0.60
  -1   5  -1   17.22    0.96
   1   5   1   15.85    0.58
   1   5   1   15.49    0.89
   1   5   1   16.30    0.68
  -1   5  -1   16.39    0.71
  -1   5  -1   17.23    0.66
   1   5   1   15.23    0.77
  -1   5  -1   14.91    0.43
   1   5   1   14.35    0.61
  -3  -5  -1    9.54    0.28
   3  -5   1   10.65    0.49
   3  -5   1   11.29    0.50
  -3  -5  -1    9.89    0.59
  -3   5  -1    9.53    0.35
  -3   5  -1    9.15    0.27
   3   5   1   10.60    0.36
   3   5   1   10.60    0.56
  -3   5  -1    9.68    0.55
  -5  -5  -1   19.26    0.50
   5  -5   1   18.37    0.71
  -5  -5  -1   19.00    0.76
   5  -5   1   19.06    0.55
  -5   5  -1   19.60    0.56
  -5   5  -1   18.75    0.86
   5   5   1   18.98    0.54
   5   5   1   18.74    0.79
   4  -6  -1   25.33    0.64
   4  -6  -1   23.72    0.88
  -4  -6   1   24.02    0.87
   4  -6  -1   25.05    0.78
  -4   6   1   23.50    0.95
   4   6  -1   24.96    0.69
   4   6  -1   26.34    0.98
  -4   6   1   24.42    0.67
  -2  -6   1   11.78    0.45
  -2  -6   1   11.90    0.56
   2  -6  -1   11.86    0.49
   2  -6  -1   11.93    0.56
  -2   6   1   11.49    0.61
   2   6  -1   11.45    0.63
   2   6  -1   11.47    0.38
   0  -6   1   29.99    1.02
   0  -6  -1   29.39    1.04
   0   6  -1   30.46    1.36
   0   6   1   29.52    0.99
   0   6  -1   29.41    1.05
  -2  -6  -1   12.44    0.40
  -2  -6  -1   11.23    0.90
  -2  -6  -1   12.27    0.33
   2  -6   1   14.13    0.84
   2  -6   1   11.82    0.48
   2   6   1   12.10    0.40
  -2   6  -1   12.29    0.40
  -2   6  -1   11.34    0.69
  -4  -6  -1   14.42    0.73
   4  -6   1   14.75    0.54
  -4  -6  -1   14.75    0.38
   4  -6   1   14.80    0.63
   4   6   1   14.99    0.73
  -4   6  -1   14.32    0.76
  -4   6  -1   14.76    0.44
   4   6   1   14.94    0.43
   3  -7  -1    0.28    0.11
  -3  -7   1    0.13    0.12
  -3   7   1    0.17    0.06
   3   7  -1    0.05    0.06
   1  -7  -1   20.07    0.65
  -1  -7   1   20.08    0.63
   1  -7  -1   20.95    0.54
   1  -7  -1   19.01    0.83
  -1   7   1   19.27    0.81
  -1   7   1   20.68    0.56
   1   7  -1   19.64    0.57
   1  -7   1    0.33    0.12
  -1   7  -1    0.50    0.11
   3  -7   1    8.57    0.34
  -3   7  -1    8.42    0.27
   3   7   1    8.86    0.27
   8   0  -2    4.82    0.23
   8   0  -2    5.68    0.54
  -8   0   2    4.76    0.39
   6   0  -2   86.77    2.19
   6   0  -2   87.90    2.25
  -6   0   2   82.23    2.18
   6   0  -2   84.57    2.62
  -6   0   2   80.04    2.40
   6   0  -2   88.04    2.41
   4   0  -2   72.10    1.94
   4   0  -2   70.83    2.02
  -4   0   2   69.80    1.95
  -4   0   2   71.24    1.85
  -4   0   2   70.36    1.80
  -4   0   2   71.70    1.99
   4   0  -2   73.05    2.00
   4   0  -2   73.27    1.86
   2   0  -2  154.41    3.79
  -2   0   2  154.29    3.85
   2   0  -2  153.64    3.82
  -2   0   2  151.10    3.84
  -2   0   2  147.27    3.82
   2   0  -2  148.27    3.84
   2   0  -2  156.08    3.90
   2   0  -2  155.64    3.86
  -2   0   2  157.34    3.79
   2   0  -2  150.35    3.84
  -2   0   2  146.70    3.77
   2   0  -2  149.38    3.80
   0   0  -2  155.70    3.99
   0   0  -2  155.75    3.97
   0   0  -2  161.46    3.98
   0   0  -2  164.24    3.98
   0   0  -2  159.66    3.98
   0   0  -2  155.00    4.01
   2   0   2  179.84    4.58
   2   0   2  185.01    4.62
  -2   0  -2  181.21    4.61
  -2   0  -2  185.22    4.64
  -2   0  -2  181.35    4.64
  -2   0  -2  179.21    4.64
  -2   0  -2  186.00    4.58
   2   0   2  174.66    4.60
  -2   0  -2  185.31    4.67
   2   0   2  179.72    4.51
   2   0   2  188.14    4.63
  -2   0  -2  182.24    4.55
  -4   0  -2   84.99    2.38
  -4   0  -2   84.07    2.30
   4   0   2   87.37    2.32
  -4   0  -2   82.43    2.27
   4   0   2   86.60    2.45
  -4   0  -2   85.49    2.29
   4   0   2   86.80    2.21
  -4   0  -2   86.07    2.33
   4   0   2   85.16    2.34
   4   0   2   86.61    2.43
  -4   0  -2   85.15    2.24
  -4   0  -2   84.67    2.21
  -4   0  -2   86.68    2.18
   4   0   2   85.80    2.31
  -4   0  -2   83.20    2.32
  -4   0  -2   83.86    2.33
   6   0   2   40.11    1.10
   6   0   2   39.61    1.28
  -6   0  -2   38.75    1.15
  -6   0  -2   39.61    0.99
   6   0   2   41.16    1.26
  -6   0  -2   37.43    1.03
  -6   0  -2   38.85    1.03
  -6   0  -2   37.06    1.15
   6   0   2   40.22    1.32
  -6   0  -2   38.63    1.23
   8   0   2    5.56    0.21
   9  -1  -2   12.90    0.37
   9   1  -2   12.61    0.37
   7  -1  -2   26.36    0.77
   7  -1  -2   26.25    0.97
   7  -1  -2   26.98    0.69
  -7  -1   2   25.40    0.83
  -7   1   2   24.20    0.82
   7   1  -2   26.14    0.96
   7   1  -2   26.23    0.68
   7   1  -2   26.29    0.76
   5  -1  -2   68.35    2.08
  -5  -1   2   67.76    1.75
   5  -1  -2   71.33    1.84
   5  -1  -2   68.88    2.08
  -5  -1   2   68.72    1.97
   5  -1  -2   70.52    1.94
  -5  -1   2   66.85    2.09
  -5  -1   2   69.06    1.81
   5   1  -2   68.60    2.09
  -5   1   2   67.27    1.95
  -5   1   2   68.05    1.75
  -5   1   2   63.76    2.01
   5   1  -2   69.70    1.93
   5   1  -2   71.07    1.84
   5   1  -2   69.55    2.06
  -5   1   2   66.83    1.80
  -3  -1   2   34.45    0.89
  -3  -1   2   34.50    1.00
  -3  -1   2   34.62    0.93
  -3  -1   2   35.15    1.02
   3  -1  -2   34.99    0.92
  -3  -1   2   34.57    0.96
   3  -1  -2   31.70    0.92
  -3   1   2   34.29    0.96
   3   1  -2   34.82    0.94
   3   1  -2   34.27    1.01
   3   1  -2   35.47    0.94
  -3   1   2   33.33    0.88
   3   1  -2   33.68    1.10
  -3   1   2   34.82    0.93
  -3   1   2   31.85    0.94
  -3   1   2   33.43    1.02
   3   1  -2   34.19    0.97
   3   1  -2   36.06    0.98
   1  -1  -2    4.15    0.21
   1  -1  -2    4.12    0.16
  -1  -1   2    4.23    0.14
  -1  -1   2    4.47    0.23
   1  -1  -2    4.14    0.17
  -1  -1   2    3.95    0.18
   1  -1  -2    3.91    0.14
   1  -1  -2    3.94    0.17
   1   1  -2    3.92    0.17
   1   1  -2    4.09    0.19
   1   1  -2    4.00    0.22
   1   1  -2    3.91    0.17
  -1   1   2    4.37    0.16
   1   1  -2    3.94    0.16
   1   1  -2    3.82    0.20
  -1   1   2    4.10    0.16
   1   1  -2    4.33    0.20
  -1   1   2    3.88    0.17
  -1   1   2    4.15    0.18
   1   1  -2    4.00    0.17
  -1   1   2    4.08    0.15
  -1  -1  -2    3.63    0.20
  -1  -1  -2    3.39    0.21
  -1  -1  -2    3.27    0.14
   1  -1   2    3.12    0.17
  -1  -1  -2    3.36    0.21
  -1  -1  -2    3.29    0.20
  -1  -1  -2    3.22    0.15
  -1  -1  -2    3.03    0.20
   1  -1   2    3.41    0.12
   1  -1   2    3.26    0.23
   1  -1   2    3.23    0.19
   1  -1   2    3.06    0.22
  -1  -1  -2    3.19    0.17
  -1  -1  -2    3.11    0.18
  -1  -1  -2    3.35    0.19
  -1   1  -2    3.31    0.16
  -1   1  -2    3.39    0.18
  -1   1  -2    3.54    0.20
  -1   1  -2    3.56    0.22
  -1   1  -2    3.32    0.20
   1   1   2    3.56    0.18
   1   1   2    3.82    0.17
  -1   1  -2    3.55    0.18
   1   1   2    3.49    0.19
   1   1   2    3.47    0.19
  -1   1  -2    3.27    0.13
  -1   1  -2    3.76    0.21
  -1   1  -2    3.13    0.20
  -1   1  -2    3.13    0.16
  -1   1  -2    3.45    0.16
  -1   1  -2    3.09    0.20
   3  -1   2   49.52    1.47
  -3  -1  -2   50.23    1.41
  -3  -1  -2   46.48    1.37
  -3  -1  -2   48.26    1.26
  -3  -1  -2   48.25    1.37
   3  -1   2   49.17    1.38
   3  -1   2   47.19    1.36
  -3  -1  -2   48.80    1.33
  -3  -1  -2   48.21    1.35
  -3  -1  -2   48.57    1.34
  -3  -1  -2   50.94    1.29
   3  -1   2   50.45    1.38
  -3  -1  -2   50.03    1.40
   3  -1   2   49.95    1.28
   3  -1   2   49.68    1.44
  -3   1  -2   47.28    1.39
   3   1   2   49.12    1.35
  -3   1  -2   48.87    1.27
  -3   1  -2   48.45    1.44
  -3   1  -2   48.58    1.36
   3   1   2   49.69    1.37
  -3   1  -2   48.17    1.30
  -3   1  -2   48.91    1.38
   3   1   2   48.46    1.28
   3   1   2   50.42    1.45
  -3   1  -2   48.63    1.31
   3   1   2   49.11    1.40
  -3   1  -2   46.98    1.38
  -3   1  -2   46.83    1.36
   3   1   2   48.90    1.39
   5  -1   2   22.15    1.05
  -5  -1  -2   22.06    0.65
  -5  -1  -2   21.37    0.95
  -5  -1  -2   21.68    0.73
   5  -1   2   22.68    0.86
  -5  -1  -2   22.18    0.97
  -5  -1  -2   21.97    0.76
  -5  -1  -2   21.28    0.80
   5  -1   2   17.81    1.44
  -5  -1  -2   22.13    0.63
  -5  -1  -2   19.36    0.64
   5  -1   2   22.19    0.76
   5  -1   2   22.51    0.65
   5  -1   2   22.64    0.91
   5  -1   2   22.02    0.80
  -5  -1  -2   21.87    0.99
  -5  -1  -2   20.28    0.62
   5   1   2   22.28    0.66
  -5   1  -2   23.18    1.02
  -5   1  -2   21.44    0.88
  -5   1  -2   22.27    0.80
  -5   1  -2   22.86    1.04
  -5   1  -2   20.55    0.59
  -5   1  -2   21.54    0.67
  -5   1  -2   22.02    1.02
   5   1   2   21.99    0.81
   5   1   2   21.12    1.15
  -5   1  -2   21.82    1.14
   5   1   2   22.29    0.80
  -5   1  -2   20.72    0.63
  -5   1  -2   19.46    0.73
  -5   1  -2   22.31    0.71
  -5   1  -2   20.79    0.65
   5   1   2   20.48    0.86
   5   1   2   20.40    0.94
   7  -1   2    2.38    0.50
  -7  -1  -2    2.50    0.14
   7  -1   2    1.74    0.51
   7  -1   2    2.72    0.18
  -7  -1  -2    2.61    0.58
  -7  -1  -2    2.59    0.10
  -7   1  -2    2.18    0.37
  -7   1  -2    2.64    0.59
  -7   1  -2    2.48    0.10
  -7   1  -2    2.33    0.17
   8  -2  -2   26.85    0.75
   8   2  -2   27.24    0.74
   6  -2  -2   49.96    1.89
  -6  -2   2   49.78    1.41
  -6  -2   2   49.35    1.75
   6  -2  -2   52.45    1.40
   6  -2  -2   51.50    1.34
   6  -2  -2   53.68    1.58
  -6   2   2   48.98    1.69
   6   2  -2   52.57    1.32
   6   2  -2   49.20    1.86
   6   2  -2   54.34    1.55
  -6   2   2   49.49    1.40
   6   2  -2   52.58    1.39
   4  -2  -2   34.57    1.04
  -4  -2   2   34.34    1.20
  -4  -2   2   33.05    1.04
  -4  -2   2   33.38    1.07
   4  -2  -2   34.62    0.99
   4  -2  -2   34.39    0.95
  -4  -2   2   34.11    0.95
   4  -2  -2   33.89    1.15
  -4  -2   2   33.42    0.96
   4  -2  -2   35.72    1.15
  -4  -2   2   33.40    0.90
   4  -2  -2   35.49    0.99
  -4   2   2   32.41    1.05
   4   2  -2   34.30    1.15
  -4   2   2   31.77    0.98
   4   2  -2   34.87    1.01
   4   2  -2   33.31    1.03
  -4   2   2   34.09    1.12
  -4   2   2   31.87    1.07
   4   2  -2   35.03    1.03
   4   2  -2   34.71    0.96
   4   2  -2   34.15    1.13
  -4   2   2   33.47    0.94
  -4   2   2   33.56    0.89
  -2  -2   2   23.32    0.87
   2  -2  -2   25.94    0.78
  -2  -2   2   25.28    0.71
  -2  -2   2   25.80    0.80
   2  -2  -2   24.29    0.74
   2  -2  -2   23.16    0.72
   2  -2  -2   25.50    0.73
  -2  -2   2   25.30    0.67
  -2   2   2   25.34    0.76
   2   2  -2   25.52    0.78
   2   2  -2   25.44    0.71
   2   2  -2   25.89    0.75
  -2   2   2   25.84    0.76
   2   2  -2   28.02    0.71
  -2   2   2   25.37    0.66
   2   2  -2   25.52    0.81
  -2   2   2   25.68    0.72
  -2   2   2   25.66    0.74
  -2   2   2   24.14    0.69
   0  -2   2   10.37    0.36
   0  -2   2   10.33    0.37
   0  -2  -2   10.06    0.36
   0  -2   2   10.11    0.29
   0  -2  -2    9.49    0.34
   0  -2  -2    9.90    0.40
   0  -2  -2    9.93    0.35
   0  -2   2   10.23    0.33
   0  -2   2    9.98    0.33
   0  -2  -2    9.60    0.35
   0  -2  -2    9.69    0.27
   0   2  -2    9.75    0.37
   0   2   2   10.87    0.36
   0   2  -2    9.99    0.36
   0   2   2   11.91    0.47
   0   2  -2   10.05    0.38
   0   2   2   10.00    0.41
   0   2  -2    9.75    0.41
   0   2  -2    9.65    0.37
   0   2  -2    9.63    0.36
   0   2   2    9.08    0.36
   0   2  -2    9.99    0.31
   0   2  -2    9.49    0.34
   0   2   2    9.87    0.28
   0   2   2   10.27    0.33
   0   2  -2    9.78    0.35
   0   2  -2    9.99    0.31
   2  -2   2    7.01    0.41
  -2  -2  -2    7.00    0.30
  -2  -2  -2    7.02    0.31
  -2  -2  -2    6.97    0.30
   2  -2   2    7.62    0.37
   2  -2   2    7.14    0.30
   2  -2   2    7.03    0.24
   2  -2   2    7.37    0.32
  -2  -2  -2    7.41    0.37
  -2  -2  -2    7.09    0.23
  -2  -2  -2    7.09    0.36
  -2  -2  -2    7.18    0.35
  -2  -2  -2    7.53    0.37
  -2   2  -2    7.03    0.34
   2   2   2    7.39    0.38
   2   2   2    7.15    0.32
  -2   2  -2    7.31    0.36
  -2   2  -2    6.77    0.35
   2   2   2    7.34    0.24
  -2   2  -2    7.35    0.29
  -2   2  -2    7.02    0.41
   2   2   2    7.45    0.34
  -2   2  -2    7.37    0.33
  -2   2  -2    7.22    0.26
   4  -2   2   20.28    0.94
  -4  -2  -2   18.90    0.79
   4  -2   2   21.38    0.75
   4  -2   2   20.38    0.79
   4  -2   2   21.90    0.72
   4  -2   2   20.87    0.61
   4  -2   2   20.07    0.79
  -4  -2  -2   20.01    0.88
  -4  -2  -2   20.60    0.75
  -4  -2  -2   20.41    0.69
  -4  -2  -2   20.32    0.70
  -4  -2  -2   20.49    0.77
  -4  -2  -2   20.82    0.60
  -4   2  -2   20.00    0.74
  -4   2  -2   20.97    0.75
   4   2   2   20.77    0.76
   4   2   2   20.35    0.84
  -4   2  -2   19.98    0.86
  -4   2  -2   21.26    0.66
  -4   2  -2   20.07    0.63
   4   2   2   21.41    0.97
  -4   2  -2   20.41    0.76
  -4   2  -2   20.37    0.62
   4   2   2   21.09    0.62
  -4   2  -2   20.13    0.90
   6  -2   2   28.28    0.95
  -6  -2  -2   26.33    0.73
   6  -2   2   28.33    0.81
  -6  -2  -2   27.14    0.70
  -6  -2  -2   27.72    0.92
   6  -2   2   28.48    1.02
  -6   2  -2   27.12    0.76
   6   2   2   28.51    1.02
  -6   2  -2   26.28    0.87
  -6   2  -2   28.23    1.01
  -6   2  -2   26.65    0.71
   7  -3  -2   43.88    1.15
   7  -3  -2   42.68    1.09
   7  -3  -2   42.60    1.39
  -7   3   2   38.72    1.16
   5  -3  -2   39.25    1.26
   5  -3  -2   41.83    1.58
   5  -3  -2   41.20    1.15
   5  -3  -2   43.96    1.30
  -5  -3   2   40.00    1.22
   5  -3  -2   41.54    1.30
   5  -3  -2   42.57    1.21
   5  -3  -2   43.32    1.23
   5  -3  -2   40.24    1.09
  -5  -3   2   40.05    1.18
  -5  -3   2   38.41    1.43
   5   3  -2   41.36    1.31
  -5   3   2   40.75    1.16
  -5   3   2   39.74    1.43
  -5   3   2   42.30    1.29
   5   3  -2   41.34    1.26
   5   3  -2   41.96    1.07
  -5   3   2   41.01    1.12
   5   3  -2   40.43    1.12
  -5   3   2   40.79    1.54
   5   3  -2   43.78    1.31
  -3  -3   2   62.98    1.79
  -3  -3   2   64.49    1.71
  -3  -3   2   67.04    1.93
   3  -3  -2   64.14    1.71
  -3  -3   2   63.61    1.64
   3  -3  -2   63.15    1.73
   3  -3  -2   64.31    1.84
   3  -3  -2   60.67    1.89
  -3  -3   2   63.85    1.78
   3  -3  -2   63.90    1.67
   3  -3  -2   64.74    1.82
   3   3  -2   65.30    1.86
  -3   3   2   61.82    1.67
   3   3  -2   63.48    1.83
   3   3  -2   62.57    1.73
  -3   3   2   61.65    1.81
  -3   3   2   64.87    1.84
   3   3  -2   62.70    1.77
   3   3  -2   64.41    1.67
  -3   3   2   61.46    1.72
   3   3  -2   65.35    1.69
  -3   3   2   61.49    1.75
   3   3  -2   63.01    1.73
  -3   3   2   62.89    1.63
  -1  -3   2   64.46    1.83
   1  -3  -2   62.84    1.70
   1  -3  -2   61.51    1.61
  -1  -3   2   66.08    1.72
  -1  -3   2   65.89    1.77
  -1  -3   2   66.12    1.68
   1  -3  -2   64.46    1.70
  -1  -3   2   66.67    1.70
   1  -3  -2   64.96    1.70
   1   3  -2   63.40    1.69
  -1   3   2   65.93    1.74
   1   3  -2   64.55    1.63
  -1   3   2   66.30    1.79
   1   3  -2   63.71    1.74
   1   3  -2   61.47    1.68
   1   3  -2   63.66    1.71
   1   3  -2   56.34    1.71
   1   3  -2   64.10    1.71
   1   3  -2   64.31    1.76
   1   3  -2   63.48    1.64
  -1   3   2   63.72    1.67
  -1   3   2   65.34    1.80
  -1  -3  -2   20.60    0.67
   1  -3   2   21.20    0.74
   1  -3   2   21.02    0.64
   1  -3   2   21.16    0.57
   1  -3   2   20.27    0.67
  -1  -3  -2   19.46    0.63
   1  -3   2   20.07    0.75
  -1  -3  -2   20.20    0.62
  -1  -3  -2   20.05    0.55
   1  -3   2   20.08    0.63
  -1  -3  -2   19.37    0.68
  -1  -3  -2   20.48    0.70
  -1  -3  -2   19.74    0.62
   1   3   2   21.09    0.69
  -1   3  -2   19.51    0.66
  -1   3  -2   20.94    0.59
   1   3   2   21.09    0.72
  -1   3  -2   20.54    0.70
  -1   3  -2   20.57    0.74
  -1   3  -2   19.80    0.58
   1   3   2   20.52    0.67
   1   3   2   20.73    0.64
  -1   3  -2   19.46    0.68
  -1   3  -2   20.29    0.65
  -1   3  -2   19.98    0.67
   1   3   2   20.56    0.57
  -1   3  -2   18.88    0.57
  -1   3  -2   20.24    0.67
  -3  -3  -2    4.33    0.20
   3  -3   2    4.37    0.39
  -3  -3  -2    4.62    0.49
  -3  -3  -2    4.19    0.49
  -3  -3  -2    4.20    0.31
   3  -3   2    4.14    0.56
   3  -3   2    4.20    0.27
  -3  -3  -2    4.19    0.38
  -3  -3  -2    4.43    0.37
   3  -3   2    3.87    0.32
  -3  -3  -2    4.06    0.29
   3  -3   2    4.34    0.22
   3  -3   2    4.22    0.34
  -3   3  -2    3.36    0.57
   3   3   2    4.58    0.34
   3   3   2    3.85    0.39
  -3   3  -2    3.96    0.39
  -3   3  -2    4.43    0.34
  -3   3  -2    4.34    0.24
   3   3   2    4.71    0.54
   3   3   2    4.48    0.38
  -3   3  -2    4.17    0.26
  -3   3  -2    4.89    0.50
   3   3   2    4.16    0.22
  -3   3  -2    4.22    0.26
  -3   3  -2    4.03    0.42
  -3   3  -2    4.29    0.55
  -5  -3  -2    2.71    0.28
  -5  -3  -2    2.03    0.42
  -5  -3  -2    2.41    0.53
  -5  -3  -2    2.37    0.12
  -5  -3  -2    2.50    0.16
   5  -3   2    2.22    0.40
   5  -3   2    2.34    0.32
  -5  -3  -2    2.08    0.34
  -5   3  -2    2.42    0.29
  -5   3  -2    2.28    0.20
  -5   3  -2    2.44    0.43
   5   3   2    2.23    0.32
  -5   3  -2    2.53    0.21
   5   3   2    2.17    0.36
  -5   3  -2    2.55    0.13
   7  -3   2   14.67    0.44
  -7  -3  -2   13.70    0.36
  -7   3  -2   13.90    0.40
  -6  -4   2   33.88    1.10
   6  -4  -2   33.79    0.88
   6  -4  -2   32.69    1.03
   6   4  -2   34.68    0.92
  -6   4   2   32.43    0.90
   6   4  -2   35.76    1.20
  -4  -4   2   12.44    0.52
   4  -4  -2   12.42    0.53
   4  -4  -2   12.17    0.51
   4  -4  -2   10.99    0.63
   4  -4  -2   12.16    0.55
  -4  -4   2   12.00    0.81
   4   4  -2   12.55    0.40
   4   4  -2   12.04    0.34
   4   4  -2   12.16    0.58
  -4   4   2   11.86    0.58
  -4   4   2   11.72    0.45
   4   4  -2   12.06    0.66
  -4   4   2   11.59    0.89
   4   4  -2   11.71    0.56
   2  -4  -2   10.14    0.63
   2  -4  -2   11.63    0.47
  -2  -4   2   10.74    0.56
   2  -4  -2   11.69    0.52
   2  -4  -2   11.35    0.39
  -2  -4   2   10.82    0.39
  -2  -4   2   10.10    0.41
  -2   4   2   10.68    0.63
   2   4  -2   11.01    0.45
   2   4  -2   11.45    0.50
  -2   4   2   11.21    0.59
  -2   4   2   11.11    0.36
   2   4  -2   12.13    0.52
  -2   4   2   10.96    0.45
   0  -4   2    3.58    0.30
   0  -4  -2    3.50    0.34
   0  -4  -2    3.20    0.37
   0  -4   2    3.39    0.56
   0  -4   2    3.23    0.21
   0  -4  -2    3.01    0.27
   0  -4   2    3.40    0.36
   0  -4  -2    3.43    0.18
   0  -4   2    3.34    0.24
   0  -4   2    3.38    0.21
   0  -4   2    2.62    0.47
   0   4  -2    3.62    0.33
   0   4   2    3.12    0.23
   0   4  -2    3.12    0.39
   0   4  -2    3.54    0.25
   0   4   2    2.61    0.44
   0   4   2    3.10    0.35
   0   4  -2    2.72    0.35
   0   4   2    3.35    0.40
   0   4  -2    3.24    0.24
   0   4  -2    3.38    0.51
   0   4  -2    3.71    0.34
   0   4  -2    3.65    0.49
   0   4   2    3.26    0.18
   0   4  -2    3.31    0.30
   2  -4   2   14.78    0.70
  -2  -4  -2   14.26    0.84
  -2  -4  -2   15.26    0.56
   2  -4   2   15.69    0.52
  -2  -4  -2   15.06    0.57
   2  -4   2   15.92    0.62
  -2  -4  -2   15.64    0.47
   2  -4   2   15.96    0.57
   2  -4   2   16.04    0.88
   2  -4   2   15.67    0.54
   2  -4   2   16.22    0.63
  -2  -4  -2   14.80    0.74
  -2  -4  -2   15.76    0.64
   2   4   2   16.41    0.51
   2   4   2   19.24    0.96
  -2   4  -2   12.80    0.66
  -2   4  -2   15.40    0.54
  -2   4  -2   14.93    0.87
   2   4   2   16.15    1.16
  -2   4  -2   15.50    0.51
  -2   4  -2   15.31    0.68
  -2   4  -2   15.13    0.63
   2   4   2   16.11    0.64
   4  -4   2   23.26    0.79
  -4  -4  -2   21.18    0.79
  -4  -4  -2   21.88    0.62
   4  -4   2   22.59    0.85
  -4  -4  -2   21.68    0.80
  -4  -4  -2   21.10    0.58
  -4  -4  -2   22.17    0.91
  -4  -4  -2   22.22    0.61
  -4  -4  -2   22.09    0.69
   4   4   2   23.54    0.74
  -4   4  -2   21.63    0.59
   4   4   2   22.57    0.87
  -4   4  -2   22.40    0.86
  -4   4  -2   21.68    0.65
  -4   4  -2   21.53    0.72
  -4   4  -2   21.94    0.64
   6  -4   2   21.21    1.07
   6  -4   2   23.17    0.88
  -6  -4  -2   17.78    0.80
   6  -4   2   20.55    0.60
  -6  -4  -2   18.73    0.47
   6   4   2   18.63    0.84
  -6   4  -2   19.26    0.53
  -6   4  -2   17.20    0.96
   7   5  -2    8.20    0.25
   5  -5  -2   24.99    0.67
   5  -5  -2   25.02    0.81
   5  -5  -2   25.29    0.92
  -5  -5   2   25.01    0.88
  -5   5   2   23.78    0.98
   5   5  -2   25.81    0.97
   5   5  -2   25.33    0.70
  -5   5   2   24.93    0.69
   3  -5  -2    3.83    0.37
   3  -5  -2    3.09    0.16
   3  -5  -2    4.20    0.36
  -3  -5   2    3.48    0.32
   3  -5  -2    3.69    0.39
   3  -5  -2    3.28    0.22
  -3   5   2    3.70    0.39
   3   5  -2    2.95    0.38
   3   5  -2    3.65    0.14
   3   5  -2    3.15    0.20
   3   5  -2    3.63    0.33
  -3   5   2    3.40    0.32
   1  -5  -2    0.71    0.23
   1  -5  -2    0.64    0.16
   1  -5  -2    0.38    0.43
  -1  -5   2    0.91    0.34
   1  -5  -2    0.85    0.27
   1  -5  -2    0.55    0.11
   1  -5  -2    0.82    0.36
   1  -5  -2    0.74    0.14
  -1  -5   2    0.68    0.23
  -1   5   2    0.58    0.34
   1   5  -2    0.35    0.16
   1   5  -2    0.68    0.11
   1   5  -2    0.68    0.31
  -1   5   2    0.91    0.20
  -1   5   2    0.04    0.42
   1   5  -2    0.51    0.13
   1   5  -2    0.57    0.30
  -1   5   2    0.72    0.24
   1  -5   2    3.98    0.32
  -1  -5  -2    3.98    0.17
  -1  -5  -2    3.96    0.68
   1  -5   2    3.58    0.29
   1  -5   2    3.81    0.31
  -1  -5  -2    3.86    0.20
   1  -5   2    2.68    0.54
   1  -5   2    4.00    0.67
  -1  -5  -2    2.97    0.51
  -1  -5  -2    4.00    0.26
  -1  -5  -2    3.47    0.72
  -1  -5  -2    3.84    0.38
   1   5   2    2.06    0.85
   1   5   2    3.89    0.29
  -1   5  -2    3.58    0.45
   1   5   2    3.88    0.46
  -1   5  -2    3.96    0.16
  -1   5  -2    3.49    0.28
  -1   5  -2    3.38    0.44
   1   5   2    3.27    0.59
  -1   5  -2    3.59    0.29
  -3  -5  -2   23.64    0.98
   3  -5   2   23.93    0.92
  -3  -5  -2   23.77    0.68
   3  -5   2   24.58    0.95
   3  -5   2   25.56    0.85
  -3  -5  -2   23.15    0.63
  -3  -5  -2   24.16    0.76
  -3  -5  -2   23.70    0.86
   3   5   2   24.76    0.84
   3   5   2   25.02    0.75
   3   5   2   24.78    0.93
  -3   5  -2   25.24    0.93
  -3   5  -2   23.15    0.78
  -3   5  -2   23.21    0.70
  -3   5  -2   24.43    0.63
  -3   5  -2   24.85    0.73
   3   5   2   26.62    0.80
   5  -5   2   14.85    0.62
  -5  -5  -2   15.97    0.41
  -5  -5  -2   14.45    0.68
   5   5   2   15.83    0.44
  -5   5  -2   15.82    0.78
  -5   5  -2   16.19    0.47
   5   5   2   15.25    0.70
  -4  -6   2    5.69    0.31
   4  -6  -2    5.48    0.32
   4  -6  -2    5.39    0.18
  -4  -6   2    5.24    0.44
   4  -6  -2    5.26    0.49
  -4   6   2    5.24    0.22
   4   6  -2    5.60    0.22
  -4   6   2    4.75    0.57
   4   6  -2    5.97    0.54
   2  -6  -2    9.61    0.43
   2  -6  -2    9.56    0.28
  -2  -6   2   10.38    0.41
   2  -6  -2    9.28    0.33
   2   6  -2    9.34    0.26
   2   6  -2    9.61    0.33
   0  -6   2    7.34    0.47
   0  -6  -2    8.46    0.26
   0  -6  -2    8.71    0.56
   0  -6  -2    8.61    0.43
   0  -6   2    8.26    0.36
   0  -6  -2    8.62    0.30
   0   6   2    8.84    0.48
   0   6  -2    8.47    0.25
   0   6  -2    7.65    0.62
   0   6  -2    8.68    0.32
  -2  -6  -2   14.04    0.41
   2  -6   2   13.09    0.62
  -2  -6  -2   14.19    0.80
   2  -6   2   13.60    0.49
  -2  -6  -2   13.54    0.37
   2   6   2   13.56    0.48
  -2   6  -2   12.32    0.69
  -2   6  -2   14.09    0.43
   2   6   2   12.75    0.59
  -2   6  -2   13.48    0.36
  -4  -6  -2   18.08    0.47
   4   6   2   18.49    0.51
  -4   6  -2   18.24    0.51
   3  -7  -2    7.98    0.33
  -3  -7   2    8.55    0.32
   3  -7  -2    7.87    0.21
  -3   7   2    8.25    0.27
   3   7  -2    8.07    0.26
   1  -7  -2    4.94    0.17
  -1  -7   2    5.02    0.25
   1   7  -2    5.37    0.21
  -1  -7  -2    1.87    0.09
   1  -7   2    1.98    0.19
  -1  -7  -2    2.10    0.14
   3  -7   2    2.25    0.38
  -3   7  -2    1.99    0.12
   8   0  -3   11.04    0.36
   8   0  -3   10.80    0.29
   8   0  -3   10.25    0.64
  -6   0   3  113.45    3.30
   6   0  -3  114.12    2.86
  -6   0   3  115.86    3.04
   6   0  -3  115.04    3.08
   6   0  -3  112.78    2.91
   6   0  -3  116.90    2.96
  -6   0   3  118.98    2.98
   6   0  -3  110.12    3.31
   4   0  -3   19.17    0.65
  -4   0   3   18.38    0.71
   4   0  -3   19.24    0.56
  -4   0   3   19.09    0.59
   4   0  -3   19.09    0.70
  -4   0   3   18.21    0.52
  -4   0   3   19.27    0.72
   4   0  -3   18.54    0.75
   2   0  -3    1.71    0.19
  -2   0   3    2.37    0.17
   2   0  -3    1.73    0.16
  -2   0   3    1.93    0.20
   2   0  -3    1.98    0.17
   2   0  -3    1.85    0.15
  -2   0   3    2.04    0.15
   0   0  -3   54.55    1.49
   0   0  -3   53.05    1.46
   0   0  -3   54.64    1.49
   0   0  -3   57.47    1.48
   0   0  -3   56.16    1.45
   0   0  -3   54.99    1.53
   0   0  -3   56.55    1.47
   0   0  -3   57.05    1.49
   0   0  -3   58.01    1.44
   0   0  -3   53.98    1.51
   0   0  -3   54.90    1.50
   0   0  -3   57.18    1.48
  -2   0  -3  145.58    3.85
  -2   0  -3  152.97    3.88
  -2   0  -3  151.92    3.78
   2   0   3  157.11    4.05
  -2   0  -3  146.54    3.85
   2   0   3  158.62    4.00
  -2   0  -3  150.50    3.82
  -2   0  -3  145.67    3.90
  -2   0  -3  154.80    3.87
   2   0   3  153.32    4.01
  -2   0  -3  148.73    3.88
   2   0   3  153.16    3.87
  -2   0  -3  151.25    3.83
  -2   0  -3  155.26    3.93
   4   0   3   17.27    1.22
  -4   0  -3   22.16    0.66
  -4   0  -3   25.07    1.10
   4   0   3   21.64    0.85
   4   0   3   22.65    0.76
  -4   0  -3   22.57    0.79
   4   0   3   21.64    0.91
  -4   0  -3   22.31    0.88
  -4   0  -3   22.93    0.71
  -4   0  -3   22.68    0.95
  -4   0  -3   21.97    0.82
  -4   0  -3   21.69    0.78
   4   0   3   21.15    0.82
  -4   0  -3   22.00    0.84
  -6   0  -3   10.08    0.33
  -6   0  -3    9.73    0.61
  -6   0  -3    9.96    0.53
  -6   0  -3    9.81    0.29
   6   0   3   10.91    0.59
  -6   0  -3   10.06    0.51
   6   0   3   10.12    0.38
   6   0   3   10.25    0.49
   6   0   3   10.43    0.66
  -6   0  -3    9.42    0.32
  -6   0  -3    9.39    0.46
   6   0   3   10.33    0.66
  -7  -1   3   44.90    1.33
   7  -1  -3   49.58    1.27
   7  -1  -3   49.23    1.32
   7   1  -3   49.91    1.53
   7   1  -3   49.82    1.26
   7   1  -3   48.52    1.32
  -7   1   3   46.12    1.33
   5  -1  -3    3.48    0.23
  -5  -1   3    3.26    0.20
   5  -1  -3    3.66    0.33
   5  -1  -3    2.87    0.76
   5  -1  -3    2.70    0.53
  -5  -1   3    3.41    0.27
  -5  -1   3    3.51    0.58
  -5  -1   3    3.10    0.55
   5   1  -3    3.93    0.53
   5   1  -3    3.60    0.23
   5   1  -3    3.27    0.57
  -5   1   3    3.19    0.25
  -5   1   3    3.88    0.51
   5   1  -3    3.43    0.32
  -5   1   3    3.37    0.19
  -5   1   3    3.71    0.57
  -3  -1   3  128.94    3.49
   3  -1  -3  136.13    3.45
  -3  -1   3  141.93    3.56
   3  -1  -3  141.25    3.63
  -3  -1   3  132.23    3.40
  -3  -1   3  138.81    3.45
   3  -1  -3  140.05    3.49
   3  -1  -3  138.32    3.55
   3  -1  -3  132.45    3.54
  -3  -1   3  137.90    3.54
  -3   1   3  130.60    3.39
  -3   1   3  134.24    3.52
   3   1  -3  135.94    3.63
   3   1  -3  140.78    3.57
  -3   1   3  138.28    3.53
   3   1  -3  139.44    3.46
  -3   1   3  140.15    3.45
   3   1  -3  141.82    3.56
  -3   1   3  135.74    3.47
   3   1  -3  131.56    3.50
   1  -1  -3   87.92    2.23
  -1  -1   3   91.18    2.31
   1  -1  -3   89.63    2.25
   1  -1  -3   89.78    2.20
   1  -1  -3   88.15    2.28
   1  -1  -3   86.23    2.27
   1  -1  -3   85.43    2.25
   1  -1  -3   88.75    2.29
  -1  -1   3   87.66    2.29
   1  -1  -3   86.66    2.20
   1  -1  -3   91.72    2.32
  -1  -1   3   93.23    2.27
  -1  -1   3   87.53    2.35
   1   1  -3   86.86    2.25
   1   1  -3   89.93    2.24
  -1   1   3   88.23    2.31
   1   1  -3   87.32    2.24
   1   1  -3   88.72    2.31
   1   1  -3   89.32    2.27
   1   1  -3   88.98    2.24
  -1   1   3   89.09    2.31
   1   1  -3   82.99    2.43
  -1   1   3   89.90    2.24
  -1   1   3   87.80    2.24
  -1  -1  -3   80.20    2.05
  -1  -1  -3   82.43    2.13
  -1  -1  -3   82.76    2.09
  -1  -1  -3   77.40    2.14
   1  -1   3   83.52    2.17
  -1  -1  -3   78.10    2.11
   1  -1   3   83.22    2.25
  -1  -1  -3   81.74    2.08
  -1  -1  -3   83.24    2.16
   1  -1   3   83.53    2.07
   1  -1   3   81.05    2.16
  -1  -1  -3   82.63    2.05
  -1  -1  -3   76.38    2.09
  -1  -1  -3   80.86    2.14
  -1  -1  -3   80.87    2.08
   1   1   3   82.23    2.16
  -1   1  -3   81.91    2.12
  -1   1  -3   81.62    2.13
   1   1   3   80.54    2.15
  -1   1  -3   77.75    2.08
   1   1   3   84.41    2.18
  -1   1  -3   81.31    2.02
  -1   1  -3   75.25    2.12
   1   1   3   83.73    2.13
  -1   1  -3   82.64    2.12
  -3  -1  -3   23.08    0.83
  -3  -1  -3   21.88    0.84
   3  -1   3   23.53    0.77
  -3  -1  -3   23.64    0.64
  -3  -1  -3   23.08    0.75
   3  -1   3   22.50    0.79
  -3  -1  -3   22.86    0.79
  -3  -1  -3   23.24    0.73
  -3  -1  -3   23.17    0.78
  -3  -1  -3   23.30    0.74
   3  -1   3   23.96    0.84
  -3  -1  -3   22.64    0.78
   3  -1   3   23.56    0.91
  -3   1  -3   23.31    0.69
   3   1   3   22.69    0.86
  -3   1  -3   22.60    0.65
  -3   1  -3   22.53    0.70
   3   1   3   23.91    0.79
   3   1   3   22.89    0.82
   3   1   3   23.05    0.85
   3   1   3   22.68    0.65
  -3   1  -3   21.73    0.78
  -3   1  -3   22.82    0.76
  -3   1  -3   22.62    0.80
  -3   1  -3   22.26    0.87
  -3   1  -3   22.59    0.83
  -3   1  -3   22.29    0.78
  -5  -1  -3   54.57    1.93
  -5  -1  -3   60.15    1.58
  -5  -1  -3   63.05    1.75
  -5  -1  -3   62.22    1.72
   5  -1   3   64.78    1.69
   5  -1   3   64.02    1.83
  -5  -1  -3   61.88    1.57
   5  -1   3   57.13    1.98
   5  -1   3   67.35    2.41
  -5  -1  -3   63.43    1.62
  -5  -1  -3   59.41    2.34
   5  -1   3   65.37    1.86
  -5  -1  -3   61.08    1.57
  -5   1  -3   60.92    1.68
  -5   1  -3   62.41    1.68
  -5   1  -3   62.99    1.59
  -5   1  -3   58.78    1.98
  -5   1  -3   63.00    1.64
  -5   1  -3   56.33    2.01
  -5   1  -3   63.78    1.79
  -5   1  -3   55.79    2.56
  -5   1  -3   59.54    1.59
  -5   1  -3   62.40    1.61
   5   1   3   64.51    1.80
   5   1   3   62.95    1.88
  -5   1  -3   61.83    1.81
  -5   1  -3   60.55    1.56
   7  -1   3    1.68    0.15
  -7  -1  -3    1.49    0.10
  -7  -1  -3    1.56    0.07
  -7  -1  -3    1.43    0.11
  -7   1  -3    1.62    0.11
  -7   1  -3    1.51    0.07
   8  -2  -3    0.12    0.04
   8  -2  -3   -0.02    0.07
   8   2  -3    0.01    0.07
   6  -2  -3  101.08    2.75
   6  -2  -3  104.36    2.60
  -6  -2   3  100.61    2.67
   6  -2  -3  103.99    2.65
   6  -2  -3  105.64    2.72
   6  -2  -3  101.59    2.82
   6   2  -3  104.10    2.65
  -6   2   3  102.04    2.59
   6   2  -3  104.16    2.59
  -6   2   3   98.37    2.65
   6   2  -3  101.59    2.82
   4  -2  -3   68.52    1.87
  -4  -2   3   66.98    1.78
  -4  -2   3   65.48    1.87
  -4  -2   3   65.75    1.71
   4  -2  -3   68.69    1.77
   4  -2  -3   71.71    2.04
   4  -2  -3   67.72    1.99
   4  -2  -3   65.42    1.94
  -4  -2   3   64.37    1.98
  -4  -2   3   65.68    1.93
   4   2  -3   67.46    1.87
   4   2  -3   66.96    1.84
   4   2  -3   69.05    1.88
  -4   2   3   66.79    1.89
   4   2  -3   65.30    2.00
   4   2  -3   67.33    1.96
   4   2  -3   66.96    1.82
  -4   2   3   67.16    1.70
  -4   2   3   67.36    1.97
  -4   2   3   66.18    1.92
   4   2  -3   67.78    1.77
  -4   2   3   64.63    1.75
  -2  -2   3   47.70    1.33
  -2  -2   3   47.68    1.37
   2  -2  -3   47.61    1.35
   2  -2  -3   48.29    1.31
  -2  -2   3   47.66    1.23
  -2  -2   3   48.21    1.28
   2  -2  -3   44.49    1.38
   2  -2  -3   47.62    1.30
   2  -2  -3   51.31    1.27
   2   2  -3   46.44    1.34
   2   2  -3   47.77    1.27
   2   2  -3   47.75    1.32
  -2   2   3   46.55    1.27
  -2   2   3   48.40    1.33
   2   2  -3   47.73    1.41
   2   2  -3   47.89    1.24
  -2   2   3   48.86    1.34
   2   2  -3   47.77    1.31
  -2   2   3   48.55    1.32
   2   2  -3   46.33    1.33
  -2   2   3   46.97    1.21
   2   2  -3   47.73    1.36
  -2   2   3   47.54    1.31
   0  -2  -3   17.71    0.46
   0  -2   3   16.67    0.54
   0  -2  -3   17.36    0.55
   0  -2   3   17.43    0.47
   0  -2  -3   17.85    0.56
   0  -2   3   18.02    0.58
   0  -2   3   17.90    0.54
   0  -2  -3   16.84    0.51
   0  -2  -3   17.47    0.60
   0  -2   3   18.02    0.58
   0  -2  -3   17.62    0.61
   0  -2  -3   17.38    0.59
   0   2  -3   17.00    0.61
   0   2   3   17.32    0.58
   0   2  -3   17.20    0.50
   0   2  -3   17.91    0.61
   0   2  -3   17.61    0.59
   0   2   3   17.81    0.54
   0   2   3   16.68    0.45
   0   2  -3   20.67    0.61
   0   2  -3   18.07    0.63
   0   2  -3   17.67    0.52
   0   2   3   17.43    0.54
   0   2  -3   18.51    0.54
   0   2  -3   18.52    0.57
   0   2  -3   17.45    0.58
   2  -2   3  138.83    3.60
  -2  -2  -3  136.28    3.65
  -2  -2  -3  133.24    3.63
  -2  -2  -3  140.34    3.56
   2  -2   3  142.45    3.85
  -2  -2  -3  135.63    3.57
  -2  -2  -3  140.40    3.58
  -2  -2  -3  136.32    3.48
  -2  -2  -3  134.62    3.65
   2  -2   3  143.88    3.71
   2  -2   3  147.70    3.77
  -2  -2  -3  142.85    3.66
   2  -2   3  143.37    3.72
   2   2   3  149.62    3.71
  -2   2  -3  140.84    3.63
   2   2   3  143.33    3.76
  -2   2  -3  140.00    3.61
  -2   2  -3  138.60    3.64
   2   2   3  140.20    3.60
  -2   2  -3  142.39    3.71
  -2   2  -3  136.95    3.50
  -2   2  -3  142.69    3.54
  -2   2  -3  140.63    3.53
  -2   2  -3  138.66    3.66
  -2   2  -3  139.45    3.61
   4  -2   3   36.05    1.46
  -4  -2  -3   36.88    1.37
   4  -2   3   37.76    1.03
  -4  -2  -3   36.87    0.99
  -4  -2  -3   37.10    1.30
   4  -2   3   37.61    1.22
  -4  -2  -3   38.23    1.01
  -4  -2  -3   37.94    1.22
   4  -2   3   38.99    1.16
  -4  -2  -3   38.31    1.14
  -4  -2  -3   37.74    1.14
   4  -2   3   37.26    1.42
   4  -2   3   38.79    1.20
   4  -2   3   38.02    1.29
  -4  -2  -3   38.48    1.03
  -4  -2  -3   37.59    1.21
  -4   2  -3   37.12    1.35
  -4   2  -3   38.84    1.24
  -4   2  -3   36.24    1.42
   4   2   3   37.69    1.36
   4   2   3   38.19    1.24
  -4   2  -3   35.48    1.04
  -4   2  -3   39.67    1.10
   4   2   3   38.77    1.05
  -4   2  -3   38.32    1.08
  -4   2  -3   37.51    1.06
  -4   2  -3   36.94    1.20
   4   2   3   36.22    1.41
  -4   2  -3   34.79    1.02
  -4   2  -3   36.59    1.33
   4   2   3   38.48    1.22
  -6  -2  -3    9.20    0.30
  -6  -2  -3    8.75    0.29
  -6  -2  -3    9.48    0.59
  -6  -2  -3    9.66    0.52
   6  -2   3    9.91    0.61
   6  -2   3    9.70    0.52
   6  -2   3    9.57    0.35
  -6  -2  -3    9.16    0.26
  -6   2  -3    8.86    0.27
  -6   2  -3    9.10    0.31
   6   2   3    9.25    0.58
   6   2   3   11.69    0.70
  -6   2  -3    9.55    0.62
  -6   2  -3    9.35    0.46
   7  -3  -3   23.56    0.65
   7  -3  -3   21.07    0.94
   7  -3  -3   22.88    0.60
  -7   3   3   20.26    0.75
   7   3  -3   22.97    0.64
   7   3  -3   23.05    0.58
  -5  -3   3    5.07    0.39
  -5  -3   3    5.64    0.37
  -5  -3   3    3.59    0.88
   5  -3  -3    5.31    0.25
  -5  -3   3    5.38    0.47
   5  -3  -3    5.47    0.34
   5  -3  -3    5.94    0.95
   5  -3  -3    5.27    0.50
   5  -3  -3    5.17    0.42
  -5  -3   3    4.72    0.76
   5   3  -3    4.71    0.64
  -5   3   3    5.51    0.29
   5   3  -3    5.13    0.44
   5   3  -3    5.25    0.20
   5   3  -3    4.91    0.31
   5   3  -3    6.05    0.28
   5   3  -3    4.94    0.42
   5   3  -3    5.76    0.42
   5   3  -3    4.29    0.88
  -5   3   3    4.58    0.85
   5   3  -3    5.40    0.46
  -5   3   3    5.04    0.35
   3  -3  -3   84.22    2.19
  -3  -3   3   82.05    2.43
  -3  -3   3   86.03    2.23
  -3  -3   3   84.61    2.36
  -3  -3   3   84.37    2.32
   3  -3  -3   83.17    2.29
   3  -3  -3   82.30    2.35
   3  -3  -3   84.39    2.27
  -3  -3   3   85.47    2.16
   3   3  -3   86.40    2.29
  -3   3   3   83.19    2.15
   3   3  -3   84.55    2.42
   3   3  -3   86.19    2.20
   3   3  -3   85.63    2.23
  -3   3   3   83.67    2.25
   3   3  -3   85.02    2.33
   3   3  -3   86.50    2.39
   3   3  -3   85.51    2.29
  -3   3   3   84.14    2.35
  -3   3   3   84.09    2.35
  -1  -3   3  126.26    3.25
   1  -3  -3  122.47    3.20
   1  -3  -3  118.65    3.19
  -1  -3   3  123.82    3.18
   1  -3  -3  125.29    3.24
   1  -3  -3  121.30    3.10
  -1  -3   3  128.16    3.39
  -1  -3   3  119.72    3.12
   1  -3  -3  125.93    3.24
   1   3  -3  124.83    3.22
   1   3  -3  122.69    3.25
   1   3  -3  123.81    3.33
   1   3  -3  122.73    3.27
   1   3  -3  125.80    3.15
  -1   3   3  124.37    3.27
  -1   3   3  121.68    3.11
   1   3  -3  125.61    3.25
   1   3  -3  126.77    3.23
  -1   3   3  124.57    3.25
   1   3  -3  121.74    3.13
  -1  -3  -3    4.54    0.18
   1  -3   3    4.59    0.41
  -1  -3  -3    4.92    0.29
   1  -3   3    4.23    0.46
   1  -3   3    4.84    0.26
  -1  -3  -3    4.74    0.33
   1  -3   3    4.53    0.19
  -1  -3  -3    4.33    0.42
  -1  -3  -3    4.40    0.29
  -1  -3  -3    5.38    0.42
   1  -3   3    4.95    0.35
   1  -3   3    4.93    0.31
  -1  -3  -3    4.47    0.27
   1   3   3    4.30    0.36
   1   3   3    4.96    0.19
  -1   3  -3    4.43    0.24
  -1   3  -3    4.33    0.37
  -1   3  -3    4.44    0.38
  -1   3  -3    4.38    0.39
   1   3   3    5.18    0.33
  -1   3  -3    4.54    0.51
   1   3   3    4.61    0.35
  -1   3  -3    4.40    0.32
  -1   3  -3    4.75    0.22
  -1   3  -3    4.89    0.35
   1   3   3    4.77    0.33
  -1   3  -3    4.86    0.35
  -1   3  -3    4.45    0.22
  -3  -3  -3   13.90    0.54
   3  -3   3   12.33    0.88
  -3  -3  -3   13.27    0.64
   3  -3   3   14.08    0.86
   3  -3   3   14.11    0.54
  -3  -3  -3   13.24    0.42
  -3  -3  -3   13.06    0.62
  -3  -3  -3   13.05    0.43
   3  -3   3   14.01    0.69
   3  -3   3   12.87    0.62
  -3  -3  -3   13.85    0.43
  -3  -3  -3   11.59    0.78
   3  -3   3   13.72    0.44
  -3  -3  -3   13.83    0.55
   3  -3   3   13.37    0.58
  -3  -3  -3   13.63    0.80
   3   3   3   13.30    0.69
   3   3   3   13.91    0.66
  -3   3  -3   14.02    0.60
   3   3   3   13.80    0.45
  -3   3  -3   13.62    0.90
  -3   3  -3   14.34    0.76
   3   3   3   13.37    0.82
  -3   3  -3   12.74    0.45
   3   3   3   13.96    0.61
  -3   3  -3   14.85    0.74
  -3   3  -3   12.75    0.82
  -3   3  -3   14.09    0.47
  -3   3  -3   12.84    0.47
  -3   3  -3   13.75    0.48
  -3   3  -3   13.65    0.70
  -3   3  -3   13.23    0.50
  -5  -3  -3   44.08    1.37
  -5  -3  -3   43.75    1.54
   5  -3   3   49.14    1.76
  -5  -3  -3   47.47    1.52
  -5  -3  -3   45.95    1.17
  -5  -3  -3   44.81    1.14
  -5  -3  -3   44.88    1.17
   5   3   3   47.11    1.83
  -5   3  -3   45.07    1.21
  -5   3  -3   44.88    1.15
  -5   3  -3   43.50    1.65
  -5   3  -3   44.72    1.19
   5   3   3   44.26    1.31
   7  -3   3    9.11    0.28
  -7  -3  -3    8.78    0.23
  -7   3  -3    9.31    0.27
   6  -4  -3   58.27    1.63
  -6  -4   3   52.59    1.57
   6  -4  -3   57.05    1.50
   6   4  -3   59.82    1.53
   6   4  -3   61.97    1.83
   6   4  -3   58.80    1.48
   4  -4  -3   13.14    1.18
   4  -4  -3   16.47    0.58
   4  -4  -3   16.50    0.67
  -4  -4   3   16.19    0.61
  -4  -4   3   14.82    0.93
   4  -4  -3   14.54    0.87
   4  -4  -3   16.03    0.51
   4  -4  -3   16.93    0.65
   4  -4  -3   16.32    0.48
   4   4  -3   17.29    0.71
  -4   4   3   14.27    1.05
  -4   4   3   14.28    1.08
  -4   4   3   15.72    0.66
   4   4  -3   16.77    0.60
   4   4  -3   16.71    0.45
  -4   4   3   16.11    0.51
   4   4  -3   15.81    0.86
   4   4  -3   16.25    0.50
   2  -4  -3    6.26    0.56
   2  -4  -3    6.79    0.51
  -2  -4   3    6.67    0.28
  -2  -4   3    6.21    0.36
  -2  -4   3    6.98    0.53
   2   4  -3    6.45    0.49
  -2   4   3    6.47    0.38
  -2   4   3    6.91    0.56
   2   4  -3    6.40    0.33
   2   4  -3    6.53    0.68
   2   4  -3    5.93    0.41
   2   4  -3    6.39    0.35
  -2   4   3    6.11    0.27
  -2   4   3    5.70    0.53
   0  -4   3    2.22    0.39
   0  -4  -3    1.54    0.47
   0  -4   3    1.56    0.58
   0  -4   3    1.69    0.39
   0  -4   3    1.92    0.18
   0  -4  -3    2.07    0.27
   0  -4  -3    2.09    0.34
   0  -4   3    1.95    0.20
   0   4  -3    2.31    0.68
   0   4  -3    1.76    0.22
   0   4  -3    1.46    0.30
   0   4  -3    1.61    0.41
   0   4  -3    1.65    0.32
   0   4  -3    1.97    0.22
   0   4   3    1.98    0.15
   0   4   3    1.71    0.39
   0   4  -3    2.09    0.37
   0   4   3    1.48    0.38
  -2  -4  -3   54.20    1.48
  -2  -4  -3   50.74    1.47
   2  -4   3   52.79    1.57
  -2  -4  -3   51.88    1.57
   2  -4   3   53.70    1.51
   2  -4   3   52.62    1.56
  -2  -4  -3   52.36    1.33
  -2  -4  -3   52.08    1.35
  -2  -4  -3   51.78    1.69
   2  -4   3   50.83    1.88
   2  -4   3   55.04    1.84
  -2  -4  -3   50.22    1.68
   2  -4   3   53.60    1.42
  -2  -4  -3   49.42    1.33
   2  -4   3   52.28    1.65
  -2  -4  -3   51.35    1.56
  -2   4  -3   52.32    1.59
   2   4   3   51.97    1.59
  -2   4  -3   51.39    1.53
  -2   4  -3   48.60    1.35
   2   4   3   53.66    1.66
  -2   4  -3   47.27    1.36
  -2   4  -3   51.94    1.82
  -2   4  -3   51.33    1.41
  -2   4  -3   49.09    1.31
   2   4   3   55.03    1.42
  -2   4  -3   49.35    1.60
  -2   4  -3   51.38    1.64
  -2   4  -3   53.10    1.41
   2   4   3   54.12    1.58
   2   4   3   52.22    1.78
  -2   4  -3   49.28    1.37
  -4  -4  -3   14.81    0.91
  -4  -4  -3   13.69    0.65
  -4  -4  -3   14.31    0.42
  -4  -4  -3   14.28    0.50
   4  -4   3   14.56    0.68
  -4  -4  -3   15.31    0.68
   4  -4   3   14.57    0.60
  -4  -4  -3   14.18    0.39
  -4  -4  -3   13.97    0.42
   4   4   3   14.93    0.68
  -4   4  -3   13.84    0.40
  -4   4  -3   13.88    0.46
  -4   4  -3   13.58    0.45
   4   4   3   14.04    0.68
  -4   4  -3   14.54    0.55
  -4   4  -3   13.90    0.69
   6  -4   3    3.47    0.16
  -6  -4  -3    3.13    0.09
  -6   4  -3    2.85    0.09
  -6   4  -3    2.72    0.13
   5  -5  -3    2.72    0.13
  -5  -5   3    2.32    0.38
   5  -5  -3    2.84    0.28
  -5   5   3    2.77    0.64
   5   5  -3    2.60    0.17
  -5   5   3    2.58    0.18
   5   5  -3    2.90    0.27
   5   5  -3    2.68    0.11
   5   5  -3    3.08    0.49
   3  -5  -3   37.99    1.23
  -3  -5   3   37.75    1.16
   3  -5  -3   38.18    1.12
   3   5  -3   38.85    1.28
  -3   5   3   37.75    1.22
  -3   5   3   38.44    1.08
   1  -5  -3    3.88    0.26
   1  -5  -3    4.24    0.39
   1  -5  -3    4.05    0.20
  -1  -5   3    3.97    0.30
   1  -5  -3    4.17    0.75
   1  -5  -3    4.38    0.75
   1  -5  -3    3.19    0.40
  -1  -5   3    3.01    0.69
   1   5  -3    4.04    0.23
  -1   5   3    4.23    0.34
   1   5  -3    3.72    0.45
   1   5  -3    3.51    0.67
  -1   5   3    2.98    0.74
  -1   5   3    4.15    0.25
   1   5  -3    3.95    0.31
   1   5  -3    3.90    0.17
  -1   5   3    4.26    0.70
  -1  -5  -3   32.11    1.13
  -1  -5  -3   31.90    0.93
   1  -5   3   31.30    1.02
   1  -5   3   32.22    0.98
   1  -5   3   31.38    1.08
   1  -5   3   32.74    0.96
  -1  -5  -3   32.29    0.88
  -1   5  -3   32.13    1.16
  -1   5  -3   32.04    0.98
  -1   5  -3   31.65    0.91
   1   5   3   32.53    0.92
  -1   5  -3   32.37    0.86
  -1   5  -3   36.48    0.99
  -1   5  -3   33.49    1.23
   1   5   3   32.52    1.01
  -3  -5  -3    8.23    0.54
  -3  -5  -3    8.06    0.24
   3  -5   3    8.25    0.58
   3  -5   3    8.11    0.46
  -3  -5  -3    8.29    0.28
  -3  -5  -3    8.37    0.68
   3   5   3    8.48    0.43
  -3   5  -3    7.54    0.44
  -3   5  -3    8.55    0.57
  -3   5  -3    8.35    0.31
   3   5   3    8.40    0.58
  -3   5  -3    8.01    0.25
  -3   5  -3    8.17    0.32
  -5  -5  -3   28.20    0.72
   5  -5   3   29.43    0.77
   5   5   3   28.32    0.76
  -5   5  -3   28.64    0.76
   4  -6  -3    2.92    0.24
   4  -6  -3    2.78    0.12
  -4  -6   3    2.76    0.24
   4   6  -3    2.80    0.15
  -4   6   3    3.21    0.22
   4   6  -3    1.73    0.52
   2  -6  -3    0.69    0.24
   2  -6  -3    0.84    0.14
  -2  -6   3    1.17    0.34
   2  -6  -3    0.93    0.41
   2  -6  -3    0.80    0.10
   2  -6  -3    0.52    0.20
  -2  -6   3    0.79    0.17
   2   6  -3    0.69    0.13
   2   6  -3    0.78    0.29
  -2   6   3    0.86    0.27
  -2   6   3    0.65    0.25
   2   6  -3    0.68    0.08
   0  -6   3    1.51    0.20
   0  -6  -3    1.37    0.14
   0  -6  -3    0.89    0.17
   0  -6  -3    2.00    0.45
   0  -6  -3    1.64    0.31
   0  -6  -3    1.17    0.10
   0   6   3    1.23    0.33
   0   6  -3    1.50    0.09
   0   6  -3    1.45    0.16
   0   6   3    1.47    0.35
   0   6  -3    1.51    0.48
  -2  -6  -3   17.39    0.49
  -2  -6  -3   17.19    0.46
  -2  -6  -3   15.86    0.89
   2  -6   3   17.73    0.56
  -2   6  -3   17.94    0.50
   2   6   3   16.10    0.68
  -2   6  -3   16.97    0.45
  -4  -6  -3    8.09    0.21
   4   6   3    8.20    0.25
  -4   6  -3    7.52    0.24
   3  -7  -3   12.85    0.34
  -3  -7   3   12.94    0.41
   3  -7  -3   12.97    0.43
   3   7  -3   12.76    0.37
  -3   7   3   12.91    0.37
   1  -7  -3   10.87    0.40
   1  -7  -3   10.77    0.33
   1  -7  -3   11.15    0.30
  -1  -7   3   10.86    0.37
   1   7  -3   11.30    0.33
   1  -7   3    2.12    0.18
  -1  -7  -3    2.03    0.12
  -1  -7  -3    1.97    0.08
   8   0  -4    0.89    0.11
   6   0  -4    9.51    0.42
  -6   0   4    9.14    0.36
   6   0  -4    8.80    0.32
   6   0  -4    9.51    0.55
   6   0  -4    9.34    0.49
   6   0  -4    9.51    0.36
  -6   0   4    8.92    0.43
   4   0  -4    7.49    0.41
  -4   0   4    7.88    0.54
   4   0  -4    7.66    0.47
   4   0  -4    7.28    0.28
   4   0  -4    7.29    0.56
  -4   0   4    6.99    0.25
  -4   0   4    7.43    0.46
   2   0  -4    8.72    0.47
   2   0  -4    8.21    0.42
   2   0  -4    8.69    0.32
  -2   0   4    8.17    0.31
   2   0  -4    8.36    0.32
   2   0  -4    8.65    0.38
   2   0  -4    8.50    0.38
   2   0  -4    8.66    0.32
  -2   0   4    8.48    0.37
  -2   0   4    8.62    0.42
   0   0  -4   54.71    1.50
   0   0  -4   54.43    1.42
   0   0  -4   54.76    1.43
   0   0  -4   52.20    1.51
   0   0  -4   53.37    1.51
   0   0   4   54.22    1.38
   0   0   4   51.77    1.37
   0   0   4   55.35    1.49
   0   0  -4   54.70    1.48
   0   0  -4   51.63    1.48
   0   0  -4   53.01    1.36
   0   0  -4   54.26    1.51
   0   0  -4   54.28    1.37
   0   0  -4   55.60    1.48
   2   0   4   44.62    1.36
  -2   0  -4   44.69    1.16
  -2   0  -4   44.14    1.34
  -2   0  -4   43.86    1.25
  -2   0  -4   44.32    1.32
   2   0   4   45.44    1.42
  -2   0  -4   45.37    1.25
  -2   0  -4   44.67    1.32
  -2   0  -4   43.66    1.34
   2   0   4   46.16    1.17
  -2   0  -4   45.21    1.21
  -2   0  -4   43.77    1.28
   2   0   4   44.97    1.32
  -2   0  -4   44.72    1.39
   2   0   4   45.04    1.30
  -4   0  -4  133.36    3.84
  -4   0  -4  134.36    3.75
   4   0   4  138.11    3.84
  -4   0  -4  137.41    3.48
  -4   0  -4  142.36    3.65
   4   0   4  142.30    3.76
  -4   0  -4  136.95    3.47
  -4   0  -4  140.11    3.51
  -4   0  -4  138.07    3.54
   4   0   4  136.89    3.77
   4   0   4  137.99    3.67
  -4   0  -4  139.81    3.71
  -4   0  -4  137.44    3.58
  -4   0  -4  135.83    3.71
  -6   0  -4    1.44    0.09
  -6   0  -4    1.62    0.12
  -6   0  -4    1.65    0.12
   6   0   4    1.64    0.52
   6   0   4    0.98    0.41
  -6   0  -4    1.82    0.39
  -6   0  -4    1.16    0.48
   7  -1  -4   35.91    1.08
   7  -1  -4   35.88    1.21
   7  -1  -4   37.08    0.96
   7  -1  -4   36.72    1.17
  -7  -1   4   34.15    1.02
   7  -1  -4   37.01    1.00
   7   1  -4   37.10    0.95
   7   1  -4   36.55    1.00
   7   1  -4   37.65    1.21
  -7   1   4   30.80    1.09
  -7   1   4   33.54    1.02
   5  -1  -4   27.57    1.17
  -5  -1   4   27.77    0.85
   5  -1  -4   26.24    0.78
   5  -1  -4   25.55    1.07
   5  -1  -4   26.99    0.80
  -5  -1   4   25.49    1.12
   5  -1  -4   27.64    0.93
  -5  -1   4   27.88    1.14
  -5  -1   4   27.14    0.77
   5  -1  -4   27.47    0.91
   5   1  -4   26.35    0.88
   5   1  -4   27.64    0.93
  -5   1   4   27.30    0.76
   5   1  -4   28.03    1.18
   5   1  -4   27.40    0.78
  -5   1   4   27.94    0.83
   5   1  -4   27.23    0.80
   5   1  -4   26.74    1.09
  -5   1   4   27.19    1.08
  -5   1   4   25.43    1.07
  -3  -1   4   74.82    2.08
   3  -1  -4   75.14    2.14
  -3  -1   4   73.53    2.03
  -3  -1   4   74.37    1.94
   3  -1  -4   74.42    2.03
  -3  -1   4   75.36    2.00
   3  -1  -4   74.15    2.01
   3  -1  -4   75.53    1.90
  -3  -1   4   74.38    1.88
   3   1  -4   75.85    2.00
   3   1  -4   77.08    1.98
   3   1  -4   73.34    2.03
   3   1  -4   75.25    2.04
   3   1  -4   74.64    1.92
   3   1  -4   75.56    2.16
   3   1  -4   73.61    2.04
  -3   1   4   72.66    2.00
  -3   1   4   74.16    2.05
  -3   1   4   72.96    1.87
  -1  -1   4   50.80    1.41
   1  -1  -4   49.11    1.29
   1  -1  -4   48.98    1.37
   1  -1  -4   50.50    1.30
   1  -1  -4   49.88    1.38
   1  -1  -4   46.81    1.37
  -1  -1   4   52.64    1.43
  -1  -1   4   50.63    1.37
   1  -1  -4   43.12    1.46
   1  -1  -4   49.15    1.48
   1  -1  -4   48.62    1.24
   1  -1  -4   48.95    1.23
   1  -1  -4   49.67    1.45
   1  -1  -4   49.82    1.32
   1   1  -4   49.31    1.35
  -1   1   4   49.89    1.30
   1   1  -4   49.61    1.39
   1   1  -4   49.66    1.47
  -1   1   4   51.73    1.41
   1   1  -4   49.43    1.29
   1   1  -4   48.23    1.39
   1   1  -4   47.25    1.30
  -1   1   4   51.22    1.42
   1   1  -4   47.83    1.36
  -1   1   4   50.71    1.30
   1   1  -4   50.08    1.30
  -1  -1  -4  112.68    2.98
  -1  -1  -4  116.59    2.92
   1  -1   4  121.89    3.11
   1  -1   4  118.52    3.21
  -1  -1  -4  116.76    3.06
  -1  -1  -4  112.97    3.02
  -1  -1  -4  114.93    3.04
   1  -1   4  116.50    3.07
  -1  -1  -4  115.55    3.04
  -1  -1  -4  115.17    2.96
   1  -1   4  116.83    2.96
  -1  -1  -4  112.54    3.04
  -1  -1  -4  113.47    2.98
  -1   1  -4  113.53    3.03
  -1   1  -4  113.69    2.94
  -1   1  -4  112.96    3.06
  -1   1  -4  114.79    2.95
  -1   1  -4  115.97    3.02
  -1   1  -4  119.94    2.94
  -1   1  -4  114.39    2.87
  -1   1  -4  116.70    3.08
  -1   1  -4  113.27    3.01
   1   1   4  119.88    3.13
  -1   1  -4  118.28    3.01
  -1   1  -4  109.44    3.01
  -1   1  -4  113.23    2.99
   1   1   4  115.60    3.04
   1   1   4  119.49    3.09
  -3  -1  -4    4.01    0.50
  -3  -1  -4    3.55    0.52
  -3  -1  -4    3.69    0.37
   3  -1   4    3.07    0.51
   3  -1   4    3.11    0.46
   3  -1   4    2.96    0.44
  -3  -1  -4    3.23    0.27
  -3  -1  -4    3.01    0.30
  -3  -1  -4    2.97    0.18
  -3  -1  -4    3.33    0.36
   3  -1   4    2.80    0.29
   3  -1   4    2.98    0.18
  -3  -1  -4    2.63    0.26
   3  -1   4    4.14    0.68
  -3  -1  -4    3.33    0.37
  -3   1  -4    1.90    0.55
  -3   1  -4    1.93    0.41
  -3   1  -4    3.02    0.39
   3   1   4    2.52    0.43
   3   1   4    3.09    0.18
  -3   1  -4    3.47    0.33
  -3   1  -4    3.08    0.21
  -3   1  -4    2.71    0.26
  -3   1  -4    2.98    0.58
  -3   1  -4    2.68    0.24
  -3   1  -4    2.71    0.44
   3   1   4    3.07    0.51
   3   1   4    3.57    0.51
  -5  -1  -4   26.95    0.78
  -5  -1  -4   31.97    1.14
   5  -1   4   21.28    1.06
  -5  -1  -4   27.55    0.78
  -5  -1  -4   27.70    0.92
   5   1   4   25.57    1.01
  -5   1  -4   27.89    0.79
  -5   1  -4   30.28    1.07
  -5   1  -4   29.67    0.77
  -5   1  -4   28.66    0.81
  -5   1  -4   28.68    0.79
  -7  -1  -4   34.69    0.88
   7  -1   4   36.96    0.95
  -7  -1  -4   33.10    0.89
  -7  -1  -4   34.47    0.86
  -7   1  -4   35.35    0.88
  -7   1  -4   34.68    0.87
   8  -2  -4    6.18    0.23
   8  -2  -4    6.18    0.18
   8   2  -4    6.37    0.23
   8   2  -4    6.26    0.17
   6  -2  -4   26.87    0.78
  -6  -2   4   25.72    0.85
   6  -2  -4   27.09    0.89
   6  -2  -4   27.81    0.86
  -6  -2   4   27.15    0.81
   6  -2  -4   26.83    0.98
   6  -2  -4   27.63    0.74
   6   2  -4   26.24    0.85
   6   2  -4   26.68    0.96
   6   2  -4   27.06    0.78
  -6   2   4   27.10    0.78
   6   2  -4   27.65    0.88
  -6   2   4   24.30    0.84
   4  -2  -4    9.27    0.78
  -4  -2   4    8.51    0.33
  -4  -2   4    9.25    0.62
  -4  -2   4    9.15    0.42
  -4  -2   4    9.92    0.70
   4  -2  -4    9.74    0.51
   4  -2  -4    9.28    0.59
  -4  -2   4    9.37    0.67
  -4   2   4    9.29    0.39
   4   2  -4    8.66    0.53
  -4   2   4    8.75    0.55
   4   2  -4    9.36    0.52
   4   2  -4   10.23    0.59
   4   2  -4    8.52    0.68
  -4   2   4    7.09    0.67
  -4   2   4    8.21    0.34
   4   2  -4    9.42    0.62
   4   2  -4    9.80    0.66
   2  -2  -4   15.94    0.63
  -2  -2   4   16.04    0.63
  -2  -2   4   16.67    0.54
   2  -2  -4   16.89    0.57
   2  -2  -4   16.88    0.61
  -2  -2   4   15.91    0.62
  -2  -2   4   16.91    0.47
  -2   2   4   17.28    0.63
   2   2  -4   17.16    0.62
   2   2  -4   16.95    0.64
   2   2  -4   17.24    0.55
   2   2  -4   16.75    0.49
   2   2  -4   16.98    0.62
   2   2  -4   16.52    0.60
  -2   2   4   16.19    0.57
   2   2  -4   16.78    0.74
  -2   2   4   16.10    0.44
   0  -2  -4    0.41    0.15
   0  -2  -4    0.27    0.13
   0  -2  -4    0.34    0.09
   0  -2  -4    0.23    0.13
   0  -2  -4    0.41    0.18
   0  -2   4    0.46    0.08
   0  -2  -4    0.17    0.20
   0  -2   4    0.62    0.17
   0  -2   4    0.35    0.25
   0  -2  -4    0.42    0.19
   0  -2   4    0.36    0.15
   0  -2   4    0.43    0.14
   0   2  -4    0.65    0.16
   0   2  -4    0.55    0.16
   0   2   4    0.42    0.17
   0   2  -4    0.25    0.13
   0   2  -4    0.75    0.21
   0   2  -4    0.33    0.09
   0   2  -4    0.56    0.22
   0   2  -4    0.31    0.18
   0   2   4    0.69    0.18
   0   2  -4    0.24    0.06
   0   2   4    0.44    0.17
   0   2  -4    0.25    0.24
   0   2  -4    0.44    0.20
   2  -2   4    6.79    0.26
   2  -2   4    7.59    0.50
  -2  -2  -4    6.73    0.36
  -2  -2  -4    6.74    0.57
   2  -2   4    7.41    0.38
  -2  -2  -4    6.99    0.56
  -2  -2  -4    6.79    0.25
   2  -2   4    7.30    0.48
   2  -2   4    7.09    0.64
  -2  -2  -4    6.45    0.52
  -2  -2  -4    7.16    0.36
  -2  -2  -4    6.89    0.44
  -2  -2  -4    7.02    0.36
  -2   2  -4    6.60    0.32
  -2   2  -4    6.95    0.46
   2   2   4    7.15    0.26
  -2   2  -4    7.15    0.78
  -2   2  -4    7.46    0.52
  -2   2  -4    7.02    0.43
  -2   2  -4    6.73    0.44
  -2   2  -4    7.14    0.32
   2   2   4    7.19    0.47
  -2   2  -4    6.50    0.28
  -2   2  -4    6.92    0.52
  -4  -2  -4   94.08    2.62
  -4  -2  -4  100.97    2.64
   4  -2   4   98.16    2.53
  -4  -2  -4   97.52    2.46
   4  -2   4   98.30    2.72
   4  -2   4   97.18    2.68
  -4  -2  -4   97.24    2.73
  -4  -2  -4   97.31    2.50
  -4  -2  -4  102.06    2.48
  -4   2  -4   94.24    2.56
  -4   2  -4   95.76    2.48
   4   2   4  100.30    2.55
   4   2   4   99.45    2.75
  -4   2  -4   96.43    2.50
  -4   2  -4   95.98    2.56
  -4   2  -4   97.11    2.53
  -4   2  -4   97.61    2.49
  -4   2  -4   99.06    2.75
  -4   2  -4   93.92    2.68
  -6  -2  -4   10.52    0.29
  -6  -2  -4   11.16    0.33
  -6  -2  -4   10.43    0.31
   6  -2   4   10.64    0.34
  -6   2  -4   11.32    0.34
  -6   2  -4   10.38    0.30
  -6   2  -4   10.49    0.32
   7  -3  -4   46.18    1.20
   7  -3  -4   45.64    1.28
   7  -3  -4   47.13    1.17
   7   3  -4   46.29    1.16
   7   3  -4   44.62    1.22
  -5  -3   4   55.48    1.52
   5  -3  -4   55.96    1.58
   5  -3  -4   54.96    1.52
  -5  -3   4   50.59    1.54
  -5  -3   4   54.30    1.45
   5   3  -4   56.90    1.70
   5   3  -4   55.29    1.47
  -5   3   4   53.41    1.43
   5   3  -4   54.86    1.53
   5   3  -4   55.26    1.45
   5   3  -4   53.39    1.63
   5   3  -4   56.29    1.42
   5   3  -4   55.92    1.53
   3  -3  -4   64.15    1.93
   3  -3  -4   68.52    1.76
  -3  -3   4   65.19    2.04
   3  -3  -4   65.87    1.88
  -3  -3   4   67.44    1.74
  -3  -3   4   65.03    2.01
   3  -3  -4   64.88    1.93
  -3  -3   4   67.96    1.94
  -3  -3   4   66.89    1.92
   3   3  -4   67.37    1.78
   3   3  -4   68.51    2.08
  -3   3   4   63.34    1.98
   3   3  -4   67.32    1.91
   3   3  -4   69.34    1.86
   3   3  -4   67.96    1.98
  -3   3   4   68.84    1.84
  -3   3   4   67.27    1.72
  -3   3   4   67.03    1.93
  -1  -3   4    0.81    0.18
   1  -3  -4    0.74    0.11
   1  -3  -4    0.59    0.19
  -1  -3   4    0.77    0.12
   1  -3  -4    0.62    0.21
  -1  -3   4    0.78    0.26
   1   3  -4    0.68    0.15
  -1   3   4    0.54    0.23
   1   3  -4    1.10    0.30
   1   3  -4    0.58    0.17
  -1   3   4    0.80    0.10
   1   3  -4    1.22    0.29
   1   3  -4    0.99    0.18
   1   3  -4    0.71    0.24
   1   3  -4    1.59    0.35
  -1  -3  -4  114.23    3.04
  -1  -3  -4  110.01    3.31
  -1  -3  -4  114.85    3.04
   1  -3   4  120.53    3.39
  -1  -3  -4  114.66    2.94
   1  -3   4  121.86    3.23
   1  -3   4  121.52    3.27
   1  -3   4  120.80    3.16
  -1  -3  -4  117.51    3.21
  -1  -3  -4  116.39    3.20
   1  -3   4  121.70    3.07
   1  -3   4  122.01    3.13
   1   3   4  120.25    3.24
  -1   3  -4  117.22    3.18
   1   3   4  121.04    3.20
  -1   3  -4  117.18    3.15
  -1   3  -4  132.85    3.09
  -1   3  -4  102.92    3.11
   1   3   4  116.12    3.15
  -1   3  -4  117.36    3.26
   1   3   4  115.23    3.07
   1   3   4  117.98    3.24
  -1   3  -4  118.78    3.10
  -1   3  -4  121.45    3.16
  -3  -3  -4   12.99    0.39
  -3  -3  -4   12.36    0.55
   3  -3   4   12.75    0.44
  -3  -3  -4   12.60    0.66
   3  -3   4   13.07    0.55
  -3  -3  -4   12.20    0.41
   3  -3   4   12.72    0.61
  -3  -3  -4   12.05    0.54
  -3  -3  -4   12.22    0.39
  -3   3  -4   12.46    0.62
   3   3   4   13.27    0.63
  -3   3  -4   11.86    0.47
  -3   3  -4   11.80    0.47
   3   3   4   12.56    0.45
  -3   3  -4   12.24    0.41
  -3   3  -4   12.34    0.49
  -3   3  -4   12.28    0.67
  -3   3  -4   12.86    0.44
  -3   3  -4   11.77    0.43
   5  -3   4   36.54    1.23
  -5  -3  -4   34.30    1.12
   5  -3   4   37.27    1.15
  -5  -3  -4   33.71    1.23
  -5  -3  -4   35.04    1.10
  -5  -3  -4   34.90    0.91
  -5  -3  -4   34.38    0.98
  -5  -3  -4   36.44    0.92
  -5  -3  -4   35.06    0.89
  -5   3  -4   33.62    0.93
  -5   3  -4   34.63    1.17
   5   3   4   36.95    1.07
  -5   3  -4   34.86    0.95
  -5   3  -4   34.38    1.03
  -5   3  -4   35.02    0.90
   5   3   4   36.24    1.21
   6  -4  -4   11.25    0.32
   6  -4  -4   11.06    0.45
   6   4  -4   10.91    0.31
   4  -4  -4    1.64    0.49
  -4  -4   4    1.95    0.30
   4  -4  -4    1.43    0.33
   4  -4  -4    1.30    0.25
  -4  -4   4    1.45    0.31
   4   4  -4    0.88    0.18
   4   4  -4    1.28    0.19
  -4   4   4    1.47    0.21
   4   4  -4    2.08    0.45
  -4   4   4    1.14    0.30
  -2  -4   4    2.64    0.78
  -2  -4   4    2.03    0.83
   2  -4  -4    2.58    0.41
  -2  -4   4    2.56    0.22
   2  -4  -4    2.91    0.37
   2  -4  -4    2.18    0.20
   2  -4  -4    3.24    0.67
   2  -4  -4    2.73    0.20
  -2  -4   4    2.85    0.27
   2  -4  -4    3.32    0.40
  -2  -4   4    2.46    0.59
   2   4  -4    2.76    0.30
   2   4  -4    3.13    0.31
  -2   4   4    2.86    0.49
   2   4  -4    3.02    0.41
   2   4  -4    2.84    0.27
  -2   4   4    2.61    0.65
   2   4  -4    2.86    0.36
   2   4  -4    3.03    0.22
  -2   4   4    2.89    0.19
   2   4  -4    2.24    0.59
   2   4  -4    2.99    0.27
  -2   4   4    2.96    0.30
   2   4  -4    2.27    0.73
   0  -4   4    4.51    0.57
   0  -4  -4    3.93    0.69
   0  -4   4    4.67    0.30
   0  -4   4    5.19    0.73
   0  -4  -4    4.73    0.21
   0  -4  -4    4.24    0.50
   0  -4  -4    4.56    0.34
   0  -4   4    4.71    0.24
   0  -4  -4    4.57    0.40
   0  -4   4    5.26    0.90
   0  -4  -4    4.52    0.21
   0   4  -4    4.54    0.26
   0   4  -4    4.22    0.29
   0   4  -4    4.43    0.31
   0   4   4    4.41    0.53
   0   4  -4    5.48    0.46
   0   4   4    4.32    0.58
   0   4  -4    5.83    0.64
   0   4  -4    4.36    0.72
   0   4   4    4.59    0.22
   0   4  -4    4.66    0.28
   0   4  -4    4.48    0.40
   0   4  -4    4.19    0.69
   0   4  -4    4.41    0.37
  -2  -4  -4    5.37    0.50
   2  -4   4    5.23    0.42
  -2  -4  -4    5.05    0.22
   2  -4   4    4.47    0.38
  -2  -4  -4    5.04    0.24
  -2  -4  -4    4.63    0.24
  -2  -4  -4    5.28    0.41
  -2  -4  -4    5.87    0.44
   2  -4   4    5.22    0.30
   2   4   4    5.42    0.27
  -2   4  -4    4.86    0.33
   2   4   4    5.27    0.50
  -2   4  -4    4.67    0.50
  -2   4  -4    4.94    0.50
  -2   4  -4    5.06    0.26
  -2   4  -4    4.62    0.26
  -2   4  -4    5.62    0.34
  -2   4  -4    5.21    0.27
  -2   4  -4    5.04    0.27
   4  -4   4   68.78    1.91
  -4  -4  -4   64.79    1.98
  -4  -4  -4   64.08    1.87
  -4  -4  -4   64.29    1.67
   4  -4   4   68.65    1.98
  -4  -4  -4   64.46    1.74
  -4  -4  -4   65.26    1.86
  -4  -4  -4   65.95    1.65
  -4  -4  -4   67.20    1.68
  -4   4  -4   63.40    1.79
  -4   4  -4   68.02    1.67
  -4   4  -4   66.44    1.71
   4   4   4   66.17    1.99
  -4   4  -4   66.01    1.91
  -4   4  -4   65.99    1.69
  -4   4  -4   68.20    1.70
   4   4   4   68.98    1.82
   5  -5  -4    3.54    0.14
   5  -5  -4    3.64    0.26
   5   5  -4    3.21    0.18
   5   5  -4    2.61    0.35
   5   5  -4    3.25    0.12
  -5   5   4    3.05    0.18
   3  -5  -4   22.23    0.90
   3  -5  -4   21.65    0.61
   3  -5  -4   22.77    0.76
   3  -5  -4   22.64    0.87
  -3  -5   4   25.06    0.96
   3  -5  -4   22.34    0.63
   3   5  -4   22.67    0.60
  -3   5   4   26.92    1.06
   3   5  -4   22.50    0.64
  -3   5   4   24.02    0.77
   3   5  -4   22.62    0.72
  -1  -5   4   19.30    0.68
   1  -5  -4   18.82    0.69
   1  -5  -4   18.42    0.59
  -1  -5   4   18.18    0.63
   1  -5  -4   18.59    0.54
   1  -5  -4   18.18    0.79
  -1   5   4   19.02    0.71
  -1   5   4   18.89    0.59
   1   5  -4   18.78    0.63
   1   5  -4   19.70    0.69
   1   5  -4   19.04    0.85
   1   5  -4   18.53    0.52
   1   5  -4   18.36    0.58
   1   5  -4   19.34    0.81
   1   5  -4   18.37    0.56
   1   5  -4   18.50    0.69
   1  -5   4   19.92    0.86
  -1  -5  -4   18.61    0.52
   1  -5   4   21.98    1.06
   1  -5   4   19.40    0.65
  -1  -5  -4   17.37    0.59
   1   5   4   19.91    0.74
  -1   5  -4   15.03    0.86
  -1   5  -4   18.68    0.50
  -1   5  -4   19.04    0.56
  -1   5  -4   19.16    0.55
  -3  -5  -4    3.42    0.66
  -3  -5  -4    3.74    0.16
   3  -5   4    4.28    0.56
  -3  -5  -4    3.63    0.13
  -3  -5  -4    3.79    0.32
  -3   5  -4    3.70    0.14
  -3   5  -4    3.73    0.19
  -3   5  -4    3.74    0.19
   3   5   4    3.53    0.38
  -3   5  -4    2.81    0.70
   3   5   4    3.30    0.38
  -3   5  -4    3.43    0.39
   4  -6  -4    0.20    0.12
   4  -6  -4    0.29    0.07
  -4   6   4    0.50    0.10
  -2  -6   4    2.51    0.37
   2  -6  -4    2.76    0.15
   2  -6  -4    1.56    0.40
  -2  -6   4    2.77    0.20
   2  -6  -4    2.85    0.49
   2  -6  -4    2.65    0.26
   2  -6  -4    2.22    0.12
   2   6  -4    3.11    0.55
  -2   6   4    3.64    0.46
   2   6  -4    2.44    0.16
   2   6  -4    2.63    0.11
  -2   6   4    3.21    0.36
   0  -6  -4    6.97    0.24
   0  -6  -4    6.10    0.59
   0  -6   4    7.04    0.48
   0  -6  -4    6.91    0.42
   0  -6   4    7.26    0.31
   0  -6  -4    7.28    0.22
   0   6  -4    7.36    0.21
   0   6  -4    6.80    0.63
   0   6  -4    6.81    0.26
   0   6   4    7.29    0.47
   0   6   4    7.39    0.40
  -2  -6  -4    5.65    0.17
  -2  -6  -4    5.83    0.20
  -2   6  -4    5.59    0.22
  -2   6  -4    5.68    0.17
  -2   6  -4    5.74    0.25
   1  -7  -4    0.26    0.06
   1  -7  -4    0.24    0.05
  -1  -7   4    0.21    0.08
   8   0  -5    1.97    0.08
   8   0  -5    2.00    0.13
   6   0  -5   12.02    0.50
   6   0  -5   12.28    0.47
   6   0  -5   12.28    0.62
  -6   0   5   11.05    0.41
   6   0  -5   11.53    0.41
  -6   0   5   11.23    0.49
  -4   0   5   21.67    0.87
   4   0  -5   23.46    0.89
   4   0  -5   24.85    0.84
   4   0  -5   22.80    0.80
   4   0  -5   24.08    0.68
   4   0  -5   23.55    0.70
  -4   0   5   24.56    1.01
  -4   0   5   23.54    0.65
   4   0  -5   23.38    1.11
   2   0  -5    0.64    0.18
   2   0  -5    0.48    0.30
   2   0  -5    0.95    0.21
  -2   0   5    0.81    0.20
  -2   0   5    1.43    0.42
   2   0  -5    0.96    0.24
   0   0  -5   35.34    1.09
   0   0  -5   33.81    1.01
   0   0  -5   34.09    1.13
   0   0   5   34.58    1.11
   0   0   5   34.64    0.93
   0   0  -5   32.85    1.05
   0   0  -5   34.44    0.98
   0   0  -5   34.12    1.07
   0   0  -5   34.32    1.09
   0   0  -5   35.27    0.92
   0   0   5   33.85    1.20
   0   0  -5   33.55    1.09
   0   0  -5   34.93    0.97
  -2   0  -5    0.84    0.20
  -2   0  -5    0.98    0.34
   2   0   5    1.11    0.14
  -2   0  -5    0.53    0.14
  -2   0  -5    0.83    0.43
  -2   0  -5    0.97    0.38
  -2   0  -5    0.99    0.27
   2   0   5    0.69    0.35
  -2   0  -5    0.62    0.21
   2   0   5    0.58    0.52
   2   0   5    0.19    0.31
  -2   0  -5    0.28    0.30
  -2   0  -5    0.74    0.22
  -2   0  -5    0.93    0.29
   2   0   5    1.04    0.37
   2   0   5    1.08    0.49
  -2   0  -5    0.56    0.12
  -4   0  -5   39.55    1.33
  -4   0  -5   42.09    1.33
  -4   0  -5   39.36    1.11
  -4   0  -5   39.00    1.07
   4   0   5   48.78    1.58
  -4   0  -5   40.34    1.26
  -4   0  -5   40.47    1.06
   4   0   5   43.67    1.31
  -6   0  -5   14.87    0.41
  -6   0  -5   15.65    0.40
  -6   0  -5   14.88    0.42
  -7  -1   5   14.69    0.60
   7  -1  -5   16.77    0.49
  -7  -1   5   14.58    0.62
   7  -1  -5   16.28    0.56
   7  -1  -5   15.85    0.76
   7  -1  -5   16.96    0.45
   7  -1  -5   16.54    0.65
   7   1  -5   14.23    0.69
  -7   1   5   15.35    0.56
   7   1  -5   16.63    0.49
   7   1  -5   16.45    0.44
  -7   1   5   15.34    0.61
   7   1  -5   15.44    0.73
   7   1  -5   16.87    0.55
  -5  -1   5   44.41    1.19
   5  -1  -5   45.81    1.22
   5  -1  -5   45.04    1.39
  -5  -1   5   43.60    1.28
   5  -1  -5   42.90    1.97
   5  -1  -5   45.88    1.32
   5  -1  -5   44.93    1.24
  -5   1   5   44.33    1.18
   5   1  -5   45.19    1.39
   5   1  -5   44.53    1.24
  -5   1   5   43.63    1.27
   5   1  -5   45.42    1.22
   5   1  -5   45.29    1.30
   3  -1  -5   20.80    0.56
  -3  -1   5   19.27    0.86
  -3  -1   5   19.16    0.73
  -3  -1   5   19.13    0.54
   3  -1  -5   19.34    0.96
   3  -1  -5   20.41    0.74
   3  -1  -5   19.48    0.69
   3   1  -5   19.25    0.73
  -3   1   5   19.09    0.87
   3   1  -5   19.91    0.95
  -3   1   5   19.04    0.68
  -3   1   5   19.15    0.52
   3   1  -5   19.85    0.58
   3   1  -5   18.97    0.72
   1  -1  -5   16.48    0.46
  -1  -1   5   15.67    0.55
   1  -1  -5   16.81    0.58
   1  -1  -5   16.22    0.70
   1  -1  -5   16.51    0.58
   1  -1  -5   16.14    0.66
   1  -1  -5   15.78    0.72
  -1  -1   5   16.48    0.67
  -1   1   5   17.04    0.75
   1   1  -5   16.02    0.71
   1   1  -5   16.83    0.67
   1   1  -5   15.57    0.52
  -1   1   5   16.15    0.46
   1   1  -5   16.27    0.55
  -1   1   5   16.28    0.65
   1   1  -5   16.44    0.63
   1   1  -5   16.63    0.54
   1   1  -5   16.64    0.66
   1   1  -5   16.27    0.81
  -1  -1  -5    3.53    0.54
  -1  -1  -5    4.51    0.49
  -1  -1  -5    3.53    0.26
   1  -1   5    4.25    0.66
  -1  -1  -5    3.70    0.36
  -1  -1  -5    4.03    0.28
   1  -1   5    3.59    0.33
   1  -1   5    3.11    0.58
  -1  -1  -5    2.64    0.50
  -1  -1  -5    3.61    0.30
  -1   1  -5    2.84    0.51
  -1   1  -5    2.96    0.50
   1   1   5    4.19    0.33
  -1   1  -5    3.32    0.34
  -1   1  -5    3.28    0.19
  -1   1  -5    3.94    0.29
  -1   1  -5    3.80    0.38
   1   1   5    3.05    0.49
  -1   1  -5    3.28    0.37
   1   1   5    3.58    0.52
  -1   1  -5    3.04    0.48
  -1   1  -5    3.34    0.33
   3  -1   5   16.50    0.50
  -3  -1  -5   15.93    0.46
  -3  -1  -5   15.47    0.63
  -3  -1  -5   16.07    0.71
   3  -1   5   17.25    0.72
   3  -1   5   15.01    0.67
  -3  -1  -5   15.27    0.70
  -3  -1  -5   15.56    0.48
  -3  -1  -5   15.54    0.48
  -3  -1  -5   15.52    0.60
   3   1   5   16.40    0.51
  -3   1  -5   15.74    0.47
  -3   1  -5   15.59    0.51
  -3   1  -5   15.09    0.49
  -3   1  -5   15.41    0.65
  -3   1  -5   15.71    0.52
  -3   1  -5   15.26    0.58
  -3   1  -5   15.16    0.57
  -3   1  -5   15.50    0.74
   5  -1   5    6.23    0.34
  -5  -1  -5    5.59    0.20
  -5  -1  -5    5.50    0.43
  -5  -1  -5    5.30    0.19
   5  -1   5    6.33    0.47
  -5  -1  -5    4.93    0.47
  -5  -1  -5    5.31    0.31
  -5  -1  -5    5.70    0.20
  -5   1  -5    4.40    0.39
   5   1   5    5.46    0.46
  -5   1  -5    6.06    0.36
  -5   1  -5    5.82    0.49
  -5   1  -5    5.51    0.21
  -5   1  -5    5.60    0.21
  -5   1  -5    6.18    0.23
   5   1   5    5.83    0.34
   5   1   5    6.31    0.49
   8  -2  -5    4.82    0.21
   8  -2  -5    4.67    0.14
   8   2  -5    5.00    0.18
   8   2  -5    4.71    0.14
   6  -2  -5    8.75    0.67
   6  -2  -5    9.06    0.44
   6  -2  -5    8.79    0.33
  -6  -2   5    8.98    0.41
  -6  -2   5    8.07    0.44
   6  -2  -5    8.70    0.41
   6   2  -5    9.07    0.45
   6   2  -5    8.83    0.39
   6   2  -5    8.56    0.33
  -6   2   5    8.76    0.36
  -6   2   5    8.31    0.50
   6   2  -5    8.66    0.55
  -4  -2   5    1.35    0.41
   4  -2  -5    1.54    0.19
  -4  -2   5    1.50    0.52
   4  -2  -5    1.97    0.57
  -4  -2   5    1.51    0.17
   4  -2  -5    1.20    0.35
  -4   2   5    1.24    0.15
   4   2  -5    1.33    0.28
   4   2  -5    1.68    0.31
   4   2  -5    1.83    0.29
   4   2  -5    1.64    0.20
   4   2  -5    1.07    0.54
   4   2  -5    1.21    0.39
   4   2  -5    1.98    0.21
  -4   2   5    0.98    0.32
   2  -2  -5   21.95    0.83
   2  -2  -5   22.50    0.73
  -2  -2   5   20.67    0.81
  -2  -2   5   22.89    0.71
  -2  -2   5   22.45    0.85
  -2   2   5   21.59    0.58
   2   2  -5   22.16    1.03
   2   2  -5   22.54    0.86
  -2   2   5   21.74    0.72
   2   2  -5   21.01    0.67
   2   2  -5   23.40    0.71
   2   2  -5   22.04    0.80
   2   2  -5   22.99    0.84
   2   2  -5   22.18    0.86
   0  -2   5   90.43    2.66
   0  -2  -5   84.93    2.25
   0  -2  -5   85.62    2.35
   0  -2   5   92.27    2.50
   0  -2   5   87.25    2.45
   0  -2  -5   84.79    2.47
   0   2   5   89.40    2.49
   0   2  -5   90.26    2.75
   0   2   5   88.44    2.36
   0   2  -5   86.86    2.36
   0   2  -5   86.51    2.44
   0   2  -5   88.10    2.30
   0   2  -5   87.45    2.26
   0   2  -5   91.90    2.51
   0   2  -5   88.18    2.48
   0   2  -5   86.20    2.29
   2  -2   5   31.38    1.19
   2  -2   5   33.35    1.03
  -2  -2  -5   31.79    0.86
  -2  -2  -5   32.63    1.00
   2  -2   5   32.83    0.87
  -2  -2  -5   33.11    1.13
  -2  -2  -5   31.26    1.27
   2  -2   5   32.30    1.07
   2  -2   5   30.57    1.17
  -2  -2  -5   31.38    1.01
   2  -2   5   31.55    1.16
  -2  -2  -5   32.67    0.86
   2  -2   5   31.98    1.44
  -2  -2  -5   32.44    0.87
  -2   2  -5   33.83    0.97
  -2   2  -5   32.47    1.15
  -2   2  -5   31.71    1.05
   2   2   5   32.62    1.28
  -2   2  -5   32.14    1.14
  -2   2  -5   30.19    1.23
  -2   2  -5   31.70    0.89
  -2   2  -5   31.08    0.91
  -2   2  -5   31.34    0.91
  -2   2  -5   30.49    1.42
   2   2   5   32.54    1.19
  -2   2  -5   31.69    0.95
   2   2   5   32.40    0.88
  -2   2  -5   30.83    0.87
   2   2   5   30.95    1.14
  -2   2  -5   30.73    1.23
  -4  -2  -5   51.18    1.48
  -4  -2  -5   49.89    1.32
   4  -2   5   53.60    1.41
  -4  -2  -5   51.08    1.32
  -4  -2  -5   51.47    1.36
  -4  -2  -5   52.22    1.60
  -4  -2  -5   51.43    1.50
   4  -2   5   50.33    1.61
   4  -2   5   52.99    1.56
  -4   2  -5   49.91    1.44
  -4   2  -5   53.20    1.43
  -4   2  -5   50.07    1.53
  -4   2  -5   50.70    1.43
  -4   2  -5   49.25    1.61
  -4   2  -5   49.28    1.34
  -4   2  -5   50.90    1.33
  -4   2  -5   51.20    1.40
   4   2   5   54.40    1.43
   4   2   5   52.77    1.62
   7  -3  -5   24.49    0.63
   7  -3  -5   23.69    0.71
   7   3  -5   23.27    0.69
   7   3  -5   24.55    0.65
   7   3  -5   24.07    0.62
  -5  -3   5   23.83    0.72
   5  -3  -5   24.54    0.82
  -5  -3   5   20.26    0.81
   5   3  -5   24.47    0.78
  -5   3   5   23.22    0.77
   5   3  -5   28.70    1.28
   5   3  -5   24.21    0.72
   5   3  -5   25.81    0.97
   5   3  -5   24.72    0.67
  -3  -3   5    6.35    0.28
  -3  -3   5    5.20    0.91
   3  -3  -5    6.41    0.69
   3  -3  -5    6.57    0.45
   3  -3  -5    6.29    0.29
  -3  -3   5    5.66    0.74
  -3  -3   5    6.88    0.38
  -3  -3   5    4.47    0.75
   3   3  -5    6.36    0.96
   3   3  -5    7.83    0.78
   3   3  -5    7.12    0.33
   3   3  -5    6.60    0.70
   3   3  -5    6.94    0.38
   3   3  -5    7.01    0.38
  -3   3   5    6.69    0.25
   3   3  -5    6.78    0.31
   3   3  -5    6.74    0.32
   3   3  -5    6.85    0.53
   3   3  -5    7.31    0.47
  -3   3   5    6.28    0.58
  -1  -3   5   11.63    0.37
  -1  -3   5   12.26    0.94
   1  -3  -5   11.06    0.59
   1  -3  -5   11.02    0.50
   1  -3  -5   10.75    0.36
  -1  -3   5   11.43    0.47
  -1  -3   5   10.52    0.67
   1  -3  -5   10.96    0.34
  -1  -3   5   10.82    0.70
   1  -3  -5   10.92    0.81
   1  -3  -5   11.54    0.55
  -1   3   5   11.27    0.72
   1   3  -5   10.81    0.41
   1   3  -5   10.94    0.54
   1   3  -5   11.52    0.41
  -1   3   5   11.05    0.56
   1   3  -5   11.50    0.49
   1   3  -5   10.20    0.78
   1   3  -5   11.47    0.46
   1   3  -5   11.52    0.74
   1   3  -5   10.94    0.65
   1   3  -5   10.50    0.41
   1   3  -5   11.39    0.61
  -1   3   5   11.21    0.35
  -1  -3  -5   23.34    0.80
  -1  -3  -5   23.02    0.64
   1  -3   5   24.28    1.45
  -1  -3  -5   22.66    0.84
  -1  -3  -5   23.16    0.64
   1  -3   5   25.04    1.31
   1  -3   5   23.99    0.69
  -1  -3  -5   23.66    0.91
  -1  -3  -5   24.43    1.45
  -1   3  -5   23.40    0.95
   1   3   5   22.31    1.04
  -1   3  -5   22.97    0.69
  -1   3  -5   22.90    0.70
  -1   3  -5   23.51    0.90
  -1   3  -5   23.48    0.73
  -1   3  -5   21.76    1.00
  -1   3  -5   23.37    0.75
  -1   3  -5   21.73    1.09
  -1   3  -5   22.29    0.68
   1   3   5   24.33    1.31
   1   3   5   25.29    0.69
  -3  -3  -5   35.71    0.98
   3  -3   5   35.99    1.21
  -3  -3  -5   34.78    0.94
   3  -3   5   36.45    1.00
  -3  -3  -5   36.01    1.13
  -3  -3  -5   35.37    1.14
  -3  -3  -5   35.01    1.23
   3  -3   5   36.55    1.14
  -3  -3  -5   36.98    0.95
  -3   3  -5   34.45    0.97
  -3   3  -5   35.26    1.16
  -3   3  -5   35.71    0.99
  -3   3  -5   37.17    0.96
  -3   3  -5   35.60    1.04
  -3   3  -5   35.50    1.06
  -3   3  -5   35.54    1.27
   3   3   5   35.90    1.01
   3   3   5   34.66    1.21
  -3   3  -5   34.49    1.04
  -5  -3  -5    4.69    0.14
  -5  -3  -5    4.87    0.16
  -5  -3  -5    4.69    0.16
  -5   3  -5    4.65    0.15
  -5   3  -5    4.37    0.17
  -5   3  -5    4.79    0.19
  -5   3  -5    4.77    0.17
   6  -4  -5    4.28    0.16
   6  -4  -5    4.18    0.26
   6   4  -5    4.43    0.19
   6   4  -5    4.36    0.14
   6   4  -5    4.28    0.24
  -4  -4   5    5.82    0.36
  -4  -4   5    4.97    0.43
   4  -4  -5    5.08    0.33
   4  -4  -5    4.65    0.33
   4   4  -5    5.18    0.19
   4   4  -5    5.35    0.25
   4   4  -5    4.91    0.24
  -4   4   5    5.42    0.28
   4   4  -5    4.65    0.51
   4   4  -5    5.62    0.62
   4   4  -5    4.52    0.42
   4   4  -5    4.86    0.29
   2  -4  -5    5.41    0.27
  -2  -4   5    5.34    0.36
   2  -4  -5    5.27    0.55
  -2  -4   5    5.56    0.29
   2   4  -5    5.56    0.52
   2   4  -5    5.59    0.49
   2   4  -5    5.34    0.45
  -2   4   5    5.54    0.26
   2   4  -5    5.39    0.38
   2   4  -5    5.54    0.38
  -2   4   5    5.87    0.42
   2   4  -5    5.01    0.33
   0  -4   5   28.33    0.91
   0  -4   5   28.67    0.83
   0  -4  -5   28.90    1.10
   0  -4  -5   32.08    0.85
   0   4  -5   29.55    1.16
   0   4  -5   33.27    1.14
   0   4  -5   30.62    1.09
   0   4  -5   35.10    0.98
   0   4   5   29.61    0.81
   0   4  -5   29.46    0.91
   0   4  -5   31.17    0.96
   0   4  -5   28.59    0.94
  -2  -4  -5    7.29    0.31
  -2  -4  -5    6.82    0.60
   2  -4   5    8.17    0.37
  -2  -4  -5    7.30    0.26
  -2  -4  -5    7.81    0.49
   2  -4   5    8.00    0.53
   2  -4   5    7.82    0.45
  -2   4  -5    7.17    0.40
  -2   4  -5    7.37    0.59
  -2   4  -5    7.36    0.30
  -2   4  -5    7.75    0.41
  -2   4  -5    7.45    0.26
  -2   4  -5    7.63    0.29
   2   4   5    7.86    0.34
  -4  -4  -5   27.99    0.73
  -4  -4  -5   27.48    0.72
  -4  -4  -5   27.88    0.74
  -4   4  -5   28.09    0.74
  -4   4  -5   27.54    0.76
  -4   4  -5   28.93    0.73
  -4   4  -5   29.19    0.75
   5  -5  -5   29.42    0.76
   5  -5  -5   28.93    0.85
   5   5  -5   29.84    0.78
   5   5  -5   28.99    0.74
   5   5  -5   28.94    0.82
  -3  -5   5   13.51    0.59
   3  -5  -5   14.15    0.42
   3  -5  -5   14.27    0.52
   3  -5  -5   13.69    0.52
   3  -5  -5   11.74    0.82
   3   5  -5   13.79    0.43
   3   5  -5   13.87    0.74
   3   5  -5   13.85    0.48
   3   5  -5   14.11    0.38
  -3   5   5   13.67    0.48
  -3   5   5   13.07    0.72
   3   5  -5   14.13    0.43
   1  -5  -5   11.36    0.35
   1  -5  -5   11.27    0.43
  -1  -5   5   11.81    0.52
   1  -5  -5   12.17    0.69
  -1  -5   5   11.73    0.49
   1   5  -5   10.77    0.70
  -1   5   5   11.43    0.42
   1   5  -5   11.41    0.38
   1   5  -5   11.70    0.54
   1   5  -5   11.34    0.33
   1   5  -5   11.92    0.71
   1   5  -5   10.15    0.56
   1   5  -5   11.14    0.38
   1   5  -5   11.04    0.43
  -1   5   5   11.80    0.57
   1  -5   5    0.17    0.22
  -1  -5  -5    0.16    0.31
   1  -5   5    1.14    0.37
   1  -5   5    0.48    0.32
  -1  -5  -5    0.30    0.07
  -1   5  -5    0.19    0.31
  -1   5  -5    0.44    0.15
  -1   5  -5    0.37    0.21
   1   5   5    0.36    0.15
  -1   5  -5    0.65    0.24
  -1   5  -5    0.38    0.13
  -1   5  -5    0.32    0.09
   1   5   5    0.56    0.22
  -3  -5  -5    4.65    0.16
  -3  -5  -5    4.40    0.14
  -3   5  -5    4.46    0.14
  -3   5  -5    4.12    0.18
  -3   5  -5    4.57    0.18
  -3   5  -5    4.78    0.24
   2  -6  -5    0.76    0.10
  -2  -6   5    0.48    0.11
   2  -6  -5    0.52    0.08
   2  -6  -5    0.92    0.21
   2   6  -5    0.60    0.06
   2   6  -5    0.69    0.10
   0  -6  -5    8.50    0.26
   0  -6  -5    8.49    0.25
   0  -6   5    9.14    0.33
   0   6  -5    8.70    0.28
   0   6  -5    8.36    0.24
   6   0  -6    8.02    0.36
  -6   0   6    6.29    0.43
   6   0  -6    6.72    0.52
   6   0  -6    7.91    0.39
   6   0  -6    7.66    0.29
  -6   0   6    7.38    0.32
  -4   0   6   10.67    0.48
  -4   0   6   10.96    0.36
   4   0  -6   11.48    0.41
   4   0  -6   11.73    0.50
   4   0  -6   11.47    0.41
   4   0  -6   11.71    0.59
   2   0  -6   54.41    1.49
   2   0  -6   52.95    1.88
   2   0  -6   51.80    1.45
   2   0  -6   55.13    1.59
  -2   0   6   51.20    1.69
  -2   0   6   49.82    1.39
   2   0  -6   53.33    1.51
   2   0  -6   51.44    1.42
   0   0  -6   10.63    0.47
   0   0  -6   11.25    0.45
   0   0   6    8.76    0.76
   0   0  -6   11.12    0.62
   0   0  -6   10.47    0.41
   0   0  -6   11.04    0.64
   0   0  -6   11.20    0.40
   0   0   6    9.28    0.79
   0   0   6   10.96    0.41
  -2   0  -6    4.02    0.38
  -2   0  -6    4.29    0.22
  -2   0  -6    4.25    0.24
  -2   0  -6    3.90    0.48
  -2   0  -6    3.73    0.35
  -2   0  -6    4.27    0.19
  -4   0  -6    5.35    0.20
   4   0   6    4.73    0.50
  -4   0  -6    5.50    0.39
   4   0   6    5.44    0.29
  -4   0  -6    5.43    0.30
  -4   0  -6    5.38    0.19
  -4   0  -6    4.35    0.45
   7  -1  -6   18.27    0.58
   7  -1  -6   18.49    0.50
   7  -1  -6   18.57    0.52
   7   1  -6   18.55    0.57
   7   1  -6   18.71    0.49
   7   1  -6   18.83    0.53
   5  -1  -6   33.86    1.21
   5  -1  -6   42.67    1.64
   5  -1  -6   39.76    1.06
   5  -1  -6   40.19    1.15
   5   1  -6   40.10    1.14
   5   1  -6   40.61    1.54
   5   1  -6   36.44    1.23
  -5   1   6   41.10    1.28
   5   1  -6   39.24    1.06
   3  -1  -6   29.30    0.78
   3  -1  -6   28.90    0.92
   3  -1  -6   28.94    1.01
  -3  -1   6   22.53    1.29
   3  -1  -6   26.98    0.97
  -3  -1   6   25.14    1.02
  -3  -1   6   26.95    0.71
   3   1  -6   28.60    0.89
   3   1  -6   27.66    0.79
  -3   1   6   26.31    0.69
  -3   1   6   25.71    0.89
   3   1  -6   27.59    0.98
   3   1  -6   28.02    0.81
   3   1  -6   28.65    0.90
  -3   1   6   26.52    0.83
   3   1  -6   27.46    1.02
  -1  -1   6   68.17    1.89
  -1  -1   6   71.60    1.76
  -1  -1   6   70.17    2.28
  -1  -1   6   68.03    2.07
   1   1  -6   72.97    1.90
   1   1  -6   70.92    1.81
   1   1  -6   70.52    1.85
   1   1  -6   70.67    2.03
   1   1  -6   72.32    1.92
   1   1  -6   69.40    2.10
   1   1  -6   70.00    1.86
   1   1  -6   70.38    2.06
   1   1  -6   71.76    1.91
  -1  -1  -6   63.36    1.73
  -1  -1  -6   62.81    1.86
   1  -1   6   64.97    1.64
  -1  -1  -6   62.92    1.62
  -1  -1  -6   63.30    1.87
   1  -1   6   62.63    1.83
  -1  -1  -6   63.08    1.77
  -1  -1  -6   63.81    1.64
  -1   1  -6   61.75    1.66
  -1   1  -6   62.66    1.64
  -1   1  -6   60.90    1.85
  -1   1  -6   61.74    1.65
  -1   1  -6   65.47    1.92
  -1   1  -6   63.82    1.72
  -1   1  -6   63.07    1.72
  -3  -1  -6   11.49    0.39
  -3  -1  -6   11.34    0.55
  -3  -1  -6   11.69    0.35
  -3  -1  -6   11.61    0.36
   3  -1   6   12.12    0.60
  -3  -1  -6   11.32    0.65
   3  -1   6   12.37    0.70
  -3  -1  -6   11.98    0.53
   3  -1   6   11.67    0.40
  -3   1  -6   11.11    0.37
  -3   1  -6   11.79    0.36
   3   1   6   12.17    0.42
  -3   1  -6   11.57    0.43
  -3   1  -6   11.08    0.53
  -3   1  -6   11.16    0.49
  -3   1  -6   11.60    0.40
  -3   1  -6   11.28    0.57
  -3   1  -6   10.99    0.65
  -5  -1  -6    0.65    0.07
  -5  -1  -6    0.76    0.07
  -5   1  -6    0.66    0.07
  -5   1  -6    0.73    0.07
  -5   1  -6    0.63    0.07
  -6  -2   6    0.80    0.22
   6  -2  -6    0.63    0.15
   6  -2  -6    1.00    0.19
  -6  -2   6    0.97    0.31
   6   2  -6    1.32    0.19
  -6   2   6    0.70    0.16
   6   2  -6    1.53    0.36
   6   2  -6    0.42    0.25
   6   2  -6    0.98    0.11
   6   2  -6    0.95    0.14
   4  -2  -6   28.64    0.82
  -4  -2   6   27.00    0.78
   4  -2  -6   29.22    0.91
   4   2  -6   27.91    0.87
   4   2  -6   28.58    0.84
   4   2  -6   28.50    0.80
   4   2  -6   27.09    0.99
   4   2  -6   27.85    0.92
  -4   2   6   27.65    0.76
  -2  -2   6   11.41    0.49
  -2  -2   6   11.16    0.37
   2  -2  -6   10.15    0.55
   2   2  -6   10.77    0.39
   2   2  -6   10.48    0.57
   2   2  -6   11.02    0.39
   2   2  -6   11.69    0.41
   2   2  -6    9.53    0.65
   2   2  -6   11.40    0.48
   2   2  -6   11.28    0.47
   0  -2  -6   17.19    0.78
   0  -2  -6   17.62    0.68
   0  -2   6   18.01    0.52
   0  -2  -6   18.09    0.52
   0   2  -6   17.34    0.56
   0   2  -6   18.37    0.55
   0   2  -6   18.55    0.81
   0   2  -6   17.44    0.63
   0   2  -6   17.42    0.61
   0   2  -6   17.50    0.76
   0   2  -6   18.08    0.55
   2  -2   6    5.55    0.51
   2  -2   6    4.61    0.51
  -2  -2  -6    5.09    0.43
   2  -2   6    5.23    0.25
  -2  -2  -6    5.61    0.23
  -2  -2  -6    6.04    0.56
  -2  -2  -6    4.46    0.52
  -2  -2  -6    4.95    0.21
  -2  -2  -6    5.03    0.24
  -2   2  -6    4.95    0.25
   2   2   6    5.99    0.56
  -2   2  -6    4.03    0.64
  -2   2  -6    5.94    0.69
  -2   2  -6    5.99    0.36
  -2   2  -6    5.40    0.37
   2   2   6    5.33    0.27
  -2   2  -6    5.06    0.24
  -2   2  -6    5.07    0.33
  -2   2  -6    5.16    0.24
  -4  -2  -6    4.62    0.17
  -4  -2  -6    4.33    0.16
  -4   2  -6    4.29    0.17
  -4   2  -6    4.14    0.17
  -4   2  -6    4.57    0.19
  -4   2  -6    4.35    0.18
  -5  -3   6   30.60    0.88
   5  -3  -6   31.57    0.94
   5  -3  -6   32.44    0.96
  -5  -3   6   28.29    0.94
   5   3  -6   33.01    0.84
   5   3  -6   31.69    1.10
   5   3  -6   32.20    0.97
   5   3  -6   32.09    0.88
   5   3  -6   32.21    0.93
  -5   3   6   30.57    0.84
  -3  -3   6   47.15    1.30
   3  -3  -6   45.42    1.26
   3  -3  -6   47.54    1.34
   3   3  -6   46.47    1.25
   3   3  -6   46.06    1.31
   3   3  -6   46.91    1.50
   3   3  -6   47.06    1.24
   3   3  -6   47.24    1.29
   3   3  -6   44.82    1.46
   1  -3  -6   95.82    2.69
   1  -3  -6   93.45    2.41
  -1  -3   6   96.78    2.59
  -1  -3   6   97.77    2.49
   1   3  -6   95.66    2.67
   1   3  -6   94.37    2.50
   1   3  -6   96.88    2.48
   1   3  -6   96.47    2.54
   1   3  -6   96.98    2.74
   1   3  -6   94.53    2.46
   1   3  -6   94.15    2.45
  -1   3   6   96.68    2.46
  -1  -3  -6   31.64    1.16
  -1  -3  -6   32.07    0.87
  -1  -3  -6   31.78    0.86
   1  -3   6   34.04    0.93
  -1  -3  -6   32.53    1.04
  -1   3  -6   33.53    0.94
  -1   3  -6   31.96    0.98
  -1   3  -6   32.53    0.91
  -1   3  -6   31.16    0.89
  -1   3  -6   33.14    1.20
   1   3   6   33.40    0.93
  -3  -3  -6    0.89    0.12
  -3  -3  -6    0.70    0.11
  -3   3  -6    0.77    0.13
  -3   3  -6    0.87    0.12
   6  -4  -6    1.40    0.08
   6  -4  -6    1.43    0.15
   6   4  -6    1.11    0.13
   6   4  -6    1.39    0.06
   4  -4  -6   11.37    0.46
   4  -4  -6   11.40    0.44
   4   4  -6   11.88    0.42
   4   4  -6   11.52    0.37
  -4   4   6   11.00    0.42
   4   4  -6   12.16    1.03
   4   4  -6   11.05    0.36
   2  -4  -6   15.44    1.07
  -2  -4   6   14.18    0.59
   2  -4  -6   14.54    0.54
   2  -4  -6   14.05    0.42
   2  -4  -6   14.54    0.48
  -2  -4   6   14.23    0.50
   2   4  -6   14.41    0.45
   2   4  -6   14.24    0.80
   2   4  -6   14.10    0.45
   2   4  -6   13.77    0.57
  -2   4   6   15.61    0.84
   2   4  -6   14.71    0.51
  -2   4   6   14.51    0.47
   2   4  -6   13.71    0.71
   2   4  -6   14.20    0.54
   0  -4   6    9.19    0.48
   0  -4  -6    7.51    0.63
   0  -4   6    8.37    0.37
   0  -4  -6    8.02    0.27
   0  -4  -6    8.01    0.32
   0   4   6    8.70    0.34
   0   4  -6    8.00    0.43
   0   4  -6    8.45    0.31
   0   4  -6    7.97    0.30
   0   4   6    9.33    0.51
   0   4  -6    8.72    0.65
   0   4  -6    8.05    0.40
  -2  -4  -6    0.12    0.06
  -2   4  -6    0.25    0.08
  -2   4  -6    0.16    0.07
  -2   4  -6    0.17    0.07
   3  -5  -6    8.21    0.26
   3  -5  -6    7.85    0.33
   3   5  -6    8.24    0.23
   3   5  -6    7.60    0.30
   3   5  -6    7.88    0.26
   3   5  -6    7.64    0.27
   1  -5  -6   21.36    0.58
   1   5  -6   21.38    0.57
   1   5  -6   21.30    0.60
   1   5  -6   22.12    0.60
  -1  -5  -6   34.72    0.93
  -1   5  -6   36.96    0.92
  -1   5  -6   35.70    0.95
  -1   5  -6   36.61    0.95
   6   0  -7   10.02    0.37
   6   0  -7   10.26    0.32
   4   0  -7    4.89    0.30
  -4   0   7    4.88    0.43
  -4   0   7    4.81    0.24
   4   0  -7    5.45    0.25
   4   0  -7    5.27    0.30
   4   0  -7    5.32    0.58
   2   0  -7   31.19    0.96
   2   0  -7   33.44    1.47
   2   0  -7   31.47    0.89
   0   0  -7   44.82    1.38
   0   0  -7   46.18    1.25
   0   0  -7   51.61    1.74
   2   0   7    6.64    0.29
  -2   0  -7    6.92    0.23
  -2   0  -7    6.47    0.32
  -2   0  -7    6.87    0.24
  -2   0  -7    5.66    0.57
  -2   0  -7    6.11    0.41
   5  -1  -7   25.57    0.77
   5  -1  -7   25.57    0.78
  -5  -1   7   24.32    0.70
  -5  -1   7   22.93    0.80
   5  -1  -7   26.45    0.71
   5   1  -7   24.64    0.98
   5   1  -7   25.50    0.78
   5   1  -7   25.97    0.78
  -5   1   7   23.91    0.68
   5   1  -7   26.75    0.72
  -3  -1   7   31.05    0.84
   3  -1  -7   33.15    0.98
   3  -1  -7   31.87    0.90
   3   1  -7   33.07    1.04
  -3   1   7   30.30    0.82
   3   1  -7   32.49    0.96
   3   1  -7   31.98    0.90
   3   1  -7   32.42    1.12
   3   1  -7   32.86    0.91
  -1  -1   7   41.54    1.09
   1   1  -7   40.66    1.11
   1   1  -7   39.92    1.24
   1   1  -7   41.48    1.10
   1   1  -7   45.11    1.80
   1   1  -7   38.27    1.15
   1  -1   7   27.11    1.04
   1  -1   7   26.65    0.74
  -1  -1  -7   26.56    0.71
  -1  -1  -7   26.01    0.70
  -1   1  -7   26.09    0.74
  -1   1  -7   25.81    0.75
  -1   1  -7   25.53    0.83
  -1   1  -7   26.34    0.72
  -1   1  -7   24.56    0.86
  -1   1  -7   26.08    1.03
  -3  -1  -7    8.02    0.25
  -3  -1  -7    7.85    0.24
  -3   1  -7    8.45    0.26
  -3   1  -7    7.84    0.24
   6  -2  -7    1.72    0.16
   6   2  -7    1.63    0.09
   6   2  -7    1.86    0.16
   6   2  -7    1.64    0.11
   4  -2  -7    0.65    0.20
   4  -2  -7    0.39    0.13
  -4   2   7    0.81    0.19
   4   2  -7    0.75    0.13
   4   2  -7    0.83    0.18
   4   2  -7    0.82    0.29
   4   2  -7    0.48    0.12
  -2  -2   7   57.59    1.50
   2   2  -7   59.71    1.78
   2   2  -7   58.95    1.61
   2   2  -7   58.77    1.56
   2   2  -7   60.00    1.55
   2   2  -7   59.71    1.67
   2   2  -7   59.44    1.58
   0  -2   7    9.40    0.34
   0  -2  -7    9.15    0.30
   0   2  -7    9.30    0.68
   0   2  -7    9.07    0.34
   0   2  -7    9.41    0.32
   0   2  -7   10.03    0.65
   0   2  -7    9.29    0.38
   0   2  -7    9.11    0.47
  -2  -2  -7    0.96    0.10
  -2  -2  -7    1.39    0.12
  -2   2  -7    1.12    0.14
  -2   2  -7    1.48    0.18
   5  -3  -7   24.81    0.73
   5   3  -7   24.83    0.64
   5   3  -7   24.76    0.67
   5   3  -7   24.87    0.71
  -3  -3   7    7.12    0.33
   3  -3  -7    6.97    0.54
   3   3  -7    7.36    0.27
   3   3  -7    7.21    0.31
   3   3  -7    6.77    0.27
   3   3  -7    7.29    0.37
   3   3  -7    7.12    0.45
   3   3  -7    6.81    0.57
  -1  -3   7   10.43    0.52
   1  -3  -7   11.66    0.47
  -1  -3   7   11.16    0.39
   1   3  -7    8.69    0.47
   1   3  -7   10.17    0.35
   1   3  -7   10.72    0.67
   1   3  -7   10.27    0.43
   1   3  -7   10.27    0.34
   1   3  -7    9.94    0.73
  -1   3   7   10.49    0.44
  -1  -3  -7   37.04    0.96
  -1   3  -7   41.34    1.01
  -1   3  -7   33.43    1.00
   4  -4  -7    0.76    0.17
   4   4  -7    0.47    0.08
   4   4  -7    0.60    0.07
   4   4  -7    0.56    0.13
   2   4  -7   26.99    0.76
   2   4  -7   25.68    0.73
   2   4  -7   26.17    0.72
   2   4  -7   27.64    0.72
   0  -4  -7   13.04    0.36
   0   4  -7   13.09    0.38
   0   4  -7   12.70    0.38
   0   4  -7   12.98    0.39
   4   0  -8   14.46    0.47
   4   0  -8   14.37    0.42
   5  -1  -8    1.72    0.16
   5   1  -8    1.89    0.13
   5   1  -8    1.66    0.16
   3  -1  -8    2.09    0.22
   3   1  -8    2.43    0.15
   3   1  -8    2.35    0.20
   1   1  -8    1.47    0.16
  -1   1  -8   12.45    0.36
   4  -2  -8    1.14    0.18
   4   2  -8    1.15    0.15
   4   2  -8    1.26    0.10
   2   2  -8    6.66    0.24
   0   2  -8    6.62    0.22
   0   2  -8    6.47    0.23
   3   3  -8    8.36    0.26
   1   3  -8    6.25    0.21
   1   3  -8    6.33    0.22
   0   0   0    0.00    0.00
;
_shelx_hkl_checksum              96338
loop_
_space_group_symop_operation_xyz
'x, y, z'
'x, -y, z'
'x+1/2, y+1/2, z'
'x+1/2, -y+1/2, z'
loop_
_atom_site_label
_atom_site_type_symbol
_atom_site_fract_x
_atom_site_fract_y
_atom_site_fract_z
_atom_site_U_iso_or_equiv
_atom_site_adp_type
_atom_site_occupancy
_atom_site_site_symmetry_order
_atom_site_calc_flag
_atom_site_refinement_flags_posn
_atom_site_refinement_flags_adp
_atom_site_refinement_flags_occupancy
C1 C -0.5505(4) -0.5000 -0.6232(4) 0.0156(6) Uani 1 2 d S T P
C2 C -0.4293(4) -0.5000 -0.7403(4) 0.0166(6) Uani 1 2 d S T P
H2 H -0.4523 -0.5000 -0.8721 0.020 Uiso 1 2 calc R U P
C3 C -0.2681(4) -0.5000 -0.6173(4) 0.0172(6) Uani 1 2 d S T P
H3 H -0.1541 -0.5000 -0.6481 0.021 Uiso 1 2 calc R U P
C4 C -0.1729(4) -0.5000 -0.2646(4) 0.0177(6) Uani 1 2 d S T P
H4 H -0.0505 -0.5000 -0.2910 0.021 Uiso 1 2 calc R U P
C5 C -0.1952(3) -0.3106(3) -0.1573(3) 0.0204(5) Uani 1 1 d . . .
H5A H -0.1079 -0.3100 -0.0397 0.031 Uiso 1 1 calc R U .
H5B H -0.3153 -0.3067 -0.1321 0.031 Uiso 1 1 calc R U .
H5C H -0.1766 -0.1930 -0.2307 0.031 Uiso 1 1 calc R U .
N1 N -0.4766(3) -0.5000 -0.4441(3) 0.0161(6) Uani 1 2 d S T P
N2 N -0.3024(3) -0.5000 -0.4441(3) 0.0151(5) Uani 1 2 d S T P
N3 N -0.7417(3) -0.5000 -0.6787(3) 0.0165(6) Uani 1 2 d S T P
O1 O -0.8062(3) -0.5000 -0.8458(3) 0.0233(5) Uani 1 2 d S T P
O2 O -0.8300(3) -0.5000 -0.5571(3) 0.0230(6) Uani 1 2 d S T P
loop_
_atom_site_aniso_label
_atom_site_aniso_U_11
_atom_site_aniso_U_22
_atom_site_aniso_U_33
_atom_site_aniso_U_23
_atom_site_aniso_U_13
_atom_site_aniso_U_12
C1 0.0162(14) 0.0138(14) 0.0163(15) 0.000 0.0024(11) 0.000
C2 0.0189(16) 0.0159(13) 0.0147(15) 0.000 0.0027(11) 0.000
C3 0.0171(14) 0.0167(13) 0.0195(14) 0.000 0.0076(10) 0.000
C4 0.0111(14) 0.0244(16) 0.0168(15) 0.000 0.0010(10) 0.000
C5 0.0190(9) 0.0209(10) 0.0201(9) -0.0004(9) 0.0013(8) -0.0020(8)
N1 0.0103(12) 0.0192(12) 0.0186(13) 0.000 0.0023(10) 0.000
N2 0.0110(11) 0.0175(11) 0.0168(11) 0.000 0.0031(9) 0.000
N3 0.0129(12) 0.0155(13) 0.0195(15) 0.000 -0.0004(10) 0.000
O1 0.0210(12) 0.0280(12) 0.0175(10) 0.000 -0.0038(8) 0.000
O2 0.0145(12) 0.0313(11) 0.0236(12) 0.000 0.0050(8) 0.000
loop_
_atom_type_symbol
_atom_type_description
_atom_type_scat_dispersion_real
_atom_type_scat_dispersion_imag
_atom_type_scat_source
C C 0.0181 0.0091 'International Tables Vol C Tables 4.2.6.8 and 6.1.1.4'
H H 0.0000 0.0000 'International Tables Vol C Tables 4.2.6.8 and 6.1.1.4'
N N 0.0311 0.0180 'International Tables Vol C Tables 4.2.6.8 and 6.1.1.4'
O O 0.0492 0.0322 'International Tables Vol C Tables 4.2.6.8 and 6.1.1.4'
loop_
_geom_angle_atom_site_label_1
_geom_angle_atom_site_label_2
_geom_angle_atom_site_label_3
_geom_angle
_geom_angle_site_symmetry_1
_geom_angle_site_symmetry_3
N1 C1 C2 114.3(3) . .
N1 C1 N3 119.0(2) . .
C2 C1 N3 126.7(2) . .
C3 C2 C1 102.7(3) . .
C3 C2 H2 128.7 . .
C1 C2 H2 128.7 . .
N2 C3 C2 107.2(3) . .
N2 C3 H3 126.4 . .
C2 C3 H3 126.4 . .
N2 C4 C5 109.71(15) . .
N2 C4 C5 109.71(15) . 2_545
C5 C4 C5 112.5(2) . 2_545
N2 C4 H4 108.3 . .
C5 C4 H4 108.3 . .
C5 C4 H4 108.3 2_545 .
C4 C5 H5A 109.5 . .
C4 C5 H5B 109.5 . .
H5A C5 H5B 109.5 . .
C4 C5 H5C 109.5 . .
H5A C5 H5C 109.5 . .
H5B C5 H5C 109.5 . .
C1 N1 N2 102.9(2) . .
N1 N2 C3 112.9(2) . .
N1 N2 C4 119.2(2) . .
C3 N2 C4 127.9(2) . .
O1 N3 O2 124.0(2) . .
O1 N3 C1 117.5(2) . .
O2 N3 C1 118.5(2) . .
loop_
_geom_bond_atom_site_label_1
_geom_bond_atom_site_label_2
_geom_bond_distance
_geom_bond_site_symmetry_2
C1 N1 1.325(4) .
C1 C2 1.394(4) .
C1 N3 1.443(3) .
C2 C3 1.377(4) .
C2 H2 0.9500 .
C3 N2 1.355(4) .
C3 H3 0.9500 .
C4 N2 1.482(3) .
C4 C5 1.518(2) .
C4 C5 1.518(2) 2_545
C4 H4 1.0000 .
C5 H5A 0.9800 .
C5 H5B 0.9800 .
C5 H5C 0.9800 .
N1 N2 1.340(3) .
N3 O1 1.229(3) .
N3 O2 1.231(3) .
loop_
_geom_torsion_atom_site_label_1
_geom_torsion_atom_site_label_2
_geom_torsion_atom_site_label_3
_geom_torsion_atom_site_label_4
_geom_torsion
_geom_torsion_site_symmetry_1
N1 C1 C2 C3 0.000(1) .
N3 C1 C2 C3 180.000(1) .
C1 C2 C3 N2 0.000(1) .
C2 C1 N1 N2 0.000(1) .
N3 C1 N1 N2 180.000(1) .
C1 N1 N2 C3 0.000(1) .
C1 N1 N2 C4 180.000(0) .
C2 C3 N2 N1 0.000(1) .
C2 C3 N2 C4 180.000(1) .
C5 C4 N2 N1 -62.06(16) .
C5 C4 N2 N1 62.06(16) 2_545
C5 C4 N2 C3 117.94(16) .
C5 C4 N2 C3 -117.94(16) 2_545
N1 C1 N3 O1 180.000(1) .
C2 C1 N3 O1 0.000(1) .
N1 C1 N3 O2 0.000(1) .
C2 C1 N3 O2 180.000(1) .
