#------------------------------------------------------------------------------
#$Date: 2017-05-05 02:26:47 +0300 (Fri, 05 May 2017) $
#$Revision: 196194 $
#$URL: file:///home/coder/svn-repositories/cod/cif/4/03/24/4032475.cif $
#------------------------------------------------------------------------------
#
# This file is available in the Crystallography Open Database (COD),
# http://www.crystallography.net/
#
# All data on this site have been placed in the public domain by the
# contributors.
#
data_4032475
loop_
_publ_author_name
'Langis-Barsetti, Sophie'
'Maris, Thierry'
'Wuest, James D.'
_publ_section_title
;
 Molecular Organization of 2,1,3-Benzothiadiazoles in the Solid State.
;
_journal_name_full               'The Journal of organic chemistry'
_journal_paper_doi               10.1021/acs.joc.6b02778
_journal_year                    2017
_chemical_formula_moiety         'C6 N6 S3'
_chemical_formula_sum            'C6 N6 S3'
_chemical_formula_weight         252.30
_space_group_crystal_system      orthorhombic
_space_group_IT_number           31
_space_group_name_Hall           'P 2ac -2'
_space_group_name_H-M_alt        'P m n 21'
_symmetry_space_group_name_Hall  'P 2ac -2'
_symmetry_space_group_name_H-M   'P m n 21'
_atom_sites_solution_primary     direct
_audit_creation_date             2016-10-29
_audit_creation_method
;
Olex2 1.2
(compiled 2016.09.09 svn.r3337 for OlexSys, GUI svn.r5227)
;
_cell_angle_alpha                90
_cell_angle_beta                 90
_cell_angle_gamma                90
_cell_formula_units_Z            2
_cell_length_a                   14.218(2)
_cell_length_b                   3.6510(7)
_cell_length_c                   7.7954(13)
_cell_measurement_reflns_used    2474
_cell_measurement_temperature    100
_cell_measurement_theta_max      60.565
_cell_measurement_theta_min      5.415
_cell_volume                     404.66(12)
_computing_cell_refinement
;
SAINT (2013) V8.34A; Integration Software for Single Crystal Data.
Bruker AXS Inc., Madison, WI 53719-1173.
;
_computing_data_collection
;
APEX 2 (2013) Bruker AXS Inc., Madison, WI 53719-1173.
;
_computing_data_reduction
;
SAINT (2013) V8.34A; Integration Software for Single Crystal Data.
Bruker AXS Inc., Madison, WI 53719-1173.
;
_computing_molecular_graphics    'Olex2 (Dolomanov et al., 2009)'
_computing_publication_material  'Olex2 (Dolomanov et al., 2009)'
_computing_structure_refinement  'ShelXL (Sheldrick, 2015)'
_computing_structure_solution    'XT (Sheldrick, 2015)'
_diffrn_ambient_temperature      100
_diffrn_detector                 'CMOS Area detector'
_diffrn_detector_area_resol_mean 10.24
_diffrn_detector_type            'Bruker Photon 100 CMOS Detector'
_diffrn_measured_fraction_theta_full 1.000
_diffrn_measured_fraction_theta_max 1.000
_diffrn_measurement_device       'k-geometry diffractometer'
_diffrn_measurement_device_type  'Bruker Venture Metaljet'
_diffrn_measurement_method       '\w and \f scans'
_diffrn_radiation_collimation    'Focusing mirrors'
_diffrn_radiation_monochromator  'Helios MX Mirror Optics'
_diffrn_radiation_probe          x-ray
_diffrn_radiation_type           GaK\a
_diffrn_radiation_wavelength     1.34139
_diffrn_reflns_av_R_equivalents  0.0577
_diffrn_reflns_av_unetI/netI     0.0581
_diffrn_reflns_Laue_measured_fraction_full 1.000
_diffrn_reflns_Laue_measured_fraction_max 1.000
_diffrn_reflns_limit_h_max       18
_diffrn_reflns_limit_h_min       -18
_diffrn_reflns_limit_k_max       4
_diffrn_reflns_limit_k_min       -4
_diffrn_reflns_limit_l_max       9
_diffrn_reflns_limit_l_min       -10
_diffrn_reflns_number            3851
_diffrn_reflns_point_group_measured_fraction_full 1.000
_diffrn_reflns_point_group_measured_fraction_max 1.000
_diffrn_reflns_theta_full        53.594
_diffrn_reflns_theta_max         60.707
_diffrn_reflns_theta_min         5.414
_diffrn_source                   'Metal Jet'
_diffrn_source_target            Ga
_diffrn_source_type              'Gallium Liquid Metal Jet Source'
_exptl_absorpt_coefficient_mu    5.384
_exptl_absorpt_correction_T_max  0.7519
_exptl_absorpt_correction_T_min  0.5586
_exptl_absorpt_correction_type   multi-scan
_exptl_absorpt_process_details
;
SADABS-2014/5 (Bruker,2014/5) was used for absorption correction.
wR2(int) was 0.1329 before and 0.0806 after correction.
The Ratio of minimum to maximum transmission is 0.7429.
The \l/2 correction factor is 0.00150.
;
_exptl_crystal_colour            'clear light colourless'
_exptl_crystal_colour_lustre     clear
_exptl_crystal_colour_modifier   light
_exptl_crystal_colour_primary    colourless
_exptl_crystal_density_diffrn    2.071
_exptl_crystal_description       Needle
_exptl_crystal_F_000             252
_exptl_crystal_size_max          0.4
_exptl_crystal_size_mid          0.015
_exptl_crystal_size_min          0.015
_refine_diff_density_max         0.512
_refine_diff_density_min         -0.502
_refine_diff_density_rms         0.110
_refine_ls_abs_structure_details
;
 Refined as an inversion twin.
;
_refine_ls_abs_structure_Flack   0.08(7)
_refine_ls_extinction_method     none
_refine_ls_goodness_of_fit_ref   1.124
_refine_ls_hydrogen_treatment    undef
_refine_ls_matrix_type           full
_refine_ls_number_parameters     71
_refine_ls_number_reflns         910
_refine_ls_number_restraints     1
_refine_ls_restrained_S_all      1.123
_refine_ls_R_factor_all          0.0426
_refine_ls_R_factor_gt           0.0387
_refine_ls_shift/su_max          0.000
_refine_ls_shift/su_mean         0.000
_refine_ls_structure_factor_coef Fsqd
_refine_ls_weighting_details
'w=1/[\s^2^(Fo^2^)+(0.0556P)^2^+0.0335P] where P=(Fo^2^+2Fc^2^)/3'
_refine_ls_weighting_scheme      calc
_refine_ls_wR_factor_gt          0.0957
_refine_ls_wR_factor_ref         0.0979
_reflns_Friedel_coverage         0.865
_reflns_Friedel_fraction_full    1.000
_reflns_Friedel_fraction_max     1.000
_reflns_number_gt                846
_reflns_number_total             910
_reflns_threshold_expression     'I > 2\s(I)'
_cod_data_source_file            jo6b02778_si_004.cif
_cod_data_source_block           jw1814
_cod_depositor_comments
;
The following automatic conversions were performed:

'_diffrn_radiation_probe' value 'X-ray' changed to 'x-ray' according
to
/home/data/users/saulius/crontab/automatic-downloads/rss-feeds/ACS/lib/dictionaries/cif_core.dic
dictionary named 'cif_core.dic' version 2.4.2 from 2011-04-26.

Automatic conversion script
Id: cif_fix_values 4973 2017-02-22 13:04:09Z antanas 
;
_cod_database_code               4032475
_shelx_space_group_comment
;
The symmetry employed for this shelxl refinement is uniquely defined
by the following loop, which should always be used as a source of
symmetry information in preference to the above space-group names.
They are only intended as comments.
;
_shelx_estimated_absorpt_t_max   0.924
_shelx_estimated_absorpt_t_min   0.222
_olex2_refinement_description
;
1. Twinned data refinement
 Scales: 0.92(7) 0.08(7)
;
_shelx_res_file
;
TITL jw1814_a.res in Pmn2(1)
    jw1814.res
    created by SHELXL-2016/6 at 11:51:18 on 29-Oct-2016
REM Old TITL JW1814 in Pmn21 #31
REM SHELXT solution in Pmn2(1)
REM R1 0.069, Rweak 0.004, Alpha 0.001, Orientation as input
REM Flack x = 0.163 ( 0.027 ) from Parsons' quotients
REM Formula found by SHELXT: C6 N6 S3
CELL 1.34139 14.218 3.651 7.7954 90 90 90
ZERR 2 0.0023 0.0007 0.0013 0 0 0
LATT -1
SYMM 0.5-X,-Y,0.5+Z
SYMM 0.5+X,-Y,0.5+Z
SYMM -X,+Y,+Z
SFAC C N S
DISP C 0.014 0.007 57.748
DISP N 0.025 0.014 110.512
DISP S 0.292 0.429 3294.3
UNIT 12 12 6

L.S. 25
PLAN  5
SIZE 0.015 0.015 0.4
TEMP -173
BOND
LIST 4
MORE -1
CONF
fmap 2 53
acta
TWIN -1 0 0 0 -1 0 0 0 -1 2
REM <olex2.extras>
REM <HklSrc "%.\\JW1814.hkl">
REM </olex2.extras>

WGHT    0.055600    0.033500
BASF   0.07741
FVAR       1.25958
S1    3    0.500000    0.377843    0.150941    10.50000    0.01968    0.02631 =
         0.01180   -0.00140    0.00000    0.00000
S2    3    0.714908    0.888156    0.785861    11.00000    0.01679    0.02810 =
         0.01294   -0.00179   -0.00091   -0.00075
N1    2    0.588017    0.478612    0.276601    11.00000    0.01917    0.02518 =
         0.01204    0.00076   -0.00018    0.00171
N2    2    0.607762    0.965490    0.849021    11.00000    0.02079    0.02334 =
         0.01119   -0.00156   -0.00031   -0.00021
N3    2    0.694633    0.720490    0.596444    11.00000    0.01700    0.02737 =
         0.01273    0.00186   -0.00136    0.00019
C1    1    0.550710    0.596760    0.424048    11.00000    0.02014    0.02239 =
         0.00937   -0.00169   -0.00064    0.00138
C2    1    0.600864    0.718599    0.576741    11.00000    0.01709    0.02262 =
         0.01101   -0.00072    0.00066    0.00009
C3    1    0.551454    0.852426    0.721374    11.00000    0.01846    0.02088 =
         0.01073    0.00187   -0.00052   -0.00170
HKLF 4




REM  jw1814_a.res in Pmn2(1)
REM R1 =  0.0387 for     846 Fo > 4sig(Fo)  and  0.0426 for all     910 data
REM     71 parameters refined using      1 restraints

END

WGHT      0.0580      0.0000

REM Highest difference peak  0.512,  deepest hole -0.502,  1-sigma level  0.110
Q1    1   0.5000  0.5663  0.4121  10.50000  0.05    0.51
Q2    1   0.5000  0.6425  0.1429  10.50000  0.05    0.38
Q3    1   0.5000  0.9868  0.9876  10.50000  0.05    0.36
Q4    1   0.6003  1.1294  0.6612  11.00000  0.05    0.35
Q5    1   0.6136  0.6210  1.0328  11.00000  0.05    0.34
;
_shelx_res_checksum              33210
_shelx_hkl_file
;
  -1   0   0   -0.40    0.60
   1   0   0   -0.20    0.60
   2   0   0  337.87   25.10
  -2   0   0  285.27   25.10
   3   0   0   -2.00    1.80
  -3   0   0   -1.50    2.10
   4   0   0  891.61   71.49
  -4   0   0  894.91   71.49
   5   0   0   -3.80    3.10
  -5   0   0   -4.30    3.30
   5   0   0   -3.40    3.90
  -6   0   0 1340.47  107.39
   6   0   0 1360.16  107.49
   6   0   0 1325.97  107.89
  -7   0   0   -5.40    5.00
   7   0   0   -3.10    4.10
  -7   0   0   -0.30    4.10
   7   0   0   -1.10    4.80
  -7   0   0    2.30    6.40
  -7   0   0   -8.80    3.90
   8   0   0  144.59   17.10
   8   0   0  189.68   15.90
  -8   0   0  146.59   16.70
  -8   0   0  157.58   14.60
  -8   0   0  147.39   14.80
  -8   0   0  140.99   14.70
   9   0   0    1.30    5.20
  -9   0   0   -9.20    7.10
  -9   0   0   -5.20    6.00
  -9   0   0  -10.00    9.40
  -9   0   0   -5.40    4.80
 -10   0   0 3768.02  304.07
 -10   0   0 3888.41  303.87
  10   0   0 3878.11  304.67
 -10   0   0 3714.43  303.47
 -11   0   0   16.40   15.00
 -11   0   0   -9.00    8.20
  11   0   0    2.40    6.90
 -11   0   0    5.00    6.80
 -12   0   0  384.06   32.80
  12   0   0  348.97   33.50
  13   0   0   -4.80    9.50
 -13   0   0    0.30    7.80
  14   0   0  713.83   60.39
 -14   0   0  685.03   59.29
 -15   0   0    9.90    9.90
  15   0   0  -14.70   10.20
 -16   0   0  152.88   19.80
  16   0   0  129.49   18.40
 -17   0   0    4.70   11.40
  17   0   0    0.40   13.20
  18   0   0  682.03   67.29
 -18   0   0  858.11   66.59
   0   1   0  144.99   12.10
  -1   1   0 2097.19  167.18
   1   1   0 2106.29  166.98
  -2   1   0 4448.15  364.06
   2   1   0 4001.70  365.66
  -2   1   0 5274.77  363.86
  -3   1   0 3373.26  247.98
   3  -1   0 3309.27  248.08
  -3   1   0 2976.50  248.18
   3   1   0 2792.12  250.17
   4  -1   0    2.30    4.60
  -4   1   0   -1.50    3.60
   4   1   0   11.30   10.20
  -4   1   0    3.30    4.30
   4  -1   0    0.70    4.60
  -5   1   0  152.58   15.60
  -5   1   0  173.38   15.10
   5  -1   0  161.98   16.00
   5  -1   0  166.98   15.80
   6  -1   0  291.67   24.80
  -6   1   0  279.37   24.70
  -6   1   0  269.47   24.10
  -6   1   0  268.77   24.90
  -6   1   0  312.47   24.50
   6   1   0  266.17   24.40
   7  -1   0 4511.85  343.77
   7   1   0 4326.17  343.27
  -7  -1   0 4854.11  342.97
  -7  -1   0 3867.01  342.47
  -7   1   0 4018.80  343.67
  -7   1   0 4083.99  343.57
  -7   1   0 4605.34  343.77
  -7   1   0 4047.70  343.17
  -7   1   0 4503.45  343.47
  -8  -1   0   24.60    5.20
  -8   1   0   18.50    6.50
  -8   1   0   24.00    9.50
   8  -1   0   24.00    6.30
   8   1   0   16.70    7.10
  -8   1   0   18.90    6.10
  -8  -1   0    9.00    5.50
  -8   1   0   14.60    7.40
  -8   1   0   14.70    5.40
  -9   1   0   44.50    7.60
  -9  -1   0   48.80   10.90
  -9   1   0   44.80    8.20
   9  -1   0   45.40    8.30
   9   1   0   52.99    8.80
  -9   1   0   36.50    9.60
  -9   1   0   50.89    9.00
  -9   1   0   53.79   11.20
 -10   1   0   10.00    7.50
 -10   1   0   17.60    8.70
 -10   1   0    0.60    6.50
  10   1   0   18.20    8.60
 -10  -1   0    9.80    6.10
 -10   1   0   26.60   13.80
 -10   1   0   18.70    7.30
  10  -1   0   -0.90    6.50
 -11   1   0  532.25   44.60
 -11   1   0  525.35   45.30
 -11   1   0  446.36   45.70
 -11  -1   0  566.14   44.20
  11  -1   0  543.45   45.80
  11   1   0  527.35   46.00
  12   1   0 1404.66  110.99
  12  -1   0 1368.66  112.69
 -12  -1   0 1150.88  109.69
 -12   1   0 1502.75  110.09
 -12   1   0 1417.76  110.89
  12   1   0 1303.17  108.89
 -13   1   0  536.15   41.80
  13   1   0  487.15   43.40
  13   1   0  463.35   40.20
 -13   1   0  456.55   42.00
 -13  -1   0  430.56   41.40
  13  -1   0  478.45   42.80
 -14  -1   0   18.90   10.90
 -14   1   0   32.30   10.60
 -14   1   0   43.00   11.90
  14  -1   0   37.00   10.90
  14   1   0   22.00   13.30
 -15   1   0   47.70   12.20
  15  -1   0   48.70   12.10
 -15   1   0   40.60   14.60
 -15  -1   0   39.90   11.60
 -16   1   0  381.66   36.10
  16  -1   0  382.36   37.20
 -16  -1   0  410.06   36.70
 -17   1   0  133.29   18.20
  17  -1   0  106.59   17.30
 -17  -1   0  149.49   20.40
 -18  -1   0  157.88   21.20
  18  -1   0  105.79   17.50
 -18   1   0  130.29   18.20
   0   2   0  168.98   14.80
   0   2   0  157.78   14.70
   0   2   0  168.08   17.20
   0   2   0  170.48   26.00
  -1   2   0 1005.10   82.09
   1   2   0 1019.90   83.59
  -1   2   0  984.30   87.29
   1   2   0 1035.00   82.19
   1   2   0  951.20   87.39
  -1   2   0 1115.09   82.59
  -1   2   0 1049.09   83.39
   2   2   0  151.28   17.10
   2   2   0  147.89   22.80
  -2   2   0  148.19   14.00
   2   2   0  174.98   14.30
  -2   2   0  165.68   25.60
  -2   2   0  150.18   16.30
  -2   2   0  175.88   15.30
  -3   2   0    3.70    6.10
   3   2   0    3.30    3.20
  -3   2   0   10.30    3.50
  -3   2   0    1.80    5.40
   3  -2   0   12.70    8.50
  -3   2   0    1.50    7.20
   3   2   0    3.70    6.50
   3   2   0    5.90   13.90
  -3   2   0   -1.70   14.90
   4   2   0   67.49    7.50
  -4   2   0   75.99   10.30
  -4   2   0   71.49   17.70
   4  -2   0   57.89    9.70
  -4   2   0   67.59   10.40
  -4   2   0   60.19    8.80
   4   2   0   64.79   18.40
  -5   2   0 1704.63  131.19
   5   2   0 1788.62  137.49
   5   2   0 1616.94  129.99
   5  -2   0 1336.67  131.59
  -5   2   0 1645.94  130.79
  -5   2   0 1694.63  131.59
  -6   2   0  197.98   34.40
  -6   2   0  288.57   25.70
  -6   2   0  264.77   23.80
   6   2   0  256.87   22.60
  -6   2   0  272.27   26.20
   6  -2   0  280.87   25.10
   7   2   0  214.18   19.80
   7  -2   0  248.98   22.80
  -7   2   0  223.78   21.10
  -7   2   0  225.48   21.50
  -7   2   0  237.38   23.30
  -7   2   0  233.58   25.40
   8  -2   0   57.89   10.30
   8   2   0   69.19    8.20
  -8   2   0   55.09    9.00
  -8   2   0   58.69    9.60
  -8   2   0   70.39   11.80
  -9  -2   0 1850.61  148.29
  -9   2   0 1915.61  149.19
  -9   2   0 1825.72  149.88
   9   2   0 1858.51  147.69
  -9   2   0 1785.12  148.69
   9  -2   0 1844.62  149.49
 -10   2   0    5.60    7.40
 -10   2   0   -6.10    8.60
  10   2   0   -2.80    4.60
 -10  -2   0   -2.20    7.20
 -10   2   0   -4.70    6.60
  10  -2   0    0.30    8.90
  11   2   0   20.10    6.80
 -11   2   0   23.20   10.70
  11  -2   0   20.90    9.30
 -11   2   0   18.70    8.60
 -11  -2   0   29.80    7.90
  12   2   0    9.60    6.40
 -12   2   0    4.60    8.10
 -12   2   0  -11.00   13.90
 -12  -2   0   -1.80    9.00
 -12   2   0    4.90    9.50
  12  -2   0    6.00    9.20
  13   2   0  415.36   35.30
  13  -2   0  445.46   38.60
 -13   2   0  442.96   37.10
 -13   2   0  356.76   38.00
 -13   2   0  414.46   38.10
 -13  -2   0  414.86   36.80
  14   2   0   31.90    8.90
 -14  -2   0   21.10   11.30
  14  -2   0   32.20   11.90
 -14   2   0    9.90    9.80
 -14   2   0   18.20    9.90
 -15   2   0  125.79   18.20
  15  -2   0  147.39   21.40
 -15   2   0  143.69   18.60
 -16  -2   0   30.70   13.60
 -16   2   0   26.10   13.10
 -16   2   0   52.99   12.20
  16  -2   0   37.20   14.10
   0   3   0  -23.10   24.20
   0   3   0    4.00    3.70
   0   3   0    3.70    7.00
  -1   3   0   10.70    7.70
   1   3   0    6.00    4.00
   1   3   0    9.30    7.80
  -1   3   0    5.60   26.60
  -1   3   0   16.60    4.20
   1   3   0   -7.00   26.40
   2   3   0  200.18   17.30
   2   3   0  197.68   35.00
  -2   3   0  199.88   20.20
   2   3   0  193.18   20.90
  -2   3   0  164.78   35.80
  -2   3   0  189.88   17.00
   3   3   0  162.98   15.20
   3   3   0  170.78   19.10
  -3   3   0  161.18   18.00
   3   3   0  161.08   32.90
   4   3   0   35.60    9.60
  -4   3   0   22.80    7.80
  -4   3   0   25.30    7.70
   4   3   0   30.20    5.50
   5   3   0   48.90   11.30
   5   3   0   55.59    6.80
  -5   3   0   50.19    9.00
  -5   3   0   47.00    9.40
  -6   3   0  213.28   23.10
   6   3   0  227.98   20.40
  -6   3   0  233.98   22.30
   6   3   0  244.98   24.90
  -7   3   0  729.13   62.69
   7   3   0  764.52   64.09
  -7   3   0  719.23   63.49
   7   3   0  802.42   61.49
  -8   3   0  264.17   26.00
   8   3   0  309.77   24.40
  -8   3   0  258.87   27.00
   8   3   0  270.77   28.80
  -9  -3   0    7.20    8.10
  -9   3   0   15.80    8.10
  -9   3   0   -6.80    8.00
  -9   3   0   -9.90   13.00
   9   3   0    1.80    6.10
   9   3   0   -0.80   12.50
  10   3   0   77.59   10.20
  10   3   0   99.99   17.20
 -10   3   0  104.09   13.40
 -10   3   0  106.79   14.30
 -10   3   0   86.69   17.50
 -10  -3   0   82.69   12.40
  11   3   0  966.70   73.39
 -11   3   0  850.41   74.89
 -11   3   0 1020.80   75.49
 -11  -3   0  776.32   74.19
 -11   3   0  912.01   76.59
 -12   3   0   99.19   15.90
 -12   3   0  116.89   16.20
 -12   3   0  139.89   17.00
  12   3   0  128.29   12.90
 -12  -3   0   74.79   13.50
  13   3   0   49.00    8.80
 -13  -3   0   77.19   14.00
 -13   3   0   91.49   14.00
 -13   3   0   65.79   11.10
  14   3   0   60.39    9.20
 -14   3   0   72.79   12.00
   0   4   0  389.36   41.20
   0   4   0  552.14   38.80
   1   4   0   41.50    6.00
   1   4   0   28.60   10.00
  -1   4   0   27.00    9.70
   2   4   0    1.10    8.80
   2   4   0    3.10    4.70
  -2   4   0    9.60    8.70
   3   4   0  146.19   13.40
  -3   4   0  126.79   17.70
  -3   4   0  133.59   16.90
  -4   4   0  781.72   62.09
  -4   4   0  699.23   62.49
   5   4   0    0.30   11.10
  -5   4   0    2.50    8.00
  -5   4   0   19.70    9.70
   5   4   0    1.40    4.80
  -6   4   0   54.69   11.20
   6   4   0   57.79   13.80
  -6   4   0   66.09   10.80
   6   4   0   67.99    7.80
   7   4   0    4.10   14.30
   7   4   0   33.40    6.40
  -7   4   0   32.20   11.80
  -7   4   0   38.50    9.20
  -8   4   0  -10.30    8.10
   8   4   0   11.10    5.00
  -8   4   0    7.30    8.20
  -8  -4   0    0.30   13.70
  -9   4   0  257.47   26.60
  -9   4   0  187.58   22.60
   9   4   0  248.98   20.20
   0   0  -1    4.30   18.30
   0   0   1    3.00   18.70
   1   0   1  659.93   52.69
   2   0   1   -1.10    1.40
   2   0  -1   -2.00    1.80
  -2   0  -1   -1.70    1.60
  -3   0  -1 7871.11  635.64
   3   0   1 8146.29  635.64
   3   0  -1 8002.10  636.04
  -4   0  -1   -5.40    2.20
  -4   0   1    2.10    2.70
   4   0   1    4.80    2.80
  -5   0   1 1264.27  100.29
   5   0   1 1228.18  100.69
   5   0  -1 1347.57  100.79
  -5   0  -1 1117.29  100.09
   5   0   1 1315.77  100.39
  -5   0  -1 1252.77  100.29
   6   0   1    0.40    4.00
   6   0  -1   -2.40    4.00
  -6   0  -1   -1.90    3.90
   6   0   1    2.50    4.00
  -6   0  -1   -1.90    3.70
  -6   0  -1    0.20    4.00
  -6   0   1   -3.60    4.10
  -7   0  -1 5093.49  399.06
  -7   0  -1 4794.02  398.76
  -7   0   1 5156.78  399.06
   7   0   1 4692.93  399.06
   7   0  -1 5404.86  399.56
   7   0   1 4777.02  399.36
  -7   0   1 4948.31  398.96
  -7   0  -1 5097.89  398.76
  -7   0  -1 5192.98  398.96
  -8   0   1   -2.60    4.90
  -8   0  -1    2.00    4.80
  -8   0  -1   -4.60    4.10
   8   0  -1   -0.50    5.00
   8   0   1    5.10    5.40
  -8   0   1  -10.20    6.90
  -8   0  -1    2.20    6.10
  -8   0  -1    0.70    5.70
  -8   0   1   -1.10    6.90
  -9   0  -1 1446.06  121.59
  -9   0   1 1413.66  121.69
  -9   0  -1 1527.05  122.29
  -9   0  -1 1548.35  121.79
   9   0   1 1480.45  122.59
  -9   0   1 1614.74  122.09
  -9   0   1 1606.44  122.29
   9   0  -1 1514.55  122.69
 -10   0  -1  -18.70    9.20
 -10   0  -1   -6.10    5.20
 -10   0  -1   -0.30   10.40
  10   0   1    2.30    5.60
 -10   0  -1   -2.10    6.00
 -10   0   1   -6.80    9.50
 -10   0   1   -0.60    6.20
  10   0  -1   -4.10    6.40
 -11   0  -1 1446.46  120.89
 -11   0  -1 1482.15  119.69
 -11   0  -1 1602.24  120.19
  11   0  -1 1414.76  121.09
 -11   0  -1 1416.36  121.29
  11   0   1 1422.06  120.79
 -11   0   1 1571.74  120.39
 -11   0   1 1544.85  121.39
  12   0  -1    0.50    8.30
 -12   0  -1   -3.40    8.70
  12   0   1    3.00    6.40
 -12   0  -1    1.80    7.10
 -12   0   1   -0.20    7.50
 -13   0  -1  587.64   59.69
  13   0   1  728.33   59.49
 -13   0   1  786.22   58.89
  13   0  -1  676.83   59.29
 -13   0  -1  678.63   58.19
 -14   0  -1   -3.80    9.20
 -14   0   1   -4.40   10.00
  14   0  -1   -5.60    9.40
  14   0   1    4.20    9.60
  15   0  -1   64.09   12.40
  15   0   1   46.50   13.70
 -15   0  -1   50.89   11.80
 -15   0   1   66.69   12.90
  16   0   1   -0.40   12.40
 -16   0   1   -2.70   10.80
  16   0  -1    7.40   12.10
 -16   0  -1    1.80   10.40
 -17   0  -1  180.38   21.20
 -17   0   1  168.58   22.80
  17   0   1  165.68   24.70
  17   0  -1  152.98   20.90
  18   0   1   -9.10   16.70
 -18   0  -1   14.40   12.60
  18   0  -1  -16.90   16.50
 -18   0   1    6.30   14.00
   0   1   1 9999.00  795.42
   1  -1   1 8736.53  617.24
  -1   1   1 6559.74  618.34
   1   1  -1 7317.67  617.14
  -1   1  -1 8506.85  617.14
   1   1   1 7752.42  619.24
  -2   1   1  479.35   42.10
   2  -1   1  504.05   40.40
  -2   1  -1  482.55   40.80
  -2   1  -1  550.14   40.40
   2  -1  -1  509.15   40.30
   2   1   1  453.85   44.00
   3  -1   1  505.55   38.30
  -3   1   1  494.15   37.60
  -3   1   1  448.06   38.60
   3   1   1  419.56   41.60
   3  -1  -1  423.26   37.80
  -3   1  -1  457.35   37.30
   3   1   1  476.15   36.90
  -3   1  -1  426.86   37.60
  -4   1   1  789.22   63.79
   4  -1   1  786.82   63.19
   4  -1   1  762.82   62.99
  -4   1   1  841.32   63.09
   4  -1  -1  794.72   63.29
   4   1   1  821.12   62.39
  -4   1  -1  745.33   62.79
  -4   1  -1  731.43   62.99
   4   1   1  755.42   67.39
  -4   1  -1  756.32   62.99
  -5   1   1  394.76   34.00
  -5  -1  -1  433.56   33.30
  -5   1   1  331.67   34.40
   5  -1   1  384.66   34.30
   5  -1   1  349.47   34.20
   5   1   1  376.56   40.40
  -5   1  -1  401.56   34.00
  -5   1  -1  462.35   33.90
   5   1   1  354.46   33.20
  -5   1  -1  446.36   34.30
  -5   1  -1  485.55   34.30
   5  -1  -1  475.65   34.50
  -6   1   1   43.70    6.90
   6   1  -1   47.30    6.00
  -6  -1  -1   51.89    6.10
  -6   1   1   44.30    8.50
   6   1  -1   39.10    6.80
   6  -1   1   36.10    7.00
  -6   1   1   31.30    6.70
  -6   1  -1   46.20    7.00
  -6   1  -1   55.09    6.90
  -6   1  -1   55.49    6.70
   6   1   1   33.10    5.70
   6  -1  -1   42.50    6.60
  -6   1  -1   63.29    9.10
  -6   1  -1   52.79    6.90
   6   1   1   48.10    7.40
   7   1  -1 1750.42  142.39
  -7  -1  -1 1889.81  141.79
   7  -1   1 1904.71  142.89
  -7   1   1 1792.92  142.29
  -7   1   1 1703.23  142.69
  -7  -1  -1 1526.05  142.29
   7   1  -1 1646.24  141.69
  -7   1   1 1955.90  142.89
   7   1   1 1723.43  142.39
  -7   1  -1 1777.02  142.69
  -7   1  -1 1987.90  142.59
   7  -1  -1 1865.41  142.89
  -7   1  -1 1685.93  142.69
  -7   1  -1 1679.13  142.39
   7   1   1 1635.14  141.79
  -7   1  -1 1660.43  142.29
  -7  -1   1 2030.20  141.89
  -8   1   1   30.20    6.10
   8   1  -1   30.10    7.50
   8  -1   1   30.40    7.50
  -8   1   1   41.00   10.30
  -8   1   1   46.50    7.90
   8   1  -1   40.80    5.90
  -8  -1  -1   34.40    6.10
  -8  -1   1   46.90    6.90
  -8   1  -1   29.80    7.50
   8  -1  -1   31.10    6.90
  -8   1  -1   26.50    6.40
  -8   1  -1   31.10    6.60
   8   1   1   21.30    7.30
   8   1   1   43.80    9.20
  -8   1  -1   36.20    7.80
  -8   1  -1   33.20    8.80
  -9   1   1 1289.57  111.79
   9   1  -1 1208.78  110.49
  -9   1   1 1471.45  111.69
  -9   1   1 1419.76  112.69
  -9  -1  -1 1469.85  110.99
  -9   1   1 1391.46  111.99
   9   1  -1 1277.87  111.59
   9  -1   1 1407.76  112.29
  -9   1  -1 1285.17  112.19
   9   1   1 1487.85  111.79
  -9  -1   1 1549.24  110.99
   9  -1  -1 1426.86  112.39
  -9   1  -1 1363.76  111.39
  -9   1  -1 1345.97  111.89
  -9   1  -1 1323.57  111.99
 -10   1   1  925.61   83.89
  10  -1   1  976.90   84.19
 -10   1   1 1092.49   87.19
  10   1  -1  939.51   82.39
 -10  -1  -1 1086.29   83.09
 -10   1   1 1056.39   83.99
 -10   1   1 1070.89   83.69
  10   1  -1 1008.40   83.89
 -10   1  -1  973.10   84.19
  10  -1  -1 1027.40   84.49
 -10   1  -1 1026.10   84.09
 -10   1  -1 1063.69   83.49
  10   1   1 1018.70   83.99
 -10  -1   1 1086.49   83.09
  11   1  -1   61.39   11.40
 -11   1   1   99.79   13.80
 -11   1   1   69.99   11.60
 -11  -1  -1   78.59   11.00
  11   1  -1   63.29    9.20
 -11   1   1   75.49   11.50
  11  -1   1   63.39   10.00
 -11  -1   1   63.99   10.40
 -11   1  -1   84.59   12.20
  11  -1  -1   84.89   13.10
 -11   1  -1   92.89   12.10
 -11   1  -1   77.39   13.20
 -11   1  -1   65.89   11.20
  11   1   1   86.69   12.90
  12  -1   1  161.08   23.60
 -12  -1  -1  181.98   18.50
 -12   1   1  179.68   20.10
  12   1  -1  210.08   22.30
 -12   1   1  207.68   19.90
 -12   1  -1  164.68   19.00
 -12   1  -1  154.18   22.30
  12  -1  -1  224.58   25.90
 -12  -1   1  178.58   19.50
  12   1   1  152.58   22.60
 -12   1  -1  167.18   19.90
 -13   1   1  229.78   23.40
  13  -1   1  207.88   24.00
  13   1  -1  234.08   26.00
 -13  -1  -1  206.18   22.00
 -13   1   1  219.28   23.30
 -13   1  -1  246.68   23.60
 -13   1  -1  202.58   26.20
  13  -1  -1  238.08   24.00
  13   1   1  189.08   26.50
 -13  -1   1  201.98   23.00
 -14   1   1  351.06   39.70
 -14  -1  -1  328.17   34.10
 -14   1   1  457.85   36.40
  14  -1   1  363.86   35.40
 -14   1   1  383.06   35.30
  14   1  -1  331.17   37.40
 -14   1  -1  410.86   34.90
  14  -1  -1  370.96   35.30
 -14   1  -1  386.76   35.10
  14   1   1  428.56   38.30
  14   1   1  382.26   33.70
 -14  -1   1  348.47   34.90
 -15  -1  -1   56.09   12.40
  15  -1   1   61.89   12.80
 -15   1   1   58.49   12.30
  15  -1  -1   45.40   10.90
 -15  -1   1   49.10   12.50
 -15   1  -1   71.09   13.20
 -15   1  -1   54.19   11.60
 -16   1   1  111.29   16.90
 -16  -1  -1   86.29   15.20
  16  -1   1  108.29   16.10
 -16  -1   1  114.89   17.50
  16  -1  -1   99.29   16.50
 -16   1  -1  115.29   16.40
 -17   1   1   37.40   11.80
  17  -1   1   38.90   14.00
 -17  -1  -1   21.00   11.60
 -17  -1   1   19.50   17.80
  17  -1  -1   22.00   12.60
 -17   1  -1   31.60   11.80
   0   2   1 2759.62  231.78
   0   2   1 2860.81  232.98
   0   2  -1 3156.38  231.78
   0   2  -1 2753.02  235.78
   0   2  -1 2927.91  232.78
   0   2   1 2843.72  236.18
   0   2   1 3108.19  232.18
   0   2  -1 2878.91  231.78
  -1   2   1  405.76   42.30
   1   2  -1  434.66   35.50
  -1   2   1  402.56   36.10
   1   2  -1  341.87   43.80
  -1   2   1  403.26   35.50
  -1   2   1  385.36   36.90
   1   2  -1  429.86   37.50
  -1   2  -1  420.96   45.30
   1   2   1  430.96   43.10
   1   2   1  525.75   36.00
   1   2   1  438.06   35.50
  -1   2  -1  511.15   37.20
  -1   2  -1  430.96   35.30
   1   2   1  452.35   37.30
   2   2  -1 1434.36  114.29
   2   2  -1 1374.76  109.69
  -2   2   1 1307.87  109.39
  -2   2   1 1393.16  108.99
  -2   2   1 1361.46  113.19
   2   2  -1 1402.06  108.39
  -2   2  -1 1405.46  108.69
  -2   2  -1 1374.46  109.29
   2   2   1 1273.67  108.29
  -2   2  -1 1389.16  114.19
  -2   2  -1 1414.06  109.59
   2   2   1 1309.97  114.19
   2   2   1 1259.97  108.29
  -2   2  -1 1296.67  108.09
   3   2  -1  300.57   27.10
  -3   2   1  287.87   34.20
   3   2  -1  295.27   29.80
  -3   2   1  308.77   29.60
  -3   2   1  302.27   28.40
  -3   2  -1  342.07   27.90
   3   2   1  377.16   27.20
  -3   2  -1  336.17   28.40
   3   2   1  302.07   37.30
  -3   2  -1  338.97   30.00
   3   2   1  358.66   27.20
  -3   2  -1  379.56   29.10
  -3   2  -1  335.27   26.70
   3  -2  -1  269.17   29.40
   4  -2   1  253.07   26.20
  -4   2   1  274.47   26.50
   4   2  -1  290.87   23.90
  -4   2   1  277.87   31.60
  -4   2   1  294.67   25.70
  -4   2   1  272.77   25.30
  -4   2  -1  304.47   26.90
   4  -2  -1  274.17   26.30
   4   2   1  290.07   35.30
  -4   2  -1  280.27   25.80
  -4   2  -1  282.97   25.20
  -4   2  -1  309.67   25.20
  -4   2  -1  289.77   25.20
   5  -2   1   32.30    8.00
   5   2  -1   27.00    5.20
  -5   2   1   21.50    7.50
  -5   2   1   32.80    6.50
  -5   2   1   20.60    9.10
  -5   2   1   18.80   13.40
  -5   2  -1   28.90    9.00
   5   2   1   24.70   17.40
  -5   2  -1   29.50    8.10
  -5   2  -1   42.40    9.30
  -5   2  -1   25.10    6.20
  -5   2  -1   28.20    6.30
   5  -2  -1   38.10    8.30
   6  -2   1  684.13   53.29
  -6   2   1  630.94   54.09
  -6   2   1  674.03   52.89
  -6   2   1  668.23   53.79
  -6   2   1  598.04   57.99
   6   2  -1  649.14   51.79
  -6   2  -1  571.84   53.39
  -6   2  -1  667.93   58.49
   6  -2  -1  645.84   53.49
  -6   2  -1  583.84   53.29
   6   2   1  700.13   63.09
  -6   2  -1  620.64   52.69
  -6   2  -1  612.44   52.89
  -7   2   1   94.89   19.20
   7  -2   1  102.09   14.30
  -7   2   1  107.69   12.00
  -7   2   1  108.89   14.10
  -7   2   1   96.19   17.50
   7   2  -1   80.29   10.10
   7  -2  -1  109.99   14.50
  -7   2  -1   90.09   13.20
  -7   2  -1  104.69   14.30
  -7   2  -1   90.29   12.80
  -7   2  -1  108.39   15.90
  -7   2  -1   77.99   12.10
  -8   2   1  516.85   52.59
   8   2  -1  530.25   43.80
  -8   2   1  553.04   44.90
  -8   2   1  565.54   46.30
   8  -2   1  532.55   45.90
  -8   2  -1  460.85   45.70
  -8   2  -1  528.25   45.30
   8  -2  -1  514.45   45.90
  -8  -2   1  630.74   44.70
  -8   2  -1  510.25   46.40
  -8   2  -1  498.05   44.80
  -9   2   1  208.88   20.70
  -9   2   1  205.98   22.00
  -9   2   1  219.88   20.20
   9  -2   1  235.98   22.50
  -9   2   1  197.18   28.50
   9   2  -1  213.58   18.70
  -9  -2   1  221.38   19.90
  -9   2  -1  164.18   21.90
   9  -2  -1  212.98   22.10
  -9   2  -1  147.19   22.30
  -9   2  -1  191.98   20.60
   9   2   1  227.88   18.60
  -9   2  -1  187.68   20.20
  10  -2   1  239.68   23.60
 -10   2   1  238.18   31.70
 -10   2   1  252.37   23.10
 -10  -2  -1  174.98   20.20
 -10   2   1  229.88   20.90
  10   2   1  216.58   19.10
 -10   2  -1  188.88   21.00
 -10   2  -1  156.88   22.50
 -10   2  -1  204.18   21.40
 -11   2   1  171.98   19.20
  11  -2   1  126.89   19.20
 -11   2   1  167.98   18.00
 -11   2   1  150.98   19.20
 -11  -2  -1  156.58   17.00
  11   2  -1  171.08   16.00
 -11   2  -1  141.19   18.70
 -11  -2   1  154.38   17.40
 -11   2  -1  132.69   18.80
 -11   2  -1  162.68   18.00
  11  -2  -1  159.08   19.70
  11   2   1  152.98   15.40
 -11   2  -1  137.79   20.30
  12   2  -1 1297.57  111.39
 -12  -2  -1 1405.26  112.79
  12  -2   1 1330.57  113.29
 -12   2   1 1435.76  114.49
 -12   2   1 1364.26  112.49
 -12   2  -1 1461.75  112.59
 -12   2  -1 1474.65  115.39
  12  -2  -1 1374.36  113.29
 -12   2  -1 1282.07  115.79
  13   2  -1   56.29    9.60
 -13   2   1   63.59   12.40
 -13  -2  -1   58.39   10.80
 -13   2   1   46.00   13.40
 -13   2   1   60.69   11.70
  13  -2   1   81.69   14.40
 -13   2  -1   63.59   12.30
 -13   2  -1   77.59   13.60
  13  -2  -1   77.49   13.50
 -13  -2   1   38.00   11.80
  13   2   1   68.89    9.20
 -14  -2  -1  137.09   19.60
 -14   2   1  216.58   21.30
  14  -2   1  168.88   23.00
 -14   2   1  174.78   21.10
  14  -2  -1  246.58   23.50
 -14   2  -1  152.28   20.90
  14   2   1  192.98   18.60
 -14   2  -1  177.98   20.90
 -15  -2  -1    2.10   10.60
  15  -2   1   -2.10   11.40
 -15   2   1    1.40    9.50
 -15   2   1    3.90   14.60
  15   2   1  -15.90    8.90
 -15  -2   1   13.80   13.40
 -15   2  -1   14.70    9.90
 -15   2  -1    1.80   10.80
  15  -2  -1    9.40   11.20
 -16  -2  -1  274.37   41.40
 -16   2   1  410.26   35.10
  16  -2   1  352.96   36.90
  16  -2  -1  375.66   37.30
 -16   2  -1  392.46   34.70
 -16   2  -1  400.06   34.70
 -16  -2   1  393.26   37.80
   0   3   1 1105.39   90.79
   0   3   1 1116.69  100.09
   0   3   1 1078.59   88.69
   0   3  -1 1111.09   90.49
   0   3  -1 1121.49   88.69
  -1   3   1   36.80   23.10
  -1   3   1   46.40    6.20
  -1   3   1   46.70    8.90
   1   3  -1   39.80    9.30
   1   3  -1   42.60    6.10
   1   3   1   49.20    6.30
   1   3   1   21.10   23.40
   1   3   1   49.60    9.70
  -1   3  -1   44.80    9.10
  -1   3  -1   49.80   10.10
  -1   3  -1   52.69    6.00
   2   3  -1  391.66   33.00
  -2   3   1  397.86   32.90
  -2   3   1  399.96   35.40
  -2   3   1  451.95   51.49
   2   3  -1  397.06   35.60
   2   3   1  407.26   33.10
   2   3   1  407.26   50.69
  -2   3  -1  401.66   32.70
   2   3   1  422.66   35.80
  -2   3  -1  361.56   35.20
  -2   3  -1  385.06   35.10
  -3   3   1  188.08   20.10
   3   3  -1  169.18   17.20
  -3   3   1  175.08   34.00
   3   3   1  212.18   20.90
   3   3   1  138.19   31.50
  -3   3  -1  217.88   20.20
   3   3   1  208.98   17.50
   4   3  -1  471.65   39.20
  -4   3   1  453.95   38.30
   4   3  -1  480.25   36.30
  -4   3   1  361.26   49.40
   4   3   1  353.66   56.79
  -4   3  -1  407.26   38.20
  -4   3  -1  456.55   38.20
   4   3   1  413.96   36.20
   4   3   1  430.16   39.00
   5   3  -1  817.92   68.99
  -5   3   1  855.61   68.39
   5   3  -1  842.52   66.69
  -5   3   1  726.43   82.99
  -5   3  -1  761.72   68.19
  -5   3  -1  864.91   68.19
   5   3   1  871.01   66.79
   5   3   1  835.72   69.09
   5   3   1  727.33   80.49
  -6   3   1   64.09   10.20
   6   3  -1   90.59   13.20
   6   3  -1   62.29    8.30
   6   3   1   54.39   12.30
   6   3   1   59.09    8.10
  -6   3  -1   79.69   11.00
  -6   3  -1   53.29   11.00
  -7   3   1   92.19   13.40
  -7   3   1  102.89   13.80
   7   3  -1  130.49   16.20
   7   3  -1   98.49   11.10
   7   3   1  112.99   17.60
  -7   3  -1   80.29   12.80
  -7   3  -1   94.49   14.00
   7   3   1   93.39   11.20
  -8   3   1   52.19    9.80
   8   3  -1   35.00    7.60
  -8   3   1   68.99   12.00
  -8   3  -1   39.40    9.50
   8   3   1   56.59    7.90
  -8   3  -1   57.59   10.10
   8   3   1   52.79   13.30
  -9   3   1   13.10    8.90
  -9   3   1   21.40    8.40
   9   3  -1   30.20    6.20
  -9   3  -1   31.60    9.20
  -9  -3   1   26.10    9.60
   9   3   1   28.70   12.20
  -9   3  -1   17.90   13.40
   9   3   1   20.60    6.10
  -9   3  -1   33.60    9.40
 -10   3   1  464.35   35.60
 -10   3   1  400.16   36.10
  10   3  -1  368.86   33.30
 -10   3  -1  387.06   35.80
  10   3   1  435.16   38.60
 -10   3  -1  371.36   35.50
 -10   3  -1  334.27   37.80
 -10  -3   1  359.86   35.10
  10   3   1  434.66   33.70
  11   3  -1  205.88   18.50
 -11   3   1  175.68   21.60
 -11  -3  -1  148.79   19.80
 -11   3   1  197.68   21.10
  11   3   1  234.68   25.70
 -11   3  -1  208.38   22.40
  11   3   1  200.18   18.60
 -11   3  -1  211.98   21.20
 -11   3  -1  213.88   24.60
 -12   3   1   94.89   13.10
  12   3  -1   64.79    8.70
 -12  -3  -1   48.00   10.40
 -12   3   1   56.39   10.70
 -12   3  -1   52.59   10.70
  12   3   1   54.99    8.30
 -12   3  -1   49.00   13.50
  12   3   1   72.49   16.10
 -12   3  -1   60.99   13.40
 -12  -3   1   48.30   14.20
  13   3  -1   54.49   10.50
 -13  -3  -1   32.20   10.40
 -13   3   1   67.49   13.00
 -13   3   1   60.19   10.70
  13   3   1   49.90   17.60
  13   3   1   58.39    8.30
 -13   3  -1   71.99   12.20
 -14   3   1  278.67   27.40
  14   3  -1  270.77   25.20
 -14   3  -1  286.17   27.20
  14   3   1  299.97   25.20
   0   4   1   59.79   11.10
   0   4  -1   66.99   12.10
   0   4   1   64.29    7.90
   1   4  -1   22.40   10.10
   1   4  -1   33.70    5.70
  -1   4   1   26.80    9.10
   1   4   1   35.70    6.00
   1   4   1   28.50    9.50
  -1   4  -1   37.20   10.10
  -2   4   1   76.69   11.30
   2   4  -1   52.69   12.40
   2   4  -1   84.29    8.70
  -2   4   1   63.59   14.10
   2   4   1   59.29   11.70
   2   4   1   67.39    8.00
  -2   4  -1   60.69   11.10
   3   4  -1  184.38   16.50
  -3   4   1  158.88   19.40
  -3   4   1  152.08   21.90
  -3   4  -1  165.88   20.00
   3   4   1  230.08   17.00
   3   4   1  195.08   20.80
  -4   4   1   15.10   10.40
  -4   4   1    4.70    7.50
   4   4  -1   10.50    4.90
   4   4   1   11.40    5.30
  -4   4  -1   11.50    8.60
  -4   4  -1   20.30   11.60
   4   4   1   10.80    9.50
   5   4  -1  109.39   10.90
  -5   4   1   85.19   14.00
  -5   4   1  109.99   14.20
  -5   4  -1  121.99   17.30
   5   4   1   88.59   14.60
   5   4   1  115.99   11.70
  -5   4  -1  103.49   15.50
  -6   4   1    6.90    8.90
  -6   4   1    1.90    7.20
   6   4  -1    2.30    4.60
  -6   4  -1    3.90    9.10
   6   4   1   -5.50   10.90
  -6   4  -1    3.60   10.20
   6   4   1   -0.20    5.80
  -7   4   1  502.15   50.39
  -7   4   1  614.74   48.40
   7   4  -1  595.74   46.70
  -7   4  -1  610.84   49.00
  -7   4  -1  461.55   48.50
   7   4   1  621.34   47.00
  -8  -4  -1   18.20    8.70
  -8   4   1    5.80    7.60
   8   4  -1    6.80    4.40
  -8   4   1    6.70    8.70
   8   4   1    3.90    5.60
   8   4   1   -0.40   13.70
  -8   4  -1  -21.40    8.90
  -8   4  -1    8.60    9.70
  -9   4   1  153.08   19.70
   9   4  -1  119.29   13.70
  -9   4   1  117.19   15.80
  -9   4  -1  103.59   16.20
   9   4   1  153.48   16.50
   9   4   1   80.39   17.90
  -9   4  -1  140.19   17.40
   0   0  -2 6553.74  547.05
   1   0   2  -19.20   44.20
   1   0  -2  -14.50   29.90
  -1   0  -2  -29.40   42.50
   1   0  -2    0.90   42.20
   2   0   2  977.80   76.19
  -2   0  -2  924.91   76.09
   3   0  -2   -4.80    3.20
  -3   0  -2   -0.60    2.10
   3   0  -2   -3.80    2.30
  -3   0  -2   -1.30    2.30
   3   0   2   -0.70    2.70
   4   0  -2 1539.45  112.59
   4   0   2 1324.97  111.79
  -4   0  -2 1419.36  111.59
   4   0  -2 1374.06  112.19
  -4   0  -2 1372.86  111.79
  -4   0  -2 1367.36  111.79
  -5   0   2   -4.80    4.30
  -5   0  -2   -1.80    3.20
  -5   0  -2   -6.00    3.10
   5   0   2   -1.60    4.30
  -5   0  -2   -3.10    2.70
   5   0  -2    0.40    3.10
   5   0  -2   -6.20    2.70
  -6   0   2 2732.53  198.18
  -6   0  -2 2418.56  197.78
   6   0  -2 2466.65  197.78
   6   0   2 2378.76  198.28
  -6   0  -2 2442.06  198.08
   6   0  -2 2392.86  198.38
  -6   0  -2 2488.65  197.88
  -6   0  -2 2541.65  197.78
  -7   0  -2   -2.70    4.00
  -7   0  -2    2.90    4.30
  -7   0  -2    2.90    4.40
  -7   0   2    0.20    5.90
  -7   0  -2    3.20    5.20
   7   0   2    7.20    5.40
  -7   0   2   -1.00    5.40
  -8   0  -2  102.99   12.40
  -8   0  -2  108.29   13.20
   8   0   2  119.59   13.20
  -8   0   2  100.99   13.00
  -8   0   2  101.09   13.40
  -8   0  -2  106.89   11.80
   8   0  -2  122.19   13.10
  -8   0  -2  127.49   11.70
  -9   0  -2    1.00    4.90
  -9   0  -2   -9.50    8.10
   9   0   2   -1.00    5.90
   9   0  -2   -3.70    5.10
  -9   0  -2    6.40    7.10
  -9   0   2    3.60    6.60
  -9   0   2    9.30    9.70
 -10   0   2  761.02   64.99
 -10   0  -2  812.32   62.99
 -10   0  -2  785.42   62.79
 -10   0   2  744.23   63.39
  10   0   2  728.63   63.89
 -10   0  -2  739.83   64.19
 -10   0  -2  809.32   63.89
  10   0  -2  767.82   64.09
 -11   0  -2    7.20    6.50
  11   0   2   -1.30    7.90
 -11   0  -2    4.00    6.60
  11   0  -2    4.50    6.50
 -11   0  -2    9.60   10.40
 -11   0   2   -1.50    7.90
 -12   0  -2  764.52   65.19
  12   0  -2  745.53   66.19
 -12   0   2  799.22   65.79
 -12   0  -2  797.02   64.79
 -12   0  -2  732.73   66.99
  12   0   2  884.71   66.89
 -13   0   2    4.00    9.90
 -13   0  -2   -0.80    9.10
 -13   0  -2   -3.30    7.70
  13   0   2   -1.80    8.20
  13   0  -2   13.70    8.50
 -14   0  -2  854.01   71.29
 -14   0   2  892.11   75.39
  14   0   2  827.52   72.39
  14   0  -2  799.02   71.99
 -14   0  -2  904.71   71.39
 -15   0   2    6.50   11.50
 -15   0  -2   10.40   10.20
  15   0  -2   20.30   11.60
  15   0   2  -12.30   12.10
 -16   0   2  834.42   67.49
  16   0  -2  691.03   67.49
  16   0   2  776.72   68.29
 -16   0  -2  847.72   66.69
 -17   0   2   -3.90   15.20
  17   0   2  -18.60   14.70
  17   0  -2  -15.00   14.30
 -17   0  -2   -3.40   10.00
 -18   0   2  226.68   30.10
 -18   0  -2  245.28   25.10
   0   1   2 3180.38  273.97
   0   1  -2 3647.64  271.67
   1  -1   2   85.69    7.80
  -1   1   2   80.49   12.70
   1   1   2   76.29   11.80
  -1   1  -2   66.19    8.60
  -1   1  -2   80.99    7.50
  -1  -1   2   80.49    7.00
   1  -1  -2   72.09   10.20
   2  -1   2 1418.06  110.19
  -2   1   2 1358.46  111.79
   2   1  -2 1248.78  110.49
  -2  -1  -2 1311.67  110.49
   2   1   2 1487.65  110.19
  -2   1  -2 1411.16  110.29
   2   1   2 1277.17  113.29
  -2   1  -2 1378.06  110.29
  -2   1  -2 1508.35  110.19
  -3   1   2  886.21   76.69
   3  -1   2  804.12   75.29
   3   1  -2 1050.09   75.89
  -3  -1  -2  947.11   75.59
  -3   1  -2  953.60   75.39
   3   1   2  807.42   78.99
   3   1   2  926.41   75.19
   3  -1  -2  970.70   75.89
  -3   1  -2  983.40   75.39
   3  -1  -2 1024.50   75.69
  -3   1  -2  938.11   75.49
  -4  -1  -2  727.73   54.99
  -4   1   2  679.23   56.09
   4  -1   2  610.34   54.99
   4   1  -2  687.73   55.19
   4   1  -2  609.14   55.29
   4  -1  -2  713.13   55.29
   4  -1  -2  670.53   54.59
  -4   1  -2  690.63   54.99
  -4   1  -2  718.63   54.89
   4  -1  -2  701.93   54.99
   4   1   2  595.54   59.69
  -4   1  -2  720.93   54.89
   4   1   2  638.74   54.59
  -5  -1  -2  822.62   62.89
  -5   1   2  789.52   63.79
  -5   1   2  919.61   64.99
   5  -1   2  864.11   64.19
  -5  -1  -2  799.62   63.49
  -5   1   2  744.43   64.19
   5   1  -2  687.13   63.39
  -5   1   2  708.53   63.69
   5   1   2  735.43   63.19
  -5   1  -2  777.32   63.49
   5  -1  -2  824.62   63.99
  -5   1  -2  757.52   63.49
  -5   1  -2  810.42   63.39
   5  -1  -2  795.52   63.19
   5   1   2  731.33   69.39
  -5   1  -2  760.82   63.59
   6  -1   2  138.39   14.40
  -6  -1  -2  136.49   12.40
  -6   1   2  121.69   13.90
  -6   1   2  118.09   14.80
  -6   1   2  139.59   14.00
   6   1  -2  122.59   12.50
  -6  -1  -2  146.69   14.10
   6   1  -2  134.19   14.00
   6   1   2  134.79   14.50
   6  -1  -2  139.09   12.80
  -6   1  -2  134.99   15.60
   6  -1  -2  139.09   14.10
  -6   1  -2  133.39   13.80
   6   1   2  117.79   22.50
  -6   1  -2  132.79   13.50
  -6   1  -2  132.59   13.70
   6   1   2  124.89   13.30
  -6   1  -2  148.89   12.90
   7   1  -2  676.73   57.99
  -7   1   2  674.03   58.29
  -7  -1  -2  743.73   57.19
  -7  -1  -2  705.93   57.89
   7  -1   2  736.33   58.49
  -7   1   2  684.23   57.89
  -7   1   2  633.94   58.29
   7   1  -2  655.63   56.99
   7   1   2  734.83   58.19
  -7   1  -2  712.63   58.19
  -7   1  -2  677.73   58.29
  -7  -1   2  763.42   57.49
  -7   1  -2  768.32   57.79
   7   1   2  602.54   57.99
   7   1   2  807.32   67.29
  -7   1  -2  725.03   58.19
   7  -1  -2  761.42   58.59
  -8  -1  -2  695.53   59.89
   8   1  -2  685.03   58.79
   8   1  -2  731.43   60.09
  -8   1   2  691.33   60.29
  -8   1   2  775.42   59.89
   8  -1   2  770.92   60.69
  -8  -1  -2  671.73   59.89
  -8   1   2  726.13   60.69
  -8   1  -2  717.23   60.69
  -8   1  -2  740.73   59.69
  -8  -1   2  784.32   59.49
   8  -1  -2  748.13   60.59
   8   1   2  852.61   60.39
  -8   1  -2  712.13   60.19
  -8   1  -2  632.04   60.19
  -9  -1  -2  289.87   23.40
   9   1  -2  223.38   22.90
  -9  -1  -2  260.67   24.90
  -9   1   2  301.17   24.50
   9  -1   2  286.47   25.20
  -9   1   2  257.17   24.80
   9   1  -2  260.47   25.20
  -9   1   2  242.38   27.50
  -9   1  -2  249.38   27.20
  -9   1  -2  207.38   24.80
  -9   1  -2  269.07   25.10
  -9   1  -2  246.18   25.00
   9   1   2  280.97   25.30
   9  -1  -2  269.97   25.00
  -9  -1   2  298.57   24.30
  -9   1  -2  281.57   24.00
  10  -1   2 1081.29   89.79
  10   1  -2 1004.00   89.09
 -10   1   2 1191.48   89.39
 -10   1   2 1018.80   89.19
 -10  -1  -2 1143.69   88.29
 -10   1   2 1120.49   88.89
  10   1   2 1149.69   89.49
 -10   1  -2 1054.79   89.19
 -10   1  -2  957.50   89.29
  10  -1  -2 1033.90   89.59
 -10  -1   2 1200.58   88.69
 -10   1  -2 1108.49   88.69
 -11  -1  -2  669.83   52.49
  11  -1   2  607.64   54.19
 -11   1   2  744.03   54.59
 -11   1  -2  567.34   54.09
  11   1   2  594.84   54.19
 -11   1  -2  621.04   52.89
 -11   1  -2  603.94   53.59
  12  -1   2 1046.20   86.59
  12   1  -2  999.60   86.39
 -12   1   2 1133.79   85.79
 -12  -1  -2 1025.80   84.99
 -12   1   2 1049.59   86.29
  12   1   2 1031.70   86.59
 -12   1  -2 1026.30   85.99
 -12   1  -2 1112.89   85.49
  12  -1  -2 1009.50   86.59
 -12   1  -2  968.40   86.69
  13  -1   2  280.77   28.70
  13   1  -2  360.36   30.70
 -13   1   2  308.87   32.60
 -13   1   2  276.27   29.00
 -13  -1  -2  257.77   27.00
 -13   1  -2  258.27   30.70
 -13   1  -2  295.77   27.90
 -13   1  -2  267.97   28.40
  13   1   2  284.27   31.00
 -13  -1   2  274.07   28.70
  13  -1  -2  332.37   28.90
 -14   1   2  175.98   27.80
 -14  -1  -2  168.38   20.60
 -14   1   2  210.78   22.50
  14  -1   2  196.58   23.20
  14   1  -2  151.68   23.70
 -14   1  -2  201.38   21.50
 -14  -1   2  207.28   23.00
  14   1   2  182.68   23.00
 -14   1  -2  177.38   25.20
 -14   1  -2  215.08   22.10
  14  -1  -2  184.78   21.90
 -15   1   2   54.99   13.50
 -15   1   2   35.90   18.70
  15  -1   2   46.70   13.10
 -15  -1  -2   36.70   11.00
  15  -1  -2   33.70   10.90
  15   1   2   52.89   10.90
 -15   1  -2   60.59   12.10
 -15  -1   2   48.60   14.70
 -15   1  -2   39.70   10.90
 -16   1   2   48.00   25.90
  16  -1   2   69.59   20.30
 -16  -1  -2   75.29   13.60
 -16   1   2  106.19   15.50
 -16  -1  -2   95.49   16.20
  16  -1  -2   55.79   22.10
 -16  -1   2  101.49   18.50
 -16   1  -2   97.49   17.10
 -16   1  -2   92.39   13.80
 -17   1   2   82.29   16.90
 -17  -1  -2   55.09   17.20
  17  -1   2   55.59   15.50
 -17  -1  -2   71.09   13.00
 -17   1  -2   62.29   12.10
  17  -1  -2   66.09   15.20
   0   2  -2 2766.22  211.18
   0   2  -2 2940.61  211.68
   0   2  -2 2485.55  212.08
   0   2  -2 2713.43  212.38
   0   2   2 2373.36  211.28
   0   2   2 2599.14  212.68
   0   2   2 2658.83  216.58
   0   2  -2 2707.23  211.28
  -1   2   2 1418.06  131.09
   1   2  -2 1759.02  132.59
  -1   2   2 1759.62  136.79
  -1   2   2 1630.64  132.59
   1   2  -2 1582.54  131.19
  -1   2  -2 1570.74  131.99
   1   2   2 1670.23  137.29
  -1   2  -2 1637.34  131.79
  -1   2  -2 1616.14  131.09
   1   2   2 1539.45  132.49
  -1   2  -2 1746.83  132.49
  -1   2  -2 1831.32  131.49
   2  -2   2    9.40    8.00
  -2   2   2   17.90    6.40
   2   2  -2   28.20    4.60
  -2   2   2   26.60    7.70
  -2   2   2   14.20   12.20
   2   2   2   39.50   16.20
  -2   2  -2   35.80    6.70
   2  -2  -2   25.50    9.20
   2  -2  -2   29.20    6.50
  -2   2  -2   44.10    7.30
  -2   2  -2   31.80    6.60
  -2   2  -2   41.40    7.90
  -3   2   2 1834.02  144.09
  -3   2   2 1689.73  147.39
  -3   2   2 1752.62  143.89
   3   2  -2 1754.52  142.79
   3  -2   2 1870.81  143.69
  -3   2  -2 1742.53  144.39
  -3   2  -2 1867.21  143.59
  -3   2  -2 1687.43  143.49
  -3   2  -2 1757.92  143.99
   3  -2  -2 1795.02  143.89
   3   2   2 1843.52  150.08
   3  -2  -2 1709.83  142.99
   3   2   2 1964.80  143.49
  -4   2   2  347.57   35.70
  -4   2   2  337.27   29.60
  -4   2   2  364.96   30.30
   4  -2   2  315.47   30.10
   4   2  -2  339.87   27.90
  -4   2   2  334.27   30.80
   4   2   2  300.87   40.20
  -4   2  -2  342.47   29.80
   4  -2  -2  362.06   30.30
  -4   2  -2  326.37   29.10
  -4   2  -2  330.07   29.00
   4  -2  -2  322.37   28.60
  -4   2  -2  330.57   31.00
  -4   2  -2  347.57   30.00
   5  -2   2  765.72   65.09
  -5   2   2  847.72   69.99
  -5   2   2  738.03   65.39
  -5   2   2  822.82   64.99
  -5   2   2  809.62   65.79
   5   2  -2  840.42   63.69
   5  -2  -2  831.62   65.39
  -5   2  -2  831.62   65.79
  -5   2  -2  735.73   64.49
  -5   2  -2  751.12   65.29
  -5   2  -2  787.52   64.59
   5   2   2  759.72   74.09
  -5   2  -2  737.33   65.09
  -6   2   2  256.97   29.10
  -6  -2  -2  281.87   26.10
  -6   2   2  302.17   28.10
   6  -2   2  303.07   28.10
  -6   2   2  284.07   34.00
   6   2  -2  314.57   25.30
  -6   2   2  319.67   27.00
   6   2   2  294.77   41.60
  -6   2  -2  300.27   29.80
  -6   2  -2  258.37   27.30
  -6   2  -2  325.67   26.70
  -6   2  -2  340.77   31.50
  -6   2  -2  290.67   26.80
   6  -2  -2  322.37   28.20
   7  -2   2 1832.92  142.89
  -7   2   2 1800.92  142.39
   7   2  -2 1791.42  141.29
  -7   2   2 1541.75  145.99
  -7   2   2 1719.03  143.09
  -7   2  -2 1693.03  142.89
  -7   2  -2 1979.00  143.59
  -7   2  -2 1719.73  142.29
  -7   2  -2 1613.74  142.19
   7  -2  -2 1853.81  142.99
   7   2   2 1786.72  151.58
  -7  -2   2 1875.51  141.69
   8   2  -2   17.80    4.70
   8  -2   2    4.90    9.10
  -8   2   2   16.10    8.70
  -8   2   2    5.10   16.10
  -8   2   2   22.50    7.00
  -8  -2   2   22.80    8.70
  -8   2  -2   28.00   11.00
  -8   2  -2    4.20    8.20
   8  -2  -2   11.80    7.70
  -8   2  -2   27.10    7.50
  -8   2  -2   22.40    6.50
   9   2  -2  503.55   41.60
  -9   2   2  555.34   44.60
  -9   2   2  406.26   50.99
   9  -2   2  560.64   44.40
  -9   2  -2  458.15   44.50
  -9   2  -2  484.35   43.00
   9  -2  -2  510.15   44.20
  -9   2  -2  471.95   44.90
  -9   2  -2  441.56   43.50
  -9  -2   2  607.84   42.90
 -10  -2  -2  448.66   45.20
  10   2  -2  560.14   44.60
 -10   2   2  580.94   47.60
  10  -2   2  575.34   47.30
 -10   2   2  461.65   55.19
 -10   2   2  572.34   46.50
  10  -2  -2  578.14   47.50
 -10  -2   2  576.04   46.00
 -10   2  -2  499.35   47.50
 -10   2  -2  512.05   47.20
 -10   2  -2  558.74   46.40
 -10   2  -2  544.45   48.00
 -11   2   2  346.57   28.90
 -11   2   2  257.47   29.60
 -11  -2  -2  246.98   27.10
 -11   2   2  268.47   41.40
  11   2  -2  333.17   26.50
 -11   2   2  288.37   29.20
 -11   2  -2  320.47   31.00
 -11   2  -2  285.17   30.20
  11  -2  -2  343.47   30.20
 -11   2  -2  330.97   28.80
 -12   2   2   48.00   25.90
 -12   2   2   37.10   11.50
 -12   2   2   46.90   11.40
 -12   2   2   40.00   11.80
 -12  -2  -2   20.90    8.60
  12   2  -2   40.80    8.00
  12  -2   2   37.30   12.00
 -12   2  -2   21.10   10.10
 -12   2  -2   23.20   11.30
 -12  -2   2   40.70   13.40
  12   2   2   37.80    8.20
  12  -2  -2   19.90   10.40
 -12   2  -2   46.60   12.90
 -13   2   2  100.79   14.30
 -13  -2  -2  102.59   14.00
 -13   2   2   95.89   15.70
  13  -2   2   80.59   15.10
  13   2   2   95.49   11.70
 -13   2  -2   96.99   15.20
  13  -2  -2  158.68   19.20
 -13   2  -2   96.29   13.50
 -14   2   2   61.59   13.20
  14  -2   2   35.90   12.80
 -14   2   2   61.29   12.20
 -14  -2  -2   35.20   10.70
  14   2   2   50.59    9.50
  14  -2  -2   40.50   12.20
 -14   2  -2   59.49   11.90
 -14   2  -2   58.09   12.40
 -15   2   2  134.39   18.80
 -15   2   2  124.29   19.10
 -15  -2  -2  159.08   17.30
  15  -2  -2  100.49   17.20
 -16  -2  -2   33.00   11.00
 -16   2   2   72.89   13.20
  16  -2   2   25.70   13.90
  16  -2  -2   64.39   15.10
 -16   2  -2   48.20   12.20
 -16   2  -2   53.89   11.40
  16   2   2   72.29   11.30
   0   3  -2  841.92   67.59
   0   3   2  822.42   68.09
   0   3   2  784.32   65.89
  -1   3   2  646.64   54.69
  -1   3   2  576.94   52.29
   1   3  -2  726.73   52.49
   1   3  -2  628.04   54.49
  -1   3   2  617.74   66.69
  -1   3  -2  626.24   54.09
   1   3   2  633.94   54.79
   1   3   2  627.34   52.49
   1   3   2  592.54   67.39
  -1   3  -2  746.93   52.29
  -1   3  -2  627.34   54.59
   2   3  -2   47.10    6.30
  -2   3   2   51.79    9.80
   2   3  -2   36.00   11.20
  -2   3   2   32.60   26.80
   2   3   2   63.39   25.50
   2   3   2   60.99   11.00
  -2   3  -2   50.19    9.60
  -2   3  -2   44.40    9.80
   2   3   2   52.89    6.80
  -3   3   2  369.76   50.49
  -3   3   2  440.06   35.60
   3   3  -2  389.36   32.80
   3   3   2  405.66   33.00
  -3   3  -2  361.36   34.60
  -3   3  -2  393.06   35.00
   3   3   2  413.16   35.70
   3   3   2  332.97   52.19
   4   3  -2  176.08   16.40
  -4   3   2  177.98   19.60
  -4   3   2  136.59   37.20
  -4   3  -2  211.38   19.70
  -4   3  -2  187.78   19.20
   4   3   2  171.18   20.00
   4   3   2  136.49   32.30
   4   3   2  189.38   16.70
  -5   3   2  450.85   37.00
   5   3  -2  440.66   34.60
  -5   3   2  437.86   54.79
   5   3   2  418.86   34.80
  -5   3  -2  380.26   36.30
  -5   3  -2  383.06   36.50
   5   3   2  446.26   55.59
   5   3   2  406.96   37.70
  -6   3   2  267.27   39.00
  -6   3   2  272.47   24.00
   6   3  -2  243.98   21.50
   6   3   2  294.87   22.10
  -6   3  -2  228.08   23.80
   6   3   2  259.27   26.00
  -6   3  -2  181.38   25.00
   6   3   2  176.48   39.90
  -7   3   2  475.35   60.59
   7   3  -2  416.46   35.80
  -7   3   2  496.55   38.20
   7   3   2  419.66   39.50
  -7   3  -2  372.96   37.50
   7   3   2  464.65   36.40
  -7   3  -2  403.36   38.00
   8   3  -2  150.18   14.50
  -8   3   2  152.08   40.20
  -8   3   2  170.48   17.50
   8   3   2  143.69   20.70
   8   3   2  189.58   15.40
  -8   3  -2  114.19   16.00
  -8   3  -2  127.09   18.50
   9   3  -2  579.54   47.90
  -9   3   2  632.44   49.90
  -9   3   2  544.85   49.99
   9   3   2  576.34   48.30
  -9   3  -2  571.34   49.80
  -9   3  -2  587.44   50.69
 -10   3   2  183.68   22.70
 -10   3   2  234.88   21.80
  10   3  -2  203.58   18.90
 -10   3  -2  220.48   23.90
  10   3   2  192.38   19.40
 -10   3  -2  200.98   21.90
  11   3  -2  177.58   14.40
 -11  -3  -2  120.39   15.60
 -11   3  -2  122.59   20.50
 -11   3  -2  116.39   17.70
  11   3   2  142.69   14.60
  12   3  -2  118.99   12.10
 -12   3   2  126.59   17.30
 -12   3   2  111.49   14.20
  12   3   2   89.09   11.00
  12   3   2   97.59   16.80
 -12   3  -2   81.49   13.10
 -13  -3  -2    3.10    8.30
 -13   3   2   13.60   13.60
  13   3  -2    8.70    6.80
 -13   3   2   -1.90    8.60
  13   3   2    6.50   14.40
  13   3   2   11.80    6.90
 -13   3  -2    2.10    9.70
   0   4   2  282.17   27.10
   0   4   2  283.77   50.59
  -1   4   2   -7.70   42.90
  -1   4   2    5.40    7.80
   1   4   2   10.70   38.10
   1   4   2    9.60    6.00
   1   4   2    0.60    8.30
  -2   4   2  311.27   73.49
  -2   4   2  377.26   37.90
   2   4   2  450.35   38.70
   2   4   2  512.65   36.10
   2   4   2  429.46   70.29
  -2   4  -2  417.36   38.80
   3   4  -2    9.80    4.50
  -3   4   2   13.10    7.80
  -3   4   2    5.60    9.20
  -3   4  -2   -7.60   10.30
   3   4   2   12.40    8.90
   3   4   2   10.30    5.50
   3   4   2  -18.90   40.00
  -4   4   2  196.68   23.10
  -4   4   2  197.18   21.50
   4   4  -2  228.58   19.10
   4   4   2  237.08   23.60
   4   4   2  243.58   19.80
  -4   4  -2  203.38   23.30
  -5   4   2   13.20    7.30
  -5   4   2   31.00   10.50
   5   4  -2   14.90    5.20
   5   4   2   12.90    9.90
  -5   4  -2   20.40   11.00
   5   4   2   11.00    6.10
   6   4  -2   54.09    7.20
  -6   4   2   64.59   11.60
  -6   4   2   71.39   11.40
   6   4   2   50.59   13.00
   6   4   2   73.69    8.90
  -6   4  -2   50.39   12.40
  -6   4  -2   59.19   12.70
  -7   4   2   11.40    7.70
  -7   4   2   16.60    8.90
   7   4  -2   14.00    4.60
   7   4   2   24.60    6.60
  -7   4  -2    1.60   10.50
   7   4   2   25.40   11.50
  -7   4  -2   33.10   14.30
   8   4  -2  162.58   14.50
  -8   4   2  178.68   17.30
  -8   4   2  117.69   16.40
   8   4   2  182.68   15.70
  -8   4  -2  145.99   18.90
  -8   4  -2  168.18   22.40
  -9  -4  -2   16.50    9.30
  -9   4   2   25.90    9.00
   9   4  -2   32.10    5.50
  -9   4   2   28.00    8.30
  -9   4  -2   37.60   13.90
  -9   4  -2   18.00    9.80
   9   4   2   32.80    6.60
   9   4   2   25.10   13.00
   0   0   3   -0.90    3.00
   0   0   3   -2.50    5.70
  -1   0  -3 1285.37  103.09
  -1   0  -3 1256.77  102.89
   1   0   3 1326.37  103.19
   2   0   3   -0.40    3.40
  -2   0  -3   -2.00    2.00
   2   0  -3   -0.30    3.80
  -2   0  -3   -4.00    2.60
   3   0   3 1003.50   80.79
  -3   0  -3  998.80   80.49
  -3   0  -3 1008.70   80.29
   4   0  -3   -0.30    3.10
   4   0  -3    0.80    3.60
  -4   0  -3   -3.30    3.00
   4   0  -3    2.90    3.00
   4   0   3    1.00    4.70
  -4   0  -3   -2.00    2.60
  -5   0  -3 3929.71  333.47
   5   0  -3 4282.77  333.57
   5   0  -3 4347.77  334.47
  -5   0  -3 4400.76  333.67
   5   0   3 3566.94  336.17
   5   0  -3 4696.63  334.87
  -5   0  -3 4125.69  333.87
  -6   0  -3   -4.80    5.10
  -6   0   3   12.30    6.50
  -6   0  -3    1.30    5.10
   6   0  -3   -2.50    4.10
   6   0  -3   -1.30    3.50
  -6   0  -3   -2.10    3.30
   6   0  -3    5.50    4.00
  -6   0  -3   -0.80    3.40
   7   0  -3  329.67   27.00
  -7   0  -3  310.27   26.90
   7   0  -3  303.47   28.00
  -7   0  -3  321.67   27.60
  -7   0   3  320.47   28.10
  -7   0  -3  319.97   27.10
  -7   0  -3  341.97   27.10
  -7   0   3  284.67   29.10
   8   0  -3   -1.70    4.60
  -8   0  -3    5.50    4.90
  -8   0  -3   -0.90    5.40
  -8   0   3   -0.10    8.50
  -8   0  -3    0.90    4.30
  -8   0   3   12.10    8.50
  -8   0  -3   -3.90    8.10
   8   0   3   -6.00    6.50
   9   0   3 2681.63  195.38
  -9   0  -3 2314.07  194.38
  -9   0  -3 2540.75  194.08
  -9   0  -3 2382.36  193.98
  -9   0   3 2424.56  194.88
   9   0  -3 2420.16  195.18
  -9   0   3 2519.95  194.58
  -9   0  -3 2143.39  194.48
 -10   0  -3   -1.20    6.80
 -10   0   3    6.70    9.30
 -10   0  -3    0.90    7.90
  10   0   3    2.40    7.50
  10   0  -3    9.50    6.80
 -10   0  -3    0.40    5.60
 -11   0  -3 1858.31  150.58
  11   0  -3 1897.51  152.18
 -11   0  -3 1921.01  150.98
 -11   0   3 1806.92  151.48
  11   0   3 2057.49  152.48
 -11   0  -3 1714.73  151.48
 -12   0  -3    4.90   13.00
 -12   0   3   17.00   11.50
 -12   0  -3  -15.30    7.90
 -12   0  -3    1.50    7.70
  12   0  -3   -5.20    7.60
  12   0   3   -4.70    8.90
 -13   0  -3  249.18   31.50
 -13   0  -3  276.77   26.70
 -13   0   3  259.97   30.00
  13   0  -3  298.97   28.70
 -13   0  -3  292.27   26.90
  13   0   3  284.77   29.00
  14   0   3  -16.00    9.80
 -14   0  -3   -2.80   10.90
 -14   0   3   14.50   14.00
 -14   0  -3    6.50    9.70
  14   0  -3    4.60    9.70
 -15   0  -3  190.18   21.50
  15   0  -3  208.58   24.60
 -15   0   3  173.38   26.60
  15   0   3  189.18   25.20
 -16   0   3    0.60   17.70
 -16   0  -3    2.00   10.50
  16   0   3    1.00   13.60
  16   0  -3   -5.10   13.80
  17   0   3   59.39   18.70
 -17   0  -3   78.39   13.10
  17   0  -3   53.79   16.90
 -17   0  -3   68.19   13.00
 -17   0   3   55.39   21.00
   0   1  -3   51.59    6.30
   0   1   3   31.10   10.20
   0  -1   3   37.40    5.70
   1   1  -3  122.09   12.40
   1  -1   3  126.69   11.60
  -1   1   3  145.79   17.50
  -1  -1   3  119.49   11.20
   1   1   3  143.39   19.40
  -1   1  -3  129.59   11.80
  -1   1  -3  113.89   12.00
  -2  -1  -3  882.01   77.29
   2  -1   3 1000.70   77.59
  -2  -1  -3  978.90   77.89
   2   1  -3  848.12   76.79
  -2  -1   3 1046.90   77.09
  -2   1  -3  935.71   77.29
  -2   1  -3 1015.30   77.39
  -2   1  -3  959.40   77.49
   2  -1  -3  967.70   77.29
   2   1   3  976.40   81.79
   2   1   3 1032.40   77.69
   2  -1  -3  909.61   78.09
  -3  -1  -3 3040.70  218.88
   3  -1   3 2645.04  218.68
  -3   1   3 2694.33  220.28
  -3  -1  -3 2828.72  218.38
   3   1  -3 2677.23  219.28
  -3   1  -3 2855.41  218.48
   3  -1  -3 2558.64  218.28
  -3   1  -3 3074.09  218.68
  -3  -1   3 2478.45  218.18
   3   1   3 2746.13  218.68
   3   1   3 2442.16  222.08
  -3   1  -3 3085.59  218.58
   3  -1  -3 2497.15  218.98
  -4  -1  -3  575.34   46.70
   4   1  -3  494.65   45.90
  -4   1   3  543.05   48.00
   4   1  -3  557.24   47.40
  -4   1   3  660.03   49.00
  -4  -1  -3  581.44   47.00
  -4   1  -3  569.44   46.90
   4  -1  -3  597.24   47.30
  -4   1  -3  543.75   46.80
   4  -1  -3  603.14   46.60
  -4  -1   3  582.14   46.00
  -4   1  -3  589.44   46.70
   4  -1  -3  534.25   47.80
   4   1   3  584.94   56.69
  -5   1   3  297.67   31.30
  -5   1   3  289.27   30.70
  -5  -1  -3  406.66   30.50
   5   1  -3  349.77   30.80
  -5  -1  -3  380.36   30.10
   5   1  -3  336.37   30.90
  -5  -1  -3  365.66   29.50
   5   1  -3  318.97   29.10
  -5   1   3  361.96   32.00
   5  -1  -3  381.66   29.70
  -5   1  -3  355.96   30.20
  -5   1  -3  371.36   34.00
  -5   1  -3  379.86   30.50
  -5   1  -3  393.96   31.30
   5   1   3  321.97   40.60
  -5   1  -3  349.77   30.50
   5  -1  -3  365.16   30.50
   5  -1  -3  378.36   31.10
  -6   1   3  642.34   50.39
  -6  -1  -3  633.74   48.20
  -6   1   3  565.94   49.10
   6   1  -3  550.14   48.90
  -6  -1  -3  637.24   48.60
  -6   1   3  556.94   48.60
  -6   1   3  557.34   49.20
   6  -1   3  626.44   49.40
   6   1  -3  518.25   47.30
  -6  -1  -3  579.74   47.70
  -6   1  -3  553.54   48.90
   6   1   3  538.85   57.79
   6  -1  -3  601.04   49.20
  -6   1  -3  638.74   49.70
  -6   1  -3  620.14   49.30
  -6   1  -3  569.44   48.50
   6  -1  -3  563.64   48.80
   6  -1  -3  615.44   48.00
  -6   1  -3  586.34   48.20
  -7  -1  -3 2248.48  176.68
   7   1  -3 2033.10  177.08
  -7   1   3 1962.90  177.28
  -7   1   3 2128.89  177.58
   7   1  -3 1871.51  175.88
  -7   1   3 2183.28  176.88
  -7   1   3 2560.04  179.08
  -7  -1  -3 2196.28  176.38
  -7  -1  -3 2372.46  177.08
   7  -1   3 2329.37  177.88
   7   1   3 2341.57  177.48
   7  -1  -3 2351.16  177.88
  -7   1  -3 2182.08  176.88
  -7   1  -3 2481.35  177.78
   7  -1  -3 2186.18  176.48
   7   1   3 2181.78  183.58
  -7   1  -3 2172.18  177.18
  -7   1  -3 2008.60  177.28
  -7   1  -3 2233.98  177.38
  -8  -1  -3  171.88   17.40
   8   1  -3  145.99   17.80
   8  -1   3  142.19   17.50
  -8   1   3  179.78   19.40
   8   1  -3  143.49   14.90
  -8   1   3  157.38   17.70
  -8   1   3  128.99   19.30
  -8  -1  -3  182.08   15.70
  -8  -1  -3  171.68   15.70
  -8   1   3  154.28   17.20
  -8   1  -3  158.28   15.60
  -8   1  -3  139.89   19.70
   8  -1  -3  179.68   17.60
   8   1   3  160.38   18.00
  -8   1  -3  172.18   16.90
  -9   1   3  635.94   47.70
   9   1  -3  488.35   47.60
  -9  -1  -3  517.75   46.90
   9  -1   3  618.84   48.50
  -9   1   3  660.33   50.19
  -9  -1  -3  606.54   47.80
  -9  -1  -3  614.94   46.60
  -9   1   3  522.35   47.80
   9   1   3  564.74   48.10
   9  -1  -3  508.25   47.90
  -9   1  -3  489.15   47.50
  -9   1  -3  546.05   48.00
  -9   1  -3  525.95   46.80
  10  -1   3  343.97   33.50
 -10  -1  -3  366.46   33.50
 -10   1   3  415.26   35.70
 -10  -1  -3  346.07   33.20
  10   1  -3  376.06   33.70
 -10   1   3  349.47   33.20
 -10  -1  -3  354.06   31.30
 -10   1   3  386.76   33.60
 -10   1  -3  371.46   33.30
  10   1   3  356.56   33.50
 -10   1  -3  310.37   32.90
 -10   1  -3  346.97   31.60
  10  -1  -3  397.26   33.50
 -11   1   3  103.59   16.70
 -11   1   3  124.09   19.70
 -11   1   3  108.39   15.80
 -11  -1  -3  119.29   13.40
  11   1  -3  110.39   15.60
 -11   1   3  103.99   15.30
 -11  -1  -3  107.29   16.40
  11  -1   3  119.79   16.70
  11  -1  -3  101.49   15.00
  11   1   3  109.49   15.60
 -11   1  -3   97.09   14.50
 -11   1  -3  126.89   14.40
 -11   1  -3  104.39   15.10
 -12   1   3  543.45   49.50
  12   1  -3  563.84   50.39
 -12   1   3  574.64   51.59
  12  -1   3  533.65   49.80
 -12   1   3  580.44   49.99
 -12  -1  -3  581.64   47.90
 -12   1  -3  569.74   49.30
 -12   1  -3  512.85   49.80
  12   1   3  587.34   50.79
  12  -1  -3  557.24   49.90
 -12   1  -3  623.34   48.60
  13  -1   3   90.29   12.70
 -13   1   3   84.19   15.50
 -13   1   3   74.49   15.90
 -13  -1  -3   78.69   13.10
 -13  -1  -3   54.39   11.80
  13   1  -3   62.09   15.50
 -13   1  -3   92.79   12.40
  13   1   3   71.29   15.50
  13  -1  -3   71.99   12.50
 -13   1  -3   69.19   16.50
 -13   1  -3   79.29   14.00
 -14  -1  -3  172.88   21.10
  14  -1   3  202.98   23.10
 -14   1   3  198.08   29.10
 -14  -1  -3  264.77   24.60
 -14   1   3  195.58   24.10
 -14   1  -3  226.18   22.00
 -14   1  -3  210.18   26.60
  14   1   3  157.98   24.30
 -14   1  -3  181.98   22.50
  14  -1  -3  198.08   23.10
 -15   1   3   61.29   21.40
  15  -1   3  106.49   16.70
 -15  -1  -3  123.49   16.10
 -15  -1  -3   80.59   14.00
 -15   1   3   87.99   16.30
 -15   1  -3  134.39   17.80
  15  -1  -3  105.59   15.90
 -15   1  -3   64.29   26.20
 -15   1  -3  126.89   17.40
 -16   1   3  298.47   46.30
 -16   1   3  434.16   37.40
 -16  -1  -3  367.06   36.00
 -16  -1  -3  412.76   34.80
  16  -1   3  381.76   37.20
  16  -1  -3  362.86   36.90
 -16   1  -3  374.56   35.30
 -16   1  -3  372.16   35.60
  16   1   3  366.86   34.20
  17  -1   3  310.57   35.40
 -17  -1  -3  373.06   32.10
 -17   1   3  346.67   36.00
 -17  -1  -3  327.67   34.70
 -17   1  -3  327.17   32.10
  17  -1  -3  343.67   34.40
   0   2  -3 2936.61  210.88
   0   2   3 2578.34  212.08
   0  -2  -3 2750.92  210.88
   0   2  -3 2766.02  211.38
   0   2   3 2140.19  215.78
   0   2  -3 2651.93  211.68
  -1   2   3   22.80   14.30
   1   2  -3   33.50    6.80
  -1  -2  -3   51.59    7.60
   1   2  -3   78.29   12.00
  -1   2   3   41.90    8.50
   1   2   3   52.59   18.00
   1   2   3   55.39    9.20
  -1   2  -3   45.00    9.70
   1  -2  -3   56.09    7.50
  -1   2  -3   49.90    7.10
  -2   2   3  537.25   57.89
  -2   2   3  679.13   53.39
   2  -2   3  557.64   53.09
  -2  -2  -3  626.94   51.89
   2   2  -3  635.54   50.99
  -2   2  -3  650.03   52.09
   2   2   3  656.03   61.39
   2  -2  -3  628.64   51.69
  -2   2  -3  725.13   53.19
  -2   2  -3  618.54   52.99
  -3  -2  -3  204.18   18.40
   3   2  -3  185.58   16.00
  -3   2   3  171.28   26.60
   3  -2   3  177.48   19.70
  -3   2   3  134.29   20.40
  -3   2   3  180.68   19.70
  -3   2  -3  197.08   19.30
  -3   2  -3  199.58   17.50
  -3   2  -3  171.88   18.40
   3  -2  -3  191.58   21.00
   3   2   3  191.18   29.90
   3  -2  -3  184.68   17.40
  -3   2  -3  219.68   19.30
  -4   2   3  964.80   90.09
  -4   2   3  968.00   86.19
   4  -2   3 1066.39   85.49
   4   2  -3 1044.00   84.09
  -4   2   3 1145.49   85.99
  -4  -2  -3 1064.19   84.79
  -4   2  -3 1044.30   84.89
  -4   2  -3 1059.69   85.79
  -4   2  -3 1096.69   89.29
   4  -2  -3 1001.30   84.89
   4   2   3 1138.99   95.49
   4  -2  -3 1150.58   86.29
  -4   2  -3 1097.09   85.89
  -4   2  -3  890.41   84.79
  -5   2   3  289.97   25.20
  -5   2   3  275.77   32.40
   5   2  -3  263.47   22.40
  -5   2   3  257.47   27.50
   5  -2   3  265.77   25.40
  -5  -2  -3  273.77   25.60
   5  -2  -3  327.17   26.40
   5   2   3  277.67   41.80
   5  -2  -3  285.57   23.50
  -5   2  -3  296.67   28.10
  -5   2  -3  241.38   23.70
  -5   2  -3  223.38   24.40
  -5   2  -3  232.28   27.60
  -5   2  -3  266.37   25.20
   6  -2   3  131.89   16.60
  -6   2   3  135.39   17.60
  -6   2   3  133.19   15.40
  -6  -2  -3  122.19   13.80
   6   2  -3  128.59   12.40
  -6   2   3  134.39   21.50
  -6   2  -3  115.69   14.00
   6  -2  -3  168.48   17.60
   6   2   3  127.19   29.50
  -6   2  -3  146.49   17.70
   6  -2  -3  148.39   14.10
  -6   2  -3  147.99   16.10
  -6   2  -3  128.79   26.30
  -6   2  -3  112.29   15.80
   7   2  -3   23.70    4.80
  -7   2   3   31.90   11.60
   7  -2   3   43.50    9.80
  -7   2   3   30.70   16.00
  -7  -2  -3   38.50    7.50
  -7   2   3   22.30    7.40
   7   2   3   36.70   23.40
   7  -2  -3   34.60    8.90
  -7   2  -3   28.70    8.30
  -7   2  -3   28.30    7.60
  -7   2  -3   18.30    8.70
  -7   2  -3   33.40   12.10
  -8   2   3  248.88   34.30
  -8   2   3  261.67   23.50
  -8  -2  -3  252.17   23.10
  -8   2   3  250.07   25.30
   8  -2   3  213.48   24.50
   8   2  -3  256.77   21.00
  -8   2  -3  199.38   24.30
   8  -2  -3  242.98   24.90
  -8   2  -3  224.08   22.80
  -8   2  -3  267.87   26.70
   9   2  -3   61.69    7.50
  -9   2   3   58.59   10.00
  -9   2   3   53.39   11.60
  -9   2   3   63.99   19.40
   9  -2   3   36.00   11.10
  -9   2  -3   53.69    9.40
  -9   2  -3   67.19   14.20
  -9   2  -3   49.80   12.10
  -9   2  -3   47.40   10.80
   9  -2  -3   53.49   10.20
  10  -2   3 1073.49   96.59
 -10   2   3 1188.78  102.79
  10   2  -3 1169.38   94.19
 -10   2   3 1315.17   97.49
 -10   2  -3 1140.99   97.09
 -10   2  -3 1117.69   97.19
 -10   2  -3 1151.98   96.09
  10  -2  -3 1362.36   97.49
 -10   2  -3 1057.49   96.79
  11  -2   3   -2.50   10.30
 -11   2   3    1.00   21.60
 -11   2   3   15.10   14.00
 -11   2   3   -3.60    9.20
 -11  -2  -3    4.20    7.60
 -11   2   3    7.90    9.80
 -11   2  -3   -5.10   12.00
  11  -2  -3    4.80    9.40
 -11   2  -3    4.90    7.30
 -11   2  -3    6.20   13.80
  12  -2   3  182.48   22.70
 -12  -2  -3  183.08   19.50
 -12   2   3  253.57   23.70
 -12   2   3  208.08   34.10
 -12   2   3  238.68   23.30
 -12   2  -3  155.58   23.50
 -12   2  -3  175.68   21.10
 -12   2  -3  183.98   24.30
 -13   2   3  115.29   30.50
 -13   2   3  140.49   22.30
 -13  -2  -3   95.19   13.30
 -13   2   3   99.09   16.80
  13  -2   3   92.29   16.50
 -13   2   3  119.99   15.50
  13  -2  -3   89.09   16.30
  13   2   3  103.89   12.10
 -13   2  -3   85.89   13.40
 -13   2  -3   95.99   16.30
 -13   2  -3   80.49   18.20
 -14  -2  -3  606.44   56.19
 -14   2   3  710.13   58.29
 -14   2   3  643.94   57.79
  14  -2   3  639.74   58.39
 -14   2  -3  662.33   57.99
  14  -2  -3  686.93   58.89
  14   2   3  708.73   55.59
 -14   2  -3  730.13   56.99
 -15   2   3  -10.10   17.30
  15  -2   3    8.20   14.30
 -15  -2  -3    6.60    9.00
  15  -2  -3   16.10   12.60
  15   2   3  -15.10   10.40
 -15   2  -3    3.70   11.90
 -15   2  -3   29.20   10.40
   0   3   3 1303.27  109.69
   0   3   3 1435.46  111.99
   0   3   3 1371.16  121.99
  -1   3   3  275.67   45.70
  -1   3   3  316.47   29.30
   1   3   3  282.57   47.10
   1   3   3  313.87   29.00
   1   3   3  306.07   26.30
  -2   3   3  685.93   54.29
  -2   3   3  629.94   67.09
  -2   3  -3  607.44   53.09
   2   3   3  603.74   68.99
   2   3   3  608.84   51.59
   2   3   3  641.84   53.99
  -3   3   3  315.17   30.10
   3   3  -3  348.77   27.10
  -3   3   3  375.46   47.60
   3   3   3  305.87   27.40
   3   3   3  346.57   51.19
   3   3   3  346.17   30.60
  -3   3  -3  336.07   29.80
  -3   3  -3  264.07   29.50
   4   3  -3   70.19    7.80
  -4   3   3   51.89   25.80
  -4   3   3   82.69   11.90
   4   3   3   65.69    8.60
   4   3   3   66.69   12.00
  -4   3  -3   74.89   11.40
   4   3   3    1.60   30.20
  -4   3  -3   57.59   11.00
  -5   3   3  181.18   18.90
  -5   3   3  167.88   33.00
   5   3  -3  163.18   15.10
  -5   3  -3  140.59   18.70
   5   3   3  177.08   20.10
   5   3   3  111.69   38.30
  -5   3  -3  148.79   20.20
  -5   3  -3  138.79   19.00
   5   3   3  194.98   16.10
  -6   3   3  257.67   42.10
   6   3  -3  347.67   26.20
  -6   3   3  347.27   29.00
  -6   3  -3  346.47   31.40
  -6   3  -3  261.87   28.50
   6   3   3  301.37   30.50
   6   3   3  319.17   52.29
  -6   3  -3  270.47   29.60
   6   3   3  297.37   26.70
   7   3  -3  276.57   21.70
  -7   3   3  288.37   25.20
  -7   3   3  154.08   38.70
   7   3   3  195.48   42.60
  -7   3  -3  221.98   24.10
   7   3   3  240.78   22.40
   7   3   3  254.77   26.80
  -7   3  -3  230.98   26.20
  -7   3  -3  240.38   26.70
  -8   3   3  245.58   45.80
  -8   3   3  363.06   29.90
   8   3  -3  367.46   27.00
   8   3   3  248.68   30.90
   8   3   3  303.27   27.60
  -8   3  -3  302.97   29.40
  -8   3  -3  315.47   32.10
   9   3  -3   40.40    6.30
  -9   3   3   -0.70   37.10
  -9   3   3   45.10   10.40
  -9   3  -3   48.80   14.10
   9   3   3   26.20    7.70
   9   3   3   22.00   12.70
  -9   3  -3   40.10   10.20
 -10   3   3  108.89   14.40
 -10   3   3   79.79   12.40
 -10  -3  -3   42.30   10.00
  10   3  -3   70.99    8.10
 -10   3  -3   80.59   16.00
 -10   3  -3   57.19   10.60
  10   3   3   76.39    9.40
  10   3   3   31.00   13.80
 -11  -3  -3  141.49   18.70
  11   3  -3  186.88   17.50
 -11   3   3  175.18   21.40
  11   3   3  218.28   24.60
  11   3   3  222.48   18.60
 -11   3  -3  221.48   21.20
 -12   3   3  408.06   40.60
  12   3   3  458.65   38.90
 -12   3  -3  447.86   40.50
  12   3   3  548.65   43.30
 -13   3   3   27.70   10.20
 -13   3   3   50.29   14.50
 -13  -3  -3   26.20    8.50
 -13   3  -3   39.60   10.20
  13   3   3   44.30    8.20
  13   3   3   57.39   14.20
   0   4   3  145.39   51.19
   0   4   3  110.79   15.40
  -1   4   3  370.36   33.40
  -1   4   3  383.26   59.69
   1   4   3  406.66   61.39
   1   4   3  363.26   33.60
  -2   4   3   71.89   48.00
  -2   4   3   48.60    9.70
   2   4   3   75.89   43.90
   2   4   3   56.79   10.60
  -3   4   3   36.10    9.00
  -3   4   3   63.49   48.60
   3   4   3   39.80    9.80
   3   4   3   35.30   36.80
   3   4   3   35.90    7.40
  -4   4   3   35.40    8.70
   4   4   3   36.40   44.20
   4   4   3   35.10   10.20
   4   4   3   33.60    7.20
  -5   4   3  444.06   40.40
   5   4   3  502.35   41.90
   5   4   3  473.05   39.30
  -6   4   3   25.70    7.60
  -6   4   3   16.50    8.90
   6   4   3   22.50   10.10
   6   4   3   19.20    7.30
  -7   4   3  244.98   24.80
   7   4   3  256.27   23.10
   7   4   3  259.47   31.20
  -8  -4  -3   22.50    8.00
  -8   4   3   18.90    8.90
  -8   4   3   15.30    7.60
   8   4   3   20.80    6.90
   8   4   3   -0.70   10.80
   0   0   4 2253.27  191.18
   0   0  -4 2356.46  190.18
   0   0  -4 2601.54  190.28
   0   0  -4 2436.86  189.88
   0   0   4 2261.97  191.88
  -1   0   4  -10.00    5.40
  -1   0  -4    2.00    3.50
  -1   0  -4   -1.10    2.70
   1   0  -4   -4.40    2.60
   1   0   4   15.10   10.60
   1   0  -4    1.00    4.50
   1   0  -4   -2.80    2.70
  -1   0  -4   -3.50    3.30
  -1   0   4    5.70    7.20
   2   0   4 4108.79  383.66
   2   0  -4 5155.08  381.66
  -2   0  -4 5306.67  381.76
  -2   0  -4 4334.87  381.36
  -2   0  -4 5079.39  381.76
  -3   0  -4   -3.60    3.10
  -3   0  -4   -5.90    3.50
   3   0  -4    4.70    3.60
   3   0   4   43.50   19.00
  -3   0  -4    0.30    2.70
   4   0  -4  484.75   41.90
   4   0  -4  456.75   41.90
  -4   0  -4  531.05   41.00
   4   0   4  466.15   57.79
  -4   0  -4  530.35   40.30
   4   0  -4  469.15   40.60
  -5   0  -4   -5.60    3.30
   5   0  -4    1.10    5.00
  -5   0  -4   -2.50    3.60
   5   0  -4    3.90    4.20
   5   0  -4   -0.70    4.20
  -5   0  -4   -6.90    6.70
  -5   0  -4    4.10    3.50
   6   0  -4 2049.89  144.79
  -6   0  -4 1770.72  142.89
   6   0  -4 1777.92  142.99
   6   0  -4 1767.22  144.19
  -6   0  -4 1657.93  143.29
  -6   0  -4 1705.53  142.99
  -6   0  -4 1789.52  143.19
  -7   0  -4   -4.60    6.60
   7   0  -4   -2.90    5.40
   7   0  -4    4.40    5.00
  -7   0   4   -4.50   10.70
  -7   0  -4   -3.00    4.30
  -7   0  -4    3.20    4.60
   7   0  -4    0.20    4.30
   8   0   4  500.35   46.00
  -8   0  -4  501.95   44.30
  -8   0  -4  615.24   44.80
  -8   0  -4  519.05   44.70
  -8   0   4  508.35   46.90
   8   0  -4  569.34   45.90
   8   0  -4  519.75   44.20
  -9   0  -4   -1.20    7.20
  -9   0  -4   -3.40    7.00
  -9   0  -4   -2.80    5.10
   9   0   4   -4.70    7.70
   9   0  -4    4.60    6.10
  10   0   4 1612.74  128.79
 -10   0  -4 1522.15  127.19
 -10   0  -4 1463.45  127.79
 -10   0  -4 1660.43  127.49
  10   0  -4 1635.54  128.89
  11   0  -4   -4.10    8.50
 -11   0  -4   -7.40   10.60
 -11   0  -4    0.90    6.80
 -11   0  -4   11.00    8.90
  11   0   4   -3.10    9.20
 -12   0  -4  627.34   52.29
 -12   0  -4  619.74   52.79
  12   0   4  624.84   54.29
 -12   0  -4  557.04   53.79
  12   0  -4  664.03   54.39
  13   0   4    4.70   10.60
  13   0  -4    1.60   10.40
 -13   0  -4  -13.20    9.80
 -13   0  -4    8.70    9.70
 -13   0  -4   30.10   15.20
 -14   0  -4  198.98   23.30
 -14   0  -4  249.88   24.90
 -14   0  -4  286.47   38.70
  14   0   4  205.98   26.30
 -14   0  -4  203.58   23.60
  14   0  -4  230.78   27.20
 -15   0  -4   -8.80   18.50
 -15   0  -4   16.10   11.40
 -15   0   4   -0.50   16.30
  15   0  -4  -31.80   17.70
 -15   0  -4   11.50    9.50
  16   0  -4 1182.68  104.69
  16   0   4 1197.08  104.59
 -16   0  -4 1302.97  103.19
 -16   0   4 1354.56  106.79
 -16   0  -4 1241.68  102.59
   0   1   4 1525.85  127.19
   0   1  -4 1640.54  123.09
   0  -1  -4 1598.84  122.99
   0  -1   4 1491.35  123.19
   0   1  -4 1436.86  122.99
   0   1  -4 1737.73  122.89
   0   1   4 1322.27  123.89
   1   1  -4  225.88   24.20
  -1  -1  -4  275.77   24.10
  -1   1   4  277.27   26.60
  -1   1   4  297.97   30.20
   1   1  -4  306.67   24.20
   1   1  -4  271.87   24.70
   1  -1  -4  296.77   24.00
  -1  -1   4  275.97   24.40
  -1   1  -4  257.27   24.70
  -1   1  -4  316.87   24.60
   1   1   4  291.27   32.00
  -1   1  -4  298.37   23.90
  -2   1   4  192.78   21.10
   2   1  -4  189.48   19.00
  -2   1   4  248.38   24.50
  -2  -1  -4  199.68   19.00
  -2  -1  -4  207.28   18.00
   2   1  -4  174.28   18.70
   2  -1  -4  194.28   17.70
  -2   1  -4  217.98   18.40
  -2  -1   4  172.58   18.40
  -2   1  -4  216.18   17.80
   2   1   4  184.78   28.50
  -2   1  -4  215.48   18.20
  -3   1   4  741.33   67.59
  -3  -1  -4  824.72   66.39
   3   1  -4  804.72   66.49
   3   1  -4  892.11   67.89
  -3  -1  -4  821.92   66.99
  -3   1   4  784.42   69.59
  -3   1  -4  815.12   66.49
  -3   1  -4  787.02   67.69
  -3  -1   4  829.82   66.39
   3  -1  -4  828.52   67.79
   3  -1  -4  823.82   66.29
   3   1   4  805.52   73.49
  -3   1  -4  890.01   66.49
   4   1  -4 2593.74  215.18
  -4  -1  -4 2946.11  213.78
   4   1  -4 2245.58  213.48
  -4   1   4 2706.83  216.48
  -4  -1  -4 2890.61  213.88
  -4  -1  -4 2846.42  214.48
   4  -1  -4 2603.04  213.78
   4   1   4 2295.67  218.68
   4  -1  -4 2460.45  214.78
   4  -1  -4 2416.26  214.88
  -4   1  -4 2984.80  213.98
  -4   1  -4 3018.70  214.08
  -4   1  -4 2807.82  214.18
  -5  -1  -4 1029.40   78.09
  -5  -1  -4 1022.70   78.59
  -5   1   4 1062.79   80.99
  -5   1   4  882.81   79.29
   5   1  -4  971.50   79.39
  -5   1   4  871.41   78.39
   5   1  -4  881.61   77.79
  -5  -1  -4 1001.70   77.69
   5  -1  -4 1036.80   79.49
   5  -1  -4  973.50   77.79
  -5   1  -4  988.20   78.09
   5  -1  -4 1013.70   79.09
  -5   1  -4  921.51   78.19
  -5   1  -4  870.51   78.49
  -5   1  -4  987.90   78.09
   5   1   4  904.31   86.39
  -6   1   4  331.57   32.10
  -6   1   4  339.97   33.00
   6   1  -4  343.47   30.50
  -6   1   4  408.06   34.00
  -6   1   4  294.67   33.10
  -6  -1  -4  366.26   30.50
  -6  -1  -4  352.46   29.90
  -6  -1  -4  375.76   31.30
   6   1  -4  393.16   32.20
  -6   1  -4  310.67   32.10
   6  -1  -4  364.76   32.10
  -6   1  -4  347.27   30.80
  -6   1  -4  359.36   30.40
   6   1   4  383.76   47.60
   6  -1  -4  378.66   30.20
   6  -1  -4  363.36   31.50
  -7  -1  -4  120.59   12.90
  -7  -1  -4  100.09   14.20
  -7   1   4   92.79   16.60
  -7   1   4  132.99   16.90
  -7  -1  -4  109.99   13.00
   7  -1   4  103.59   15.20
  -7   1   4  109.89   15.10
  -7  -1  -4  102.79   11.80
   7  -1  -4  114.09   12.00
   7  -1  -4  110.49   14.40
  -7   1  -4  110.49   12.00
  -7   1  -4  100.29   13.00
  -7   1  -4  118.19   15.80
   7  -1  -4  133.39   14.50
   7   1   4  100.69   28.70
  -8   1   4   58.79   12.30
  -8  -1  -4   42.50    7.90
  -8  -1  -4   46.80    8.90
   8  -1   4   66.69   10.60
  -8   1   4   67.89   12.20
  -8  -1  -4   48.50    9.60
   8   1  -4   44.10   10.20
  -8  -1  -4   57.29    8.40
   8  -1  -4   49.30    7.30
   8   1   4   63.99   10.70
  -8   1  -4   38.60   11.90
   8  -1  -4   22.00    7.20
  -8   1  -4   39.60    7.20
  -8   1  -4   39.80    8.80
   9   1  -4 1519.15  120.69
  -9  -1  -4 1597.94  119.19
  -9   1   4 1507.25  120.39
   9  -1   4 1525.35  120.89
  -9  -1  -4 1375.36  119.29
  -9  -1  -4 1438.46  119.29
  -9  -1  -4 1515.65  119.99
  -9   1  -4 1270.47  119.89
   9  -1  -4 1582.64  121.09
  -9   1  -4 1400.56  119.39
  -9   1  -4 1412.76  120.19
   9   1   4 1601.34  120.79
  10   1  -4  132.59   18.20
 -10  -1  -4  145.29   15.90
  10  -1   4  174.58   19.80
 -10  -1  -4  132.79   19.60
 -10  -1  -4  146.49   18.10
 -10  -1  -4  171.08   18.00
 -10   1   4  174.48   20.90
 -10   1  -4  136.09   15.90
 -10   1  -4  142.79   19.90
  10   1   4  179.48   21.10
  10  -1  -4  130.49   18.20
 -10   1  -4  134.89   17.80
 -11   1   4  204.38   24.20
 -11  -1  -4  155.88   22.60
  11  -1   4  203.48   22.40
 -11  -1  -4  182.18   25.80
 -11   1   4  225.08   24.50
 -11   1   4  210.98   24.10
 -11  -1  -4  182.38   18.60
 -11  -1  -4  181.58   21.10
 -11   1  -4  182.28   22.20
  11   1   4  165.38   23.70
 -11   1  -4  178.88   19.30
 -11   1  -4  137.19   20.90
  12  -1   4  329.17   32.10
 -12  -1  -4  313.37   29.70
  12   1  -4  339.27   35.00
 -12  -1  -4  311.67   35.70
 -12   1   4  263.97   33.70
 -12  -1  -4  348.97   31.60
 -12   1   4  331.37   35.20
 -12   1  -4  355.16   30.40
  12  -1  -4  324.37   32.00
 -12   1  -4  307.07   32.40
  12   1   4  332.47   34.50
 -12   1  -4  362.56   32.70
 -13  -1  -4  154.38   21.10
  13  -1   4  246.08   24.80
 -13   1   4  188.88   27.10
 -13  -1  -4  207.48   24.00
 -13   1   4  242.68   29.10
 -13   1  -4  207.38   24.70
  13  -1  -4  225.78   24.30
  13   1   4  178.38   24.30
 -13   1  -4  225.08   22.30
 -13   1  -4  225.58   24.40
  14  -1   4  510.75   51.69
 -14   1   4  565.64   53.59
 -14  -1  -4  586.24   51.19
 -14   1   4  616.44   56.39
  14   1   4  688.73   60.49
 -14   1  -4  611.64   51.99
 -14   1  -4  541.15   54.89
 -14   1  -4  617.64   50.79
  14  -1  -4  605.24   52.39
  15  -1   4   36.10   13.00
 -15   1   4   50.49   22.00
 -15  -1  -4   74.49   13.00
 -15  -1  -4   46.80   11.70
 -15   1  -4   48.20   13.60
 -15   1  -4   -6.40   24.10
 -15   1  -4   33.00   10.20
  15  -1  -4   64.19   15.50
 -15   1  -4   68.39   17.50
 -16  -1  -4   -8.60   12.00
 -16   1   4   29.70   24.70
 -16  -1  -4    2.70   10.90
  16  -1   4   12.50   13.30
 -16   1  -4   23.20   12.60
  16  -1  -4    9.50   14.20
 -16   1  -4   18.20   13.10
 -16   1  -4   19.70   12.40
   0   2  -4  156.08   18.50
   0   2  -4  127.59   16.20
   0   2   4   99.09   22.30
   0   2   4  115.09   16.20
   0  -2  -4  149.79   13.80
   1   2  -4   10.50    6.80
  -1  -2  -4    0.20    8.20
  -1   2   4    9.70    7.80
   1   2  -4   -9.20   12.70
  -1   2   4    6.20   14.70
  -1   2  -4   -1.20    9.10
  -1   2  -4   -7.00    7.50
   1   2   4   14.30   17.10
   1  -2  -4    2.40    5.40
   1   2   4   18.80    8.10
  -1   2  -4    2.80    5.90
  -2  -2  -4   93.99   10.20
   2   2  -4   84.69   12.80
  -2   2   4   47.70   17.10
  -2   2   4   80.29   11.70
   2  -2  -4  111.09   11.00
   2   2   4   84.39   22.40
  -2   2  -4  101.69   12.90
   2   2   4   56.99   11.40
  -2   2  -4   77.69   10.80
   2  -2  -4   93.19   13.50
  -3   2   4  793.02   80.69
  -3  -2  -4  936.61   74.09
  -3   2   4 1027.50   75.69
   3  -2   4  978.20   75.39
   3   2   4  933.11   85.49
  -3   2  -4  890.11   75.39
   3  -2  -4  879.41   74.89
   3  -2  -4  917.91   73.79
  -3   2  -4  842.02   74.09
  -4   2   4   -7.80   14.50
  -4  -2  -4    4.60    6.80
   4   2  -4    5.80    3.10
   4  -2   4   21.50    9.60
  -4   2   4    4.90    7.70
  -4   2  -4    7.10    5.20
  -4   2  -4   10.70    8.50
  -4   2  -4   18.80   15.10
   4   2   4    7.70   24.20
   4  -2  -4   17.70    5.50
  -5   2   4  110.09   20.50
  -5   2   4  137.39   15.80
  -5  -2  -4  129.09   15.20
   5  -2   4  108.79   14.80
  -5  -2  -4  107.69   12.80
   5   2  -4  124.59   10.90
   5  -2  -4   98.59   14.90
  -5   2  -4   98.59   15.80
  -5   2  -4  113.89   13.10
  -5   2  -4  128.29   15.80
   5   2   4  122.99   30.40
   5  -2  -4  113.59   12.90
  -6   2   4   51.69   17.40
   6   2  -4   38.30    5.00
  -6  -2  -4   47.00    9.40
  -6  -2  -4   33.70    7.30
  -6   2   4   45.60    9.50
   6  -2   4   30.10   10.40
  -6   2  -4   49.80   10.30
   6  -2  -4   40.70    6.70
   6   2   4   53.69   29.40
  -6   2  -4   46.40   10.00
  -6   2  -4   21.60    7.20
   6  -2  -4   48.60   10.30
  -6   2  -4   32.60   12.20
  -7   2   4 2099.29  183.88
  -7   2   4 2318.47  178.68
   7  -2   4 2102.89  178.98
  -7  -2  -4 2386.26  178.28
   7   2  -4 2050.99  176.88
  -7  -2  -4 2172.18  177.58
  -7   2  -4 2410.66  178.18
   7  -2  -4 2469.75  180.08
   7  -2  -4 2246.18  177.88
   7   2   4 2321.97  189.98
  -7   2  -4 2046.10  178.28
  -7   2  -4 2062.39  179.28
   8   2  -4   72.09    9.30
  -8   2   4  108.09   14.40
   8  -2   4   82.89   13.60
  -8   2   4   48.50   20.10
  -8  -2  -4   79.29   11.30
  -8  -2  -4  127.19   14.90
   8   2   4   37.20   29.10
  -8   2  -4   66.89   13.80
  -8   2  -4   83.19   12.40
   8  -2  -4   96.79   14.70
  -8   2  -4  105.59   13.00
  -9  -2  -4   93.79   13.90
  -9  -2  -4   83.29   12.00
  -9  -2  -4   99.29   16.20
  -9   2   4  150.78   23.50
   9  -2   4   94.09   14.10
  -9   2  -4  129.99   18.90
  -9   2  -4  102.09   13.80
  -9   2  -4   63.69   12.60
 -10   2   4  105.69   15.00
 -10   2   4   97.49   21.90
 -10  -2  -4   77.79   11.20
  10  -2   4   54.79   13.30
 -10   2  -4   87.59   15.70
 -10   2  -4   70.69   11.50
 -10   2  -4   46.70   21.60
  10  -2  -4   90.19   14.80
  11  -2   4  846.82   71.19
 -11   2   4  865.61   70.49
 -11   2   4  742.13   78.69
 -11  -2  -4  740.23   68.89
 -11   2  -4  916.21   71.79
 -11   2  -4  893.71   69.99
 -11   2  -4  864.31   71.59
 -12   2   4   11.50   23.50
 -12   2   4   -9.50   12.40
 -12  -2  -4   11.30    7.70
 -12   2   4   15.90   16.90
  12  -2   4   22.40   11.00
 -12   2  -4  -11.00   10.20
 -12   2  -4    5.00   14.70
 -12   2  -4    4.40    8.70
 -12   2  -4   -8.10   13.30
  12  -2  -4    6.70   11.60
 -13   2   4   41.20   27.80
  13  -2   4   24.20   14.50
 -13  -2  -4   37.20    9.50
 -13   2  -4   64.09   16.00
 -13   2  -4   71.29   16.90
  13  -2  -4   20.20   16.50
 -13   2  -4   44.50   11.80
 -13   2  -4   61.99   11.20
  14  -2   4   37.00   15.00
 -14   2   4   26.10   36.40
 -14   2  -4   39.50   16.90
 -14   2  -4   50.19   17.80
  14   2   4   33.70    8.00
  14  -2  -4   43.20   16.00
 -14   2  -4   34.50   10.00
 -14   2  -4   44.40   20.50
  15  -2   4   -5.20   15.20
 -15  -2  -4   24.10    9.80
  15  -2  -4   35.00   16.30
  15   2   4   21.20    7.90
 -15   2  -4   23.50   10.60
 -15   2  -4   24.60   12.40
   0   3   4 1001.60   98.19
   0   3   4 1042.30   85.29
  -1   3   4   83.09   12.60
  -1   3   4   78.09   26.50
   1   3   4   67.89   11.60
   1   3   4   62.79    9.20
   1   3   4   67.89   26.80
  -2   3   4   54.09   24.40
  -2   3   4   40.40   10.70
   2   3   4   41.70    7.40
   2   3   4   61.39   28.30
   2   3   4   38.70   10.20
  -3   3   4   38.80   10.20
  -3   3   4   49.30   29.10
   3   3   4   21.10    9.00
   3   3   4   39.40    6.90
   3   3   4   22.20   30.10
  -3   3  -4   25.40   10.80
  -3   3  -4   21.20   14.50
  -4   3   4  243.68   38.90
  -4   3   4  253.87   25.40
   4   3   4  235.48   22.30
  -4   3  -4  252.07   29.10
   4   3   4  280.17   29.30
   4   3   4  239.48   42.40
  -4   3  -4  224.38   24.40
  -5   3   4 1074.79   80.19
  -5   3   4 1020.00   94.49
   5   3   4  939.01   77.99
  -5   3  -4  861.91   78.99
   5   3   4  987.20   80.59
   5   3   4  938.01   97.89
  -5   3  -4  921.11   81.29
  -6   3   4   44.20   31.60
  -6  -3  -4   21.10   11.00
  -6   3   4   39.30    9.80
  -6   3  -4   45.00   15.10
  -6   3  -4   36.60   10.30
   6   3   4   45.40   34.00
   6   3   4   22.00    7.20
   6   3   4   32.10   11.40
  -7   3   4   49.99   10.90
  -7   3   4   43.50   33.60
   7   3   4   35.70   12.90
   7   3   4   40.90    8.00
  -7   3  -4   41.20    9.60
   7   3   4   33.60   34.00
  -7   3  -4   31.30   15.00
  -8   3   4    8.00   35.50
  -8   3   4    6.50    9.40
  -8   3  -4   17.30   14.10
  -8   3  -4   12.50    8.30
   8   3   4  -10.10   10.40
   8   3   4   -2.20    6.50
  -9   3   4  446.86   71.19
  -9   3  -4  495.05   47.30
   9   3   4  632.24   46.60
  -9   3  -4  552.24   50.09
   9   3   4  582.54   49.60
 -10   3   4  119.39   44.30
 -10  -3  -4  126.69   16.90
 -10   3   4  216.58   20.80
 -10   3   4  146.09   20.00
  10   3   4  175.28   17.10
 -10   3  -4  169.38   18.90
  10   3   4  187.98   22.10
 -11  -3  -4   27.00    8.20
 -11   3   4   32.00   11.30
 -11   3   4   79.19   16.20
  11   3   4   25.70    7.30
 -11   3  -4    2.40    8.10
  11   3   4   29.40   11.80
 -12   3   4   -6.00   16.10
 -12  -3  -4   -2.70    7.30
 -12   3   4   -8.30   11.50
  12   3   4   -5.30   10.90
 -12   3  -4    0.90    8.40
  12   3   4   12.00    7.20
   0   4   4   79.19   45.20
   0   4   4   94.69   14.20
  -1   4   4  106.89   14.90
  -1   4   4  161.68   44.60
   1   4   4  114.89   15.40
   1   4   4  109.59   41.40
  -2   4   4  706.13   54.49
  -2   4   4  552.24   84.69
   2   4   4  688.53   81.39
   2   4   4  597.64   54.39
  -3   4   4   21.70   46.60
  -3   4   4   16.50    7.60
   3   4   4   12.70    8.40
   3   4   4   26.20   41.40
  -4   4   4   52.79   51.99
  -4   4   4   32.70    8.20
   4   4   4   91.79   43.00
   4   4   4   27.90    9.10
  -5   4   4    2.60    7.70
   5   4   4   13.90    7.90
   5   4   4   -4.40    7.90
  -6   4   4   53.39   10.30
  -6   4   4   38.40    8.90
   6   4   4   44.00   10.20
   6   4   4   50.89    8.90
   0   0   5   -7.50   15.10
   0   0  -5   -1.70    4.10
   0   0  -5   -0.70    3.30
   0   0  -5   -4.10    4.70
  -1   0  -5  246.18   21.60
  -1   0  -5  252.77   22.60
  -1   0  -5  246.98   22.30
   1   0  -5  249.48   21.60
   1   0   5  261.47   32.80
   1   0  -5  249.78   22.30
  -1   0   5  322.77   29.50
   2   0  -5   -1.70    3.70
   2   0   5   15.20   21.40
  -2   0   5   -4.70    8.30
   2   0  -5   -2.10    3.90
  -2   0  -5   -0.20    3.20
  -2   0  -5    0.50    3.10
  -2   0  -5    6.70    4.40
  -3   0  -5 1495.95  117.49
  -3   0  -5 1432.86  116.99
   3   0  -5 1454.65  117.29
   4   0  -5    9.60    4.30
  -4   0  -5    0.30    3.60
  -4   0  -5    1.50    4.50
  -4   0  -5    3.40    4.80
   4   0  -5   -2.20    4.20
  -4   0   5   -3.70    7.00
   4   0  -5    0.90    5.00
  -5   0  -5 4668.93  375.56
  -5   0  -5 4693.63  375.26
  -5   0  -5 5090.99  375.66
   5   0  -5 4558.94  375.36
  -5   0   5 5024.80  377.56
   5   0  -5 4266.57  376.96
  -6   0  -5   -1.90    4.40
   6   0  -5   -2.00    5.70
  -6   0  -5    6.80    4.80
   6   0  -5   -6.30    4.40
  -6   0  -5   -0.20    4.90
  -7   0  -5 1044.50   81.49
  -7   0  -5  948.41   81.29
   7   0  -5  955.00   82.99
  -7   0  -5  969.90   81.49
   7   0  -5 1032.30   81.09
   7   0  -5 1007.20   83.09
  -7   0  -5  986.20   81.49
  -7   0   5 1068.49   84.99
  -8   0  -5   -0.30    6.30
   8   0  -5    8.00    5.90
  -8   0  -5   -1.60    5.60
  -8   0  -5  -12.60    9.90
  -8   0  -5    2.70    6.30
   8   0  -5   -3.30    8.00
  -9   0  -5 1246.58   97.19
  -9   0  -5 1267.07   97.29
  -9   0  -5 1180.38   97.19
  -9   0  -5 1254.07   97.49
   9   0   5  983.20  100.69
  10   0   5    6.20    9.00
  10   0  -5   -2.10    9.00
 -10   0  -5   -0.40    9.50
 -10   0  -5   15.30   11.20
 -10   0  -5    8.80    8.80
 -10   0  -5   -1.80    7.30
 -11   0  -5  147.59   20.30
 -11   0  -5  183.18   21.00
 -11   0  -5  178.58   19.00
 -11   0  -5  183.08   20.70
  11   0  -5  176.98   22.50
  11   0   5  146.79   21.70
 -12   0  -5   16.30   12.70
  12   0   5   -9.20   11.60
 -12   0  -5   -1.40    9.00
  12   0  -5   18.50   12.30
 -12   0  -5   11.50    8.30
 -12   0  -5  -13.40   10.90
 -13   0  -5  296.07   27.90
 -13   0  -5  245.48   26.90
  13   0  -5  275.17   31.50
  13   0   5  244.38   29.70
 -13   0  -5  308.57   28.90
 -13   0  -5  238.58   31.60
 -13   0   5  281.47   32.20
 -14   0  -5  -11.50   13.80
  14   0   5    3.70   17.70
 -14   0  -5    6.70   21.20
 -14   0   5   -5.20   14.70
 -14   0  -5  -10.20   13.20
 -14   0  -5    3.40    9.20
 -15   0   5  236.78   32.00
 -15   0  -5  202.18   30.10
 -15   0  -5  186.68   27.00
  15   0   5  201.58   27.00
 -15   0  -5  197.78   22.60
 -16   0  -5   19.30   15.10
 -16   0  -5   -2.70    9.80
   0   1   5 1637.74  135.29
   0   1   5 1447.16  130.29
   0   1  -5 1562.54  129.29
   0  -1  -5 1686.33  129.29
   0   1  -5 1732.63  129.19
   1   1  -5   32.60    7.30
   1   1  -5   35.20    6.70
   1   1  -5   29.80    7.40
  -1   1   5   26.20   12.90
  -1  -1  -5   31.50    6.40
  -1   1  -5   44.10    7.20
   1   1   5   34.10   15.30
  -1   1  -5   31.90    6.30
   1  -1  -5   44.90    6.40
  -1   1  -5   26.80    6.50
   1   1   5    2.50    9.70
   2   1  -5 1170.08  102.09
  -2  -1  -5 1324.47  101.99
  -2   1   5 1162.78  106.89
   2   1  -5 1312.07  101.99
  -2  -1  -5 1292.17  102.09
   2   1   5 1211.98  109.29
  -2   1  -5 1310.17  102.19
   2  -1  -5 1328.47  102.09
  -2   1  -5 1293.27  102.29
  -2   1  -5 1246.48  101.99
   3   1  -5  596.14   46.90
  -3  -1  -5  448.06   45.30
  -3   1   5  597.54   51.09
  -3  -1  -5  551.24   44.50
  -3  -1  -5  514.25   44.60
   3   1  -5  546.55   44.80
  -3   1  -5  535.35   44.50
   3  -1  -5  555.64   44.50
  -3   1  -5  535.35   44.90
   3   1   5  526.55   56.29
   4   1  -5  154.38   16.00
  -4  -1  -5  157.18   14.40
  -4   1   5  149.99   22.20
  -4  -1  -5  136.69   16.30
  -4  -1  -5  161.68   15.00
   4   1  -5  143.99   17.30
  -4   1  -5  143.49   15.30
   4  -1  -5  159.68   17.40
   4   1   5  193.38   31.00
  -4   1  -5  125.89   14.40
   4  -1  -5  157.88   14.80
  -4   1  -5  141.79   15.30
  -5   1   5  164.38   23.80
   5   1  -5  158.98   19.80
  -5  -1  -5  198.18   17.90
  -5  -1  -5  193.88   19.60
  -5  -1  -5  217.48   17.50
   5  -1  -5  168.18   19.90
   5  -1  -5  184.78   17.40
  -5   1  -5  185.68   17.60
  -5   1  -5  195.58   18.40
   5   1   5  179.88   34.20
  -5   1  -5  197.68   18.50
   6   1  -5  336.67   29.20
  -6  -1  -5  347.17   29.10
  -6   1   5  323.87   33.60
  -6  -1  -5  301.07   29.90
   6   1  -5  387.86   31.60
  -6  -1  -5  331.67   28.40
  -6  -1  -5  309.27   28.70
  -6   1  -5  295.57   29.20
   6  -1  -5  355.86   28.50
  -6   1  -5  320.07   29.30
   6  -1  -5  341.97   30.70
   6   1   5  331.07   45.40
   6  -1  -5  353.16   31.70
  -6   1  -5  298.27   28.60
  -7  -1  -5 1400.66  110.69
   7   1  -5 1284.57  110.49
  -7  -1  -5 1361.16  110.79
  -7  -1  -5 1554.24  110.79
  -7  -1  -5 1452.95  111.99
  -7   1   5 1283.77  114.29
   7  -1  -5 1483.35  113.19
  -7   1  -5 1257.37  111.29
   7  -1  -5 1304.07  112.29
  -7   1  -5 1357.06  111.09
  -7   1  -5 1359.86  110.99
   7   1   5 1346.97  125.09
   7  -1  -5 1387.46  110.69
  -8  -1  -5  236.68   21.70
   8  -1   5  204.38   27.60
  -8  -1  -5  221.08   21.60
  -8  -1  -5  221.68   23.40
  -8   1   5  264.77   27.30
  -8   1  -5  223.88   21.40
  -8   1  -5  197.68   22.40
   8  -1  -5  252.17   20.90
   8  -1  -5  201.98   31.80
  -8   1  -5  203.78   21.90
  -9  -1  -5  784.52   67.99
  -9  -1  -5  819.12   67.79
  -9  -1  -5  848.62   69.49
  -9   1   5  886.71   72.29
   9  -1   5  840.82   69.79
  -9  -1  -5  811.82   68.09
   9   1   5  905.01   70.49
  -9   1  -5  768.42   68.89
   9  -1  -5  828.92   67.69
   9  -1  -5  857.21   70.49
  -9   1  -5  746.83   68.19
 -10   1   5  451.75   44.90
  10  -1   5  459.85   42.70
 -10  -1  -5  479.85   41.30
 -10  -1  -5  459.05   43.00
 -10  -1  -5  498.05   41.00
 -10  -1  -5  492.55   40.70
  10   1   5  471.25   43.70
 -10   1  -5  477.45   40.80
 -10   1  -5  456.95   42.00
 -10   1  -5  463.65   41.20
 -11  -1  -5  337.47   37.40
 -11  -1  -5  385.16   34.50
  11  -1   5  372.36   35.80
 -11  -1  -5  362.86   34.00
 -11   1   5  388.06   39.40
 -11  -1  -5  350.46   35.30
 -11   1  -5  422.46   34.30
  11   1   5  351.86   37.90
 -11   1  -5  430.86   37.70
 -11   1  -5  383.96   35.70
 -11   1  -5  343.37   34.00
  11  -1  -5  411.96   36.90
  12  -1   5  338.27   33.10
 -12  -1  -5  247.88   35.00
 -12  -1  -5  365.76   31.70
 -12   1   5  361.96   38.10
 -12  -1  -5  297.97   36.20
 -12   1  -5  303.77   31.00
  12   1   5  359.76   36.70
 -12   1  -5  367.96   31.60
  12  -1  -5  403.76   34.30
 -12   1  -5  318.17   33.80
 -12   1  -5  331.47   34.80
  13  -1   5  104.79   16.20
 -13  -1  -5   99.69   15.60
 -13   1   5   95.19   21.60
 -13  -1  -5  104.29   14.00
 -13   1  -5  147.39   20.00
 -13   1  -5  114.19   14.70
  13  -1  -5  106.49   16.00
 -13   1  -5  112.89   14.90
 -13   1  -5  128.29   19.10
 -14   1   5   85.39   21.10
 -14  -1  -5   70.39   13.70
 -14  -1  -5   68.99   12.20
  14  -1   5   64.59   15.10
 -14   1  -5   69.19   14.50
 -14   1  -5   84.49   20.00
  14  -1  -5   89.29   17.50
 -14   1  -5   93.19   24.40
 -14   1  -5   62.89   12.20
 -15   1   5   27.30   21.80
 -15  -1  -5    5.60   11.80
 -15  -1  -5    8.20   11.40
  15  -1   5   -0.70   13.40
  15  -1  -5   -1.50   15.00
 -15   1  -5   27.60   30.30
 -15   1  -5  -12.20   12.50
 -15   1  -5   21.10   12.30
   0   2   5  950.80   84.89
   0   2   5  861.01   92.49
   0   2  -5 1075.09   85.39
   0   2  -5 1127.19   85.59
   0  -2  -5 1088.79   83.29
  -1  -2  -5  359.96   31.40
  -1   2   5  365.06   34.00
  -1   2   5  375.56   44.90
   1   2  -5  358.06   34.00
   1  -2  -5  358.26   31.20
  -1   2  -5  366.66   31.40
   1   2   5  311.67   47.00
  -1   2  -5  368.66   34.70
  -1   2  -5  382.36   34.90
   1   2   5  371.86   33.80
   2   2  -5 1032.10   89.89
  -2  -2  -5 1124.89   88.39
  -2   2   5  989.20   96.99
  -2   2   5 1150.18   90.09
   2  -2  -5 1108.39   90.19
   2   2   5 1227.88  102.09
   2  -2  -5 1160.68   88.49
  -2   2  -5 1071.89   88.39
  -2   2  -5 1055.39   90.09
   2   2   5 1025.90   89.99
  -3   2   5   74.79   12.50
   3   2  -5   69.09   12.30
  -3  -2  -5   79.69   10.00
  -3   2  -5   90.69   11.20
   3  -2  -5   79.49    9.30
  -3   2  -5   61.39   12.40
   3   2   5  105.69   31.60
   3  -2  -5   66.39   12.50
   3   2   5   52.99   12.30
  -4  -2  -5 1217.68   94.69
  -4   2   5 1273.07   96.09
   4  -2   5 1115.39   96.09
  -4   2   5 1053.39  102.59
  -4   2  -5 1105.59   96.29
  -4   2  -5 1125.49   94.79
   4   2   5 1229.28  108.99
   4  -2  -5 1228.48   94.59
   5  -2   5  418.66   37.70
  -5  -2  -5  416.46   34.80
  -5  -2  -5  470.25   35.40
  -5   2   5  336.67   45.40
  -5   2   5  348.17   36.10
  -5   2  -5  442.86   37.70
  -5   2  -5  448.96   35.40
   5   2   5  385.06   57.19
   5  -2  -5  368.36   34.50
  -6   2   5  167.48   19.30
  -6   2   5  122.39   25.40
  -6  -2  -5  168.68   18.20
   6  -2   5  175.28   20.20
  -6  -2  -5  169.88   16.60
   6  -2  -5  160.78   16.20
  -6   2  -5  158.58   17.40
  -6   2  -5  150.88   19.30
  -6   2  -5  144.79   16.80
   6   2   5  143.59   35.60
   7  -2   5   24.70   10.40
  -7  -2  -5   20.20    7.50
  -7  -2  -5   22.40    9.50
  -7   2   5   28.70   10.20
  -7   2   5   -1.90   19.40
  -7   2  -5   33.90   11.10
  -7   2  -5   39.70   12.20
   7  -2  -5   33.00    7.20
   7   2   5   25.00   31.70
  -7   2  -5   22.30    8.30
   8  -2   5   77.19   12.90
  -8  -2  -5   44.00    9.90
  -8  -2  -5   46.80   11.60
  -8   2  -5   57.69   13.10
  -8   2  -5   56.69   10.00
   8   2   5   24.90   36.60
  -8   2  -5   58.49   12.20
   9  -2   5   60.69   12.80
  -9   2   5   19.60   19.40
  -9  -2  -5   52.69    9.70
  -9  -2  -5   55.09   11.50
  -9  -2  -5   52.49   12.00
  -9   2  -5   48.80    9.90
  -9   2  -5   27.30   11.90
   9  -2  -5   52.29   13.70
  -9   2  -5   31.40   11.90
 -10  -2  -5  263.47   28.00
  10  -2   5  289.47   28.70
 -10   2   5  330.57   41.40
 -10  -2  -5  250.67   24.60
 -10   2  -5  244.98   25.20
 -10   2  -5  240.08   27.60
  10  -2  -5  309.37   30.50
 -10   2  -5  248.48   27.00
  11  -2   5  205.68   25.60
 -11  -2  -5  188.88   20.90
 -11   2   5  204.18   33.90
 -11   2  -5  215.98   24.30
 -11   2  -5  234.48   22.20
 -11   2  -5  232.28   25.80
 -12  -2  -5   99.99   13.10
 -12   2   5  107.99   19.50
 -12   2   5   54.29   29.40
  12  -2   5   61.59   15.30
 -12   2  -5  100.99   15.00
  12  -2  -5  119.59   18.40
 -12   2  -5  103.79   17.40
 -12   2  -5  114.09   15.30
 -13   2   5   14.70   32.00
  13  -2   5   52.39   15.30
 -13  -2  -5   12.90    9.80
 -13   2  -5   24.50    9.50
 -13   2  -5   46.60   12.60
 -13   2  -5   26.10   16.20
  14  -2   5  469.45   49.90
 -14   2  -5  644.24   47.50
 -14   2  -5  510.05   48.00
   0   3   5  178.98   37.30
   0   3   5  277.87   26.70
  -1   3   5  133.49   17.90
  -1   3   5  105.79   32.20
   1   3   5   60.59   31.20
   1   3   5  125.09   17.90
  -2   3   5  434.56   58.69
  -2   3   5  457.05   40.30
   2   3   5  444.26   40.40
   2   3   5  413.16   61.69
  -3   3   5  134.89   32.40
  -3   3   5  107.69   16.80
  -3   3  -5   95.49   20.00
   3   3   5  118.79   37.00
   3   3   5   98.99   14.70
   3   3   5   94.29   11.50
  -4   3   5  154.08   36.60
  -4   3   5  146.39   18.60
  -4  -3  -5  123.69   17.20
  -4   3  -5  150.38   21.40
   4   3   5  122.49   15.30
   4   3   5  167.58   41.50
   4   3   5  142.79   18.80
  -5   3   5  157.58   19.90
  -5  -3  -5  151.88   18.90
  -5   3   5  177.58   36.30
   5   3   5  176.18   17.40
   5   3   5  190.68   43.40
  -5   3  -5  137.79   22.40
   5   3   5  172.38   20.60
  -5   3  -5  182.68   20.30
  -6  -3  -5   71.79   12.90
  -6   3   5   93.09   13.10
  -6   3   5   68.29   35.00
   6   3   5   90.79   41.20
   6   3   5   95.49   13.80
  -6   3  -5   65.79   11.80
  -6   3  -5   62.69   16.60
   6   3   5   51.39    9.60
  -7   3   5  103.69   13.70
  -7   3   5   42.00   32.50
  -7   3  -5   93.69   13.10
   7   3   5   54.99   42.40
   7   3   5   61.99   10.50
  -7   3  -5   86.39   17.30
   7   3   5   87.49   14.10
  -8   3   5  126.19   17.50
  -8   3   5   49.10   34.50
  -8  -3  -5  101.19   13.60
   8   3   5  109.39   15.60
  -8   3  -5   87.29   13.50
   8   3   5  104.49   12.00
  -8   3  -5   93.59   18.30
  -9   3   5   95.39   38.60
   9   3   5   99.19   11.60
  -9   3  -5  102.89   19.30
  -9   3  -5   95.69   13.90
   9   3   5  109.19   17.40
 -10   3   5   31.00   11.30
 -10   3   5  -34.40   43.80
 -10  -3  -5   26.30    9.10
  10   3   5   38.10    8.40
  10   3   5   40.40   11.80
 -10   3  -5   36.10   10.40
 -11   3   5  175.58   23.70
 -11   3  -5  203.18   22.30
  11   3   5  226.98   23.40
  11   3   5  236.48   20.00
   0   4   5   19.70    8.10
   0   4   5  -38.60   44.10
  -1   4   5  130.19   15.00
  -1   4   5  112.79   46.50
   1   4   5  160.88   44.20
   1   4   5  108.89   15.10
  -2   4   5   52.19    8.90
  -2   4   5  -39.80   48.10
   2   4   5   79.49   41.90
   2   4   5   26.30    8.40
  -3   4   5   41.70    8.60
   3   4   5   28.40   45.10
   3   4   5   31.20    8.40
  -4   4   5   23.00    7.90
   4   4   5   12.80    7.40
   0   0  -6 2786.82  222.18
   0   0  -6 2729.93  223.08
   0   0  -6 2828.22  221.88
   1   0  -6    0.70    5.00
  -1   0  -6   -4.60    4.00
  -1   0   6   -6.00   16.60
  -1   0  -6    4.60    4.50
  -1   0  -6    7.20    6.00
   1   0  -6    2.90    4.20
  -2   0  -6 1038.70   84.59
  -2   0  -6 1017.20   84.89
  -2   0   6 1076.99   90.89
  -2   0  -6 1017.30   85.39
   2   0  -6 1028.50   84.29
   2   0  -6 1119.29   84.99
   3   0  -6   -1.90    4.80
  -3   0  -6   -5.10    5.20
  -3   0  -6   -3.20    4.50
  -3   0   6    3.50   12.50
  -3   0  -6    9.80    4.80
   3   0  -6   -3.10    4.20
   4   0  -6  986.60   90.69
  -4   0  -6 1163.38   91.99
   4   0  -6 1169.58   91.49
   4   0  -6 1143.89   93.99
  -4   0  -6 1101.09   91.59
  -4   0   6 1253.47   96.19
  -4   0  -6 1123.79   91.39
  -5   0  -6    2.40    5.00
  -5   0  -6    0.80    6.30
   5   0  -6    4.60    5.60
   5   0  -6    0.40    6.60
  -5   0   6   -4.90   11.60
  -5   0  -6   -0.90    5.60
   6   0  -6  439.16   38.40
  -6   0  -6  493.35   39.20
   6   0  -6  426.16   41.10
  -6   0   6  454.25   43.40
  -7   0  -6    1.60    6.80
  -7   0   6    0.10   11.20
   7   0  -6    3.40    5.80
  -7   0  -6    5.70    4.90
   7   0  -6    6.00    8.60
  -7   0  -6   -1.50    6.10
   8   0  -6  911.71   71.39
  -8   0  -6  847.82   71.79
  -8   0  -6  858.81   72.09
  -8   0  -6  869.31   72.19
  -9   0  -6    2.90    7.90
  -9   0  -6    4.70    8.20
   9   0   6   12.60   10.50
  -9   0  -6   -1.10    6.30
  -9   0   6    8.70   11.70
  10   0   6  772.02   67.29
 -10   0  -6  809.52   65.99
 -10   0  -6  786.42   66.19
 -10   0  -6  775.62   65.39
 -11   0  -6   12.70   12.30
  11   0   6    8.10   11.10
 -11   0  -6   -9.60    9.20
 -11   0   6    2.20   13.20
 -11   0  -6    2.80    6.70
 -12   0  -6  341.97   31.20
 -12   0   6  376.36   38.10
 -12   0  -6  326.97   34.80
 -12   0  -6  355.06   33.30
  12   0   6  315.07   34.50
 -13   0   6   -8.10   16.50
 -13   0  -6   10.50    9.10
 -13   0  -6   33.50   17.60
 -13   0  -6    0.90   12.70
  13   0   6   -6.10   13.20
 -14   0   6  997.70   77.29
 -14   0  -6  710.03   75.89
  14   0   6  830.12   72.69
 -14   0  -6  849.72   70.39
 -14   0  -6  847.42   72.69
   0  -1  -6   22.40    5.90
   0   1  -6   22.10    7.30
   0  -1  -6   25.90    6.10
   0   1  -6   27.10    7.10
   0   1  -6   25.00    7.70
   0   1   6   30.50   19.80
   1   1  -6  732.93   61.59
  -1  -1  -6  732.13   61.59
  -1  -1  -6  722.43   61.49
   1   1  -6  839.02   62.99
  -1   1   6  738.23   71.69
   1   1  -6  763.72   62.09
  -1   1  -6  749.62   61.99
  -1   1  -6  757.12   61.59
   1  -1  -6  767.22   61.69
   1   1   6  635.24   73.59
  -1   1  -6  776.02   61.89
  -2   1   6 1341.47  132.79
   2   1  -6 1608.04  128.89
   2   1  -6 1649.33  126.39
  -2  -1  -6 1595.34  126.39
   2   1  -6 1644.04  126.89
  -2  -1  -6 1541.45  126.49
  -2   1  -6 1644.44  126.89
   2  -1  -6 1597.04  126.59
  -2   1  -6 1593.24  126.69
   2   1   6 1376.56  136.29
  -2   1  -6 1615.74  126.49
   3   1  -6  642.34   50.29
  -3  -1  -6  618.94   49.90
  -3   1   6  569.34   58.39
   3   1  -6  599.84   52.79
  -3  -1  -6  599.74   50.19
   3   1   6  465.65   66.99
  -3   1  -6  590.04   50.19
  -3   1  -6  582.64   50.49
  -3   1  -6  600.04   50.29
   3  -1  -6  625.34   52.99
   3  -1  -6  651.53   50.09
   4   1  -6  779.42   67.79
  -4   1   6  698.93   71.99
  -4  -1  -6  818.22   65.29
   4   1  -6  813.32   65.19
  -4  -1  -6  817.72   64.99
  -4  -1   6  901.41   70.19
  -4   1  -6  806.52   65.69
   4  -1  -6  730.73   67.39
  -4   1  -6  770.32   65.29
  -4   1  -6  794.02   65.29
   4   1   6  729.23   83.59
   4  -1  -6  827.22   65.19
  -5   1   6  621.74   58.99
  -5  -1  -6  518.25   52.89
   5   1  -6  616.34   51.69
   5   1  -6  657.73   54.39
  -5  -1  -6  612.34   51.79
  -5  -1  -6  647.94   51.49
   5  -1  -6  634.64   51.39
  -5   1  -6  590.44   51.79
  -5   1  -6  623.74   51.89
  -5  -1   6  667.83   55.89
  -5   1  -6  653.63   54.59
   5  -1  -6  621.54   54.09
   5   1   6  603.84   76.29
  -6  -1  -6  266.17   29.20
  -6  -1  -6  311.67   27.60
  -6  -1  -6  338.27   27.20
   6   1  -6  287.77   30.30
  -6  -1  -6  319.37   28.60
  -6   1   6  339.37   36.40
   6   1  -6  307.77   27.80
  -6   1  -6  317.47   27.50
   6   1   6  382.86   55.59
  -6   1  -6  293.97   27.60
   6  -1  -6  258.67   26.60
   6  -1  -6  265.97   29.90
  -6   1  -6  325.17   28.30
  -7  -1  -6  558.84   46.40
  -7  -1  -6  597.94   46.20
  -7  -1  -6  549.25   46.70
  -7  -1  -6  442.66   47.70
   7   1  -6  591.24   46.30
  -7   1   6  519.15   52.49
  -7   1  -6  486.45   46.30
  -7   1  -6  556.04   47.10
  -7   1  -6  545.25   46.40
   7  -1  -6  612.64   49.20
   8  -1   6  147.89   18.20
  -8  -1  -6  106.69   14.70
  -8  -1  -6   87.09   14.70
  -8   1   6  116.19   20.50
  -8  -1  -6  126.69   15.20
   8  -1  -6   94.59   11.80
  -8   1  -6   82.29   12.20
  -8   1  -6   90.19   14.40
  -9  -1  -6  156.08   23.90
  -9   1   6  220.58   29.80
   9  -1   6  194.68   22.80
  -9  -1  -6  196.88   21.20
  -9  -1  -6  183.18   21.50
  -9  -1  -6  191.08   20.70
   9   1   6  230.48   26.10
  -9   1  -6  186.78   21.90
  -9   1  -6  201.88   20.80
  -9   1  -6  193.28   20.80
 -10  -1  -6   27.80    8.80
 -10  -1  -6    9.10   10.40
 -10   1   6   10.10   17.80
 -10  -1  -6   15.80   11.70
 -10  -1  -6   19.00   12.70
  10  -1   6   27.40   11.40
 -10   1  -6   25.40    8.70
 -10   1  -6    4.80    7.30
  10   1   6   31.90   14.60
 -10   1  -6   15.80   11.10
 -11  -1  -6  112.49   21.20
 -11  -1  -6  179.68   20.00
  11  -1   6  186.78   21.70
 -11  -1  -6  133.39   21.20
 -11   1   6  206.08   30.20
 -11  -1  -6  172.98   20.60
 -11   1  -6  145.59   18.30
  11   1   6  191.48   26.50
 -11   1  -6  160.88   20.70
 -11   1  -6  157.48   19.40
 -12  -1  -6  326.97   35.60
 -12  -1  -6  345.87   34.50
 -12  -1  -6  294.67   38.60
 -12   1   6  422.76   44.20
  12  -1   6  372.06   36.20
 -12   1  -6  427.16   38.90
  12   1   6  426.16   40.80
 -12  -1   6  481.25   42.10
 -12   1  -6  394.36   34.80
 -12   1  -6  335.37   33.70
  13  -1   6    1.30   12.80
 -13  -1  -6    8.80    9.70
 -13   1   6   29.80   21.40
 -13  -1  -6    8.90   25.40
 -13   1  -6   12.60   16.70
 -13  -1   6  -24.60   17.90
 -13   1  -6   -0.40    8.60
 -13   1  -6    3.20   10.80
 -14  -1  -6  351.66   31.80
 -14   1   6  348.67   47.70
  14  -1   6  318.57   34.10
 -14  -1  -6  352.86   35.10
 -14   1  -6  309.57   31.00
 -14   1  -6  274.27   38.60
 -14   1  -6  413.86   33.10
 -14  -1   6  278.87   40.40
   0   2   6  198.58   33.40
   0   2   6  182.18   23.20
   0   2  -6  182.48   26.30
   0  -2  -6  202.58   18.80
  -1  -2  -6  367.86   31.70
  -1   2   6  379.56   48.30
  -1   2   6  374.86   35.00
   1   2  -6  330.17   36.70
   1  -2  -6  340.67   31.70
   1   2   6  370.86   51.89
   1   2   6  381.36   34.90
  -1   2  -6  393.36   36.80
  -2   2   6   51.39   23.00
   2   2  -6    5.70   12.40
  -2   2   6   22.10   11.30
  -2  -2  -6   31.00    7.80
  -2  -2  -6   24.20    7.30
   2  -2  -6   19.00   12.70
  -2   2  -6   23.70    8.80
   2   2   6   16.60   10.70
  -2   2  -6   35.20   13.40
   2   2   6    1.90   29.30
   2  -2  -6   15.70    6.80
  -3  -2  -6  286.37   25.30
  -3  -2  -6  255.17   24.90
  -3   2   6  303.67   28.40
  -3   2   6  285.57   41.00
   3   2  -6  249.68   30.60
   3  -2  -6  286.67   24.70
   3   2   6  289.07   28.70
   3   2   6  305.77   46.70
  -3   2  -6  248.28   29.00
  -3   2  -6  251.47   29.20
   4  -2   6   48.80   13.20
  -4  -2  -6   65.69   10.20
  -4  -2  -6   68.09   10.10
  -4   2   6   66.89   23.90
   4  -2  -6   74.79    9.50
   4   2   6   81.59   13.90
  -4   2  -6   78.89   11.00
   4   2   6   41.90   35.70
  -4   2  -6   71.79   13.70
   5  -2   6  664.93   67.29
  -5  -2  -6  834.62   65.69
  -5   2   6  750.42   75.49
  -5  -2  -6  863.61   65.59
   5  -2  -6  837.32   65.79
   5   2   6  744.43   88.39
  -5   2  -6  764.82   65.69
  -5   2  -6  858.81   67.89
  -6   2   6    0.00   21.20
  -6  -2  -6   56.19    9.30
   6  -2   6   71.99   13.60
  -6  -2  -6   53.39   10.40
  -6   2  -6   46.40    9.80
   6  -2  -6   61.99    9.00
   6   2   6   55.49   39.30
  -6   2  -6   58.59   12.40
   7  -2   6  275.97   32.50
  -7   2   6  402.26   45.70
  -7  -2  -6  298.97   30.10
  -7  -2  -6  338.77   30.60
  -7  -2  -6  357.96   29.80
  -7   2  -6  305.97   34.40
  -7   2  -6  348.87   32.70
  -7   2  -6  298.97   30.20
   7  -2  -6  397.66   29.70
   7   2   6  312.77   53.69
  -8   2   6  -27.00   22.20
  -8  -2  -6    6.60    9.20
  -8  -2  -6   30.70   10.40
  -8  -2  -6    8.20    8.80
   8  -2   6   21.10   11.90
  -8   2  -6   -7.20   12.70
  -8   2  -6   25.10    8.00
  -8   2  -6   15.40   11.60
  -9   2   6  856.41   83.79
  -9  -2  -6  916.31   73.99
  -9  -2  -6  958.30   74.49
   9  -2   6  841.52   75.59
  -9  -2  -6  817.52   73.69
  -9   2  -6  906.81   74.49
  -9   2  -6  982.50   76.09
  -9   2  -6  898.11   73.99
  10  -2   6  111.19   17.30
 -10   2   6   95.49   30.10
 -10  -2  -6   75.89   14.70
 -10  -2  -6   86.49   13.70
 -10   2  -6  122.29   22.10
 -10   2  -6  124.39   16.30
 -10   2  -6  121.99   15.60
 -11  -2  -6  114.89   16.90
 -11   2   6   72.09   27.30
  11  -2   6  104.29   18.00
 -11   2  -6  137.19   18.80
 -11   2  -6  118.59   22.30
 -11   2  -6  126.99   16.30
 -12  -2  -6    6.20   11.60
  12  -2   6   -4.40   15.00
 -12   2   6    8.10   28.00
 -12   2  -6   17.70    9.40
 -12   2  -6   26.90   15.40
 -12   2  -6    9.00   13.80
   0   3   6  179.38   38.60
   0   3   6  151.18   20.10
  -1   3   6   51.79   33.20
  -1   3   6   43.60   11.60
   1   3   6   25.10   32.90
   1   3   6   41.50   11.70
  -2   3   6  268.77   43.80
  -2   3   6  233.18   26.70
   2   3   6  323.27   51.29
   2   3   6  284.97   27.50
  -3   3   6  375.36   31.80
  -3  -3  -6  285.77   30.10
  -3   3   6  375.56   55.49
   3  -3  -6  275.47   30.80
   3   3   6  352.76   32.30
   3   3   6  416.66   56.99
  -4   3   6   55.59   33.60
  -4  -3  -6   35.60   14.70
  -4   3   6   30.30   11.10
   4   3   6   29.50   11.30
   4   3   6   43.50   39.90
  -4   3  -6   26.90   21.70
   4   3   6   21.20    9.40
  -5   3   6  249.58   27.90
  -5   3   6  309.37   45.80
  -5  -3  -6  299.77   26.70
   5   3   6  300.57   53.39
  -5   3  -6  257.47   31.90
   5   3   6  278.47   28.20
   5   3   6  264.07   25.30
  -6  -3  -6  138.99   18.60
  -6   3   6  118.19   36.90
  -6   3  -6  125.39   22.50
   6   3   6  144.99   18.90
   6   3   6  117.49   13.90
   6   3   6   47.50   43.80
  -7   3   6  205.48   45.90
   7   3   6  292.57   28.30
  -7   3  -6  263.87   28.90
   7   3   6  288.27   25.50
  -7   3  -6  326.37   34.60
  -8   3   6   38.40   34.80
  -8  -3  -6   43.10   10.10
  -8   3  -6   51.19   12.80
   8   3   6   57.49   13.10
  -8   3  -6   32.30   16.70
   8   3   6   37.00    8.80
  -9  -3  -6   51.09   10.90
   9   3   6   67.69   10.00
   9   3   6   73.79   12.40
  -9   3  -6   70.79   13.00
   0   0  -7    1.00    5.60
   0   0  -7    2.00    5.50
   1   0  -7 2184.58  162.68
  -1   0  -7 2057.09  162.88
   1   0  -7 1951.30  162.18
  -1   0  -7 1915.61  162.48
  -2   0   7  -31.70   25.40
  -2   0  -7   10.30    9.20
   2   0  -7    2.20    6.20
  -2   0  -7   13.70    5.90
  -2   0  -7    2.00    6.40
   2   0  -7   -2.20    5.10
  -3   0  -7 1169.08   86.49
  -3   0  -7  941.61   87.39
   3   0  -7 1066.19   89.39
  -3   0  -7 1108.49   86.59
   3   0  -7 1127.19   86.39
   3   0  -7  962.90   85.59
  -4   0  -7  -15.00   10.30
  -4   0  -7    5.40    7.10
   4   0  -7   -5.20    8.70
  -4   0  -7    0.70    6.60
  -4   0   7   -4.30   20.80
   4   0  -7  -13.40    8.30
   4   0  -7    2.20    6.20
   5   0  -7 1090.59   94.29
  -5   0   7 1056.59   97.89
  -5   0  -7 1213.48   91.79
  -5   0  -7 1068.39   92.29
   5   0  -7 1187.48   91.09
  -5   0  -7 1100.09   91.59
  -6   0  -7    5.10    7.50
   6   0  -7   -1.50   10.30
  -6   0  -7    0.20    8.20
   6   0  -7   -8.60    6.60
  -6   0   7   14.10   16.40
  -6   0  -7   -1.30    7.80
  -7   0  -7  836.42   61.89
   7   0  -7  689.43   60.59
  -7   0  -7  731.83   61.29
  -7   0  -7  653.33   61.79
  -7   0   7  708.93   67.49
   7   0  -7  799.72   72.09
   8   0  -7   -9.90    7.00
  -8   0  -7    6.90    9.20
  -8   0   7  -15.00   16.10
  -8   0  -7   -3.70    7.00
  -8   0  -7    5.40   10.00
  -9   0  -7   64.29   13.20
  -9   0  -7   72.09   12.20
  -9   0   7   70.49   20.40
  -9   0  -7   99.19   13.70
   9   0   7   90.39   15.60
 -10   0  -7   -4.60    7.50
  10   0   7    6.50   12.40
 -10   0  -7   22.50   11.80
 -10   0   7    1.80   18.50
 -10   0  -7    2.30   10.80
 -11   0  -7  670.53   62.99
 -11   0  -7  812.12   61.69
  11   0   7  673.13   64.89
 -11   0  -7  789.12   63.59
 -12   0  -7   10.50    8.40
 -12   0  -7   16.30   13.50
 -12   0   7  -13.90   20.80
  12   0   7   20.40   14.60
 -12   0  -7   14.20   15.50
 -13   0  -7   44.40   10.60
 -13   0  -7   41.00   16.70
  13   0   7   44.50   15.80
 -13   0   7  101.69   24.10
   0   1  -7  118.09   16.30
   0   1  -7  127.09   13.70
   0  -1  -7  122.99   13.30
   0  -1  -7  103.39   12.80
   0   1   7   63.49   33.50
   0   1  -7  130.39   17.30
   1   1  -7  374.56   33.70
  -1   1   7  368.36   53.99
  -1  -1  -7  374.06   33.40
  -1  -1  -7  400.76   33.10
   1   1  -7  379.36   37.40
   1   1   7  380.06   59.59
  -1   1  -7  377.46   33.50
   1  -1  -7  390.56   33.00
  -1   1  -7  410.96   34.70
   1  -1  -7  366.36   33.20
  -1   1  -7  382.66   35.50
  -2  -1  -7  224.48   23.60
  -2   1   7  263.37   37.80
   2   1  -7  268.77   24.60
   2   1  -7  249.58   28.30
  -2  -1  -7  275.27   23.70
   2   1   7  255.97   47.20
   2  -1  -7  234.98   23.60
   2  -1  -7  294.57   23.60
  -2   1  -7  258.17   25.30
  -2   1  -7  253.57   25.70
  -2   1  -7  249.18   24.20
  -3  -1  -7   15.00    6.60
  -3  -1  -7    0.30    5.80
   3   1  -7    3.90    8.20
  -3   1   7    7.40   22.90
   3   1  -7   -4.90    9.20
   3  -1  -7    1.30    6.20
  -3   1  -7    2.70    7.40
  -3   1  -7   12.90    9.20
  -3   1  -7    0.00    8.20
   3   1   7   -2.80   42.30
   3  -1  -7   -1.40    6.00
   3  -1  -7   -1.10   10.90
  -4  -1  -7  639.24   52.39
  -4  -1  -7  588.94   52.49
  -4   1   7  574.44   63.59
   4   1  -7  628.94   52.39
   4   1  -7  661.03   56.09
  -4   1  -7  660.03   53.39
   4  -1  -7  654.73   56.09
  -4   1  -7  598.64   52.69
   4  -1  -7  631.14   51.99
  -4   1  -7  564.34   52.99
   4  -1  -7  681.23   52.49
  -5  -1  -7  751.52   69.79
   5   1  -7  836.42   69.79
  -5  -1  -7  899.61   69.99
   5   1  -7  875.51   73.19
  -5   1   7  835.72   79.39
  -5   1  -7  837.62   70.69
   5  -1  -7  851.81   69.89
  -5   1  -7  859.81   70.19
   5  -1  -7  862.31   72.99
  -5   1  -7  843.92   70.49
   5  -1  -7  870.71   69.39
  -6  -1  -7  119.29   15.50
   6   1  -7  163.88   21.70
  -6  -1  -7   98.99   13.60
  -6   1   7  154.08   25.30
  -6   1  -7  118.99   14.80
  -6   1  -7  106.79   16.30
  -6   1  -7  122.69   16.90
  -7  -1  -7  352.06   33.20
  -7  -1  -7  441.56   33.90
   7  -1   7  361.76   35.80
  -7   1   7  295.17   44.40
  -7   1  -7  350.36   33.60
  -7  -1   7  411.66   44.30
  -7   1  -7  384.56   33.70
   7  -1  -7  327.47   32.30
  -7   1  -7  411.36   34.60
   7  -1  -7  341.77   37.40
   8  -1   7  130.29   20.80
  -8  -1  -7  210.58   20.60
  -8  -1  -7  189.38   19.80
  -8   1   7  164.28   28.50
  -8   1  -7  171.08   20.50
   8   1   7  197.18   26.10
  -8   1  -7  200.98   22.10
  -8   1  -7  181.18   20.20
  -8  -1   7  165.08   26.30
   8  -1  -7  188.98   18.40
  -9  -1  -7  408.16   38.50
  -9   1   7  434.16   49.40
  -9  -1  -7  464.25   39.40
   9  -1   7  414.06   40.40
  -9   1  -7  448.56   40.30
  -9   1  -7  443.26   39.00
  -9   1  -7  439.56   38.70
  -9  -1   7  510.35   48.10
   9   1   7  386.76   42.70
  10  -1   7  174.38   24.00
 -10  -1  -7  201.88   21.20
 -10  -1  -7  191.98   23.40
 -10   1   7  199.88   31.30
 -10   1  -7  178.08   24.60
 -10  -1   7  158.68   27.80
 -10   1  -7  192.28   21.50
  10   1   7  207.48   25.00
 -10   1  -7  230.08   22.40
 -11   1   7    3.70   23.60
  11  -1   7    6.30   12.60
 -11  -1  -7   34.70   14.30
 -11  -1  -7   13.30    9.60
 -11   1  -7   22.80   13.40
 -11   1  -7   13.20    9.60
 -11  -1   7  -12.30   21.60
 -11   1  -7   12.70   13.70
  11   1   7   23.10   18.90
 -12   1   7    0.40   26.20
 -12  -1  -7   10.70   10.10
  12  -1   7   13.50   12.20
 -12   1  -7   28.10   15.80
 -12   1  -7   21.90   10.20
 -12  -1   7   16.40   27.60
 -12   1  -7   24.60   11.90
   0  -2  -7  135.39   16.50
   0   2   7  172.78   39.50
   0  -2  -7  144.99   16.10
  -1  -2  -7   85.09   11.40
  -1  -2  -7   72.89   10.70
  -1   2   7   98.69   30.40
   1  -2  -7   79.09   11.40
   1   2   7   76.89   33.20
   1  -2  -7   94.99   12.40
  -2   2   7 1364.56  123.49
  -2  -2  -7 1412.46  110.49
  -2  -2  -7 1262.37  110.49
   2  -2  -7 1392.56  110.39
   2   2   7 1317.57  112.59
   2   2   7 1517.75  129.89
  -2   2  -7 1368.26  112.99
  -3  -2  -7   49.80    8.90
  -3   2   7   81.49   27.40
  -3  -2  -7   56.09    9.80
  -3   2  -7   28.90   15.60
   3   2   7  111.79   44.30
   3   2   7   48.60   15.40
  -3   2  -7   28.30   12.90
   3  -2  -7   39.30    8.30
  -4   2   7   78.39   29.80
  -4  -2  -7   71.39   11.10
   4  -2   7   88.49   17.30
  -4  -2  -7   79.89   11.40
  -4   2  -7   62.99   13.10
   4   2   7   64.49   15.30
  -4   2  -7   56.99   15.60
   4  -2  -7   88.39   11.00
   4   2   7   59.49   47.00
  -5   2   7  113.59   30.60
  -5  -2  -7  126.99   14.00
   5  -2   7   96.89   17.50
  -5  -2  -7  125.59   15.20
  -5   2  -7  101.99   15.00
   5  -2  -7  132.99   14.70
   5   2   7   77.19   48.70
   5   2   7  117.19   18.60
  -5   2  -7  130.79   18.30
  -6  -2  -7  226.08   22.20
   6  -2   7  181.18   26.50
  -6  -2  -7  241.78   21.80
  -6   2   7  169.68   34.10
   6  -2  -7  231.28   20.90
   6   2   7  214.88   67.69
  -6   2  -7  200.58   23.20
  -6   2  -7  247.08   26.80
   6   2   7  185.68   26.10
   7  -2   7   38.00   21.30
  -7   2   7   33.40   26.50
  -7  -2  -7   40.20   10.60
  -7  -2  -7   30.50   11.20
  -7   2  -7   29.80   15.20
   7   2   7  125.39   65.99
   7  -2  -7   37.90    7.60
  -7   2  -7   19.60    9.70
   7   2   7   40.30   13.60
  -8  -2  -7  210.78   23.20
  -8   2   7  189.48   36.10
  -8  -2  -7  227.98   23.60
   8  -2   7  172.08   27.20
   8   2   7  235.08   26.20
  -8   2  -7  219.08   26.50
  -8   2  -7  236.38   23.60
  -9  -2  -7    3.40   17.20
   9  -2   7  -13.80   14.00
  -9  -2  -7   -0.30   14.10
  -9   2   7   21.60   28.30
  -9   2  -7   12.30    9.40
   9   2   7   20.30   12.10
  -9   2  -7    5.50   14.90
 -10   2   7   -3.10   26.00
  10  -2   7   17.80   16.50
 -10  -2  -7   11.20   12.60
 -10   2  -7   14.80   15.30
 -10   2  -7    0.90    9.60
  10   2   7   16.90   11.70
   0   3   7  367.26   42.00
   0  -3  -7  341.27   31.20
  -1  -3  -7   28.70    9.20
  -1   3   7   19.80   36.90
   1   3   7   55.79   15.20
   1  -3  -7   29.10    9.70
   1   3   7   38.70   36.80
  -2  -3  -7  177.98   19.50
  -2   3   7  207.58   40.80
   2   3   7  159.68   49.10
   2  -3  -7  181.08   19.00
  -3  -3  -7   11.70    9.40
  -3   3   7   40.40   36.90
   3   3   7   31.20   17.40
   3   3   7  -19.50   42.20
  -4  -3  -7  186.98   19.70
  -4   3   7  160.28   40.10
   4   3   7  138.39   52.99
   4   3   7  161.38   21.50
  -5   3   7  177.68   38.30
  -5  -3  -7  201.78   20.10
   5   3   7  138.59   20.70
   5   3   7   49.50   49.60
  -6   3   7   47.50   34.40
   6   3   7   27.30   11.10
   0   0  -8  768.22   64.49
   0   0  -8  796.32   64.59
   1   0  -8    0.00    7.70
   1   0  -8   -3.00    5.90
  -1   0  -8   -4.80    6.90
  -1   0  -8    0.80    7.30
  -2   0  -8   70.29   10.50
   2   0  -8   72.39   16.50
   2   0  -8   64.79   11.00
  -2   0  -8   55.79    9.60
   2   0  -8   78.29   10.30
  -3   0  -8    0.30    7.80
   3   0  -8   -7.30   11.60
  -3   0  -8   11.90    7.50
   3   0  -8    0.70    6.80
  -4   0  -8 1193.68   92.69
  -4   0  -8 1084.69   91.99
   4   0  -8 1081.39   95.29
   4   0  -8 1151.18   91.69
  -5   0  -8    9.40   10.00
  -5   0  -8    2.50   10.70
   5   0  -8   -4.40    6.30
  -5   0  -8  -12.90    7.10
  -5   0   8   -4.50   30.10
   5   0  -8    2.90   10.40
  -6   0   8  109.09   29.80
  -6   0  -8   45.90   13.20
  -6   0  -8   60.79   10.60
   6   0  -8   75.09   17.30
   6   0  -8   80.79   10.70
  -6   0  -8   76.49   12.90
  -7   0  -8    0.10   11.60
  -7   0  -8  -12.80   10.80
   7   0  -8    2.10   14.40
  -7   0  -8   14.00    8.00
   7   0  -8    7.20    7.30
   8   0   8  104.79   17.60
  -8   0  -8  103.79   18.10
  -8   0   8   89.79   29.70
   8   0  -8   92.69   13.10
  -8   0  -8  181.88   20.70
  -8   0  -8  129.79   16.00
  -9   0   8  -31.80   27.70
  -9   0  -8   10.40   13.30
  -9   0  -8    6.70   13.20
  -9   0  -8    9.20    8.60
   9   0   8    9.60   12.90
 -10   0  -8  239.58   26.40
 -10   0  -8  141.69   22.90
 -10   0   8  134.09   33.10
  10   0   8  239.38   26.50
 -10   0  -8  220.18   20.90
 -11   0  -8    3.40   15.10
 -11   0  -8  -30.40   16.10
  11   0   8   -1.60   15.40
 -11   0  -8    6.00    8.80
   0   1  -8   71.19   14.90
   0  -1  -8   66.99   10.40
   0  -1  -8   66.49    9.60
   0   1  -8   36.10   14.40
   0   1  -8   75.19   11.20
   0   1   8  104.89   47.30
   1   1  -8  379.56   31.30
  -1   1   8  389.36   55.49
  -1  -1  -8  297.07   30.10
  -1  -1  -8  368.36   30.30
   1   1  -8  329.77   36.30
  -1   1  -8  356.56   31.30
   1  -1  -8  362.06   30.00
  -1   1  -8  320.77   33.10
   1  -1  -8  286.67   36.10
   1  -1  -8  328.37   30.30
  -2   1   8 1502.05  139.69
   2   1  -8 1569.74  126.79
  -2  -1  -8 1386.86  123.09
  -2  -1  -8 1683.93  123.39
   2   1  -8 1500.05  122.99
   2  -1  -8 1454.75  126.49
  -2   1  -8 1560.84  124.19
  -2   1  -8 1567.94  123.19
   2  -1  -8 1611.24  122.99
   2  -1  -8 1388.66  123.09
  -3   1   8  137.99   39.60
  -3  -1  -8  185.88   17.90
   3   1  -8  146.89   24.50
   3   1  -8  198.08   19.30
  -3  -1  -8  123.89   16.90
   3  -1  -8  130.69   16.60
   3  -1  -8  156.08   16.80
  -3   1  -8  153.88   18.90
  -3   1  -8  185.58   21.00
   3  -1  -8  180.38   25.90
  -3   1  -8  135.89   19.30
  -4  -1  -8  115.09   15.30
   4   1  -8  128.89   24.70
  -4  -1  -8  133.29   16.10
   4   1  -8  129.59   15.40
  -4   1   8  145.29   33.70
  -4   1  -8  146.99   19.50
   4  -1  -8  127.09   15.20
   4  -1  -8  122.59   14.40
  -4   1  -8  127.69   14.70
   4  -1  -8  117.49   19.30
  -4   1  -8  106.59   16.70
   5   1  -8   34.50   15.50
  -5  -1  -8   31.70   10.00
  -5  -1  -8   13.70    7.80
  -5   1   8   27.20   27.10
   5  -1  -8   39.00    7.90
  -5   1  -8   29.40   13.20
  -5   1  -8   17.80   11.30
  -5   1  -8   32.10    9.90
   5  -1  -8   27.90    9.20
   5  -1  -8   12.80   12.90
  -6  -1  -8   24.90    8.50
  -6  -1  -8   30.30   10.70
  -6   1   8   12.10   25.80
   6  -1  -8   24.10   17.30
  -6   1  -8   45.90   13.50
   6  -1  -8   14.50    7.20
  -6   1  -8   18.80    9.60
  -6   1  -8   25.30   12.60
  -7  -1  -8  271.17   27.70
   7  -1   8  194.98   27.40
  -7  -1  -8  229.38   23.10
  -7   1   8  204.38   35.00
   7  -1  -8  253.47   22.40
  -7   1  -8  238.18   31.80
  -7   1  -8  232.38   26.20
  -7   1  -8  238.78   24.50
   8  -1   8   74.39   16.30
  -8  -1  -8   83.99   14.40
  -8  -1  -8   83.19   12.00
  -8   1   8   82.99   28.10
  -8   1  -8   87.29   14.70
   8   1   8   77.19   19.40
  -8   1  -8  136.39   17.20
   8  -1  -8   84.89   11.40
  -8   1  -8   97.79   13.20
  -9   1   8   67.39   29.90
  -9  -1  -8   51.89    9.80
   9  -1   8    7.10   13.40
  -9  -1  -8   48.00   13.80
   9   1   8   55.39   18.30
  -9   1  -8   33.70   14.00
  -9   1  -8   56.39   11.60
  -9   1  -8   48.10   15.80
 -10  -1  -8   53.59   16.40
 -10   1   8  -10.10   28.50
 -10  -1  -8   37.50    9.80
  10  -1   8   42.40   14.70
 -10   1  -8   51.59   11.70
 -10   1  -8   67.79   14.90
 -10   1  -8   79.49   16.20
   0  -2  -8  321.27   25.50
   0   2   8  203.78   47.10
   0  -2  -8  236.58   25.50
  -1  -2  -8  173.28   17.70
  -1   2   8  108.29   40.80
  -1  -2  -8  137.79   18.20
   1   2   8  235.58   54.49
   1  -2  -8  177.58   17.70
   1  -2  -8  167.58   17.40
  -2   2   8  -29.10   36.70
  -2  -2  -8    5.20    9.50
  -2  -2  -8    6.60    8.20
   2   2   8  -34.60   51.79
   2  -2  -8    7.60   11.50
   2  -2  -8   18.60    7.50
  -3   2   8  136.49   38.40
  -3  -2  -8  168.38   17.50
  -3  -2  -8  121.39   17.40
   3  -2  -8  159.38   17.10
   3   2   8  216.78   63.29
   3  -2  -8  163.48   16.80
  -4  -2  -8   18.70    8.70
   4  -2   8    3.30   17.60
  -4  -2  -8   38.40    9.30
  -4   2   8  -42.50   29.80
  -4   2  -8   44.90   20.20
   4  -2  -8   30.40    7.90
   4  -2  -8   39.30    7.70
  -5   2   8  864.51   87.39
  -5  -2  -8  795.92   69.89
  -5  -2  -8  913.11   70.59
  -5   2  -8  896.51   73.99
   5  -2  -8  811.22   69.59
  -6  -2  -8   25.60   10.70
   6  -2   8   -0.40   17.40
  -6   2   8   40.30   31.50
  -6  -2  -8   29.10   12.10
   6  -2  -8   17.60    9.80
  -6   2  -8   40.00   16.30
   6  -2  -8   21.40    7.10
  -6   2  -8    5.60   16.80
   7  -2   8   22.80   19.10
  -7  -2  -8   60.29   14.20
  -7  -2  -8   58.69   11.10
  -7   2   8  111.69   32.40
  -7   2  -8   70.49   18.80
  -7   2  -8   54.99   15.60
  -8  -2  -8  100.39   13.70
  -8   2   8   85.99   34.90
  -8   2  -8   84.19   17.10
   0   0  -9  -13.30    7.00
   0   0  -9  -13.50   14.00
   0   0  -9   12.10   14.90
   1   0  -9  290.57   28.50
   1   0  -9  265.67   32.00
  -1   0  -9  269.37   24.50
   1   0  -9  228.88   24.30
  -2   0  -9   -4.10   20.10
   2   0  -9   -3.80   14.30
  -2   0  -9    4.40    7.70
   2   0  -9    0.10    6.70
   3   0  -9  323.27   27.60
  -3   0  -9  350.76   30.50
   3   0  -9  262.07   35.30
  -3   0  -9  283.37   27.90
   4   0  -9   -4.10    7.70
  -4   0  -9  -11.00   11.90
  -4   0  -9   10.90    8.10
  -5   0  -9  607.14   55.29
  -5   0  -9  792.42   57.69
   5   0  -9  615.54   54.99
  -6   0  -9   13.20   13.80
   6   0  -9   -7.20    7.10
  -6   0  -9  -18.20    7.70
  -7   0  -9  334.97   31.50
   7   0   9  273.67   33.20
  -7   0  -9  263.97   26.60
   8   0   9   -2.00   15.10
  -8   0  -9   -4.40    8.10
  -8   0  -9   28.10   15.80
   0  -1  -9  226.08   22.40
   0  -1  -9  268.97   23.70
   0   1  -9  199.28   24.70
  -1  -1  -9   76.19   11.30
   1   1  -9   52.89   13.10
  -1  -1  -9   49.99    9.20
   1  -1  -9   85.89   12.30
  -1   1  -9   63.49   12.50
   1  -1  -9   38.40    9.20
  -2  -1  -9  283.37   28.00
  -2  -1  -9  378.46   29.70
   2  -1  -9  319.27   28.00
  -2   1  -9  261.07   30.20
   2  -1  -9  290.77   29.30
  -2   1  -9  376.86   36.70
  -3  -1  -9   91.79   12.00
  -3  -1  -9   99.59   13.80
   3  -1  -9   71.59   10.80
  -3   1  -9  128.29   19.10
   3  -1  -9   93.69   14.70
  -3   1  -9   84.09   13.80
  -4  -1  -9  136.09   17.70
  -4  -1  -9  155.28   19.80
  -4   1  -9  179.18   23.10
   4  -1  -9  201.28   17.60
  -4   1  -9  126.79   17.90
   5  -1   9  288.57   33.30
  -5  -1  -9  339.97   30.10
  -5   1   9  284.77   56.89
  -5  -1  -9  275.17   27.60
   5  -1  -9  310.97   27.40
  -5   1  -9  288.97   29.70
  -5   1  -9  321.27   33.50
  -6  -1  -9   48.50    9.80
  -6  -1  -9   63.39   14.00
   6  -1   9   27.90   14.70
  -6   1  -9   53.89   12.10
   6  -1  -9   56.09    8.70
  -6   1  -9   48.50   17.00
  -7  -1  -9  293.07   28.80
  -7  -1  -9  277.87   25.00
   7  -1   9  203.58   30.90
  -7   1  -9  287.27   32.10
   7  -1  -9  257.37   24.10
  -7   1  -9  243.18   26.90
   0  -2  -9  217.88   20.70
   0  -2  -9  179.08   19.50
  -1  -2  -9   58.69   10.10
  -1  -2  -9  113.39   12.60
   1  -2  -9   86.39   11.40
   1  -2  -9   70.99   11.90
  -2  -2  -9  726.63   63.09
  -2  -2  -9  805.62   63.89
   2  -2  -9  812.32   63.69
   2  -2  -9  736.03   62.99
  -3  -2  -9    7.60    8.80
  -3  -2  -9   22.50   10.80
   3  -2  -9   16.60    7.30
   0   0 -10  304.57   27.80
   1   0 -10   -3.10    7.30
  -1   0 -10   -9.40    7.50
   2   0 -10  781.92   66.59
  -2   0 -10  844.92   66.99

_computing_structure_solution     'SHELXT 2014/4 (Sheldrick, 2014)'
;
_shelx_hkl_checksum              48092
_shelx_shelxl_version_number     2016/6
_olex2_submission_special_instructions 'No special instructions were received'
loop_
_space_group_symop_operation_xyz
'x, y, z'
'-x+1/2, -y, z+1/2'
'x+1/2, -y, z+1/2'
'-x, y, z'
loop_
_atom_site_label
_atom_site_type_symbol
_atom_site_fract_x
_atom_site_fract_y
_atom_site_fract_z
_atom_site_U_iso_or_equiv
_atom_site_adp_type
_atom_site_occupancy
_atom_site_site_symmetry_order
_atom_site_calc_flag
_atom_site_refinement_flags_posn
_atom_site_refinement_flags_adp
_atom_site_refinement_flags_occupancy
S1 S 0.500000 0.3778(4) 0.15094(17) 0.0193(4) Uani 1 2 d S T P
S2 S 0.71491(7) 0.8882(3) 0.78586(16) 0.0193(3) Uani 1 1 d . . .
N1 N 0.5880(2) 0.4786(11) 0.2766(5) 0.0188(7) Uani 1 1 d . . .
N2 N 0.6078(2) 0.9655(11) 0.8490(5) 0.0184(7) Uani 1 1 d . . .
N3 N 0.6946(2) 0.7205(11) 0.5964(5) 0.0190(8) Uani 1 1 d . . .
C1 C 0.5507(3) 0.5968(12) 0.4240(6) 0.0173(9) Uani 1 1 d . . .
C2 C 0.6009(3) 0.7186(12) 0.5767(6) 0.0169(8) Uani 1 1 d . . .
C3 C 0.5515(3) 0.8524(12) 0.7214(6) 0.0167(9) Uani 1 1 d . . .
loop_
_atom_site_aniso_label
_atom_site_aniso_U_11
_atom_site_aniso_U_22
_atom_site_aniso_U_33
_atom_site_aniso_U_23
_atom_site_aniso_U_13
_atom_site_aniso_U_12
S1 0.0197(7) 0.0263(8) 0.0118(7) -0.0014(6) 0.000 0.000
S2 0.0168(5) 0.0281(6) 0.0129(5) -0.0018(5) -0.0009(4) -0.0008(4)
N1 0.0192(16) 0.0252(17) 0.0120(15) 0.0008(18) -0.0002(15) 0.0017(13)
N2 0.0208(18) 0.0233(18) 0.0112(15) -0.0016(16) -0.0003(14) -0.0002(15)
N3 0.0170(15) 0.0274(19) 0.0127(18) 0.0019(17) -0.0014(15) 0.0002(14)
C1 0.020(2) 0.022(2) 0.0094(18) -0.0017(16) -0.0006(17) 0.0014(14)
C2 0.0171(18) 0.0226(19) 0.0110(19) -0.0007(18) 0.0007(17) 0.0001(15)
C3 0.018(2) 0.021(2) 0.0107(19) 0.0019(16) -0.0005(15) -0.0017(15)
loop_
_atom_type_symbol
_atom_type_description
_atom_type_scat_dispersion_real
_atom_type_scat_dispersion_imag
_atom_type_scat_source
C C 0.0140 0.0070 'International Tables Vol C Tables 4.2.6.8 and 6.1.1.4'
N N 0.0250 0.0140 'International Tables Vol C Tables 4.2.6.8 and 6.1.1.4'
S S 0.2920 0.4290 'International Tables Vol C Tables 4.2.6.8 and 6.1.1.4'
loop_
_geom_angle_atom_site_label_1
_geom_angle_atom_site_label_2
_geom_angle_atom_site_label_3
_geom_angle
_geom_angle_site_symmetry_1
_geom_angle_site_symmetry_3
N1 S1 N1 100.2(3) . 4_655
N3 S2 N2 100.05(19) . .
C1 N1 S1 106.5(3) . .
C3 N2 S2 106.3(3) . .
C2 N3 S2 106.4(3) . .
N1 C1 C1 113.4(2) . 4_655
N1 C1 C2 127.3(4) . .
C1 C1 C2 119.3(2) 4_655 .
N3 C2 C1 125.5(4) . .
N3 C2 C3 113.6(4) . .
C3 C2 C1 120.9(4) . .
N2 C3 C2 113.6(4) . .
N2 C3 C3 126.6(2) . 4_655
C2 C3 C3 119.8(2) . 4_655
loop_
_geom_bond_atom_site_label_1
_geom_bond_atom_site_label_2
_geom_bond_distance
_geom_bond_site_symmetry_2
S1 N1 1.631(4) .
S1 N1 1.631(4) 4_655
S2 N2 1.626(4) .
S2 N3 1.624(4) .
N1 C1 1.337(6) .
N2 C3 1.342(6) .
N3 C2 1.342(5) .
C1 C1 1.442(8) 4_655
C1 C2 1.457(6) .
C2 C3 1.415(6) .
C3 C3 1.463(9) 4_655
loop_
_geom_torsion_atom_site_label_1
_geom_torsion_atom_site_label_2
_geom_torsion_atom_site_label_3
_geom_torsion_atom_site_label_4
_geom_torsion
_geom_torsion_site_symmetry_1
_geom_torsion_site_symmetry_4
S1 N1 C1 C1 0.0(3) . 4_655
S1 N1 C1 C2 179.9(4) . .
S2 N2 C3 C2 -1.8(5) . .
S2 N2 C3 C3 177.35(11) . 4_655
S2 N3 C2 C1 178.8(4) . .
S2 N3 C2 C3 -0.8(5) . .
N1 S1 N1 C1 0.0(4) 4_655 .
N1 C1 C2 N3 -2.4(7) . .
N1 C1 C2 C3 177.1(4) . .
N2 S2 N3 C2 -0.3(3) . .
N3 S2 N2 C3 1.2(3) . .
N3 C2 C3 N2 1.8(6) . .
N3 C2 C3 C3 -177.4(3) . 4_655
C1 C1 C2 N3 177.5(3) 4_655 .
C1 C1 C2 C3 -3.0(5) 4_655 .
C1 C2 C3 N2 -177.8(4) . .
C1 C2 C3 C3 3.0(5) . 4_655
loop_
_twin_individual_id
_twin_individual_mass_fraction_refined
1 0.92(7)
2 0.08(7)
