#------------------------------------------------------------------------------
#$Date: 2017-03-04 10:16:44 +0200 (Sat, 04 Mar 2017) $
#$Revision: 193309 $
#$URL: file:///home/coder/svn-repositories/cod/cif/4/03/23/4032329.cif $
#------------------------------------------------------------------------------
#
# This file is available in the Crystallography Open Database (COD),
# http://www.crystallography.net/
#
# All data on this site have been placed in the public domain by the
# contributors.
#
data_4032329
loop_
_publ_author_name
'Pigulski, Bart\/lomiej'
'M\;ecik, Patrycja'
'Cichos, Jakub'
'Szafert, S\/lawomir'
_publ_section_title
;
 Use of Stable Amine-Capped Polyynes in the Regioselective Synthesis of
 Push-Pull Thiophenes.
;
_journal_issue                   3
_journal_name_full               'The Journal of organic chemistry'
_journal_page_first              1487
_journal_page_last               1498
_journal_paper_doi               10.1021/acs.joc.6b02685
_journal_volume                  82
_journal_year                    2017
_chemical_formula_moiety         'C18 H14 N2 O2'
_chemical_formula_sum            'C18 H14 N2 O2'
_chemical_formula_weight         290.31
_space_group_crystal_system      triclinic
_space_group_IT_number           2
_space_group_name_Hall           '-P 1'
_space_group_name_H-M_alt        'P -1'
_symmetry_space_group_name_Hall  '-P 1'
_symmetry_space_group_name_H-M   'P -1'
_atom_sites_solution_hydrogens   geom
_audit_creation_method           SHELXL-2014/7
_cell_angle_alpha                83.71(3)
_cell_angle_beta                 79.77(3)
_cell_angle_gamma                74.56(3)
_cell_formula_units_Z            2
_cell_length_a                   5.748(2)
_cell_length_b                   9.359(3)
_cell_length_c                   14.383(5)
_cell_measurement_reflns_used    1177
_cell_measurement_temperature    80
_cell_measurement_theta_max      28.7002
_cell_measurement_theta_min      2.7563
_cell_volume                     732.4(4)
_computing_structure_refinement  'SHELXL-2014/7 (Sheldrick, 2014)'
_diffrn_ambient_temperature      80
_diffrn_detector_area_resol_mean 10.3456
_diffrn_measured_fraction_theta_full 0.971
_diffrn_measured_fraction_theta_max 0.835
_diffrn_measurement_device_type  'Xcalibur, Ruby'
_diffrn_measurement_method       '/w scans'
_diffrn_radiation_type           MoK\a
_diffrn_radiation_wavelength     0.71073
_diffrn_reflns_av_R_equivalents  0.0252
_diffrn_reflns_av_unetI/netI     0.0761
_diffrn_reflns_Laue_measured_fraction_full 0.971
_diffrn_reflns_Laue_measured_fraction_max 0.835
_diffrn_reflns_limit_h_max       6
_diffrn_reflns_limit_h_min       -7
_diffrn_reflns_limit_k_max       11
_diffrn_reflns_limit_k_min       -12
_diffrn_reflns_limit_l_max       19
_diffrn_reflns_limit_l_min       -18
_diffrn_reflns_number            4870
_diffrn_reflns_point_group_measured_fraction_full 0.971
_diffrn_reflns_point_group_measured_fraction_max 0.835
_diffrn_reflns_theta_full        26.000
_diffrn_reflns_theta_max         28.764
_diffrn_reflns_theta_min         2.762
_diffrn_source                   'Enhance (Mo) X-ray Source'
_exptl_absorpt_coefficient_mu    0.087
_exptl_absorpt_correction_type   none
_exptl_crystal_colour            yellow
_exptl_crystal_density_diffrn    1.316
_exptl_crystal_description       plate
_exptl_crystal_F_000             304
_exptl_crystal_size_max          0.500
_exptl_crystal_size_mid          0.200
_exptl_crystal_size_min          0.050
_refine_diff_density_max         0.198
_refine_diff_density_min         -0.207
_refine_diff_density_rms         0.045
_refine_ls_extinction_method     none
_refine_ls_goodness_of_fit_ref   1.020
_refine_ls_hydrogen_treatment    constr
_refine_ls_matrix_type           full
_refine_ls_number_parameters     210
_refine_ls_number_reflns         3187
_refine_ls_number_restraints     0
_refine_ls_restrained_S_all      1.020
_refine_ls_R_factor_all          0.1082
_refine_ls_R_factor_gt           0.0557
_refine_ls_shift/su_max          0.000
_refine_ls_shift/su_mean         0.000
_refine_ls_structure_factor_coef Fsqd
_refine_ls_weighting_details
'w=1/[\s^2^(Fo^2^)+(0.0320P)^2^] where P=(Fo^2^+2Fc^2^)/3'
_refine_ls_weighting_scheme      calc
_refine_ls_wR_factor_gt          0.0909
_refine_ls_wR_factor_ref         0.1090
_reflns_Friedel_coverage         0.000
_reflns_number_gt                1945
_reflns_number_total             3187
_reflns_threshold_expression     'I > 2\s(I)'
_cod_data_source_file            jo6b02685_si_001.cif
_cod_data_source_block           3ec
_cod_database_code               4032329
_shelx_shelxl_version_number     2014/7
_shelx_space_group_comment
;
The symmetry employed for this shelxl refinement is uniquely defined
by the following loop, which should always be used as a source of
symmetry information in preference to the above space-group names.
They are only intended as comments.
;
_shelx_estimated_absorpt_t_min   0.958
_shelx_estimated_absorpt_t_max   0.996
_shelx_res_file
;

    bp834.res created by SHELXL-2014/7


TITL_BP834_in_P-1
CELL 0.71073 5.748 9.359 14.383 83.71 79.77 74.56
ZERR 2 0.002 0.003 0.005 0.03 0.03 0.03
LATT 1
SFAC C H O N
UNIT 36 28 4 4
ACTA 52
L.S. 10
PLAN  20
FMAP 2
MORE -1
BOND $H
ACTA 52
SIZE 0.50 0.20 0.05
TEMP -193
CONF
WGHT    0.032016
FVAR       5.01458   0.41833
O1    3    1.109127    0.772677    0.498333    11.00000    0.02145    0.04942 =
         0.02073    0.00257   -0.00494   -0.01663
N2    4    1.133829    0.619457    0.687500    11.00000    0.02244    0.02471 =
         0.02095    0.00029    0.00210   -0.00875
O2    3    0.734449    0.781478    0.584581    11.00000    0.02326    0.04756 =
         0.02957    0.00659   -0.00350   -0.01963
N1    4   -0.542760   -0.125247    1.289376    11.00000    0.02690    0.03459 =
         0.02877    0.00327   -0.00541   -0.01002
C1    1    0.977324    0.555158    0.743158    11.00000    0.02386    0.02075 =
         0.02093   -0.00163   -0.00302   -0.00308
C2    1    0.835230    0.497737    0.795569    11.00000    0.02921    0.01815 =
         0.02739    0.00084    0.00339   -0.00305
C3    1    0.665627    0.433619    0.850060    11.00000    0.02485    0.01704 =
         0.02493   -0.00307    0.00136    0.00118
C4    1    0.515019    0.375630    0.897488    11.00000    0.02483    0.01607 =
         0.02661    0.00040   -0.00085   -0.00020
C5    1    0.349387    0.308568    0.953191    11.00000    0.01937    0.01522 =
         0.02312   -0.00236   -0.00202    0.00110
C6    1    0.210413    0.246573    1.003613    11.00000    0.01883    0.01791 =
         0.02100   -0.00316   -0.00477   -0.00079
C7    1    0.051729    0.169170    1.064425    11.00000    0.01642    0.02169 =
         0.01682   -0.00341   -0.00455   -0.00498
C8    1    0.139821    0.020050    1.094798    11.00000    0.01313    0.02066 =
         0.02169   -0.00513   -0.00240    0.00024
AFIX  43
H8    2    0.305890   -0.029639    1.075457    11.00000   -1.20000
AFIX   0
C9    1   -0.013553   -0.054886    1.152653    11.00000    0.02082    0.01598 =
         0.02062   -0.00257   -0.00686   -0.00259
AFIX  43
H9    2    0.047182   -0.155806    1.173374    11.00000   -1.20000
AFIX   0
C10   1   -0.257859    0.017498    1.180744    11.00000    0.01662    0.01998 =
         0.02015   -0.00276   -0.00713   -0.00627
C11   1   -0.347172    0.166243    1.151249    11.00000    0.01346    0.02387 =
         0.02605   -0.00196   -0.00451   -0.00193
AFIX  43
H11   2   -0.513221    0.215773    1.170784    11.00000   -1.20000
AFIX   0
C12   1   -0.192858    0.241012    1.093520    11.00000    0.02080    0.01713 =
         0.02489    0.00067   -0.00797   -0.00260
AFIX  43
H12   2   -0.253541    0.342222    1.073401    11.00000   -1.20000
AFIX   0
C13   1   -0.417322   -0.061804    1.241403    11.00000    0.01771    0.02206 =
         0.02370   -0.00065   -0.00693   -0.00366
C14   1    1.372073    0.531037    0.645541    11.00000    0.02522    0.03921 =
         0.03786    0.00480    0.00400   -0.00626
AFIX 137
H14A  2    1.402134    0.430552    0.676388    11.00000   -1.50000
H14B  2    1.499830    0.577551    0.654376    11.00000   -1.50000
H14C  2    1.373978    0.525730    0.577729    11.00000   -1.50000
AFIX   0
C15   1    1.068236    0.779977    0.666705    11.00000    0.02651    0.02563 =
         0.02537   -0.00363    0.00051   -0.01305
AFIX  23
H15A  2    1.218116    0.815986    0.658794    11.00000   -1.20000
H15B  2    0.956543    0.826723    0.721937    11.00000   -1.20000
AFIX   0
C16   1    0.947881    0.831353    0.579955    11.00000    0.02112    0.02909 =
         0.03123    0.00152    0.00135   -0.01303
AFIX  13
H16   2    0.905533    0.942341    0.572468    11.00000   -1.20000
AFIX   0
C17   1    0.954034    0.758467    0.433152    11.00000    0.02849    0.05821 =
         0.03079   -0.00057   -0.01146   -0.02289
PART 2
AFIX  23
H17C  2    0.987231    0.654286    0.416525   -21.00000   -1.20000
H17D  2    0.975386    0.822739    0.374490   -21.00000   -1.20000
AFIX  23
PART 0
PART 1
H17A  2    1.044147    0.685084    0.386405    21.00000   -1.20000
H17B  2    0.892661    0.855136    0.398878    21.00000   -1.20000
AFIX   0
PART 0
PART 2
C18B  1    0.692915    0.811164    0.490990   -21.00000    0.02893    0.05130 =
         0.03551    0.00773   -0.01347   -0.01738
AFIX  23
H18A  2    0.622481    0.918490    0.477294   -21.00000   -1.20000
H18B  2    0.581638    0.754611    0.476902   -21.00000   -1.20000
AFIX   0
PART 0
PART 1
C18A  1    0.754372    0.708614    0.491495    21.00000    0.02834    0.02535 =
         0.02172   -0.00295   -0.00536   -0.01238
AFIX  23
H18C  2    0.793767    0.598944    0.501078    21.00000   -1.20000
H18D  2    0.601770    0.744263    0.463696    21.00000   -1.20000
PART 0

AFIX   0
HKLF 4

REM _BP834_in_P-1
REM R1 =  0.0557 for    1945 Fo > 4sig(Fo)  and  0.1082 for all    3187 data
REM    210 parameters refined using      0 restraints

END

WGHT      0.0347      0.0000

REM Highest difference peak  0.198,  deepest hole -0.207,  1-sigma level  0.045
Q1    1   0.3467  0.2160  0.9602  11.00000  0.05    0.20
Q2    1   0.1015  0.0889  1.0816  11.00000  0.05    0.18
Q3    1   0.6512  0.3409  0.8614  11.00000  0.05    0.18
Q4    1   0.9965  0.4663  0.7752  11.00000  0.05    0.18
Q5    1   1.0068  0.6033  0.4618  11.00000  0.05    0.16
Q6    1   1.4442  0.5892  0.7252  11.00000  0.05    0.16
Q7    1  -0.3038  0.0001  1.2426  11.00000  0.05    0.15
Q8    1   0.2218  0.3408  0.9873  11.00000  0.05    0.15
Q9    1   0.9701  0.5525  0.8421  11.00000  0.05    0.15
Q10   1  -0.2990  0.0971  1.1820  11.00000  0.05    0.15
Q11   1   0.8542  0.5741  0.7939  11.00000  0.05    0.15
Q12   1   1.0405  0.7217  0.3591  11.00000  0.05    0.15
Q13   1   0.0635  0.0098  1.1388  11.00000  0.05    0.15
Q14   1   0.2135  0.3029  0.9377  11.00000  0.05    0.15
Q15   1   1.0608  0.8031  0.7400  11.00000  0.05    0.15
Q16   1   0.3336 -0.0021  0.9667  11.00000  0.05    0.15
Q17   1   1.1354  0.8597  0.4457  11.00000  0.05    0.15
Q18   1   0.6797  0.7202  0.6473  11.00000  0.05    0.14
Q19   1   1.0819  0.3397  0.7416  11.00000  0.05    0.14
Q20   1   1.5032  0.5733  0.5833  11.00000  0.05    0.14
;
_shelx_res_checksum              17312
_shelx_hkl_file
;
   0   0  -2 2402.16 110.490   1
   0   0   3 11659.5 299.510   1
   0   0  -3 11871.3 290.628   1
   0   0  -4 1696.11 133.844   1
   0   0   4 1939.12 148.792   1
   0   0  -5 12184.0 375.650   1
   0   0   5 11959.0 396.231   1
   0   0  -5 12049.5 409.295   3
   0   0  -6 571.586 107.083   1
   0   0  -6 799.766 146.776   3
   0   0   6 740.342 122.071   1
   0   0  -7 479.746 111.900   1
   0   0   7 392.764 106.842   1
   0   0  -7 520.911 143.341   3
   0   0   8 965.197 155.064   1
   0   0   9 1320.39 194.135   1
   0   0  10 1279.52 206.604   1
   0   0  11 1772.79 254.175   1
   0   0  12 15358.5 723.690   1
   0   0  13 737.305 193.539   1
   0   0  14 1779.90 279.422   1
   0   0  15 1090.87 250.689   1
   0   0  16 54.3495 116.210   1
   0   0  17 468.629 204.775   1
   0   0  18-86.7749 151.309   1
   0  -1  18 377.019 204.564   1
   0  -1  17 1183.84 251.447   1
   0  -1  16 591.329 191.433   1
   0  -1  15 161.846 134.516   1
   0  -1  14 78.4582 137.795   1
   0  -1  13 3316.70 349.016   1
   0  -1  12 1209.63 206.630   1
   0  -1  11 1970.83 247.040   1
   0  -1  10 2310.70 245.067   1
   0  -1   9 15232.4 589.355   1
   0   1  -8 425.402 120.505   1
   0  -1   8 440.099 110.994   1
   0   1  -7 652.643 115.649   1
   0  -1   7 576.898 113.161   1
   0   1  -6 49.2365 75.9168   3
   0  -1   6 195.603 79.7298   1
   0   1  -6 43.4821 59.8470   1
   0  -1   5 3123.29 191.337   1
   0  -1   5 3136.21 237.243   3
   0   1  -5 3062.86 219.420   3
   0   1  -5 2864.08 185.618   1
   0  -1   4 2054.52 181.148   3
   0   1  -4 1929.60 132.720   1
   0   1  -4 1957.12 165.822   3
   0  -1   4 1869.95 132.122   1
   0  -1   3 663.371 104.214   3
   0  -1   3 766.658 77.7321   1
   0   1  -3 378.638 68.7295   3
   0   1  -3 685.370 71.4356   1
   0  -1   2 246.349 47.5586   3
   0   1  -2 467.893 47.5551   1
   0  -1   2 457.781 47.5837   1
   0   1  -2 428.846 75.3625   3
   0  -1   1 22795.8 345.041   3
   0   1   2 17024.3 329.320   1
   0  -1  -2 16336.2 318.756   1
   0  -1  -3 44704.6 615.538   1
   0   1   3 43901.7 628.257   1
   0  -1  -4 2786.03 181.733   1
   0   1   4 2949.37 197.767   1
   0  -1  -5 4195.83 235.324   1
   0   1   5 3597.37 237.404   1
   0  -1  -6 4693.83 271.260   1
   0   1   6 4740.11 289.634   1
   0  -1  -7 3821.77 268.414   1
   0   1   7 3965.26 287.132   1
   0   1   8 433.748 129.641   1
   0   1   9 627.348 147.712   1
   0   1  10 527.547 153.656   1
   0   1  11 3599.10 346.607   1
   0   1  12 2037.76 291.918   1
   0   1  13 250.288 106.106   1
   0   1  14 53.6794 110.235   1
   0   1  15 1581.96 299.295   1
   0   1  16 1464.26 295.493   1
   0   1  17 43.4522 125.697   1
   0   1  18 179.098 163.237   1
   0  -2  18 2251.78 336.150   1
   0  -2  17 454.957 168.871   1
   0  -2  16 654.085 218.466   1
   0  -2  15 495.846 156.814   1
   0  -2  14 4247.51 399.215   1
   0  -2  13 930.903 197.873   1
   0  -2  12 1850.00 238.560   1
   0  -2  11 1134.72 192.075   1
   0  -2  10 1686.38 211.314   1
   0  -2   9 170.379 100.916   1
   0  -2   8 239.537 84.5590   1
   0   2  -8 287.049 91.3932   1
   0  -2   7 1360.75 209.327   3
   0  -2   7 962.281 136.423   1
   0   2  -7 913.331 124.667   1
   0   2  -6 1419.16 141.928   1
   0  -2   6 1605.23 148.288   1
   0   2  -6 1450.70 194.982   3
   0  -2   6 1452.47 189.679   3
   0  -2   5 1675.46 175.638   3
   0   2  -5 1582.84 128.170   1
   0   2  -5 1865.21 187.470   3
   0  -2   5 1773.01 139.411   1
   0   2  -4 16320.4 482.880   3
   0  -2   4 16232.1 347.292   1
   0  -2   4 16185.0 486.785   3
   0   2  -4 16275.3 333.805   1
   0  -2   3 34239.8 645.704   3
   0   2  -3 35918.1 646.521   3
   0   2  -3 34910.1 401.391   1
   0   2  -3 34820.3 658.967   2
   0  -2   3 34945.7 409.742   1
   0   2  -2 47464.0 722.746   2
   0  -2   2 47228.5 699.623   3
   0   2  -2 48870.3 694.810   3
   0   2  -1 15465.0 386.951   2
   0  -2   1 17134.3 391.343   2
   0  -2   0 17154.3 380.281   4
   0  -2  -1 33829.6 405.719   1
   0   2   1 33641.0 406.214   1
   0  -2  -1 32970.0 555.696   4
   0   2   1 33823.4 532.013   4
   0   2   2 285588. 1478.70   1
   0   2   2 286271. 1640.91   4
   0  -2  -2 289185. 1437.09   1
   0  -2  -3 115434. 1049.36   1
   0   2   3 116347. 1090.19   1
   0   2   4 64.2950 73.2661   1
   0  -2  -4 64.2935 67.7043   1
   0   2   5 3506.49 242.627   1
   0  -2  -5 3606.87 227.625   1
   0  -2  -6 3038.65 234.742   1
   0   2   6 3088.73 243.179   1
   0   2   7-36.9260 89.4309   1
   0   2   8 22.4550 88.0200   1
   0   2   9 1067.24 189.599   1
   0   2  10 4937.34 400.023   1
   0   2  11 8535.37 547.779   1
   0   2  12 3179.34 358.040   1
   0   2  13 833.725 211.562   1
   0   2  14 349.477 157.071   1
   0   2  15 339.048 179.266   1
   0   2  16 523.643 216.184   1
   0   2  17 235.394 175.923   1
   0  -3  17 1057.72 240.835   1
   0   3 -17 834.744 240.247   2
   0  -3  16 146.952 160.741   1
   0  -3  15 5017.58 434.358   1
   0  -3  14 9170.13 562.514   1
   0  -3  13 86.5990 83.2167   1
   0  -3  12 39.0078 89.4171   1
   0  -3  11 1676.92 216.720   1
   0  -3  10-41.5810 81.9630   1
   0   3  -9 1294.75 161.013   1
   0  -3   9 1361.11 171.237   1
   0  -3   9 1974.35 288.871   3
   0   3  -8 838.408 129.508   1
   0  -3   8 950.541 134.215   1
   0  -3   8 1616.45 240.903   3
   0  -3   7 673.757 165.882   3
   0   3  -7 723.094 112.481   1
   0   3  -7 678.310 169.299   2
   0  -3   7 846.727 119.233   1
   0   3  -6 481.456 141.905   2
   0   3  -6 386.478 77.5899   1
   0  -3   6 491.084 134.385   3
   0  -3   6 460.217 79.7327   1
   0  -3   5-125.516 119.835   3
   0  -3   5 63.7946 41.6305   1
   0   3  -5 12.3039 34.8112   1
   0   3  -5 39.8469 66.2594   3
   0   3  -5 90.6057 92.9347   2
   0   3  -4 15.3853 33.0237   1
   0   3  -4 17.1901 63.3433   2
   0  -3   4-0.90642 77.6390   3
   0  -3   4 50.6209 33.4554   1
   0   3  -4-10.0884 66.4561   3
   0   3  -3 1320.21 73.1220   1
   0  -3   3 1641.05 72.7947   1
   0   3  -3 1471.12 174.862   2
   0  -3   3 1560.84 165.303   3
   0  -3   2 6397.55 305.819   3
   0  -3   2 7342.29 322.203   2
   0   3  -2 6455.77 319.818   2
   0  -3   1 3518.75 220.864   2
   0  -3   0 24233.2 289.712   1
   0  -3   0 23753.2 531.885   2
   0  -3   0 24244.1 560.759   4
   0   3   0 24295.4 299.210   1
   0  -3  -1 66017.9 634.108   1
   0  -3  -1 66390.4 943.260   4
   0   3   1 68178.3 899.483   4
   0   3   1 66612.5 638.417   1
   0   3   2 15624.9 370.930   1
   0  -3  -2 15794.5 472.845   4
   0  -3  -2 15327.5 360.039   1
   0   3   2 15844.0 443.834   4
   0  -3  -3 1300.10 128.950   1
   0   3   3 1551.90 160.374   4
   0   3   3 1232.93 128.088   1
   0  -3  -4 262.964 79.2349   1
   0   3   4 203.098 76.3037   1
   0   3   5 11400.1 443.398   1
   0  -3  -5 12077.7 430.753   1
   0   3   6 1455.64 181.364   1
   0  -3  -6 1501.47 177.040   1
   0   3   7 5479.60 362.576   1
   0   3   8 347.080 113.289   1
   0   3   9 527.709 156.510   1
   0   3  10 1299.35 219.772   1
   0   3  11 418.078 164.244   1
   0   3  12 1150.78 241.275   1
   0   3  13 1548.74 287.111   1
   0   3  14 2621.81 364.877   1
   0   3  15 176.653 120.482   1
   0   3  16 216.835 179.829   1
   0   3  17 863.429 260.504   1
   0   4 -16 558.631 213.494   2
   0   4 -15 92.9577 162.948   2
   0   4 -14 1913.51 322.399   2
   0  -4  14 1467.89 236.995   1
   0  -4  13 2211.76 267.327   1
   0   4 -13 2311.98 337.860   2
   0   4 -12 6678.32 527.055   2
   0  -4  12 6736.44 422.427   1
   0   4 -11 9275.27 609.313   2
   0  -4  11 9226.56 453.221   1
   0   4 -10 48.8427 141.771   2
   0  -4  10 31.7723 65.5956   1
   0  -4   9 124.770 73.6678   1
   0  -4   9 303.209 175.019   3
   0   4  -9 51.5365 72.2243   1
   0   4  -9 309.359 168.894   2
   0   4  -8 195.280 141.414   2
   0   4  -8 163.526 59.7214   1
   0  -4   8 135.296 133.460   3
   0  -4   8-3.12445 55.2505   1
   0   4  -7 2335.58 278.326   2
   0  -4   7 2282.90 257.435   3
   0  -4   7 2471.11 168.229   1
   0   4  -7 2500.49 176.068   1
   0   4  -6 51.5856 41.8640   1
   0  -4   6 73.1929 42.1396   1
   0  -4   6-36.3513 119.387   3
   0   4  -6-0.11377 86.6824   2
   0   4  -5 721.049 74.6087   1
   0  -4   5 735.392 151.581   3
   0   4  -5 369.409 129.552   2
   0  -4   5 749.898 68.9386   1
   0  -4   4 200.161 96.9819   3
   0   4  -4 64.7343 24.5542   1
   0  -4   4 166.463 26.7259   1
   0   4  -4 250.061 105.708   2
   0  -4   3 14354.4 528.000   3
   0   4  -3 14376.2 541.213   2
   0  -4   2 20203.1 622.660   3
   0  -4   2 22610.8 626.485   2
   0  -4   1 32421.0 721.141   2
   0  -4   0 21914.2 623.459   4
   0  -4   0 23300.7 591.145   2
   0   4   0 21411.7 326.295   1
   0  -4   0 21774.4 308.032   1
   0   4   1 17002.4 352.512   1
   0  -4  -1 16681.8 336.841   1
   0  -4  -1 16638.2 551.543   4
   0  -4  -2 3658.25 266.952   4
   0   4   2 3633.52 253.540   4
   0   4   2 3386.50 191.286   1
   0  -4  -2 3428.45 182.285   1
   0   4   3 1188.82 124.488   1
   0   4   3 1136.56 147.679   4
   0  -4  -3 1265.58 130.725   1
   0   4   4 3466.96 234.828   1
   0  -4  -4 3634.67 233.622   1
   0   4   5 22018.4 632.153   1
   0  -4  -5 22320.4 615.449   1
   0   4   6 4434.80 310.282   1
   0   4   7 6280.45 391.896   1
   0   4   8 3923.97 340.892   1
   0   4   9 4024.68 358.023   1
   0   4  10 3035.61 331.548   1
   0   4  11 1230.41 242.739   1
   0   4  12 1156.93 244.351   1
   0   4  13 1646.78 306.517   1
   0   4  14 34.5442 134.319   1
   0   4  15 147.942 151.154   1
   0   4  16 12.1364 143.880   1
   0   5 -15 126.863 147.042   2
   0   5 -14 738.113 274.896   2
   0   5 -13 1250.88 261.558   2
   0  -5  12 25192.3 1073.89   3
   0   5 -12 22998.4 1030.45   2
   0  -5  12 25845.8 800.168   1
   0   5 -11 1369.28 262.654   2
   0  -5  11 1839.75 323.680   3
   0  -5  11 1338.41 190.755   1
   0  -5  10 304.008 179.397   3
   0  -5  10 118.375 78.5765   1
   0   5 -10 137.729 136.406   2
   0   5  -9 223.221 138.970   2
   0  -5   9 336.175 91.6343   1
   0  -5   9 447.019 191.983   3
   0   5  -8 3752.82 380.342   2
   0   5  -8 3760.16 205.846   1
   0  -5   8 3817.50 217.099   1
   0  -5   8 3464.76 360.074   3
   0   5  -7 464.141 74.9663   1
   0  -5   7 589.378 82.9454   1
   0  -5   7 399.980 138.801   3
   0   5  -7 607.596 174.758   2
   0  -5   6 563.192 149.831   3
   0   5  -6 695.231 173.414   2
   0  -5   6 507.231 59.9314   1
   0   5  -6 383.726 60.2646   1
   0   5  -5 1249.58 209.352   2
   0  -5   5 1444.90 228.699   3
   0   5  -4-25.0507 89.3917   2
   0  -5   4 100.650 85.0045   3
   0  -5   3 1213.03 182.200   3
   0  -5   2-19.2897 75.2815   3
   0  -5   1 153.943 87.3570   4
   0  -5   0 19947.8 311.982   1
   0   5   0 18931.0 329.721   1
   0  -5   0 21112.2 684.507   4
   0  -5  -1 954.128 170.137   4
   0   5   1 968.926 93.6762   1
   0  -5  -1 906.279 86.6376   1
   0  -5  -2 5691.93 243.678   1
   0  -5  -2 5859.16 381.914   4
   0   5   2 5479.87 255.405   1
   0   5   3 1624.41 159.464   1
   0  -5  -3 1806.36 155.682   1
   0   5   4 23187.0 619.474   1
   0  -5  -4 24140.0 602.975   1
   0   5   5 4826.08 312.514   1
   0   5   6-8.37203 69.1327   1
   0   5   7 4556.07 351.035   1
   0   5   8 1538.24 234.660   1
   0   5   9 1688.74 249.644   1
   0   5  10 3284.95 360.027   1
   0   5  11 3062.57 358.062   1
   0   5  12 297.240 159.151   1
   0   5  13 1454.02 293.815   1
   0   5  14-157.609 146.576   1
   0   5  15 10.3023 138.230   1
   0   5  16 266.741 185.288   1
   0   6 -14 90.7989 168.463   2
   0   6 -13 662.958 243.463   2
   0  -6  12 3278.95 437.983   3
   0   6 -12 3218.99 414.911   2
   0   6 -11 439.131 181.266   2
   0  -6  11 618.910 216.397   3
   0   6 -10 173.422 157.857   2
   0  -6  10 188.496 180.100   3
   0   6  -9 10234.2 660.406   2
   0  -6   9 10137.1 641.121   3
   0  -6   8 638.450 173.961   3
   0   6  -8 944.491 227.410   2
   0  -6   8 482.638 70.7508   1
   0  -6   7-289.268 193.690   3
   0   6  -7 81.7258 127.577   2
   0   6  -6 563.385 168.673   2
   0  -6   6 835.894 219.412   3
   0   6  -5 372.400 144.164   2
   0  -6   5 679.162 183.861   3
   0  -6   4 76.7387 100.763   3
   0  -6   3 193.723 114.907   3
   0  -6   2 1445.97 226.807   3
   0  -6   1 5994.89 416.301   4
   0   6   0 14.7694 25.8949   1
   0  -6   0 13.0462 26.8240   1
   0  -6  -1 18.1870 104.912   4
   0   6   1 106.127 55.1702   1
   0  -6  -1-10.1820 36.4798   1
   0  -6  -2 307.658 166.620   4
   0   6   2 288.187 83.0801   1
   0  -6  -2 387.465 77.3246   1
   0  -6  -3 2566.70 301.786   4
   0  -6  -3 1996.37 169.595   1
   0   6   3 1936.65 177.697   1
   0  -6  -4 5971.69 306.026   1
   0   6   4 5360.93 318.565   1
   0   6   5 882.347 152.421   1
   0   6   6 105.024 85.6036   1
   0   6   7 11703.9 561.294   1
   0   6   8 8471.75 502.558   1
   0   6   9 729.813 191.303   1
   0   6  10 131.177 126.164   1
   0   6  11 255.928 162.915   1
   0   6  12 447.566 178.766   1
   0   6  13 408.095 211.236   1
   0   6  14 160.582 154.847   1
   0   6  15-61.4439 155.552   1
   0   7 -13 176.319 187.829   2
   0  -7  13 871.501 357.340   3
   0  -7  12 461.555 245.898   3
   0   7 -12 464.223 222.224   2
   0  -7  11 206.917 163.601   3
   0   7 -11 74.1219 152.781   2
   0  -7  10 2021.13 324.112   3
   0   7 -10 2856.22 391.061   2
   0  -7   9 3992.78 431.012   3
   0   7  -9 3897.86 440.309   2
   0   7  -8 12.9365 134.078   2
   0  -7   8-121.000 146.936   3
   0  -7   7-168.983 142.134   3
   0   7  -7 93.6113 119.629   2
   0  -7   6 106.806 115.718   3
   0  -7   5-161.797 132.625   3
   0  -7   4 273.639 129.686   3
   0  -7   3 524.648 156.678   3
   0  -7   2 268.252 125.665   3
   0  -7   2 122.743 125.595   4
   0  -7   1 5571.72 437.084   4
   0   7   0 585.991 61.4759   1
   0  -7   0 873.510 195.550   4
   0  -7   0 797.081 66.6218   1
   0  -7  -1 423.192 172.934   4
   0   7   1 335.856 71.9449   1
   0  -7  -1 213.577 57.5554   1
   0   7   2 40.1095 51.3891   1
   0  -7  -2 46.4369 48.2956   1
   0  -7  -2 101.494 161.053   4
   0  -7  -3 380.836 87.9320   1
   0   7   3 615.802 122.173   1
   0   7   4 305.198 102.151   1
   0   7   5 139.112 84.6458   1
   0   7   6 77.1360 94.1740   1
   0   7   7 2813.10 281.960   1
   0   7   8 24.9021 85.5074   1
   0   7   9 1035.62 200.679   1
   0   7  10-171.913 134.151   1
   0   7  11 1811.88 302.621   1
   0   7  12 2564.18 357.741   1
   0   7  13 37.9129 121.342   1
   0   7  14 200.612 164.344   1
   0   7  15 173.801 193.147   1
   0  -8  12 772.129 261.507   3
   0  -8  11 3465.90 457.769   3
   0   8 -11 3431.54 474.398   2
   0  -8  10 7573.42 633.106   3
   0   8 -10 7439.18 653.245   2
   0  -8   9 1145.53 260.806   3
   0  -8   8-21.6853 149.346   3
   0  -8   7-3.00748 118.987   3
   0  -8   6-127.965 136.665   3
   0  -8   5 121.987 133.401   3
   0  -8   4 174.297 138.697   3
   0  -8   3 738.773 210.832   4
   0  -8   3 580.840 171.034   3
   0  -8   2 1549.56 252.623   3
   0  -8   2 1483.55 258.764   4
   0  -8   1-504.221 198.959   4
   0  -8   0-221.990 157.529   4
   0  -8  -1 248.364 204.318   4
   0   8   1 8.30939 37.4882   1
   0  -8  -2 1305.90 266.599   4
   0   8   2 829.110 125.711   1
   0   8   3 491.203 117.328   1
   0  -8  -3 548.968 228.414   4
   0   8   4 238.872 108.386   1
   0   8   5 1378.47 191.866   1
   0   8   6 251.275 107.296   1
   0   8   7 211.571 114.565   1
   0   8   8 1247.10 221.702   1
   0   8   9 7033.91 503.793   1
   0   8  10 13839.2 736.983   1
   0   8  11 2589.26 353.713   1
   0   8  12 11.0925 111.307   1
   0   8  13 173.304 177.856   1
   0   8  14 391.732 189.195   1
   0  -9  10-67.3474 147.109   3
   0  -9   9-103.461 157.695   3
   0  -9   8-227.413 201.946   3
   0  -9   7 355.202 162.827   3
   0  -9   6 468.104 202.444   3
   0  -9   5 546.856 200.320   3
   0  -9   5 342.327 169.230   4
   0  -9   4 649.040 212.070   4
   0  -9   4 494.396 180.894   3
   0  -9   3 944.779 222.982   4
   0  -9   3 1292.91 253.446   3
   0  -9   2 1268.85 260.114   3
   0  -9   2 1393.34 270.198   4
   0  -9   1-211.477 158.987   3
   0  -9   1-129.177 154.694   4
   0  -9   0 84.6141 147.010   4
   0  -9  -1 1870.80 320.249   4
   0  -9  -2 402.243 228.350   4
   0   9   5 74.5880 82.7656   1
   0   9   6 220.954 108.440   1
   0   9   7 146.987 114.340   1
   0   9   8 401.003 142.972   1
   0   9   9 210.012 160.117   1
   0   9  10 402.142 153.250   1
   0   9  11 615.078 191.760   1
   0   9  12 142.949 124.851   1
   0   9  13 2024.68 339.767   1
   0 -10   8 5537.20 571.658   3
   0 -10   7 5174.15 562.140   4
   0 -10   7 5546.12 556.223   3
   0 -10   6 389.359 202.472   3
   0 -10   6 284.623 199.214   4
   0 -10   5 89.7760 139.444   3
   0 -10   5 57.7636 172.070   4
   0 -10   4-277.858 200.220   4
   0 -10   4 275.265 197.305   3
   0 -10   3-184.735 233.515   4
   0 -10   3-127.803 159.054   3
   0 -10   2 368.395 165.637   3
   0 -10   2 594.679 209.434   4
   0 -10   1 62.9630 124.283   3
   0 -10   1 221.457 167.675   4
   0 -10   0 427.053 171.428   3
   0 -10   0 801.906 251.769   4
   0 -10  -1 548.476 254.465   4
   0 -10  -2 1087.62 300.781   4
   0 -11   5 2208.44 367.834   3
   0 -11   4 1151.77 300.815   3
   0 -11   3 256.854 210.338   4
   0 -11   3 90.9768 161.236   3
   0 -11   2 9.64139 160.741   3
   0 -11   2 195.325 241.199   4
   0 -11   1 180.934 157.957   3
   0 -11   1 524.652 287.495   4
   0 -11   0 397.623 197.641   3
   0 -11   0 276.872 236.100   4
   0 -11  -1 363.460 263.008   4
   0 -12  -1 84.8782 157.367   3
   1 -11   0-226.068 214.377   3
   1 -11   0 773.327 326.896   4
   1 -11   1 455.641 219.153   3
   1 -10   0 863.612 292.161   4
   1 -10   1 358.348 236.354   4
   1 -10   1-185.234 161.159   3
   1 -10   2 457.482 225.815   4
   1 -10   2 147.582 181.239   3
   1 -10   3 128.789 178.303   4
   1 -10   3 13.0585 160.265   3
   1 -10   4 98.1110 184.008   3
   1 -10   4-161.376 185.327   4
   1 -10   5 667.453 214.998   4
   1 -10   5 417.722 206.551   3
   1 -10   6-191.523 189.100   4
   1 -10   6 149.798 192.683   3
   1 -10   7 597.615 232.607   4
  -1   9  12-74.8329 114.005   1
  -1   9  11-3.05182 118.450   1
  -1   9  10 633.759 198.403   1
  -1   9   9 5986.30 475.330   1
   1  -9  -1 758.658 264.338   4
   1  -9   0 1430.42 325.594   4
   1  -9   1 394.166 215.216   4
   1  -9   2 323.483 190.992   4
   1  -9   2 42.4108 113.160   3
   1  -9   3-110.846 157.904   3
   1  -9   3-41.9286 157.722   4
   1  -9   4 1029.20 253.215   3
   1  -9   4 1223.35 256.924   4
   1  -9   5 22.7829 118.039   3
   1  -9   5-313.000 198.167   4
   1  -9   6-63.3486 185.663   4
   1  -9   6 62.7063 153.477   3
   1  -9   7 357.143 199.778   3
   1  -9   7-147.792 187.727   4
   1  -9   8 913.716 293.959   3
   1  -9   9-296.921 240.433   3
  -1   8  13 41.7666 131.977   1
  -1   8  12 173.469 144.670   1
  -1   8  11 165.013 173.752   1
  -1   8  10 647.457 206.209   1
  -1   8   9 4285.10 408.929   1
  -1   8   8-149.182 136.551   1
  -1   8   7 2314.14 275.556   1
  -1   8   6 609.359 149.522   1
  -1   8   5 461.370 129.864   1
  -1   8   4 172.416 86.8787   1
  -1   8   3 569.686 112.792   1
   1  -8  -1 233.621 233.490   4
   1  -8   0 238.981 169.798   4
   1  -8   1 8.03672 146.711   4
   1  -8   2 190.253 138.422   3
   1  -8   2 320.220 168.562   4
   1  -8   3 1984.68 309.998   3
   1  -8   3 1648.45 272.977   4
   1  -8   4 120.940 138.967   4
   1  -8   4 348.765 165.537   3
   1  -8   5 365.976 146.546   3
   1  -8   5 207.271 148.492   4
   1  -8   6-60.0650 131.433   4
   1  -8   6 88.0377 129.961   3
   1  -8   7 5107.51 537.134   3
   1  -8   8 211.240 202.823   3
   1  -8   9 133.136 146.975   3
   1  -8  10-179.080 185.377   3
   1  -8  11 697.732 273.735   3
  -1   7  14-167.577 185.774   1
  -1   7  13 46.9710 162.487   1
  -1   7  12-62.5698 135.406   1
  -1   7  11 180.537 161.335   1
  -1   7  10 260.907 157.818   1
  -1   7   9 593.233 170.223   1
  -1   7   8 309.361 140.997   1
  -1   7   7 2402.85 273.322   1
  -1   7   6 27126.6 843.343   1
  -1   7   5 16285.8 612.728   1
  -1   7   4 3607.29 282.486   1
  -1   7   3 40.7291 71.1831   1
   1  -7  -2 603.972 101.774   1
  -1   7   2 522.774 95.0682   1
   1  -7  -1 1098.00 257.390   4
   1  -7  -1 848.234 104.467   1
  -1   7   1 874.970 109.655   1
  -1   7   0 48.6273 37.7093   1
   1  -7   0 69.9109 36.9542   1
   1  -7   0 163.796 159.478   4
   1  -7   1 89.0219 128.293   4
   1  -7   2-5.35149 150.162   4
   1  -7   3 395.513 144.731   4
   1  -7   3 718.328 187.908   3
   1  -7   4 1421.49 237.902   4
   1  -7   4 1553.41 262.556   3
   1  -7   5 410.308 156.730   3
   1  -7   6 2914.75 364.051   3
   1  -7   7 1875.67 325.419   3
   1  -7   8 1101.03 281.454   3
   1  -7   9-282.824 205.933   3
   1  -7  10 85.9597 156.700   3
   1  -7  11-60.3338 182.014   3
   1  -7  12 552.919 245.920   3
  -1   6  14 582.915 216.579   1
  -1   6  13 173.115 122.350   1
  -1   6  12 25.9512 114.110   1
  -1   6  11 17.1791 112.436   1
  -1   6  10 436.822 183.962   1
  -1   6   9 97.5764 97.6643   1
  -1   6   8 335.456 148.431   1
  -1   6   7 321.905 132.555   1
  -1   6   6 7917.64 456.168   1
  -1   6   5 9041.52 472.972   1
  -1   6   4 1325.09 178.143   1
  -1   6   3 1134.30 147.309   1
   1  -6  -3 1194.79 147.244   1
   1  -6  -2-26.3403 51.7072   1
  -1   6   2 27.9570 58.1162   1
  -1   6   1 29.6001 46.0479   1
   1  -6  -1-6.95727 48.0557   1
   1  -6   0 18.4033 36.7702   1
   1  -6   0 17.5174 119.118   4
  -1   6   0-15.6269 34.9374   1
  -1   6  -1 49.6237 21.6066   1
   1  -6   1 116.007 112.085   4
  -1   6  -1 36.8937 21.8458   1
   1  -6   2 583.369 140.738   4
   1  -6   3 268.490 124.297   3
   1  -6   3 566.968 141.991   4
   1  -6   4 526.032 156.203   3
   1  -6   5 68.9022 104.011   3
   1  -6   6 4090.68 418.720   3
   1  -6   7 922.416 240.787   3
   1  -6   8 178.901 129.387   3
   1  -6   9 988.804 239.776   3
  -1   6 -10 277.568 147.929   2
   1  -6  10 149.917 149.779   3
  -1   6 -11-55.8013 131.756   2
   1  -6  11-262.384 174.011   3
  -1   6 -12 152.086 180.238   2
   1  -6  12 79.9203 161.159   3
  -1   6 -13 1237.27 276.655   2
   1  -6  13 1277.56 314.729   3
   1  -6  14 857.285 313.085   3
  -1   6 -14 768.794 241.627   2
  -1   5  15 871.982 248.583   1
  -1   5  14-27.2404 131.047   1
  -1   5  13 367.299 184.868   1
  -1   5  12 381.804 195.051   1
  -1   5  11 617.659 192.483   1
  -1   5  10 95.8099 141.023   1
  -1   5   9 97.0805 120.211   1
  -1   5   8 853.917 200.087   1
  -1   5   7 1176.19 214.895   1
  -1   5   6 593.727 153.699   1
  -1   5   5 397.408 112.890   1
  -1   5   4 6015.36 349.510   1
  -1   5   3 53897.2 942.392   1
   1  -5  -3 53302.3 895.361   1
   1  -5  -2 612.217 103.752   1
  -1   5   2 674.117 113.349   1
   1  -5  -1 2260.59 267.164   4
   1  -5  -1 1859.53 150.164   1
  -1   5   1 1928.30 147.017   1
   1  -5   0 7969.33 436.421   4
   1  -5   0 7430.07 252.206   1
  -1   5   0 7198.29 239.332   1
   1  -5   1 228.196 94.3312   4
  -1   5  -1 217.686 44.4999   1
  -1   5  -1 241.974 43.2186   1
   1  -5   2 1061.25 168.366   4
   1  -5   3 1288.45 223.391   3
   1  -5   4 1076.45 199.103   3
   1  -5   5 2699.92 307.272   3
   1  -5   6 460.534 176.902   3
   1  -5   7 3223.48 363.801   3
  -1   5  -7 2720.99 317.415   2
  -1   5  -8 2672.93 303.558   2
   1  -5   8 2695.61 325.271   3
   1  -5   8 2324.11 157.241   1
   1  -5   9 1257.05 140.317   1
  -1   5  -9 1447.05 243.983   2
   1  -5   9 1396.57 257.533   3
   1  -5  10-9.49906 123.308   3
   1  -5  10 14.4058 61.1758   1
  -1   5 -10-184.136 130.570   2
   1  -5  11 216.462 183.459   3
  -1   5 -11-11.3863 115.650   2
  -1   5 -12 779.815 218.522   2
   1  -5  12 699.508 241.687   3
   1  -5  13 3694.05 466.729   3
  -1   5 -13 2585.38 371.623   2
   1  -5  14 563.050 276.643   3
  -1   5 -14 265.447 162.940   2
  -1   5 -15 956.059 259.887   2
  -1   5 -16 3686.23 474.970   2
  -1   4  16-66.2617 141.858   1
  -1   4  15 655.941 213.328   1
  -1   4  14 410.817 199.011   1
  -1   4  13 73.8243 134.370   1
  -1   4  12 535.169 194.347   1
  -1   4  11 216.882 150.570   1
  -1   4  10 501.151 183.463   1
  -1   4   9 165.689 119.055   1
  -1   4   8 8479.21 521.637   1
  -1   4   7 102.815 91.6177   1
  -1   4   6 244.608 122.306   1
  -1   4   5 9080.93 442.847   1
  -1   4   4 200.070 89.7082   1
   1  -4  -4 265.411 95.0960   1
   1  -4  -3 3770.55 240.107   1
  -1   4   3 3817.73 250.919   1
   1  -4  -2 352.458 78.8246   1
  -1   4   2 316.396 84.3733   1
   1  -4  -1 12486.6 355.923   1
  -1   4   1 12236.6 352.400   1
  -1   4   1 12429.4 463.878   4
   1  -4  -1 12660.9 494.741   4
   1  -4   0 31445.4 768.319   4
  -1   4   0 30465.6 482.288   1
   1  -4   0 30267.7 506.374   1
  -1   4  -1 401.061 52.1699   1
   1  -4   1 364.472 104.076   4
  -1   4  -1 377.131 54.1829   1
   1  -4   2-75.0341 77.4691   4
  -1   4  -2 32.8578 21.9752   1
  -1   4  -2 9.42955 18.9410   1
   1  -4   3 3746.01 311.377   3
   1  -4   4 33.4744 80.9096   3
  -1   4  -4-12.7203 16.9503   1
  -1   4  -4 20.4280 16.3463   1
  -1   4  -5 9483.57 214.390   1
   1  -4   5 8312.26 222.427   1
   1  -4   5 10030.1 527.663   3
  -1   4  -6 5195.17 193.007   1
   1  -4   6 5116.85 199.730   1
  -1   4  -6 4913.84 374.628   2
   1  -4   6 5659.18 409.807   3
   1  -4   7 434.140 173.526   3
  -1   4  -7 284.425 59.6054   1
   1  -4   7 285.962 67.0068   1
  -1   4  -7 307.289 134.318   2
   1  -4   8-142.825 169.073   3
   1  -4   8 63.6022 58.0044   1
  -1   4  -8 70.8885 52.0537   1
  -1   4  -8 142.716 119.377   2
  -1   4  -9 1062.95 217.232   2
  -1   4  -9 1004.69 125.838   1
   1  -4   9 1013.56 208.481   3
   1  -4   9 1010.05 141.064   1
   1  -4  10 702.196 131.534   1
  -1   4 -10 730.042 192.794   2
   1  -4  10 738.883 212.475   3
  -1   4 -11 589.001 193.707   2
   1  -4  11 365.580 113.094   1
   1  -4  11 912.820 239.231   3
  -1   4 -12 2095.46 307.389   2
   1  -4  12 2427.11 370.424   3
   1  -4  12 2100.64 238.015   1
   1  -4  13 104.220 100.259   1
  -1   4 -13 140.228 131.483   2
  -1   4 -14 916.634 232.440   2
  -1   4 -15 3581.66 438.950   2
  -1   4 -16 4356.81 496.062   2
  -1   4 -17 3639.65 447.261   2
  -1   3  16 113.933 161.163   1
  -1   3  15 109.112 144.675   1
  -1   3  14-175.304 155.643   1
  -1   3  13 509.229 199.306   1
  -1   3  12 74.7557 122.081   1
  -1   3  11 312.687 151.997   1
  -1   3  10 64.9890 103.669   1
  -1   3   9 3574.44 352.980   1
  -1   3   8 53.6532 111.597   1
  -1   3   7 536.565 141.467   1
  -1   3   6 1772.32 215.277   1
  -1   3   5 58726.2 1085.92   1
   1  -3  -5 59797.8 1031.20   1
   1  -3  -4 23.7624 65.8865   1
  -1   3   4 39.7038 66.9579   1
  -1   3   3 936.298 124.299   1
  -1   3   3 1156.97 163.555   4
   1  -3  -3 856.391 124.077   1
  -1   3   2 5649.76 294.929   4
  -1   3   2 5172.10 254.491   1
   1  -3  -2 5561.58 250.691   1
  -1   3   1 25416.2 498.893   1
  -1   3   1 25809.3 584.065   4
   1  -3  -1 25211.2 490.812   1
   1  -3   0 20498.7 542.051   4
  -1   3   0 20757.4 397.226   1
   1  -3   0 20804.9 408.310   1
  -1   3  -1 16040.8 306.820   1
   1  -3   1 15698.9 465.212   4
  -1   3  -1 16319.4 305.676   1
   1  -3   2 8066.73 357.329   2
  -1   3  -2 7577.00 206.232   1
  -1   3  -2 7663.52 187.665   1
  -1   3  -3 13743.1 249.153   1
   1  -3   3 14159.2 491.770   2
   1  -3   3 12779.8 516.070   3
  -1   3  -4 7875.08 209.305   1
   1  -3   4 6817.38 391.897   3
   1  -3   4 7538.51 371.933   2
   1  -3   4 7261.76 217.204   1
  -1   3  -5 967.103 162.212   2
   1  -3   5 1044.69 180.658   3
   1  -3   5 837.627 85.4440   1
  -1   3  -5 1010.76 92.6583   1
  -1   3  -6 347.709 116.346   2
   1  -3   6 483.656 134.254   3
  -1   3  -6 417.547 72.2132   1
   1  -3   6 360.050 67.9195   1
  -1   3  -7 1041.29 175.434   2
   1  -3   7 838.751 112.386   1
  -1   3  -7 888.533 115.804   1
   1  -3   7 814.974 156.970   3
   1  -3   8 9064.12 543.902   3
  -1   3  -8 9827.73 370.075   1
  -1   3  -8 9839.69 517.064   2
   1  -3   8 10538.9 396.814   1
  -1   3  -9 3603.28 248.111   1
   1  -3   9 3672.43 361.866   3
  -1   3  -9 3931.59 350.870   2
   1  -3   9 3816.14 267.748   1
   1  -3  10 267.388 99.8502   1
   1  -3  10 324.591 188.572   3
  -1   3 -10 259.818 131.314   2
  -1   3 -11 2005.40 276.602   2
   1  -3  11 1964.73 225.660   1
   1  -3  11 2371.63 364.134   3
   1  -3  12 246.512 118.861   1
  -1   3 -12 131.456 126.254   2
   1  -3  13 562.932 148.136   1
  -1   3 -13 933.306 228.151   2
  -1   3 -14 445.321 185.281   2
   1  -3  14 363.952 144.265   1
   1  -3  15 4454.74 415.432   1
  -1   3 -15 4944.97 481.618   2
   1  -3  16 4017.09 405.137   1
  -1   3 -16 3440.14 442.322   2
  -1   3 -17 366.463 176.905   2
  -1   3 -18-70.1451 131.582   2
  -1   2  16 170.912 146.568   1
  -1   2  15 30.1247 120.003   1
  -1   2  14 299.165 158.472   1
  -1   2  13 2063.92 322.295   1
  -1   2  12 1110.86 236.410   1
  -1   2  11 259.623 147.572   1
  -1   2  10-14.3171 126.041   1
  -1   2   9 1163.25 203.306   1
  -1   2   8 2624.11 282.970   1
  -1   2   7 4020.15 320.693   1
  -1   2   6 12813.9 523.919   1
   1  -2  -5 3160.18 235.884   1
  -1   2   5 3174.80 248.004   1
  -1   2   4 312.409 93.5832   1
   1  -2  -4 290.925 86.3713   1
  -1   2   3 288.675 82.9734   1
   1  -2  -3 182.722 71.2693   1
  -1   2   2 32604.2 593.261   1
   1  -2  -2 32044.6 577.630   1
   1  -2  -1 16435.1 379.621   1
  -1   2   1 15873.8 375.748   1
  -1   2   1 15634.7 404.836   4
  -1   2   0 1947.61 127.633   1
   1  -2   0 1854.43 147.160   4
  -1   2   0 1690.96 134.248   4
   1  -2   0 1727.12 123.511   1
  -1   2  -1 2424.03 123.035   1
   1  -2   1 2481.20 157.322   4
  -1   2  -1 2368.06 130.491   1
   1  -2   2 117060. 852.775   1
   1  -2   2 117722. 1188.61   2
  -1   2  -2 118184. 776.169   1
   1  -2   3 6852.24 302.670   2
   1  -2   3 6703.61 208.954   1
   1  -2   3 6391.65 322.121   3
  -1   2  -3 6775.73 198.240   1
  -1   2  -4 6623.64 328.439   3
   1  -2   4 5747.34 327.203   3
  -1   2  -4 6333.99 211.874   1
   1  -2   4 6135.47 221.804   1
   1  -2   4 6564.11 306.091   2
  -1   2  -4 6407.14 314.726   2
   1  -2   5 9059.82 297.694   1
  -1   2  -5 9801.13 422.200   3
  -1   2  -5 9238.31 290.038   1
   1  -2   5 9343.31 423.129   3
  -1   2  -5 9172.61 390.019   2
   1  -2   6 126.456 96.1973   3
   1  -2   6 224.635 67.2773   1
  -1   2  -6 377.568 110.125   2
  -1   2  -6 265.177 73.8451   1
   1  -2   7 1498.57 151.076   1
   1  -2   7 1417.37 200.762   3
  -1   2  -7 1459.12 184.062   2
  -1   2  -7 1378.50 148.249   1
   1  -2   8 1416.81 168.955   1
   1  -2   8 1426.54 217.878   3
  -1   2  -8 1132.14 176.057   2
  -1   2  -8 1130.95 143.475   1
  -1   2  -9 1549.38 227.600   2
   1  -2   9 1746.49 193.127   1
   1  -2   9 2232.96 278.896   3
  -1   2 -10 483.529 161.051   2
   1  -2  10 177.097 93.2526   1
   1  -2  10 374.770 192.801   3
   1  -2  11 286.061 127.206   1
  -1   2 -11 157.475 127.444   2
  -1   2 -12 153.092 133.261   2
   1  -2  12 65.3082 85.2703   1
  -1   2 -13 228.544 122.540   2
   1  -2  13 181.926 99.2541   1
  -1   2 -14 3306.12 367.450   2
   1  -2  14 3421.36 355.003   1
  -1   2 -15 562.239 197.791   2
   1  -2  15 166.547 121.943   1
  -1   2 -16 2767.76 362.684   2
   1  -2  16 3111.07 381.232   1
  -1   2 -17 643.522 227.233   2
   1  -2  17 702.157 213.596   1
  -1   2 -18 2927.86 387.848   2
   1  -2  18 3200.61 393.943   1
  -1   1  17 1483.38 327.202   1
  -1   1  16 423.631 200.579   1
  -1   1  15 384.068 164.087   1
  -1   1  14 2546.39 358.268   1
  -1   1  13 1959.63 315.536   1
  -1   1  12 1537.07 262.552   1
  -1   1  11-9.09378 127.284   1
  -1   1  10 171.160 117.079   1
  -1   1   9 185.799 110.840   1
  -1   1   8 99.7950 100.008   1
  -1   1   7 49.8148 73.6031   1
  -1   1   6 3811.61 286.750   1
   1  -1  -6 4008.39 277.493   1
  -1   1   5 11693.1 454.147   1
   1  -1  -5 12018.1 439.944   1
   1  -1  -4 15312.3 457.884   1
  -1   1   4 14611.9 464.347   1
  -1   1   3 11945.4 387.975   1
   1  -1  -3 12597.4 383.658   1
   1  -1  -2 33652.1 568.399   1
  -1   1   2 32834.5 585.898   1
   1  -1  -1 24901.3 457.890   1
  -1   1   1 25095.2 457.147   1
   1  -1   0 8189.82 246.715   1
  -1   1   0 8459.03 250.899   1
  -1   1   0 8546.75 219.977   4
  -1   1  -1 48554.2 576.693   1
   1  -1   1 48857.3 492.226   4
  -1   1  -1 49808.2 538.767   1
   1  -1   2 216863. 1477.56   3
   1  -1   2 219191. 1332.04   2
   1  -1   2 215898. 1178.80   1
  -1   1  -2 217169. 1130.67   1
  -1   1  -3 6887.25 260.813   2
   1  -1   3 6608.33 286.787   3
  -1   1  -3 6938.79 283.668   3
  -1   1  -3 7120.74 221.481   1
   1  -1   3 6842.73 229.471   1
   1  -1   3 6717.75 256.083   2
  -1   1  -4 6118.53 262.074   2
   1  -1   4 6218.32 240.630   1
  -1   1  -4 6063.45 282.304   3
   1  -1   4 5977.79 294.078   3
  -1   1  -4 6044.69 225.988   1
  -1   1  -5 26878.8 578.735   2
   1  -1   5 27568.5 669.526   3
  -1   1  -5 26931.5 527.101   1
   1  -1   5 27527.9 550.018   1
  -1   1  -5 25909.9 639.182   3
   1  -1   6 1918.05 163.969   1
  -1   1  -6 1795.09 174.999   2
  -1   1  -6 1872.06 161.394   1
   1  -1   6 1777.98 191.103   3
  -1   1  -6 2002.18 201.704   3
   1  -1   7 2699.85 255.423   3
   1  -1   7 2606.88 210.143   1
  -1   1  -7 2547.29 207.673   1
  -1   1  -8 259.892 92.7800   1
   1  -1   8 468.317 142.082   3
   1  -1   8 285.736 94.2614   1
   1  -1   9-41.4691 65.6974   1
   1  -1  10 397.470 124.209   1
   1  -1  11 66.4689 91.9867   1
   1  -1  12 99.5681 104.078   1
   1  -1  13 219.998 128.806   1
   1  -1  14 136.307 127.650   1
   1  -1  15 15.0277 103.293   1
   1  -1  16 216.543 142.860   1
   1  -1  17 1064.40 263.650   1
   1  -1  18 158.452 142.227   1
   1  -1  19 914.783 243.707   1
  -1   0  17 1463.23 322.946   1
  -1   0  16 3080.51 411.382   1
  -1   0  15 3395.69 423.654   1
  -1   0  14-55.7850 123.118   1
  -1   0  13 975.908 238.265   1
  -1   0  12 5338.12 462.962   1
  -1   0  11 17.2379 116.708   1
  -1   0  10 1639.36 243.757   1
  -1   0   9 1371.15 216.442   1
  -1   0   8 59.3819 80.6581   1
  -1   0   7 9717.35 461.783   1
  -1   0   6 100.948 69.3815   1
   1   0  -6 225.039 93.6643   1
  -1   0   5 4251.28 269.648   1
   1   0  -5 4178.57 252.359   1
  -1   0   4 5565.90 279.557   1
   1   0  -4 6432.90 284.478   1
   1   0  -3-33.6656 65.7718   1
  -1   0   3 63.3897 62.3125   1
   1   0  -2 8723.49 286.580   1
  -1   0   2 8641.12 290.588   1
  -1   0   1 29837.3 500.545   1
   1   0  -1 30359.8 486.021   1
  -1   0   0 34359.1 500.197   1
   1   0   0 35175.6 497.752   1
   1   0   1 560.637 70.4327   1
  -1   0  -1 624.213 73.7296   1
   1   0   2 9965.36 202.371   2
   1   0   2 9575.57 266.843   1
  -1   0  -2 10075.1 266.134   1
   1   0   2 10043.0 253.394   3
  -1   0  -2 10045.8 250.329   3
   1   0   3 3686.17 182.820   3
  -1   0  -3 4090.86 188.003   1
   1   0   3 3951.11 191.173   1
  -1   0  -3 3846.00 188.830   3
  -1   0  -3 4063.90 152.656   2
  -1   0  -4 14778.1 322.020   2
  -1   0  -4 15126.3 399.327   3
   1   0   4 14820.3 388.600   1
  -1   0  -4 13898.1 368.728   1
   1   0   4 14225.7 399.796   3
  -1   0  -5 3848.34 214.758   1
  -1   0  -5 4082.62 232.379   3
   1   0   5 3903.59 221.287   1
   1   0   5 3751.99 240.784   3
  -1   0  -6 202.300 78.5389   1
   1   0   6 372.095 120.839   3
   1   0   6 129.278 74.3112   1
  -1   0  -6-33.3849 74.2602   3
  -1   0  -7 6654.70 367.752   3
  -1   0  -7 7358.53 353.532   1
   1   0   7 6890.30 351.318   1
   1   0   8 10471.6 459.845   1
   1   0   9 3444.03 287.518   1
   1   0  10 40.4007 82.6848   1
   1   0  11 1421.37 221.570   1
   1   0  12 3561.85 346.276   1
   1   0  13 39.3013 91.3477   1
   1   0  14 1014.14 219.222   1
   1   0  15 257.636 146.694   1
   1   0  16 162.803 121.657   1
   1   0  17 1676.94 316.869   1
   1   0  18-66.3383 131.059   1
  -1  -1  17 2246.76 379.008   1
  -1  -1  16 4315.59 484.914   1
  -1  -1  15 1370.27 274.942   1
  -1  -1  14 51.0029 122.655   1
  -1  -1  13 843.908 207.072   1
  -1  -1  12-20.4961 109.911   1
  -1  -1  11 741.229 173.714   1
  -1  -1  10-87.2240 100.937   1
  -1  -1   9 3385.29 305.836   1
  -1  -1   8 2419.94 250.768   1
  -1  -1   7 7882.31 402.636   1
   1   1  -6 4485.87 278.714   1
   1   1  -6 4514.35 303.031   3
  -1  -1   6 4241.37 274.084   1
   1   1  -5 1791.10 168.131   1
  -1  -1   5 1952.18 177.995   1
   1   1  -4 5030.97 252.387   1
  -1  -1   4 4673.97 252.015   1
  -1  -1   3 509.636 89.9160   1
   1   1  -3 594.052 91.2500   1
   1   1  -2 17401.7 392.564   1
  -1  -1   2 17087.3 394.754   1
   1   1  -1 41631.6 565.399   1
  -1  -1   1 40790.5 572.295   1
   1   1   0 749.245 83.9359   1
  -1  -1   0 902.871 87.2137   1
   1   1   1 343.672 68.5289   1
  -1  -1  -1 343.695 65.2602   1
   1   1   2 24020.9 446.470   1
   1   1   2 24525.9 308.581   4
  -1  -1  -2 24626.9 443.088   1
  -1  -1  -2 24675.5 305.478   3
   1   1   3 49947.0 708.696   1
  -1  -1  -3 50349.0 674.149   1
  -1  -1  -3 49816.9 566.850   3
  -1  -1  -4 473793. 2049.76   3
  -1  -1  -4 482904. 2251.19   1
   1   1   4 469459. 2337.90   1
  -1  -1  -5 87840.7 1001.42   3
   1   1   5 87004.3 1102.14   1
  -1  -1  -5 87081.1 1046.85   1
   1   1   6 24381.7 634.147   1
  -1  -1  -6 25290.4 607.143   1
  -1  -1  -6 25200.2 597.238   3
   1   1   7 1668.79 184.970   1
  -1  -1  -7 1608.62 187.038   1
  -1  -1  -7 1758.57 190.261   3
   1   1   8 1649.11 197.358   1
   1   1   9 4956.68 354.836   1
   1   1  10 1124.07 205.039   1
   1   1  11 8.76415 92.9988   1
   1   1  12 383.255 137.442   1
   1   1  13 104.631 119.864   1
   1   1  14 484.533 184.567   1
   1   1  15 619.803 232.090   1
   1   1  16 642.512 226.892   1
   1   1  17 1034.18 269.903   1
   1   1  18-17.4968 141.495   1
  -1  -2  18-10.1933 150.397   1
  -1  -2  17 1049.94 259.105   1
  -1  -2  16 205.302 128.578   1
  -1  -2  15 1507.45 278.018   1
  -1  -2  14 1170.29 230.965   1
  -1  -2  13 573.645 180.343   1
  -1  -2  12 2899.86 333.510   1
  -1  -2  11 1763.99 250.576   1
  -1  -2  10 1251.03 203.668   1
  -1  -2   9 5396.02 368.978   1
  -1  -2   8 2557.02 243.144   1
   1   2  -7 158.631 80.3277   1
  -1  -2   7 105.842 63.4957   1
  -1  -2   6 97.9310 61.8952   1
   1   2  -6 57.1352 76.1005   3
   1   2  -6 169.345 77.4067   1
   1   2  -5 12305.4 404.263   1
   1   2  -5 12348.7 442.648   3
  -1  -2   5 11567.1 406.084   1
   1   2  -4 19795.2 478.067   1
  -1  -2   4 19368.0 481.934   1
   1   2  -4 20094.9 514.309   3
  -1  -2   3 4208.50 211.224   1
  -1  -2   3 4071.10 219.995   3
   1   2  -3 4277.91 209.335   1
   1   2  -3 4167.17 215.418   3
   1   2  -2 2886.07 162.648   3
   1   2  -2 2636.54 166.502   1
  -1  -2   2 2859.22 158.252   3
  -1  -2   2 2891.43 168.733   1
  -1  -2   1 47955.9 595.773   1
  -1  -2   1 47039.5 624.913   1
   1   2  -1 47157.6 504.910   3
  -1  -2   1 46988.6 510.864   3
  -1  -2   0 35784.2 350.462   3
   1   2   0 34058.7 520.033   1
  -1  -2   0 35448.3 503.938   1
  -1  -2  -1 35420.0 520.717   1
   1   2   1 35065.3 415.489   2
   1   2   1 34589.6 525.799   1
  -1  -2  -1 35077.6 508.655   4
  -1  -2  -2 12641.5 215.562   2
  -1  -2  -2 12118.8 330.411   1
   1   2   2 12614.5 347.328   1
  -1  -2  -2 12309.6 320.516   4
   1   2   2 12053.6 305.692   4
   1   2   3 14073.5 398.852   1
   1   2   3 14000.7 350.664   4
  -1  -2  -3 13676.2 377.043   1
   1   2   4 7896.81 323.928   1
  -1  -2  -4 8322.55 318.224   1
   1   2   5 8115.28 357.654   1
  -1  -2  -5 8121.02 339.782   1
   1   2   6 796.781 134.637   1
  -1  -2  -6 590.752 118.071   1
   1   2   7 1053.08 148.230   1
   1   2   8 9574.18 478.864   1
   1   2   9 1284.87 199.756   1
   1   2  10-57.6425 97.8578   1
   1   2  11 295.016 145.798   1
   1   2  12 2326.40 304.279   1
   1   2  13 1542.72 272.861   1
   1   2  14 557.354 202.732   1
   1   2  15 277.732 155.310   1
   1   2  16 1661.68 310.815   1
   1   2  17 19.5523 164.025   1
   1   2  18-27.0690 137.398   1
  -1  -3  17 212.794 146.357   1
  -1  -3  16 311.101 171.222   1
  -1  -3  15 120.996 134.172   1
  -1  -3  14 4874.49 426.085   1
  -1  -3  13 3155.45 350.234   1
  -1  -3  12 76.1528 115.223   1
  -1  -3  11 159.489 128.473   1
  -1  -3  10 19.5699 88.4087   1
  -1  -3   9 385.187 120.155   1
  -1  -3   8 2303.86 227.792   1
  -1  -3   7 2676.19 220.139   1
   1   3  -7 2769.89 228.050   1
  -1  -3   6 125.150 70.5336   1
   1   3  -6 153.115 73.2020   1
   1   3  -5 6228.93 292.468   1
   1   3  -5 6586.45 342.542   3
  -1  -3   5 6008.65 332.985   3
  -1  -3   5 6309.80 286.562   1
  -1  -3   4 425.074 105.394   3
  -1  -3   4 475.291 89.0974   1
   1   3  -4 462.801 104.079   3
   1   3  -4 436.765 84.0735   1
  -1  -3   3 1623.76 153.634   3
  -1  -3   3 1676.11 135.599   1
   1   3  -3 1540.48 151.849   3
   1   3  -3 1415.18 129.837   1
  -1  -3   2 3221.11 177.838   1
   1   3  -2 3544.57 197.511   3
  -1  -3   2 3114.50 187.198   3
  -1  -3   2 3223.89 170.949   1
   1   3  -1 92.9261 75.5347   2
  -1  -3   1 46.2206 49.4274   1
  -1  -3   1 64.0057 52.2015   3
  -1  -3   1-3.12082 38.9405   1
   1   3   0 1661.78 125.622   1
   1   3   0 1868.67 145.450   2
  -1  -3   0 1631.47 126.404   1
  -1  -3  -1 2415.45 149.205   2
  -1  -3  -1 2224.58 143.714   1
   1   3   1 2240.34 146.870   1
  -1  -3  -1 2188.80 170.207   4
  -1  -3  -2 167.648 52.1148   2
   1   3   2 279.613 80.1251   1
  -1  -3  -2 116.532 73.8682   4
  -1  -3  -2 251.871 71.3071   1
   1   3   3 4963.35 245.780   4
   1   3   3 4673.46 249.325   1
  -1  -3  -3 4875.11 260.076   4
  -1  -3  -3 5011.54 241.022   1
   1   3   4 13242.0 439.933   1
  -1  -3  -4 13711.9 422.653   1
   1   3   4 14341.2 438.073   4
   1   3   5 1264.55 158.984   1
  -1  -3  -5 982.455 134.746   1
   1   3   5 1323.26 164.741   4
   1   3   6 66022.2 1136.16   1
  -1  -3  -6 67119.0 1088.68   1
   1   3   7 78265.5 1317.83   1
   1   3   8 411.900 141.139   1
   1   3   9 1930.38 241.850   1
   1   3  10 30.5370 102.358   1
   1   3  11-22.8214 107.653   1
   1   3  12 1777.72 288.499   1
   1   3  13 1114.85 253.657   1
   1   3  14 86.5054 137.504   1
   1   3  15-32.2982 129.303   1
   1   3  16 201.416 154.797   1
   1   3  17 98.8672 133.282   1
  -1  -4  15-87.2216 125.472   1
  -1  -4  14 629.716 179.903   1
  -1  -4  13 1360.72 232.834   1
  -1  -4  12 169.540 123.269   1
  -1  -4  11 6535.50 421.217   1
  -1  -4  10 13123.9 560.710   1
  -1  -4   9 253.261 104.068   1
  -1  -4   8 374.162 103.958   1
   1   4  -8 427.917 111.555   1
  -1  -4   7 424.416 151.605   3
   1   4  -7 244.021 89.3652   1
  -1  -4   7 250.995 84.0019   1
   1   4  -6 607.138 113.166   1
  -1  -4   6 901.153 175.677   3
  -1  -4   6 811.464 115.959   1
  -1  -4   5 110.556 78.2812   3
   1   4  -5 201.966 68.6287   1
  -1  -4   5 116.727 64.3538   1
   1   4  -4 2.19410 64.6653   3
  -1  -4   4 20.3915 81.9463   3
   1   4  -4 115.187 90.5308   2
  -1  -4   4 41.3358 44.8372   1
   1   4  -4 118.596 51.3363   1
  -1  -4   3 2796.87 161.110   1
  -1  -4   3 2406.37 155.885   1
   1   4  -3 2393.92 199.352   3
  -1  -4   3 2537.95 206.649   3
   1   4  -3 2473.90 235.025   2
  -1  -4   2 34.9135 41.0025   1
   1   4  -2 52.0709 84.2803   2
  -1  -4   2 58.4982 69.5174   3
  -1  -4   2 124.393 51.0400   1
  -1  -4   1 4132.06 189.060   1
  -1  -4   1 4473.67 236.634   3
   1   4  -1 4211.59 263.819   2
  -1  -4   1 4167.71 197.560   1
   1   4   0 2567.60 199.851   2
  -1  -4   0 2825.92 201.957   2
   1   4   0 2260.31 158.078   1
  -1  -4   0 2622.04 155.046   1
   1   4   1 9.59611 41.5722   1
  -1  -4  -1 12.4832 58.0310   2
  -1  -4  -1 59.6283 43.5807   1
  -1  -4  -1-14.1652 83.7967   4
   1   4   2 2617.65 193.750   1
  -1  -4  -2 2739.64 175.545   1
  -1  -4  -2 2752.54 223.395   4
  -1  -4  -2 2746.16 182.299   2
   1   4   3 392.169 86.0555   4
   1   4   3 343.349 92.9577   1
  -1  -4  -3 457.766 131.010   4
  -1  -4  -3 397.316 86.9245   1
   1   4   4 2226.13 196.930   1
  -1  -4  -4 2488.92 192.094   1
   1   4   4 2735.05 219.533   4
   1   4   5 2523.71 230.711   4
  -1  -4  -5 2242.68 205.295   1
   1   4   5 2040.64 202.471   1
   1   4   6 9554.44 453.340   1
   1   4   7 2073.14 235.867   1
   1   4   8 244.953 113.774   1
   1   4   9 1214.75 216.080   1
   1   4  10 1186.06 222.018   1
   1   4  11 113.724 134.051   1
   1   4  12 629.166 179.499   1
   1   4  13 708.720 217.164   1
   1   4  14 112.334 153.049   1
   1   4  15-163.254 141.882   1
   1   4  16-83.6565 125.565   1
   1   4  17 45.3724 147.954   1
   1   5 -15 244.253 197.026   2
   1   5 -14 92.2538 193.360   2
   1   5 -13-56.2924 140.925   2
  -1  -5  13 34.4627 107.590   1
  -1  -5  12 14.9819 80.9658   1
   1   5 -12 348.643 189.072   2
   1   5 -11 1996.36 315.697   2
  -1  -5  11 2067.20 233.822   1
   1   5 -10 423.115 188.808   2
  -1  -5  10 6.94859 66.4532   1
   1   5  -9 579.893 182.929   2
  -1  -5   9 1056.52 244.984   3
  -1  -5   9 582.411 122.317   1
   1   5  -8 777.354 125.105   1
   1   5  -8 1041.70 225.276   2
  -1  -5   8 989.189 239.107   3
  -1  -5   8 743.477 132.779   1
   1   5  -7 20452.9 825.064   2
   1   5  -7 21395.2 555.527   1
  -1  -5   7 21441.8 794.439   3
  -1  -5   7 21483.8 552.803   1
  -1  -5   6 938.690 180.085   3
   1   5  -6 1057.04 128.587   1
   1   5  -6 1473.99 234.154   2
  -1  -5   6 1162.64 123.940   1
  -1  -5   5 745.737 160.740   3
   1   5  -5 987.560 198.611   2
  -1  -5   5 882.919 101.223   1
  -1  -5   4-127.121 96.2316   3
  -1  -5   4-27.4075 47.5269   1
   1   5  -4 54.9855 86.7441   2
  -1  -5   4 25.5717 43.4321   1
  -1  -5   3 2286.68 138.392   1
   1   5  -3 2181.80 244.286   2
  -1  -5   3 2391.83 234.177   3
  -1  -5   3 2077.21 139.141   1
  -1  -5   2 1225.17 169.027   3
   1   5  -2 1266.84 196.593   2
  -1  -5   2 1306.09 106.200   1
  -1  -5   2 903.730 97.1701   1
   1   5  -1 7454.19 389.400   2
  -1  -5   1 7496.73 353.945   3
  -1  -5   1 7643.10 256.778   1
  -1  -5   1 7510.26 249.166   1
   1   5   0 7465.55 275.645   1
  -1  -5   0 8175.59 380.207   2
  -1  -5   0 7263.15 254.999   1
   1   5   1-27.0296 51.2235   1
  -1  -5  -1-54.6837 105.357   4
  -1  -5  -1 0.53451 74.2219   2
  -1  -5  -1 37.3721 44.2522   1
   1   5   2 10.0752 56.8436   1
  -1  -5  -2-98.4076 56.3858   1
  -1  -5  -2-66.9449 93.4694   4
  -1  -5  -2 2.03727 61.1937   2
  -1  -5  -3 291.023 89.3335   2
   1   5   3 432.289 98.9404   1
  -1  -5  -3 455.647 85.2466   1
  -1  -5  -3 561.191 136.614   4
   1   5   4 103.667 72.4482   1
  -1  -5  -4 15.3475 62.5570   1
   1   5   5 20572.1 642.265   1
   1   5   6 359.946 116.797   1
   1   5   7-50.5714 86.7131   1
   1   5   8 1021.64 203.024   1
   1   5   9 13106.4 642.145   1
   1   5  10 596.468 174.183   1
   1   5  11 118.474 122.062   1
   1   5  12 98.8473 109.539   1
   1   5  13 5869.75 542.538   1
   1   5  14 139.543 142.653   1
   1   5  15 142.019 121.241   1
   1   5  16 191.780 144.925   1
   1   6 -14 247.491 191.927   2
   1   6 -13 781.533 246.487   2
   1   6 -12 195.815 173.786   2
   1   6 -11 99.4601 154.573   2
   1   6 -10 3114.38 392.942   2
  -1  -6  10 2832.48 368.197   3
  -1  -6  10 2754.31 252.830   1
  -1  -6   9 4273.23 280.039   1
   1   6  -9 4594.52 463.433   2
  -1  -6   9 4343.56 429.398   3
   1   6  -8 27616.8 1056.01   2
  -1  -6   8 27717.8 645.355   1
  -1  -6   8 28031.0 981.253   3
   1   6  -7 7744.05 548.898   2
  -1  -6   7 8028.82 314.090   1
  -1  -6   7 8116.96 517.845   3
  -1  -6   6 32.4691 43.5430   1
   1   6  -6 43.8751 114.161   2
  -1  -6   6-103.183 149.676   3
  -1  -6   6 76.3915 52.9633   1
  -1  -6   5 23.7974 38.3709   1
  -1  -6   5 66.0524 40.0785   1
   1   6  -4 7163.64 465.256   2
  -1  -6   4 7185.87 429.748   3
  -1  -6   4 6769.08 225.233   1
  -1  -6   4 7251.49 222.168   1
  -1  -6   3 1301.04 95.0968   1
   1   6  -3 1013.83 185.513   2
  -1  -6   3 1393.63 193.836   3
  -1  -6   3 1020.46 97.3417   1
  -1  -6   2 1036.34 89.5401   1
  -1  -6   2 1196.93 97.2000   1
  -1  -6   2 1114.54 180.953   3
   1   6  -2 1111.53 189.359   2
  -1  -6   1 1939.05 130.497   1
  -1  -6   1 1946.81 124.644   1
  -1  -6   1 1955.24 206.398   3
  -1  -6   0 70.0045 45.5077   1
  -1  -6   0-78.1889 125.721   4
   1   6   0 111.635 52.0760   1
   1   6   1 566.045 100.899   1
  -1  -6  -1 448.542 120.657   4
  -1  -6  -1 682.601 87.5388   1
  -1  -6  -2 170.073 123.238   4
   1   6   2 112.611 69.3748   1
  -1  -6  -2 205.906 78.4603   1
   1   6   3 313.897 103.238   1
  -1  -6  -3 455.869 156.141   4
  -1  -6  -3 380.627 94.4860   1
   1   6   4 2741.81 251.285   1
  -1  -6  -4 2885.05 220.818   1
  -1  -6  -4 3292.71 323.240   4
   1   6   5 1491.29 191.046   1
   1   6   6 370.765 126.722   1
   1   6   7 6.79618 95.4797   1
   1   6   8 10670.5 570.037   1
   1   6   9 3456.10 349.356   1
   1   6  10 179.466 132.029   1
   1   6  11 1244.46 247.921   1
   1   6  12 1420.14 282.273   1
   1   6  13 1202.74 275.818   1
   1   6  14 855.360 242.888   1
   1   6  15 415.976 212.167   1
   1   6  16 310.198 200.794   1
   1   7 -13-97.8461 165.554   2
   1   7 -12-67.7741 136.170   2
  -1  -7  11 536.946 248.162   3
   1   7 -11 143.754 152.647   2
   1   7 -10 255.561 180.195   2
  -1  -7  10 494.585 235.906   3
  -1  -7   9 1506.18 280.482   3
   1   7  -9 1393.04 268.113   2
   1   7  -8 460.552 198.999   2
  -1  -7   8 499.243 173.462   3
  -1  -7   7-5.85924 105.296   3
   1   7  -7 160.006 146.213   2
  -1  -7   6 1697.33 254.660   3
  -1  -7   6 1445.00 100.070   1
   1   7  -6 1908.59 295.185   2
   1   7  -5 18229.1 821.102   2
  -1  -7   5 18556.0 759.598   3
  -1  -7   4 839.516 188.911   3
   1   7  -4 804.264 186.457   2
  -1  -7   4 678.321 47.5576   1
  -1  -7   3 44.4120 98.1918   3
  -1  -7   3 181.754 28.1567   1
   1   7  -3 83.6138 112.918   2
  -1  -7   3 132.724 25.4428   1
  -1  -7   2 97.4637 29.6956   1
  -1  -7   2 78.9325 85.5185   3
  -1  -7   2 122.442 31.4465   1
  -1  -7   1 129.106 42.4263   1
  -1  -7   1 185.334 48.0977   1
  -1  -7   1 36.7761 161.046   4
  -1  -7   1 58.0896 94.7980   3
  -1  -7   0 2380.20 291.362   4
   1   7   0 2593.82 172.292   1
  -1  -7   0 2659.35 161.645   1
   1   7   1 935.035 128.846   1
  -1  -7  -1 1217.23 123.593   1
  -1  -7  -1 926.272 189.554   4
   1   7   2-66.3313 73.1926   1
  -1  -7  -2-81.7103 123.931   4
  -1  -7  -2 152.150 71.8248   1
   1   7   3 469.078 113.168   1
  -1  -7  -3 715.579 208.805   4
  -1  -7  -3 325.143 80.4747   1
   1   7   4 1195.01 181.899   1
  -1  -7  -4 1486.91 297.172   4
   1   7   5 310.318 107.031   1
   1   7   6 806.804 165.894   1
   1   7   7 2993.08 302.646   1
   1   7   8 3106.53 320.576   1
   1   7   9 138.348 127.133   1
   1   7  10 575.763 179.677   1
   1   7  11 9384.44 628.711   1
   1   7  12 299.753 161.282   1
   1   7  13 172.584 151.845   1
   1   7  14 81.8788 185.436   1
   1   7  15 668.633 245.125   1
  -1  -8  11 617.425 253.355   3
   1   8 -11 52.9873 185.470   2
  -1  -8  10 241.880 181.686   3
   1   8 -10-168.692 143.281   2
   1   8  -9 398.054 202.431   2
  -1  -8   9 358.386 171.620   3
   1   8  -8 970.730 272.903   2
  -1  -8   8 1063.37 243.054   3
   1   8  -7 322.390 140.415   2
  -1  -8   7 202.966 125.328   3
   1   8  -6 2869.90 381.557   2
  -1  -8   6 2743.15 340.704   3
   1   8  -5 11057.1 698.833   2
  -1  -8   5 11409.0 625.445   3
  -1  -8   4-28.1051 94.8410   3
  -1  -8   3 96.0027 102.074   3
  -1  -8   2-61.3406 112.420   3
  -1  -8   2 38.6350 133.193   4
  -1  -8   1-21.3721 107.358   3
  -1  -8   1 3.99004 22.3786   1
  -1  -8   0 70.1868 46.2555   1
  -1  -8   0-35.5842 90.5476   3
   1   8   1 95.8459 56.9893   1
  -1  -8  -1-10.7973 49.5032   1
  -1  -8  -2 48.8406 130.974   4
   1   8   2 47.5925 62.7192   1
  -1  -8  -2 69.6479 57.9986   1
   1   8   3 1176.20 172.346   1
  -1  -8  -3 1734.94 285.345   4
   1   8   4 68.2056 70.6709   1
  -1  -8  -4 538.086 227.927   4
   1   8   5-49.5925 82.3044   1
   1   8   6 23.4761 94.4604   1
   1   8   7 1433.69 222.085   1
   1   8   8 285.898 114.873   1
   1   8   9 357.497 145.195   1
   1   8  10 273.428 135.506   1
   1   8  11 1520.92 260.328   1
   1   8  12 113.560 131.712   1
   1   8  13 1542.71 306.453   1
   1   8  14-1.26565 140.129   1
  -1  -9  11 493.103 234.658   3
  -1  -9  10 153.458 187.763   3
  -1  -9   9-78.8208 129.786   3
   1   9  -9-142.876 200.795   2
  -1  -9   8 2102.96 337.854   3
   1   9  -8 2077.30 365.790   2
  -1  -9   7 5602.97 514.371   3
  -1  -9   6 4330.67 441.221   3
  -1  -9   5 2214.96 347.657   3
  -1  -9   4 989.206 220.112   3
  -1  -9   3 68.7787 114.085   3
  -1  -9   3 37.6965 173.877   4
  -1  -9   2 75.9105 104.181   3
  -1  -9   2 90.9710 139.834   4
  -1  -9   1 216.369 157.037   4
  -1  -9   1 146.074 100.145   3
  -1  -9   0 697.559 185.633   3
  -1  -9   0 616.738 206.545   4
  -1  -9  -1 765.166 221.727   4
  -1  -9  -2 569.794 229.531   4
   1   9   3 192.279 82.2034   1
  -1  -9  -3 464.576 213.806   4
   1   9   4-16.2814 76.4979   1
  -1  -9  -4 728.951 265.457   4
   1   9   5 323.049 117.278   1
   1   9   6 1519.40 223.664   1
   1   9   7 538.229 155.496   1
   1   9   8 191.147 127.775   1
   1   9   9 120.913 109.324   1
   1   9  10 13.6383 109.033   1
   1   9  11 272.079 163.523   1
   1   9  12 759.087 220.449   1
   1   9  13 3484.99 432.448   1
   1   9  14 4784.43 523.773   1
  -1 -10   9 164.984 188.817   3
  -1 -10   8-41.2545 156.029   3
  -1 -10   7 1184.92 266.077   3
  -1 -10   6 61.2776 139.516   3
  -1 -10   5 1481.05 301.490   3
  -1 -10   5 1680.38 334.448   4
  -1 -10   4 117.986 152.827   4
  -1 -10   4 201.265 181.740   3
  -1 -10   3 1395.18 276.373   3
  -1 -10   3 1420.03 277.816   4
  -1 -10   2-71.7379 141.480   3
  -1 -10   2 154.650 173.793   4
  -1 -10   1-30.0026 107.717   3
  -1 -10   1 20.1459 172.127   4
  -1 -10   0 108.024 107.775   3
  -1 -10   0 257.992 188.921   4
  -1 -10  -1 511.594 225.616   4
  -1 -10  -1 712.464 176.686   3
  -1 -10  -2 1576.53 315.555   4
  -1 -10  -3 284.676 199.297   4
   1  10   9 113.683 145.398   1
   1  10  10 437.267 184.085   1
   1  10  11 263.010 173.301   1
   1  10  12 180.635 141.051   1
   1  10  13 51.9063 128.825   1
  -1 -11   7 134.666 149.320   3
  -1 -11   6 1292.08 283.524   3
  -1 -11   5 696.712 251.059   3
  -1 -11   4 6667.31 580.489   3
  -1 -11   4 6017.48 618.624   4
  -1 -11   3 4950.32 551.214   4
  -1 -11   3 4396.29 461.912   3
  -1 -11   2 129.641 163.285   4
  -1 -11   2 162.964 160.705   3
  -1 -11   1 112.607 129.895   3
  -1 -11   1 152.639 225.491   4
  -1 -11   0 64.1119 181.945   4
  -1 -11   0-71.8540 136.276   3
  -1 -11  -1-36.7934 162.303   3
  -1 -11  -1-85.4781 191.744   4
  -1 -11  -2 1367.90 358.646   4
  -1 -11  -3 1493.74 365.677   4
  -1 -12   3 380.319 211.690   3
  -1 -12   2 552.300 217.699   3
  -1 -12   1 1096.63 232.588   3
  -1 -12   0 502.458 177.514   3
  -1 -12  -1 58.5636 140.090   3
  -1 -12  -2 34.8882 140.944   3
   2 -10   1-51.9383 212.216   3
   2 -10   2 707.714 293.053   4
   2 -10   3 493.375 252.661   4
   2 -10   4 291.426 200.364   4
   2 -10   5 1481.53 306.963   4
   2 -10   6 198.000 178.693   4
   2  -9   1 653.238 244.495   4
   2  -9   2 611.429 265.544   4
   2  -9   2-52.4155 176.505   3
   2  -9   3 299.029 135.268   3
   2  -9   3 435.456 213.101   4
   2  -9   4-40.3671 188.044   3
   2  -9   4 61.8960 157.519   4
   2  -9   5-106.507 159.737   3
   2  -9   5 153.611 196.109   4
   2  -9   6 916.107 277.534   3
   2  -9   6 537.816 205.197   4
   2  -9   7 303.770 211.357   3
   2  -9   7 354.899 204.679   4
   2  -9   8 888.922 244.506   4
   2  -9   9 663.701 248.143   4
   2  -9  10 332.399 202.054   4
  -2   8  12-196.997 151.813   1
  -2   8  11-101.647 166.066   1
  -2   8  10-172.700 143.292   1
  -2   8   9 92.8704 126.640   1
  -2   8   8 112.014 99.9244   1
  -2   8   7-15.1133 102.454   1
  -2   8   6-18.4068 91.3550   1
   2  -8   1 210.316 203.797   4
   2  -8   2 222.736 179.271   4
   2  -8   3-113.975 169.289   3
   2  -8   3 111.195 155.352   4
   2  -8   4 164.294 150.018   4
   2  -8   4-99.5851 170.632   3
   2  -8   5-77.7780 142.742   3
   2  -8   5 11.8514 135.353   4
   2  -8   6 27.9497 143.624   3
   2  -8   6 30.0644 161.203   4
   2  -8   7 353.848 191.759   3
   2  -8   7 325.762 158.299   4
   2  -8   8-33.1768 130.637   4
   2  -8   8 456.944 230.825   3
   2  -8   9 957.132 312.310   3
   2  -8   9 876.535 218.929   4
  -2   7  12-39.5965 158.861   1
  -2   7  11 96.1636 163.861   1
  -2   7  10 528.718 196.605   1
  -2   7   9-184.070 121.401   1
  -2   7   8 231.668 141.101   1
  -2   7   7 415.104 138.897   1
  -2   7   6 1168.04 211.686   1
  -2   7   5 4155.53 345.919   1
  -2   7   4 344.036 127.948   1
  -2   7   3 659.366 133.001   1
  -2   7   2 86.9486 82.2687   1
  -2   7   1 1556.17 167.722   1
   2  -7   1 541.875 216.045   4
   2  -7   2 237.229 157.760   4
   2  -7   3 183.210 135.748   4
   2  -7   3 652.613 193.211   3
   2  -7   4 586.693 188.855   3
   2  -7   4 537.299 152.402   4
   2  -7   5 914.474 211.005   4
   2  -7   5 780.282 215.221   3
   2  -7   6 1458.19 295.882   3
   2  -7   6 1286.97 247.334   4
   2  -7   7 554.629 170.052   4
   2  -7   7 700.084 239.008   3
   2  -7   8 452.963 226.234   3
   2  -7   9-37.1944 175.872   3
   2  -7  10-29.1310 217.030   3
   2  -7  11 202.658 170.653   3
  -2   6  13 784.794 290.925   1
  -2   6  12 484.433 213.548   1
  -2   6  11 318.977 172.063   1
  -2   6  10 230.153 152.091   1
  -2   6   9-114.677 135.545   1
  -2   6   8 53.6558 128.709   1
  -2   6   7 189.624 120.656   1
  -2   6   6 3282.85 328.222   1
  -2   6   5 312.802 118.443   1
  -2   6   4 2453.69 258.657   1
  -2   6   3 11219.0 495.269   1
  -2   6   2 25719.9 698.912   1
  -2   6   1 27310.8 653.061   1
   2  -6  -1 26080.0 643.640   1
  -2   6   0 3398.38 219.842   1
  -2   6   0 3211.16 206.974   1
  -2   6  -1 667.528 100.884   1
  -2   6  -1 856.749 102.482   1
   2  -6   1 1016.86 222.314   4
  -2   6  -2 5.41708 33.8481   1
   2  -6   2-157.784 133.332   4
   2  -6   3 3430.87 347.957   4
  -2   6  -3 3429.71 133.951   1
   2  -6   3 3704.87 388.023   3
   2  -6   4-6.49926 118.438   3
   2  -6   4 2.59610 110.082   4
   2  -6   5 929.310 219.241   3
   2  -6   5 874.541 173.950   4
   2  -6   6 2975.92 328.698   4
   2  -6   6 2357.83 345.185   3
   2  -6   7 456.378 187.380   3
   2  -6   8 904.954 246.739   3
   2  -6   9 1076.33 264.608   3
   2  -6  10 211.373 146.126   3
   2  -6  11 3089.50 417.296   3
   2  -6  12 57.7752 160.184   3
   2  -6  13 410.750 260.284   3
  -2   5  14 648.597 245.116   1
  -2   5  13-81.8411 147.474   1
  -2   5  12 95.6721 154.416   1
  -2   5  11 188.278 147.412   1
  -2   5  10 727.836 219.741   1
  -2   5   9 167.498 138.637   1
  -2   5   8 153.284 123.218   1
  -2   5   7 1328.35 233.431   1
  -2   5   6 35.7711 92.2363   1
  -2   5   5 793.123 169.197   1
  -2   5   4 3460.96 297.432   1
  -2   5   3 10568.3 467.173   1
   2  -5  -2 1857.66 198.459   1
  -2   5   2 1958.87 204.048   1
  -2   5   1 263.021 86.4642   1
   2  -5  -1 92.5265 75.3650   1
   2  -5   0 283.620 97.2420   1
  -2   5   0 216.651 70.8049   1
   2  -5   1 3218.35 298.065   4
  -2   5  -1 3550.46 205.279   1
  -2   5  -1 3496.61 208.938   1
   2  -5   2 0.55400 109.416   4
  -2   5  -2 116.719 57.2783   1
  -2   5  -2 85.7805 55.6549   1
  -2   5  -3 441.920 75.8859   1
  -2   5  -3 592.229 81.8118   1
   2  -5   3 315.252 101.205   4
   2  -5   4 701.626 164.013   3
  -2   5  -4 1204.22 108.591   1
  -2   5  -4 1174.35 100.105   1
   2  -5   4 1009.32 164.366   4
   2  -5   5 421.590 168.152   3
  -2   5  -5 429.070 64.0358   1
   2  -5   5 255.764 104.845   4
  -2   5  -5 404.041 71.0523   1
  -2   5  -6 305.358 66.5303   1
  -2   5  -6 412.711 63.9055   1
   2  -5   6 462.337 179.137   3
   2  -5   7 118.263 156.490   3
  -2   5  -7-18.6060 37.9628   1
   2  -5   8 416.195 84.5686   1
   2  -5   8 847.156 229.773   3
   2  -5   9 3509.97 410.964   3
   2  -5  10-25.7823 141.952   3
   2  -5  11 1268.61 264.618   3
   2  -5  12 728.382 234.142   3
   2  -5  13 697.813 264.600   3
   2  -5  14 400.247 235.789   3
  -2   4  14-160.694 210.484   1
  -2   4  13-54.7825 154.463   1
  -2   4  12-43.0248 125.846   1
  -2   4  11 299.965 180.005   1
  -2   4  10 89.1497 130.961   1
  -2   4   9 565.613 182.436   1
  -2   4   8-56.6929 105.954   1
  -2   4   7 435.247 157.730   1
  -2   4   6 1753.20 248.578   1
  -2   4   5 2912.00 289.133   1
  -2   4   4 1733.20 207.038   1
  -2   4   3 4254.78 303.129   1
   2  -4  -2 907.291 144.195   1
  -2   4   2 1205.83 158.223   1
  -2   4   1-21.4600 61.2816   1
   2  -4  -1 63.6603 67.2935   1
   2  -4   0 24685.3 613.712   1
  -2   4   0 25704.3 595.646   1
  -2   4  -1 44455.6 736.089   1
   2  -4   1 43564.2 934.262   4
  -2   4  -1 43832.1 739.311   1
  -2   4  -2 428.556 80.3933   1
  -2   4  -2 309.334 78.0121   1
   2  -4   2 237.031 100.228   4
  -2   4  -3 2747.25 180.954   1
  -2   4  -3 2567.16 163.555   1
   2  -4   3 2472.40 226.800   4
  -2   4  -4 109.874 56.8544   1
  -2   4  -4 157.591 58.6698   1
   2  -4   4 63.0721 83.3607   4
   2  -4   4-8.56256 125.204   3
   2  -4   5 1136.28 218.415   3
  -2   4  -5 1555.50 130.782   1
  -2   4  -5 1499.95 136.318   1
   2  -4   6 3243.72 208.407   1
  -2   4  -6 3439.65 195.185   1
   2  -4   6 3331.44 352.677   3
   2  -4   7 2105.34 299.709   3
   2  -4   7 1965.36 175.703   1
  -2   4  -7 2183.36 166.714   1
   2  -4   8 267.571 89.1995   1
  -2   4  -8 373.710 82.2790   1
   2  -4   9-147.405 174.304   3
   2  -4   9-52.0803 64.0870   1
   2  -4  10 247.543 144.411   3
   2  -4  10 627.066 136.598   1
   2  -4  11 605.345 136.612   1
  -2   4 -11 715.457 212.026   2
   2  -4  11 672.419 223.576   3
  -2   4 -12-107.425 147.920   2
   2  -4  12 241.184 174.161   3
   2  -4  12 99.8632 94.1567   1
   2  -4  13 392.636 206.114   3
  -2   4 -13 459.080 197.355   2
  -2   4 -14 373.221 195.788   2
   2  -4  14 651.251 275.845   3
  -2   4 -15-90.9176 153.479   2
  -2   4 -16 130.680 137.966   2
  -2   4 -17 3639.29 462.796   2
  -2   3  15 1394.80 339.612   1
  -2   3  14 1102.92 305.270   1
  -2   3  13 31.1477 131.194   1
  -2   3  12 46.0436 134.236   1
  -2   3  11 148.509 110.805   1
  -2   3  10-135.865 128.507   1
  -2   3   9 45.7988 115.584   1
  -2   3   8 2081.46 282.440   1
  -2   3   7 448.446 147.725   1
  -2   3   6 270.930 130.599   1
  -2   3   5 2591.87 266.713   1
  -2   3   4 36.3543 78.9449   1
  -2   3   3 14464.5 534.620   1
  -2   3   2 11458.9 455.007   1
  -2   3   2 12301.4 481.886   4
   2  -3  -2 12178.4 460.511   1
  -2   3   1 537.636 105.762   1
   2  -3  -1 628.514 112.238   1
  -2   3   1 418.350 105.122   4
   2  -3   0 1916.28 174.947   1
  -2   3   0 1793.81 177.277   4
  -2   3   0 1890.04 170.907   1
   2  -3   1 338.882 111.474   4
  -2   3  -1 292.608 81.5002   1
  -2   3  -1 244.603 73.8073   1
  -2   3  -2 84.5312 56.1003   1
   2  -3   2 29.4329 64.4459   4
  -2   3  -2 0.33503 46.6275   1
  -2   3  -3 2739.22 175.270   1
  -2   3  -3 2644.47 194.194   1
   2  -3   3 2789.36 205.775   4
  -2   3  -4 23179.0 508.034   1
   2  -3   4 23782.2 782.906   3
  -2   3  -4 22461.7 555.543   1
   2  -3   5 997.466 192.257   3
   2  -3   5 1080.11 131.183   1
  -2   3  -5 1122.96 121.010   1
   2  -3   6 2104.32 181.624   1
  -2   3  -6 1887.94 159.273   1
   2  -3   6 2144.38 269.712   3
   2  -3   7 1520.37 158.716   1
  -2   3  -7 1707.46 165.567   1
   2  -3   7 1694.00 254.848   3
   2  -3   8 6878.02 346.392   1
  -2   3  -8 6621.34 326.017   1
   2  -3   8 6270.13 458.645   3
   2  -3   9 334.438 147.840   3
   2  -3   9 600.599 125.124   1
  -2   3  -9 468.191 137.746   2
  -2   3  -9 662.543 122.739   1
   2  -3  10 774.327 155.658   1
  -2   3 -10 801.781 179.705   2
   2  -3  10 973.780 234.578   3
   2  -3  11 1953.95 322.716   3
   2  -3  11 1840.12 226.614   1
  -2   3 -11 1851.11 266.185   2
   2  -3  12 221.105 121.404   1
   2  -3  12 411.929 193.798   3
  -2   3 -12 369.770 144.757   2
   2  -3  13 1210.20 292.700   3
  -2   3 -13 794.831 196.843   2
   2  -3  13 835.243 186.016   1
  -2   3 -14 161.917 135.370   2
   2  -3  14 258.801 147.915   1
  -2   3 -15-86.0379 130.372   2
   2  -3  15-70.6143 116.079   1
  -2   3 -16 1346.29 290.297   2
  -2   3 -17-119.572 152.743   2
  -2   2  15 264.019 207.558   1
  -2   2  14 302.981 189.969   1
  -2   2  13 2234.75 348.331   1
  -2   2  12 1850.55 323.462   1
  -2   2  11 1119.88 244.256   1
  -2   2  10 283.531 170.959   1
  -2   2   9 129.664 124.587   1
  -2   2   8 616.272 171.680   1
  -2   2   7 1577.29 230.719   1
  -2   2   6 1786.92 230.578   1
  -2   2   5 1945.53 227.360   1
  -2   2   4 260.544 98.7218   1
   2  -2  -3 188.985 84.4556   1
  -2   2   3 126.123 82.0659   1
   2  -2  -2 209.696 83.9272   1
  -2   2   2 215.332 94.7803   1
  -2   2   1 40089.3 792.289   1
  -2   2   1 40536.6 711.318   4
   2  -2  -1 41018.5 791.608   1
  -2   2   0 8513.91 307.656   4
  -2   2   0 8411.53 357.150   1
   2  -2   0 8776.27 350.328   1
  -2   2  -1 8003.95 313.507   1
  -2   2  -1 7550.49 334.818   1
  -2   2  -2 7441.30 292.095   1
  -2   2  -2 7588.82 326.729   1
   2  -2   2 7446.07 279.370   4
   2  -2   3 32448.3 661.899   1
   2  -2   3 30910.8 568.442   4
  -2   2  -3 31517.2 586.964   1
   2  -2   3 30496.7 779.969   3
   2  -2   4 1289.27 183.760   3
   2  -2   4 1742.42 180.316   2
  -2   2  -4 1438.51 143.011   1
   2  -2   4 1326.93 144.601   1
   2  -2   5 175.596 66.5642   1
   2  -2   5 335.919 115.457   3
   2  -2   5 62.0462 78.3483   2
  -2   2  -5 270.527 77.7933   1
   2  -2   6 1117.98 192.686   3
   2  -2   6 920.885 132.820   1
   2  -2   6 993.575 161.133   2
  -2   2  -6 1074.05 134.677   1
   2  -2   7 15239.4 641.396   3
   2  -2   7 14870.3 496.905   1
  -2   2  -7 15385.4 483.566   1
  -2   2  -8 623.050 137.679   2
   2  -2   8 743.204 163.990   3
   2  -2   8 810.775 131.827   1
  -2   2  -8 777.583 123.496   1
   2  -2   9 121.535 107.948   3
   2  -2   9 243.264 82.7752   1
  -2   2  -9 67.5175 87.5057   2
   2  -2  10 218.140 157.879   3
   2  -2  10 83.2754 89.5708   1
  -2   2 -10 120.539 96.9468   2
   2  -2  11 397.288 188.536   3
   2  -2  11 239.225 94.0313   1
  -2   2 -11 99.9260 119.194   2
   2  -2  12 1459.08 290.525   3
   2  -2  12 1210.54 204.820   1
  -2   2 -12 1097.89 207.219   2
  -2   2 -13 381.587 150.682   2
   2  -2  13 325.115 142.650   1
  -2   2 -14 435.012 163.902   2
   2  -2  14 152.814 131.006   1
   2  -2  15 179.025 113.625   1
  -2   2 -15 198.045 172.854   2
  -2   2 -16 335.128 194.003   2
   2  -2  16 306.837 161.886   1
   2  -2  17 430.010 148.396   1
  -2   2 -17 117.949 157.655   2
  -2   1  16 1134.84 314.630   1
  -2   1  15 814.735 265.608   1
  -2   1  14 19634.4 1009.15   1
  -2   1  13 8781.00 658.503   1
  -2   1  12 1034.32 244.952   1
  -2   1  11 7.85419 114.656   1
  -2   1  10 549.046 162.039   1
  -2   1   9 2694.06 300.803   1
  -2   1   8 95.3888 119.792   1
  -2   1   7 2418.67 271.357   1
  -2   1   6 15256.1 627.104   1
  -2   1   5 7527.05 422.604   1
  -2   1   4 7864.91 404.469   1
  -2   1   3 6914.38 360.921   1
   2  -1  -3 6827.68 349.652   1
  -2   1   2 1062.39 153.414   1
   2  -1  -2 1112.83 141.099   1
   2  -1  -1 25364.3 611.723   1
  -2   1   1 24756.9 631.364   1
  -2   1   0 261.426 92.0165   1
   2  -1   0 296.605 90.1406   1
  -2   1   0 447.670 80.5215   4
  -2   1  -1 763.308 117.184   1
  -2   1  -1 709.325 72.5048   4
  -2   1  -1 890.911 117.500   1
   2  -1   2 15233.9 464.885   1
  -2   1  -2 15790.6 426.924   1
   2  -1   2 16183.0 299.340   4
   2  -1   3 9429.49 232.595   4
   2  -1   3 9274.19 365.586   1
  -2   1  -3 9698.40 339.080   1
   2  -1   3 9429.83 390.266   3
   2  -1   4 252.700 77.2925   1
   2  -1   4 132.071 78.4341   3
  -2   1  -4 348.978 90.2739   1
   2  -1   4 206.525 66.2061   2
   2  -1   5 7776.57 320.905   2
   2  -1   5 7583.60 342.312   1
  -2   1  -5 7801.65 329.546   1
   2  -1   5 7210.31 378.068   3
   2  -1   6 7688.86 361.115   1
  -2   1  -6 7467.38 341.586   1
   2  -1   6 7395.87 398.303   3
  -2   1  -7 41855.1 825.884   2
  -2   1  -7 42115.6 826.048   1
   2  -1   7 42000.2 880.287   1
   2  -1   7 41220.7 986.619   3
   2  -1   8 3645.65 279.076   1
  -2   1  -8 3294.35 256.244   2
   2  -1   8 3302.92 302.686   3
   2  -1   9 2299.32 244.105   1
  -2   1  -9 2471.28 244.709   2
   2  -1   9 2564.76 289.086   3
  -2   1 -10 8157.02 436.728   2
   2  -1  10 7899.84 456.102   1
   2  -1  10 8986.23 537.124   3
  -2   1 -11 163.341 111.965   2
   2  -1  11 53.0822 94.8625   1
  -2   1 -12 1163.04 205.564   2
   2  -1  12 1099.26 216.824   1
  -2   1 -13 202.919 130.782   2
   2  -1  13 511.171 185.187   1
   2  -1  14-131.938 126.146   1
  -2   1 -14 55.8562 110.240   2
  -2   1 -15 165.382 181.729   2
   2  -1  15 79.3557 118.100   1
  -2   1 -16 242.834 159.363   2
   2  -1  16 104.548 160.575   1
  -2   1 -17 448.983 211.177   2
   2  -1  17 314.398 164.982   1
   2  -1  18 194.908 156.274   1
  -2   0  16 488.107 227.692   1
  -2   0  15-77.6195 163.135   1
  -2   0  14 788.712 253.531   1
  -2   0  13 67.6829 135.476   1
  -2   0  12 52.8083 123.681   1
  -2   0  11 65.1142 118.565   1
  -2   0  10 6183.47 484.659   1
  -2   0   9 1574.07 239.884   1
  -2   0   8 354.941 140.455   1
  -2   0   7-3.19390 86.1862   1
  -2   0   6 933.581 162.444   1
  -2   0   5 5.58320 72.4987   1
   2   0  -4 1481.84 180.213   1
  -2   0   4 1443.35 178.339   1
  -2   0   3 6218.99 343.378   1
   2   0  -3 6653.57 334.960   1
  -2   0   2 346.479 99.2545   1
   2   0  -2 420.796 105.830   1
  -2   0   1 110.484 70.1351   1
   2   0  -1 113.370 72.3189   1
  -2   0   0 2374.66 199.340   1
  -2   0   0 2782.35 193.565   1
  -2   0  -1 11007.8 371.988   1
  -2   0  -1 10821.2 397.119   1
   2   0   2 35361.9 715.625   1
  -2   0  -2 36670.7 658.702   1
   2   0   3 130.649 50.1090   3
  -2   0  -3 225.832 69.9182   1
   2   0   3 183.006 73.4542   1
   2   0   4 2768.39 153.112   2
   2   0   4 2746.11 209.426   1
  -2   0  -4 2966.11 206.640   1
   2   0   4 2824.53 197.334   3
   2   0   5 31100.7 709.220   1
  -2   0  -5 32580.3 684.163   1
  -2   0  -5 32412.1 677.416   3
   2   0   5 31808.0 699.502   3
  -2   0  -6 37036.8 624.834   2
   2   0   6 36750.0 812.184   1
  -2   0  -6 37561.2 771.422   1
   2   0   6 36238.4 803.633   3
  -2   0  -6 38580.9 790.698   3
  -2   0  -7 2923.29 198.707   2
   2   0   7 3160.54 263.681   1
  -2   0  -7 3139.19 250.576   3
  -2   0  -7 3125.72 239.312   1
   2   0   7 3321.98 268.155   3
  -2   0  -8 511.651 100.380   2
   2   0   8 516.013 126.518   1
   2   0   8 761.649 178.169   3
  -2   0  -9 2899.67 235.675   2
   2   0   9 3145.82 284.953   1
   2   0   9 3466.18 336.338   3
  -2   0 -10 1894.30 204.815   2
   2   0  10 1973.45 241.569   1
  -2   0 -11 177.537 113.333   2
   2   0  11-66.7831 93.9212   1
  -2   0 -12 290.673 123.960   2
   2   0  12 260.585 129.853   1
  -2   0 -13 10.4676 86.7958   2
   2   0  13 99.3891 115.302   1
  -2   0 -14 891.039 201.786   2
   2   0  14 755.145 188.869   1
  -2   0 -15 295.561 178.332   2
   2   0  15 117.219 121.459   1
   2   0  16 485.377 192.846   1
  -2   0 -16 599.643 206.736   2
   2   0  17 386.643 183.295   1
   2   0  18 190.988 152.536   1
  -2  -1  16 171.320 199.945   1
  -2  -1  15 1164.54 281.495   1
  -2  -1  14 143.054 130.539   1
  -2  -1  13 453.048 187.379   1
  -2  -1  12 4695.21 457.537   1
  -2  -1  11 13224.0 710.123   1
  -2  -1  10 123.759 116.510   1
  -2  -1   9 99.3110 108.251   1
  -2  -1   8 245.171 117.174   1
  -2  -1   7 2258.74 260.613   1
  -2  -1   6 2866.12 270.753   1
  -2  -1   5 7972.70 412.623   1
  -2  -1   4 14094.7 530.911   1
   2   1  -4 14936.6 522.241   1
  -2  -1   3 127.764 87.9365   1
   2   1  -3 214.875 84.7627   1
   2   1  -2 12094.5 425.445   1
  -2  -1   2 11015.3 442.341   1
  -2  -1   1 15884.1 508.526   1
   2   1  -1 17818.8 501.998   1
  -2  -1   0 8666.20 336.352   1
  -2  -1   0 7516.63 351.663   1
   2   1   1 1998.30 180.287   1
  -2  -1  -1 2334.78 178.412   1
   2   1   2 3871.19 152.978   3
   2   1   2 3715.47 239.879   1
  -2  -1  -2 4155.50 235.289   1
   2   1   3 2043.27 184.057   1
  -2  -1  -3 2322.74 180.917   1
   2   1   3 2250.23 133.399   3
   2   1   4 1300.91 159.374   1
  -2  -1  -4 1306.45 149.289   1
  -2  -1  -4 1238.94 113.668   3
   2   1   4 1121.51 114.092   3
  -2  -1  -5 12070.1 378.454   3
   2   1   5 12240.2 464.237   1
  -2  -1  -5 11981.5 429.218   1
   2   1   5 11897.7 385.045   3
  -2  -1  -6 10462.9 262.583   2
   2   1   6 10939.9 462.036   1
  -2  -1  -6 10919.9 432.013   1
  -2  -1  -6 10638.0 389.253   3
   2   1   6 10619.9 411.884   3
  -2  -1  -7 16049.3 377.810   2
   2   1   7 16109.6 588.526   1
  -2  -1  -7 16397.2 525.014   3
  -2  -1  -8 597.037 98.1569   2
   2   1   8 468.711 128.630   1
   2   1   9 4893.29 368.214   1
   2   1  10 1030.78 206.381   1
   2   1  11 3817.40 355.224   1
   2   1  12 4615.29 405.367   1
   2   1  13 710.801 184.271   1
   2   1  14 57.7613 135.177   1
   2   1  15 132.002 152.199   1
   2   1  16 65.0679 118.716   1
   2   1  17 1406.52 300.486   1
   2   1  18 304.969 168.421   1
  -2  -2  16 429.425 217.798   1
  -2  -2  15-68.6066 140.130   1
  -2  -2  14 188.207 155.737   1
  -2  -2  13 516.489 189.002   1
  -2  -2  12 10713.2 658.296   1
  -2  -2  11 137.004 122.669   1
  -2  -2  10 406.048 152.552   1
  -2  -2   9 2638.00 298.505   1
  -2  -2   8 26.5791 92.6646   1
  -2  -2   7 3246.21 293.860   1
  -2  -2   6 119.836 79.7312   1
   2   2  -5 1066.32 163.367   3
  -2  -2   5 834.865 145.926   1
  -2  -2   4 10405.2 452.327   1
   2   2  -4 11299.4 451.074   1
   2   2  -4 10414.0 383.244   3
  -2  -2   3 1613.64 177.976   1
   2   2  -3 1700.19 180.740   1
   2   2  -2 60.1514 82.0153   1
  -2  -2   2 16.9195 70.8122   1
  -2  -2   1 112.139 76.8693   1
  -2  -2   1 56.1286 55.3338   1
  -2  -2   0 707.852 108.076   1
  -2  -2   0 672.964 123.697   1
   2   2   1 1588.57 163.813   1
  -2  -2  -1 2041.77 171.760   1
   2   2   2 11477.6 416.911   1
  -2  -2  -2 11856.3 397.623   1
  -2  -2  -2 12032.9 279.383   4
   2   2   3 15949.0 501.081   1
  -2  -2  -3 16871.2 489.905   1
  -2  -2  -3 16064.0 274.482   3
   2   2   4 333.789 66.9760   4
  -2  -2  -4 321.199 92.5768   1
   2   2   4 480.692 117.193   1
  -2  -2  -4 296.389 56.0773   3
  -2  -2  -5 109.528 54.3706   3
   2   2   5 96.0442 81.5709   1
  -2  -2  -5 24.0779 69.8089   1
   2   2   5 145.448 77.2422   4
  -2  -2  -6 3536.02 118.842   2
   2   2   6 4193.76 298.756   1
  -2  -2  -6 4030.14 231.600   3
   2   2   7 3555.60 297.437   1
  -2  -2  -7 3428.03 237.068   3
   2   2   8 127790. 1795.38   1
  -2  -2  -8 128476. 1535.71   3
   2   2   9 11246.3 561.396   1
   2   2  10 1342.87 214.848   1
   2   2  11 348.609 151.600   1
   2   2  12 90.0169 127.405   1
   2   2  13 556.853 184.193   1
   2   2  14 1.34815 170.622   1
   2   2  15 228.313 153.020   1
   2   2  16 723.341 243.919   1
   2   2  17 140.688 168.835   1
   2   2  18-54.7774 144.719   1
  -2  -3  17 2.60719 135.076   1
  -2  -3  16 17.1864 133.154   1
  -2  -3  15 92.5800 162.798   1
  -2  -3  14 159.436 169.176   1
  -2  -3  13 4457.96 432.911   1
  -2  -3  12 301.389 151.912   1
  -2  -3  11 434.873 144.006   1
  -2  -3  10 519.891 165.048   1
  -2  -3   9 4604.92 375.573   1
  -2  -3   8 1060.66 185.662   1
  -2  -3   7 150.629 104.615   1
  -2  -3   6 459.616 126.947   1
   2   3  -5 30547.6 765.007   1
  -2  -3   5 29848.1 780.153   1
   2   3  -5 29971.5 725.708   3
  -2  -3   4 67.7615 68.4597   1
   2   3  -4 39.2552 72.2240   3
   2   3  -4 124.819 82.2512   1
  -2  -3   3 7469.88 365.305   1
   2   3  -3 8645.36 380.433   1
   2   3  -3 7928.74 304.991   3
  -2  -3   2 6265.67 298.260   1
  -2  -3   2 5727.44 318.336   1
   2   3  -2 6150.91 237.759   3
  -2  -3   1 4078.97 242.589   1
  -2  -3   1 3762.40 254.599   1
   2   3  -1 4114.49 159.235   3
   2   3   0 31861.9 705.827   1
  -2  -3   0 33420.9 669.333   1
   2   3   1 6986.36 330.799   1
  -2  -3  -1 7041.54 314.289   1
   2   3   2 77.0102 63.5344   1
  -2  -3  -2 137.062 78.5843   1
   2   3   2 56.3753 38.4833   2
  -2  -3  -2-71.4956 73.3607   4
  -2  -3  -3 3940.58 221.238   4
   2   3   3 4013.06 262.497   1
  -2  -3  -3 4163.72 255.953   1
   2   3   4-32.4638 63.1278   1
   2   3   4-42.8267 72.3009   4
  -2  -3  -4 19.1605 63.5227   1
  -2  -3  -5 110.649 76.4662   3
   2   3   5 75.6018 65.3339   1
  -2  -3  -5 63.9512 91.9120   1
   2   3   5 9.91316 73.3764   4
   2   3   6 1295.04 179.680   1
   2   3   6 1416.99 164.713   4
  -2  -3  -6 1412.36 151.047   3
   2   3   7 23884.2 765.428   1
  -2  -3  -7 23777.5 596.630   3
  -2  -3  -8 260.337 124.658   3
   2   3   8 89.9705 98.4211   1
   2   3   9 13413.3 631.180   1
   2   3  10 466.590 152.003   1
   2   3  11-6.19019 108.013   1
   2   3  12 5036.31 448.475   1
   2   3  13 1234.40 248.110   1
   2   3  14 316.211 167.414   1
   2   3  15 109.387 127.739   1
   2   3  16 179.124 144.603   1
   2   3  17 216.082 152.916   1
  -2  -4  16-84.4152 122.278   1
  -2  -4  15-16.4878 117.553   1
  -2  -4  14 180.028 148.080   1
  -2  -4  13 2.00841 111.507   1
  -2  -4  12 88.9450 97.4816   1
  -2  -4  11 1196.74 227.403   1
  -2  -4  10 15233.8 685.225   1
  -2  -4   9 2921.63 287.778   1
  -2  -4   8 394.291 119.225   1
  -2  -4   7 739.856 151.757   1
  -2  -4   6 1.53773 74.0233   1
   2   4  -5 897.252 152.136   3
   2   4  -5 1110.70 154.056   1
  -2  -4   5 996.161 154.440   1
  -2  -4   4 970.014 148.718   1
   2   4  -4 1024.62 153.237   1
   2   4  -4 829.493 128.196   3
   2   4  -3-44.8740 57.9050   3
  -2  -4   3 115.626 73.6595   1
  -2  -4   3 91.4938 67.5896   1
  -2  -4   2 10789.1 398.101   1
  -2  -4   2 10843.2 424.727   1
   2   4  -2 10566.8 336.934   3
  -2  -4   2 10347.4 335.241   3
  -2  -4   1 499.604 73.4900   3
  -2  -4   1 678.487 123.569   1
  -2  -4   1 599.176 101.907   1
   2   4   0 4560.83 257.806   2
   2   4   0 4729.64 282.647   1
  -2  -4   0 5061.67 276.968   1
  -2  -4   0 4975.73 182.212   3
   2   4   1 619.482 111.220   1
  -2  -4  -1 491.924 59.0749   3
  -2  -4  -1 574.874 106.923   1
   2   4   1 484.523 93.8817   2
   2   4   2 299.670 93.3575   1
  -2  -4  -2 273.492 84.6573   1
   2   4   2 239.678 64.3594   2
  -2  -4  -2 53.1531 87.5288   4
   2   4   3 326.633 95.3606   1
  -2  -4  -3 427.295 95.3187   1
  -2  -4  -3 369.781 102.254   4
  -2  -4  -4 2524.27 133.284   2
   2   4   4 2295.75 223.245   1
  -2  -4  -4 2286.87 206.970   1
  -2  -4  -4 2062.00 208.244   4
   2   4   5 3163.88 267.640   1
   2   4   5 3099.73 237.179   4
  -2  -4  -5 3002.59 139.360   2
   2   4   6-43.4867 89.8785   1
   2   4   6 19.5775 89.7426   4
   2   4   7 90.0691 96.0148   1
   2   4   8 1542.59 231.300   1
   2   4   9 661.806 180.497   1
   2   4  10 31430.0 1034.18   1
   2   4  11 25046.0 963.632   1
   2   4  12 1624.98 287.995   1
   2   4  13 1197.31 279.223   1
   2   4  14 98.2780 167.669   1
   2   4  15 40.4530 130.565   1
   2   4  16 396.843 213.156   1
   2   4  17-180.206 186.936   1
  -2  -5  14 318.225 162.679   1
  -2  -5  13 297.912 145.333   1
  -2  -5  12 286.539 116.780   1
  -2  -5  11-7.17948 108.430   1
  -2  -5  10 1644.50 227.167   1
  -2  -5   9 1113.56 185.636   1
  -2  -5   8 193.649 104.742   1
  -2  -5   7 10743.6 486.404   1
  -2  -5   6 6042.48 352.444   1
  -2  -5   5 3853.15 266.438   1
  -2  -5   5 3792.74 270.949   1
  -2  -5   5 3935.45 311.099   3
  -2  -5   4 5269.62 290.104   1
  -2  -5   4 5101.44 302.572   1
   2   5  -4 5160.94 310.987   3
  -2  -5   4 5281.42 322.692   3
   2   5  -3 6785.33 416.762   2
  -2  -5   3 7981.89 354.471   1
  -2  -5   3 7870.41 362.076   1
  -2  -5   3 7458.24 350.685   3
   2   5  -2 2890.50 266.229   2
  -2  -5   2 3174.45 223.971   1
  -2  -5   2 3078.73 228.335   1
  -2  -5   2 2926.75 206.908   3
   2   5  -1 4210.08 290.716   2
  -2  -5   1 4214.33 257.180   1
  -2  -5   1 4047.10 223.912   3
  -2  -5   1 4094.07 263.454   1
  -2  -5   0 103.142 58.6922   3
  -2  -5   0 127.742 73.8067   1
   2   5   0 107.526 78.2648   2
   2   5   0 96.6352 65.7833   1
   2   5   1 1984.31 192.456   2
   2   5   1 2256.50 203.293   1
  -2  -5  -1 2505.41 204.183   1
  -2  -5  -1 2229.25 219.205   4
  -2  -5  -1 2361.49 153.819   3
   2   5   2 58.8965 74.2070   1
  -2  -5  -2 52.8379 67.9588   1
  -2  -5  -2-107.609 99.9967   4
   2   5   3 1857.65 197.734   1
  -2  -5  -3 1639.67 173.829   1
  -2  -5  -3 1724.68 199.960   4
  -2  -5  -4 40.9474 57.4551   2
  -2  -5  -4 72.3877 115.919   4
   2   5   4 58.7024 68.2477   1
  -2  -5  -5 1425.18 131.454   2
   2   5   5 1601.62 209.361   1
   2   5   6 1093.85 186.071   1
  -2  -5  -6 1076.83 127.576   2
   2   5   7 1135.63 193.519   1
   2   5   8 521.928 154.029   1
   2   5   9 1248.90 233.936   1
   2   5  10 2103.33 296.879   1
   2   5  11 4345.25 439.658   1
   2   5  12 40.6832 136.950   1
   2   5  13 575.210 197.027   1
   2   5  14 178.637 162.869   1
   2   5  15 240.415 171.667   1
   2   5  16 214.165 167.947   1
   2   6 -13 1057.44 287.452   2
   2   6 -12 696.750 236.139   2
  -2  -6  11 314.862 131.880   1
   2   6 -11 299.010 188.809   2
   2   6 -10 529.156 211.886   2
  -2  -6  10 534.461 139.605   1
  -2  -6   9 465.438 122.765   1
   2   6  -9 287.448 199.855   2
  -2  -6   8 35.7242 81.9492   1
   2   6  -8 218.912 169.923   2
   2   6  -7 3220.06 360.731   2
  -2  -6   7 3286.33 259.782   1
   2   6  -6 335.696 165.588   2
  -2  -6   6 716.381 190.901   3
  -2  -6   6 327.999 95.0079   1
  -2  -6   5 3766.61 317.561   3
   2   6  -5 3516.14 347.718   2
  -2  -6   5 3713.30 245.807   1
  -2  -6   5 3808.99 258.248   1
  -2  -6   4 1697.75 207.482   3
   2   6  -4 1977.18 265.227   2
  -2  -6   4 1954.66 178.069   1
  -2  -6   4 1858.48 184.320   1
   2   6  -3 6160.63 428.645   2
  -2  -6   3 6475.72 314.746   1
  -2  -6   3 7085.46 343.128   1
  -2  -6   3 6491.81 364.461   3
  -2  -6   2 125.018 69.6033   1
  -2  -6   2-130.552 110.477   3
  -2  -6   2 124.644 76.6249   1
   2   6  -2 36.5969 86.0411   2
  -2  -6   1 1087.15 149.282   3
   2   6  -1 879.826 166.199   2
  -2  -6   1 1001.69 141.330   1
  -2  -6   1 1012.06 132.740   1
   2   6   0 4039.98 304.472   2
   2   6   0 4198.77 274.204   1
  -2  -6   0 4607.71 268.892   1
  -2  -6   0 4147.14 247.202   3
   2   6   1 5366.85 320.253   1
  -2  -6  -1 5425.90 275.495   3
  -2  -6  -1 5597.10 302.197   1
  -2  -6  -1 5045.58 372.490   4
   2   6   2 244.198 103.337   1
  -2  -6  -2 81.9979 94.6105   4
  -2  -6  -2 143.277 74.8444   1
  -2  -6  -3 1511.42 176.611   2
   2   6   3 1418.65 190.346   1
  -2  -6  -3 1615.80 230.625   4
  -2  -6  -4 1770.98 177.549   2
   2   6   4 1917.22 217.634   1
  -2  -6  -4 1934.24 268.799   4
   2   6   5 66.3546 74.8144   1
  -2  -6  -5 228.749 89.6998   2
  -2  -6  -6 197.844 89.3107   2
   2   6   6 289.991 113.465   1
   2   6   7 1979.13 250.947   1
   2   6   8 1261.03 222.435   1
   2   6   9 1785.78 272.678   1
   2   6  10 1157.34 239.503   1
   2   6  11 770.006 208.327   1
   2   6  12 1988.68 322.294   1
   2   6  13 4130.59 473.949   1
   2   6  14 1196.97 301.363   1
   2   6  15 279.787 182.328   1
   2   6  16 40.1224 192.763   1
   2   7 -12 713.393 267.668   2
   2   7 -11 300.654 186.882   2
   2   7 -10 807.618 250.603   2
   2   7  -9 1983.84 335.885   2
   2   7  -8-116.517 141.266   2
  -2  -7   7 90.2980 71.3420   1
   2   7  -7 38.3973 127.047   2
   2   7  -6 7808.03 562.443   2
  -2  -7   6 7705.60 356.407   1
  -2  -7   6 8137.16 500.485   3
   2   7  -5 10714.2 634.741   2
  -2  -7   5 11588.9 421.028   1
  -2  -7   5 11563.2 566.553   3
   2   7  -4 18313.1 788.178   2
  -2  -7   4 19583.3 513.751   1
  -2  -7   4 19622.0 539.782   1
  -2  -7   4 19079.8 697.666   3
   2   7  -3 16359.6 724.955   2
  -2  -7   3 17493.3 481.554   1
  -2  -7   3 17328.2 505.785   1
  -2  -7   3 16831.6 626.156   3
  -2  -7   2 315.765 125.995   3
  -2  -7   2 81.9753 64.5897   1
   2   7  -2 51.5174 98.1073   2
  -2  -7   2 138.462 74.9290   1
  -2  -7   1 127.523 93.5469   3
  -2  -7   1 241.784 83.3100   1
   2   7  -1 206.334 119.539   2
  -2  -7   1 77.9930 60.1964   1
   2   7   0 4669.93 298.545   1
  -2  -7   0 4516.51 257.173   1
  -2  -7   0 3999.63 360.738   4
  -2  -7   0 4649.82 295.797   3
   2   7   1 2373.29 219.060   1
  -2  -7  -1 2207.33 194.067   1
  -2  -7  -1 2135.22 265.916   4
  -2  -7  -1 1841.26 186.783   3
   2   7   2 1072.14 162.151   1
  -2  -7  -2 979.489 143.603   1
  -2  -7  -2 1041.45 193.684   4
   2   7   3 1009.16 164.951   1
  -2  -7  -3 815.575 191.837   4
   2   7   4 56.8900 84.8559   1
  -2  -7  -4 79.7336 146.595   4
   2   7   5 213.663 114.143   1
   2   7   6 1291.76 205.729   1
   2   7   7 1925.99 258.851   1
   2   7   8 94.8444 91.2911   1
   2   7   9 2324.12 304.703   1
   2   7  10-73.2259 112.860   1
   2   7  11 424.394 201.738   1
   2   7  12 3969.50 446.025   1
   2   7  13 1202.42 291.234   1
   2   7  14 276.047 213.517   1
   2   7  15 898.966 275.833   1
   2   8 -11-65.7259 167.356   2
   2   8 -10 94.3892 187.552   2
   2   8  -9-295.049 215.108   2
  -2  -8   8 266.648 176.919   3
   2   8  -8 113.543 149.846   2
  -2  -8   7 348.552 169.151   3
   2   8  -7 417.138 183.287   2
  -2  -8   6 247.877 144.951   3
   2   8  -6 183.059 163.368   2
  -2  -8   5-103.523 116.846   3
   2   8  -5-10.4365 113.047   2
   2   8  -4 2714.24 340.904   2
  -2  -8   4 2482.95 178.496   1
  -2  -8   4 2451.61 278.207   3
  -2  -8   3 4873.65 371.891   3
   2   8  -3 4605.02 409.802   2
  -2  -8   3 5062.90 262.496   1
  -2  -8   2 25.6468 97.3492   3
  -2  -8   2 88.2666 72.1749   1
  -2  -8   1 5779.07 460.022   4
  -2  -8   1 5846.41 308.949   1
  -2  -8   1 5855.49 378.115   3
  -2  -8   0 6430.77 355.513   1
  -2  -8   0 7280.82 295.953   1
  -2  -8   0 6340.98 486.511   4
  -2  -8   0 6399.53 379.766   3
   2   8   1 47.6491 65.7733   1
  -2  -8  -1-154.856 107.714   3
  -2  -8  -1 43.7539 127.187   4
   2   8   2-117.519 73.0460   1
  -2  -8  -2-23.7815 118.952   4
   2   8   3 158.249 101.923   1
  -2  -8  -3 35.7782 149.976   4
   2   8   4 1558.08 216.746   1
  -2  -8  -4 2113.72 305.496   4
   2   8   5 221.684 109.070   1
   2   8   6 265.580 119.509   1
   2   8   7 1303.22 224.406   1
   2   8   8-161.545 118.947   1
   2   8   9 290.052 135.508   1
   2   8  10 58.1242 116.942   1
   2   8  11 354.306 193.306   1
   2   8  12 4763.72 493.073   1
   2   8  13 152.841 142.036   1
   2   8  14-51.0879 168.247   1
  -2  -9   9 160.087 168.863   3
   2   9  -9 12.5010 157.822   2
  -2  -9   8 343.056 187.474   3
   2   9  -8 48.0196 145.256   2
  -2  -9   7 284.930 163.503   3
   2   9  -7 184.935 154.419   2
  -2  -9   6 1078.43 262.815   3
   2   9  -6 1325.88 281.189   2
  -2  -9   5 705.509 174.815   3
   2   9  -5 948.649 249.942   2
   2   9  -4 2426.06 340.274   2
  -2  -9   4 3001.08 317.163   3
  -2  -9   3 1054.60 207.773   3
  -2  -9   2 5434.64 492.656   4
  -2  -9   2 5958.40 425.726   3
  -2  -9   1 11327.3 715.903   4
  -2  -9   1 10152.4 530.955   3
  -2  -9   0 3217.22 379.822   4
  -2  -9   0 3346.76 306.235   3
  -2  -9  -1 558.519 136.480   3
  -2  -9  -1 547.593 187.671   4
   2   9   1 623.025 133.741   1
  -2  -9  -2-135.290 165.051   4
   2   9   2-1.91846 67.0656   1
   2   9   3 543.832 135.927   1
  -2  -9  -3 740.266 232.681   4
   2   9   4 336.613 111.185   1
  -2  -9  -4 475.304 220.646   4
   2   9   5 773.432 170.900   1
   2   9   6 587.661 157.618   1
   2   9   7 154.024 112.316   1
   2   9   8 489.582 158.182   1
   2   9   9 178.074 141.537   1
   2   9  10 58.1319 105.588   1
   2   9  11 610.953 218.223   1
   2   9  12 322.590 171.381   1
   2   9  13 41.4833 132.757   1
   2   9  14-118.158 150.635   1
  -2 -10   9 1520.59 318.962   3
  -2 -10   8 391.128 228.985   3
  -2 -10   7 636.790 210.049   3
   2  10  -7 232.383 178.204   2
  -2 -10   6 399.027 178.401   3
  -2 -10   5 307.119 138.386   3
  -2 -10   4 24.9719 115.174   3
  -2 -10   3 939.853 210.808   3
  -2 -10   3 630.754 216.746   4
  -2 -10   2 8540.86 655.749   4
  -2 -10   2 7701.37 520.157   3
  -2 -10   1 149.227 119.035   3
  -2 -10   1-295.512 216.930   4
  -2 -10   0 636.968 161.013   3
  -2 -10   0 429.012 190.666   4
  -2 -10  -1 73.3224 94.3194   3
  -2 -10  -1 92.2430 160.377   4
  -2 -10  -2 68.6567 173.361   4
  -2 -10  -2-57.0043 112.059   3
  -2 -10  -3 1026.56 289.209   4
  -2 -10  -4 1670.20 337.244   4
   2  10   6 624.993 165.052   1
   2  10   7 99.9075 118.921   1
   2  10   8 745.012 192.255   1
   2  10   9-81.6962 127.302   1
   2  10  10 210.056 125.216   1
   2  10  11 277.236 213.840   1
   2  10  12-245.213 170.286   1
   2  10  13-210.011 154.718   1
  -2 -11   4 62.8258 202.308   4
  -2 -11   3 501.028 165.200   3
  -2 -11   3 597.767 249.319   4
  -2 -11   2 120.024 115.089   3
  -2 -11   2 50.2845 164.862   4
  -2 -11   1-63.9031 195.011   4
  -2 -11   1 113.641 134.095   3
  -2 -11   0 952.575 217.522   3
  -2 -11   0 983.484 296.623   4
  -2 -11  -1 403.004 136.206   3
  -2 -11  -1 817.142 279.974   4
  -2 -11  -2 459.568 155.429   3
  -2 -11  -2 883.357 272.644   4
  -2 -11  -3 107.319 198.512   4
  -2 -11  -3-100.396 101.407   3
  -2 -11  -4 628.742 280.560   4
   3  -9   4 272.185 218.777   4
   3  -9   5 445.954 228.094   4
   3  -8   3 866.496 241.844   3
   3  -8   4-106.462 185.207   3
   3  -8   4 172.733 193.647   4
   3  -8   5 1880.61 353.061   3
   3  -8   5 1692.81 314.420   4
   3  -8   6-129.791 142.556   3
   3  -8   6 20.7672 168.415   4
   3  -8   7 473.499 212.756   3
   3  -8   7 148.141 161.311   4
  -3   7  11 183.118 183.423   1
  -3   7  10-63.8897 135.890   1
  -3   7   9 307.664 207.943   1
  -3   7   8 117.500 163.115   1
  -3   7   7-129.345 110.873   1
  -3   7   6 256.693 146.371   1
  -3   7   5 391.541 135.487   1
  -3   7   4 480.765 157.970   1
  -3   7   3 98.5398 96.5504   1
   3  -7   3 92.6399 167.161   4
   3  -7   3 64.3147 150.592   3
   3  -7   4 591.189 186.726   3
   3  -7   4 795.328 234.670   4
   3  -7   5 4.42360 162.737   3
   3  -7   5 55.8955 176.533   4
   3  -7   6-82.9417 135.471   3
   3  -7   6 121.292 167.364   4
   3  -7   7 169.584 171.950   3
   3  -7   7 92.1369 140.557   4
   3  -7   8 316.613 164.332   4
   3  -7   8 276.146 195.924   3
   3  -7   9 484.909 247.572   3
   3  -7   9 25.1629 137.192   4
  -3   6  11 55.5991 134.687   1
  -3   6  10-55.4036 124.859   1
  -3   6   9 1238.27 257.963   1
  -3   6   8 135.665 137.142   1
  -3   6   7 56.7804 111.267   1
  -3   6   6 256.783 143.849   1
  -3   6   5 96.0587 92.4162   1
  -3   6   4 190.622 135.676   1
  -3   6   3 136.347 98.6032   1
  -3   6   2 66.0690 87.1727   1
  -3   6   1 7257.65 403.621   1
  -3   6   0 301.660 102.716   1
  -3   6  -1 781.133 134.354   1
   3  -6   3 532.598 191.283   4
   3  -6   4-51.4608 139.113   3
   3  -6   4 122.063 147.902   4
   3  -6   5 145.991 123.661   3
   3  -6   5 355.113 151.226   4
   3  -6   6 104.119 141.989   3
   3  -6   6 207.524 127.869   4
   3  -6   7 288.784 183.187   3
   3  -6   7 178.563 131.017   4
   3  -6   8 118.615 160.349   3
   3  -6   8-156.785 141.757   4
   3  -6   9 238.650 224.231   3
   3  -6   9-65.9842 135.970   4
   3  -6  10-84.8430 163.505   3
   3  -6  11 1744.85 359.689   3
  -3   5  12 53.0018 164.691   1
  -3   5  11 49.3036 175.338   1
  -3   5  10 1416.90 285.458   1
  -3   5   9 388.169 177.726   1
  -3   5   8-46.9398 108.154   1
  -3   5   7 480.216 190.139   1
  -3   5   6 785.691 190.399   1
  -3   5   5 33.0906 109.812   1
  -3   5   4 257.481 120.012   1
  -3   5   3 192.678 122.888   1
  -3   5   2 774.333 154.377   1
  -3   5   1 922.910 156.310   1
  -3   5   0 65.7969 74.6219   1
  -3   5  -1 1505.38 181.108   1
  -3   5  -2 41697.5 855.070   1
   3  -5   3 16559.9 655.642   4
  -3   5  -3 16273.9 521.137   1
  -3   5  -4 992.164 138.366   1
   3  -5   4 1223.76 201.675   4
   3  -5   4 937.618 209.999   3
   3  -5   5 788.557 206.115   3
   3  -5   5 763.733 171.665   4
  -3   5  -5 927.745 134.263   1
   3  -5   6-34.1039 135.287   3
  -3   5  -6 31.8968 65.0071   1
   3  -5   6-170.317 141.019   4
   3  -5   7 2380.03 342.504   3
   3  -5   7 2318.14 263.225   4
   3  -5   8 103.823 165.508   3
   3  -5   8 79.4181 113.250   4
   3  -5   9 233.866 160.691   3
   3  -5  10-106.403 184.589   3
   3  -5  11 645.129 224.381   3
   3  -5  12 285.731 224.113   3
   3  -5  13 215.521 194.343   3
  -3   4  13 37.7347 187.178   1
  -3   4  12 108.464 157.664   1
  -3   4  11 874.238 234.532   1
  -3   4  10 2152.40 343.569   1
  -3   4   9 533.563 159.699   1
  -3   4   8 90.6547 127.007   1
  -3   4   7 606.583 187.988   1
  -3   4   6 1059.54 209.924   1
  -3   4   5 253.908 131.923   1
  -3   4   4 84.3550 97.4042   1
  -3   4   3 1262.45 205.556   1
  -3   4   2 390.207 131.564   1
  -3   4   1 417.054 106.114   1
  -3   4   0 2106.09 218.111   1
  -3   4  -1 8385.86 413.902   1
  -3   4  -2 12414.1 453.321   1
  -3   4  -2 12816.2 486.729   1
  -3   4  -3 722.620 131.116   1
  -3   4  -3 798.715 134.240   1
   3  -4   3 1004.03 189.710   4
  -3   4  -4 406.289 91.5957   1
   3  -4   4 614.795 164.272   4
  -3   4  -4 408.518 103.304   1
   3  -4   4 593.010 167.121   3
   3  -4   5 310.701 155.506   3
  -3   4  -5 143.845 68.6193   1
  -3   4  -5 115.869 84.6729   1
   3  -4   5 35.4847 97.2383   4
   3  -4   6-63.1642 103.082   3
  -3   4  -6 98.1564 61.1855   1
   3  -4   6-131.969 126.357   4
  -3   4  -7 163.216 93.2689   1
   3  -4   7 156.435 125.913   3
   3  -4   7 81.2802 100.319   4
   3  -4   8 93.2825 148.992   3
   3  -4   8 154.189 91.9789   1
   3  -4   9 299.698 180.582   3
   3  -4   9 9.87648 78.1346   1
   3  -4  10 90.2400 129.366   3
   3  -4  10 170.267 118.882   1
   3  -4  11 182.266 169.206   3
   3  -4  12 69.3341 170.348   3
   3  -4  13 867.367 294.524   3
   3  -4  14 1076.50 329.451   3
  -3   3  13 33.1819 157.886   1
  -3   3  12 85.8276 163.553   1
  -3   3  11 1464.48 287.800   1
  -3   3  10 254.497 155.602   1
  -3   3   9-14.4672 113.580   1
  -3   3   8 707.507 194.166   1
  -3   3   7 88.1358 115.626   1
  -3   3   6 996.628 198.789   1
  -3   3   5 1661.94 238.082   1
  -3   3   4 1109.44 195.173   1
  -3   3   3 161.768 90.2778   1
  -3   3   2 150.139 100.679   1
  -3   3   1 156.489 95.1711   1
  -3   3   1 124.208 90.4210   4
  -3   3   0 71.3440 88.3282   1
  -3   3   0 17.3497 95.2586   4
  -3   3  -1 27.3605 76.0071   1
  -3   3  -2 25.3131 72.3036   1
  -3   3  -2 115.816 90.3543   1
  -3   3  -3 1411.09 166.216   1
  -3   3  -3 1553.17 181.991   1
   3  -3   4 24463.4 862.125   3
  -3   3  -4 25509.2 635.846   1
   3  -3   4 25212.7 623.886   4
  -3   3  -4 24721.9 712.743   1
  -3   3  -5 29518.4 690.861   1
   3  -3   5 29612.6 673.707   4
  -3   3  -5 29884.9 763.329   1
   3  -3   5 28375.3 949.649   3
   3  -3   6 1456.46 249.314   3
   3  -3   6 1848.55 209.881   1
  -3   3  -6 1616.61 175.464   1
   3  -3   6 1719.37 175.545   4
   3  -3   7 4140.42 300.657   1
   3  -3   7 3775.16 384.531   3
   3  -3   8 636.512 213.533   3
   3  -3   8 531.084 140.893   1
   3  -3   9 760.092 158.791   1
   3  -3   9 343.155 138.217   3
   3  -3  10-82.8829 82.6156   1
   3  -3  10-162.099 148.131   3
   3  -3  11 347.484 129.736   1
   3  -3  11 294.611 131.075   3
   3  -3  12 1145.35 197.158   1
   3  -3  12 1151.48 295.288   3
   3  -3  13 1100.54 201.298   1
   3  -3  13 1333.96 304.204   3
   3  -3  14 415.041 273.514   3
   3  -3  15 559.616 303.448   3
  -3   2  14 3.08499 165.197   1
  -3   2  13 5405.46 567.949   1
  -3   2  12 9736.90 726.439   1
  -3   2  11 268.871 162.920   1
  -3   2  10 91.4063 123.302   1
  -3   2   9 181.580 158.981   1
  -3   2   8 511.883 171.049   1
  -3   2   7 494.472 161.712   1
  -3   2   6 640.644 181.396   1
  -3   2   5 204.810 120.494   1
  -3   2   4 2968.05 301.394   1
  -3   2   3 375.704 132.045   1
  -3   2   2-85.7026 80.1568   1
  -3   2   1 409.213 130.990   1
  -3   2   1 239.154 115.585   4
  -3   2   0 775.758 138.919   1
  -3   2   0 885.277 116.596   4
  -3   2  -1 2017.29 223.801   1
  -3   2  -2 403.896 122.214   1
  -3   2  -2 325.060 113.923   1
  -3   2  -3 741.318 123.919   1
  -3   2  -3 534.857 134.460   1
  -3   2  -4 2331.56 210.181   1
   3  -2   4 2387.80 166.860   4
   3  -2   4 2003.46 241.990   3
  -3   2  -4 2012.83 226.248   1
   3  -2   5-41.5979 110.985   3
   3  -2   5-91.4855 84.0158   4
   3  -2   5 66.1700 87.1921   1
   3  -2   6 662.118 164.681   3
   3  -2   6 463.908 119.388   1
   3  -2   7 851.693 149.437   1
   3  -2   7 828.938 199.404   3
   3  -2   8 5491.73 361.260   1
   3  -2   8 5535.93 424.910   3
   3  -2   9 677.252 146.825   1
   3  -2   9 521.560 148.647   3
   3  -2  10 1005.20 185.700   1
   3  -2  10 519.240 160.162   3
   3  -2  11 334.388 124.779   1
   3  -2  11 294.110 135.789   3
   3  -2  12 813.775 192.200   1
   3  -2  12 677.494 239.384   3
   3  -2  13 164.775 115.722   1
   3  -2  13 498.953 231.017   3
   3  -2  14 14.1264 104.741   1
   3  -2  14 239.202 214.560   3
   3  -2  15-70.0297 126.631   1
   3  -2  16-35.7491 131.399   1
  -3   1  14 115.247 158.528   1
  -3   1  13-145.713 148.687   1
  -3   1  12 38.3633 125.567   1
  -3   1  11 208.097 165.987   1
  -3   1  10 764.087 217.974   1
  -3   1   9 408.061 149.001   1
  -3   1   8 5404.37 464.801   1
  -3   1   7 3443.54 348.468   1
  -3   1   6 2198.72 281.775   1
  -3   1   5 1271.32 202.241   1
  -3   1   4 33.3841 102.379   1
  -3   1   3-29.8072 94.8998   1
  -3   1   2 229.736 109.974   1
  -3   1   1 10889.3 516.064   1
  -3   1   0 1605.35 199.810   1
  -3   1   0 1973.47 155.842   4
  -3   1  -1 3356.12 165.134   4
  -3   1  -1 3430.93 282.562   1
  -3   1  -2 832.802 140.839   1
  -3   1  -2 860.795 145.247   1
  -3   1  -3 11803.0 459.986   1
  -3   1  -3 11520.4 497.730   1
   3  -1   4 7701.39 402.290   1
   3  -1   4 7701.62 410.002   3
   3  -1   5 5642.69 309.584   2
   3  -1   5 5586.91 355.157   1
   3  -1   5 5196.97 181.255   4
   3  -1   5 5542.38 364.037   3
   3  -1   6 6150.02 322.972   2
   3  -1   6 5795.31 365.715   1
   3  -1   6 5848.70 385.756   3
   3  -1   7 7304.38 415.814   1
   3  -1   7 7428.32 449.562   3
   3  -1   8 5031.30 353.398   1
   3  -1   8 5469.30 400.854   3
   3  -1   9 4484.85 350.306   1
   3  -1   9 4309.96 383.367   3
   3  -1  10 565.036 174.012   3
   3  -1  10 676.597 161.479   1
   3  -1  11 944.294 225.328   3
   3  -1  11 658.568 166.614   1
   3  -1  12 2562.73 298.924   1
   3  -1  12 2669.11 388.276   3
   3  -1  13 853.291 195.338   1
   3  -1  14 442.840 181.351   1
  -3   1 -14 466.839 154.578   2
   3  -1  15 52.9414 115.076   1
   3  -1  16 358.566 182.882   1
   3  -1  17 121.955 154.724   1
   3  -1  18-51.5251 136.920   1
  -3   0  14 542.484 213.521   1
  -3   0  13-94.3989 161.118   1
  -3   0  12 891.435 247.664   1
  -3   0  11 352.395 176.451   1
  -3   0  10 40154.5 1307.45   1
  -3   0   9 9505.51 617.890   1
  -3   0   8 319.557 162.019   1
  -3   0   7 1510.06 249.267   1
  -3   0   6-61.1948 107.725   1
  -3   0   5 8793.91 510.899   1
  -3   0   4 674.347 161.876   1
  -3   0   3 1165.73 187.116   1
  -3   0   2 13005.5 571.022   1
  -3   0   1 1889.01 228.646   1
  -3   0   0 2283.01 243.364   1
  -3   0  -1 139.048 94.4196   1
  -3   0  -2 10467.0 485.244   1
   3   0   3 2057.81 223.472   1
   3   0   3 2366.95 198.328   3
   3   0   4 5531.81 352.474   1
   3   0   4 5355.95 301.119   3
   3   0   5 4336.85 232.506   2
   3   0   5 4260.73 318.436   1
   3   0   5 4760.07 300.932   3
   3   0   6 520.595 130.979   1
   3   0   6 612.870 129.622   3
   3   0   6 604.920 101.448   2
   3   0   7 4093.58 325.760   1
   3   0   7 3944.96 306.477   3
   3   0   8 26.7578 100.599   3
   3   0   8-125.543 102.541   1
   3   0   9 2047.48 257.205   1
   3   0   9 1962.39 257.824   3
   3   0  10 4992.08 395.687   1
   3   0  10 5285.21 414.840   3
   3   0  11 9196.20 547.986   1
   3   0  11 8767.90 565.771   3
   3   0  12-60.1507 102.081   1
  -3   0 -12 26.4744 71.6363   2
   3   0  13-27.3682 124.012   1
  -3   0 -13-89.0757 82.8216   2
   3   0  14 987.936 219.575   1
  -3   0 -14 1199.58 210.728   2
   3   0  15 106.847 119.934   1
   3   0  16-24.6859 125.142   1
   3   0  17 104.414 140.478   1
   3   0  18 429.545 180.763   1
  -3  -1  15 698.937 257.651   1
  -3  -1  14 180.176 168.000   1
  -3  -1  13 252.953 179.524   1
  -3  -1  12 1866.89 331.198   1
  -3  -1  11 2080.36 337.645   1
  -3  -1  10 2588.48 342.143   1
  -3  -1   9 1162.88 232.042   1
  -3  -1   8 303.728 164.460   1
  -3  -1   7 115.540 122.075   1
  -3  -1   6 11662.4 605.648   1
  -3  -1   5 1600.55 224.452   1
  -3  -1   4 791.469 167.670   1
  -3  -1   3 390.036 134.160   1
  -3  -1   2 35.8113 81.4503   1
  -3  -1   1 774.193 147.557   1
  -3  -1   0 7093.10 411.838   1
  -3  -1  -1 15035.6 582.565   1
   3   1   2 2243.95 235.390   1
   3   1   3 2586.93 243.970   1
   3   1   3 2638.83 172.099   3
   3   1   4 103.578 103.801   1
   3   1   4 106.610 61.8533   3
   3   1   5 964.889 172.018   1
   3   1   5 612.423 81.7132   3
   3   1   5 870.368 84.6907   2
   3   1   6 26641.0 798.310   1
   3   1   6 25518.5 378.536   4
   3   1   6 27072.9 665.440   3
  -3  -1  -7 107.390 72.9332   3
   3   1   7 76.5970 104.268   1
   3   1   7 294.600 109.996   3
   3   1   8 37.0163 81.4378   1
   3   1   8 291.796 150.888   3
   3   1   9 2236.22 263.540   1
   3   1  10 15903.6 708.197   1
  -3  -1 -11 4760.57 269.944   2
   3   1  11 5053.82 420.732   1
   3   1  12 181.226 128.543   1
  -3  -1 -12-81.2323 76.5509   2
   3   1  13 266.901 153.340   1
  -3  -1 -13 212.600 91.4380   2
   3   1  14 1927.90 313.956   1
   3   1  15-119.761 137.620   1
   3   1  16 196.729 169.235   1
   3   1  17 358.580 238.865   1
   3   1  18 323.127 210.639   1
  -3  -2  15 39.5228 167.864   1
  -3  -2  14-166.388 158.688   1
  -3  -2  13 328.317 192.081   1
  -3  -2  12-34.7920 122.637   1
  -3  -2  11 34.9864 133.537   1
  -3  -2  10 820.432 215.625   1
  -3  -2   9 6143.35 488.058   1
  -3  -2   8 23413.1 906.869   1
  -3  -2   7 9997.00 568.761   1
  -3  -2   6 2703.96 300.886   1
  -3  -2   5 1173.83 203.513   1
  -3  -2   4 19.6752 88.7827   1
  -3  -2   3 572.456 139.307   1
  -3  -2   2 4697.46 346.294   1
  -3  -2   1 5887.63 375.366   1
  -3  -2   0 1029.96 172.715   1
  -3  -2  -1 5275.00 360.031   1
   3   2   2 1627.25 203.651   1
   3   2   2 1629.47 94.9092   3
   3   2   3 1448.42 194.595   1
   3   2   3 1375.38 92.4384   3
   3   2   4 3826.04 306.234   1
   3   2   4 3564.03 174.463   3
   3   2   5 956.178 165.160   1
   3   2   5 991.488 121.543   3
   3   2   6 11066.3 527.839   1
   3   2   6 11796.8 303.238   4
  -3  -2  -6 11435.8 385.944   3
   3   2   7 2104.09 246.723   1
   3   2   7 2793.99 181.440   4
  -3  -2  -7 2369.59 197.795   3
  -3  -2  -8-8.96062 67.2320   3
   3   2   8 96.8900 107.394   1
   3   2   9 1010.39 203.859   1
   3   2  10 1415.37 233.474   1
  -3  -2 -11 2171.05 156.953   2
   3   2  11 2659.53 320.565   1
   3   2  12 903.174 214.961   1
  -3  -2 -12 864.809 121.004   2
   3   2  13 569.497 201.764   1
   3   2  14 820.853 232.979   1
   3   2  15 169.783 154.561   1
   3   2  16 694.422 223.078   1
   3   2  17-118.827 153.556   1
  -3  -3  15 91.5362 186.746   1
  -3  -3  14 103.091 146.463   1
  -3  -3  13 487.623 192.617   1
  -3  -3  12 421.944 187.006   1
  -3  -3  11 1851.51 314.885   1
  -3  -3  10 254.818 144.648   1
  -3  -3   9 150.426 137.057   1
  -3  -3   8 10456.2 598.471   1
  -3  -3   7 773.466 170.855   1
  -3  -3   6 400.172 132.441   1
  -3  -3   5 533.021 145.528   1
   3   3  -5 491.600 124.280   3
   3   3  -4 207.666 104.577   3
  -3  -3   4-56.6791 84.3743   1
  -3  -3   3 3967.59 327.503   1
   3   3  -3 3828.85 225.182   3
  -3  -3   2 2237.53 251.491   1
   3   3  -2 2264.84 156.497   3
  -3  -3   1 3530.00 303.022   1
   3   3  -1 3328.82 150.939   3
  -3  -3   0 23328.0 739.713   1
   3   3   0 23113.2 284.317   3
   3   3   1 2407.57 248.312   1
   3   3   2 1843.17 217.874   1
   3   3   3-6.99627 77.3530   1
  -3  -3  -3 78.8937 61.6479   4
   3   3   4 551.957 131.656   1
  -3  -3  -5-39.0845 42.6297   3
   3   3   5 49.2363 83.3232   1
  -3  -3  -6 987.675 111.207   3
   3   3   6 1084.50 177.011   1
   3   3   6 1079.92 121.260   4
   3   3   7 2328.84 263.509   1
   3   3   7 2161.56 179.347   4
  -3  -3  -7 2544.68 196.575   3
  -3  -3  -8 1103.75 160.804   3
   3   3   8 981.871 197.109   1
   3   3   8 1169.72 173.364   4
   3   3   9 215.855 140.617   1
   3   3   9 216.225 119.189   4
   3   3  10-10.1629 107.502   1
   3   3  11 39.6462 107.256   1
  -3  -3 -11 115.795 46.2163   2
   3   3  12 44000.5 1347.71   1
   3   3  13 876.472 231.116   1
   3   3  14 61.2456 152.131   1
   3   3  15-80.6372 128.949   1
   3   3  16 178.090 155.899   1
   3   3  17 67.4443 168.692   1
  -3  -4  15 731.857 238.967   1
  -3  -4  14 504.304 219.850   1
  -3  -4  13 355.002 159.366   1
  -3  -4  12 1772.23 292.921   1
  -3  -4  11 3003.51 359.010   1
  -3  -4  10 1817.60 281.466   1
  -3  -4   9 95.6606 122.422   1
  -3  -4   8 5994.46 452.127   1
  -3  -4   7 3231.51 319.685   1
  -3  -4   6 1912.75 254.431   1
  -3  -4   5 6322.68 424.480   1
   3   4  -5 6025.77 338.543   3
   3   4  -4 757.976 122.642   3
  -3  -4   4 766.486 164.314   1
   3   4  -3 93.4861 77.8528   3
  -3  -4   3 46.5240 102.761   1
   3   4  -2 730.477 96.0234   3
  -3  -4   2 875.941 177.260   1
  -3  -4   1 13497.4 578.673   1
   3   4  -1 13032.0 286.917   3
  -3  -4   0 4745.41 351.898   1
   3   4   1 2011.17 228.731   1
   3   4   2 8943.84 301.900   2
   3   4   2 9310.06 470.945   1
  -3  -4  -2 8968.42 361.066   4
   3   4   3 27624.7 448.515   2
   3   4   3 27904.6 826.057   1
  -3  -4  -3 27155.0 635.177   4
   3   4   4 63.6316 79.1829   1
  -3  -4  -4 180.263 106.338   4
   3   4   5 830.702 164.182   1
  -3  -4  -5 1004.22 88.6224   3
  -3  -4  -6 822.015 96.9962   3
   3   4   6 1055.97 184.350   1
  -3  -4  -7 1341.72 134.933   3
   3   4   7 1426.35 214.540   1
   3   4   7 1306.28 161.702   4
  -3  -4  -8-60.8342 99.1729   3
   3   4   8 69.4345 104.670   1
   3   4   8-115.444 108.381   4
   3   4   9 105.274 116.449   1
   3   4  10 30.1102 118.544   1
   3   4  11 4040.31 421.055   1
   3   4  12 2143.49 330.470   1
   3   4  13 1154.42 258.291   1
   3   4  14 631.522 212.756   1
   3   4  15 966.724 261.332   1
   3   4  16 484.609 212.415   1
   3   4  17-123.368 182.803   1
  -3  -5  14 756.794 194.703   1
  -3  -5  13 69.2283 131.623   1
  -3  -5  12 1033.81 242.520   1
  -3  -5  11 487.140 175.340   1
  -3  -5  10 55.0232 113.944   1
  -3  -5   9 215.628 136.331   1
  -3  -5   8 1314.44 222.492   1
  -3  -5   7-108.317 112.093   1
  -3  -5   6 7849.17 473.032   1
  -3  -5   5 7645.39 458.282   1
   3   5  -4 503.289 106.692   3
  -3  -5   4 460.212 139.758   1
  -3  -5   3 4434.85 347.081   1
   3   5  -3 4212.49 244.034   3
  -3  -5   2 843.364 167.171   1
  -3  -5   1 10019.9 506.707   1
   3   5   0 2.59466 86.8718   2
  -3  -5   0 73.4562 85.2818   1
   3   5   1 194.535 81.9075   2
   3   5   1 236.337 120.561   1
   3   5   2 5436.31 268.294   2
   3   5   2 4953.76 358.254   1
  -3  -5  -2 5462.35 329.592   4
   3   5   3 5003.70 356.028   1
  -3  -5  -3 4673.51 305.687   4
   3   5   4 69.2067 100.389   1
  -3  -5  -4 72.9797 31.9465   3
  -3  -5  -4 103.956 106.219   4
   3   5   5 1387.17 208.937   1
  -3  -5  -5 1664.49 121.944   3
   3   5   6 2144.20 257.476   1
  -3  -5  -6 2488.37 175.200   3
  -3  -5  -7 254.466 111.643   3
   3   5   7 220.633 143.106   1
   3   5   8 1679.97 252.715   1
  -3  -5  -8 2189.59 209.213   3
   3   5   9 3293.78 354.044   1
   3   5  10 1055.75 234.243   1
   3   5  11 1872.29 297.791   1
   3   5  12-76.3851 147.281   1
   3   5  13 1049.93 258.174   1
   3   5  14 10065.4 725.431   1
   3   5  15 13665.7 872.351   1
   3   5  16 467.149 230.857   1
  -3  -6  11 3752.09 373.835   1
  -3  -6  10 2426.00 299.091   1
  -3  -6   9 1260.52 221.715   1
  -3  -6   8 367.948 134.813   1
  -3  -6   7 228.005 117.299   1
  -3  -6   6 2135.59 248.438   1
  -3  -6   5 66.4019 74.9554   1
  -3  -6   4 888.589 159.267   1
   3   6  -3 8310.40 496.164   2
  -3  -6   3 9620.07 484.458   1
   3   6  -2 7534.72 454.385   2
  -3  -6   2 7574.87 436.822   1
   3   6  -1 396.569 123.430   2
  -3  -6   1 532.825 139.883   1
   3   6   0 1465.89 198.789   2
  -3  -6   0 1326.78 204.801   1
  -3  -6   0 1723.50 131.207   3
  -3  -6  -1 788.439 77.2036   3
   3   6   1 645.120 128.355   2
   3   6   1 832.682 153.390   1
   3   6   2 5987.44 327.725   2
   3   6   2 6571.98 411.794   1
  -3  -6  -2 5839.29 378.307   4
  -3  -6  -2 6059.46 189.785   3
  -3  -6  -3 151.310 39.9091   3
   3   6   3 57.5673 89.3111   1
  -3  -6  -3 176.152 117.885   4
   3   6   4 2292.71 257.682   1
  -3  -6  -4 2116.16 251.759   4
   3   6   5 3828.03 349.243   1
  -3  -6  -5 4035.45 347.008   4
   3   6   6 127.736 102.133   1
   3   6   7 648.649 171.280   1
   3   6   8-27.8781 103.572   1
   3   6   9 167.362 123.332   1
   3   6  10 26.4100 109.733   1
   3   6  11 329.899 153.933   1
   3   6  12 1216.16 268.644   1
   3   6  13 167.986 150.955   1
   3   6  14 943.861 233.246   1
   3   6  15 1047.77 286.249   1
   3   6  16 1173.32 324.191   1
   3   7 -11 2004.99 375.919   2
   3   7 -10 392.502 213.461   2
   3   7  -9 217.958 170.447   2
  -3  -7   9 563.458 152.708   1
   3   7  -8 574.139 222.600   2
  -3  -7   8 643.202 172.354   1
   3   7  -7 403.594 180.690   2
  -3  -7   7 567.398 150.492   1
   3   7  -6-121.904 133.142   2
  -3  -7   6-21.0737 88.5919   1
   3   7  -5 134.348 122.188   2
  -3  -7   5 119.667 81.9236   1
  -3  -7   4 845.523 161.245   1
   3   7  -4 740.016 192.982   2
   3   7  -3 1073.69 206.379   2
  -3  -7   3 1189.78 176.474   1
   3   7  -2 4113.64 370.598   2
  -3  -7   2 4743.36 332.789   1
  -3  -7   2 4949.67 294.819   3
   3   7  -1 8647.80 492.812   2
  -3  -7   1 9439.59 480.367   1
  -3  -7   1 9968.24 378.179   3
  -3  -7   0 517.639 142.739   1
  -3  -7   0 766.713 105.705   3
   3   7   0 500.067 141.567   2
   3   7   1 5179.41 354.611   2
   3   7   1 5828.88 383.215   1
  -3  -7  -1 4895.74 392.112   4
  -3  -7  -1 5748.49 249.198   3
   3   7   2 2842.46 287.775   1
  -3  -7  -2 2626.05 286.109   4
  -3  -7  -2 2775.24 174.389   3
   3   7   3 1570.60 212.373   1
  -3  -7  -3 1256.20 213.127   4
  -3  -7  -3 1278.94 120.957   3
  -3  -7  -4 378.716 184.335   4
   3   7   4 157.157 114.938   1
   3   7   5 134.986 120.393   1
  -3  -7  -5 490.114 187.085   4
   3   7   6-91.9157 115.551   1
   3   7   7 779.404 191.574   1
   3   7   8 61.7507 107.669   1
   3   7   9 1346.65 253.342   1
   3   7  10 1408.17 270.928   1
   3   7  11 2425.83 336.366   1
   3   7  12 617.799 212.419   1
   3   7  13 893.095 263.997   1
   3   7  14 143.187 156.109   1
   3   7  15 247.559 176.793   1
   3   8 -10 1111.21 288.451   2
   3   8  -9 111.426 144.580   2
   3   8  -8 638.767 225.151   2
   3   8  -7 103.919 158.794   2
   3   8  -6 279.961 162.845   2
   3   8  -5 682.411 210.231   2
  -3  -8   5 530.285 131.972   1
  -3  -8   4-22.0859 78.9821   1
  -3  -8   4 281.349 156.497   3
   3   8  -4 210.754 144.812   2
  -3  -8   3 167.528 116.358   3
   3   8  -3 112.025 119.580   2
  -3  -8   3-67.8324 76.1003   1
  -3  -8   2 1516.62 207.213   1
  -3  -8   2 1494.81 185.474   3
   3   8  -2 1032.17 205.163   2
  -3  -8   1 484.249 108.600   3
   3   8  -1 359.631 139.172   2
  -3  -8   1 512.222 136.148   1
  -3  -8   0 36073.8 1137.54   4
  -3  -8   0 38510.3 981.107   1
  -3  -8   0 38683.5 798.652   3
   3   8   1 1716.64 226.912   1
  -3  -8  -1 1403.84 243.388   4
  -3  -8  -1 1716.31 172.754   3
   3   8   2 2521.05 273.223   1
  -3  -8  -2 2760.16 323.844   4
  -3  -8  -2 2831.22 205.927   3
   3   8   3 548.568 131.665   1
  -3  -8  -3 474.253 95.0101   3
  -3  -8  -3 466.486 169.398   4
   3   8   4 1371.38 221.789   1
  -3  -8  -4 1429.41 259.496   4
   3   8   5 791.865 182.987   1
  -3  -8  -5 691.016 230.396   4
   3   8   6 228.022 130.880   1
   3   8   7 59.0099 111.956   1
   3   8   8-22.6033 105.942   1
   3   8   9 323.148 155.219   1
   3   8  10-103.291 126.873   1
   3   8  11 242.944 150.618   1
   3   8  12 2027.22 333.366   1
   3   8  13-6.26299 135.077   1
   3   8  14 483.357 226.120   1
   3   9  -8 202.268 220.257   2
   3   9  -7 22.1242 169.275   2
   3   9  -6 226.496 184.783   2
  -3  -9   5 377.979 171.352   3
   3   9  -5 347.378 195.907   2
  -3  -9   4 1249.88 221.855   3
   3   9  -4 678.025 210.642   2
  -3  -9   3 101.515 121.330   3
   3   9  -3-32.2663 128.749   2
  -3  -9   2-68.8700 92.8462   3
   3   9  -2 15.1280 119.457   2
  -3  -9   1-64.8678 158.092   4
  -3  -9   1 144.092 84.2416   3
  -3  -9   1 204.676 100.852   1
  -3  -9   0 117.876 104.897   1
  -3  -9   0 79.8611 75.8720   3
  -3  -9  -1 414.125 126.925   3
  -3  -9  -1 351.736 135.404   1
  -3  -9  -1 1.13221 170.999   4
   3   9   2 4611.47 355.935   1
  -3  -9  -2 4428.55 436.027   4
  -3  -9  -2 4616.44 296.603   3
   3   9   3 12617.3 597.364   1
  -3  -9  -3 12068.3 707.539   4
   3   9   4 675.646 168.973   1
  -3  -9  -4 861.414 226.861   4
   3   9   5 668.990 160.660   1
  -3  -9  -5 926.824 261.745   4
   3   9   6 103.675 118.745   1
   3   9   7 8.74031 110.218   1
   3   9   8 202.472 127.635   1
   3   9   9-84.2878 134.070   1
   3   9  10 671.768 218.813   1
   3   9  11 838.959 256.980   1
   3   9  12 713.896 242.656   1
   3   9  13 219.833 171.873   1
   3  10  -7 13.0215 146.038   2
   3  10  -6 619.827 227.130   2
   3  10  -5 46.6728 161.967   2
   3  10  -4 219.995 162.556   2
  -3 -10   2 115.005 148.512   4
  -3 -10   1 505.985 197.168   4
  -3 -10   0 54.7061 177.595   4
  -3 -10  -1 44.3526 139.235   4
  -3 -10  -2 7389.52 603.442   4
  -3 -10  -3 11238.7 736.053   4
   3  10   4 2230.96 280.219   1
  -3 -10  -4 2551.12 384.334   4
   3  10   5-14.3171 92.3107   1
  -3 -10  -5 559.741 233.068   4
   3  10   6 367.369 148.096   1
   3  10   7 1366.31 239.848   1
   3  10   8 154.780 134.133   1
   3  10   9 147.396 133.895   1
   3  10  10 315.780 153.549   1
   3  10  11 1083.60 255.127   1
   3  10  12 198.210 203.223   1
  -3 -11   3 498.100 213.643   4
  -3 -11   2 66.3684 190.051   4
  -3 -11   1 186.714 212.646   4
  -3 -11   0 2836.70 427.983   4
  -3 -11  -1 3792.94 474.509   4
  -3 -11  -2 462.494 237.279   4
  -3 -11  -3 329.140 251.450   4
  -3 -11  -4 1566.83 351.576   4
   4  -7   3 95.5664 140.675   3
   4  -7   4 6905.48 634.788   3
   4  -7   5 3154.32 442.801   3
   4  -7   6 370.754 227.899   3
  -4   6   9 482.805 211.561   1
  -4   6   8 45.7094 129.657   1
  -4   6   7-199.362 139.992   1
  -4   6   6 75.0258 136.238   1
  -4   6   5 311.109 153.867   1
  -4   6   4 319.895 167.760   1
  -4   6   3 49.3572 130.864   1
  -4   6   2 219.732 125.592   1
  -4   6   1 1113.99 189.852   1
   4  -6   4 1801.56 321.168   3
   4  -6   5-167.934 129.257   3
   4  -6   6 488.642 193.792   3
   4  -6   7 515.064 245.492   3
   4  -6   8 544.203 254.919   3
   4  -6   9 175.929 193.776   3
  -4   5  10 497.617 214.000   1
  -4   5   9-168.071 158.519   1
  -4   5   8 99.3450 122.585   1
  -4   5   7 412.094 169.040   1
  -4   5   6 244.609 144.857   1
  -4   5   5 2432.06 324.923   1
  -4   5   4 131.538 125.638   1
  -4   5   3 318.968 152.134   1
  -4   5   2-72.7107 100.429   1
  -4   5   1 32.9477 84.9159   1
  -4   5   0 501.382 139.003   1
  -4   5  -1 193.760 106.250   1
  -4   5  -2-5.28839 86.9649   1
  -4   5  -3 2474.23 254.360   1
   4  -5   4 1010.28 230.725   3
   4  -5   5 1054.09 251.053   3
   4  -5   6 3621.56 435.449   3
   4  -5   7 461.396 198.879   3
   4  -5   8 841.384 239.432   3
   4  -5   9 660.284 257.496   3
   4  -5  10 179.793 184.109   3
   4  -5  11 486.553 228.364   3
  -4   4  11 280.404 203.864   1
  -4   4  10 1838.58 357.946   1
  -4   4   9 152.509 176.398   1
  -4   4   8-113.213 145.808   1
  -4   4   7 108.228 133.306   1
  -4   4   6 715.340 198.495   1
  -4   4   5 878.726 209.919   1
  -4   4   4 177.817 135.259   1
  -4   4   3 90.0459 111.944   1
  -4   4   2-50.6778 98.6234   1
  -4   4   1 232.429 140.424   1
  -4   4   0 283.378 112.793   1
  -4   4  -1 203.618 102.924   1
  -4   4  -2 1220.36 189.731   1
  -4   4  -3 244.161 111.099   1
  -4   4  -4 636.149 156.959   1
   4  -4   4 368.362 147.834   3
   4  -4   5 815.073 194.691   3
  -4   4  -5 1423.19 201.198   1
   4  -4   6 18907.1 603.478   4
  -4   4  -6 17904.4 685.547   1
   4  -4   6 15946.5 822.785   3
  -4   4  -7 13210.1 587.167   1
   4  -4   7 12711.8 738.906   3
   4  -4   8 1408.71 296.622   3
   4  -4   9 437.763 217.954   3
   4  -4  10-38.5094 175.439   3
   4  -4  11 543.284 192.693   3
   4  -4  12-47.2407 187.574   3
   4  -4  13 99.8579 164.866   3
  -4   3  11 2812.55 432.680   1
  -4   3  10 580.529 215.907   1
  -4   3   9 165.488 169.346   1
  -4   3   8 222.064 155.301   1
  -4   3   7 469.401 177.550   1
  -4   3   6 5680.20 501.013   1
  -4   3   5 919.300 219.126   1
  -4   3   4 354.225 157.199   1
  -4   3   3 834.422 182.586   1
  -4   3   2 1243.69 222.023   1
  -4   3   1 322.067 118.126   1
  -4   3   0-23.9315 88.8881   1
  -4   3  -1 1501.67 213.759   1
  -4   3  -2 165.032 119.961   1
  -4   3  -3 141.870 94.6304   1
  -4   3  -4 61.5238 85.0692   1
   4  -3   4-51.5622 115.342   3
  -4   3  -5 2411.73 264.809   1
   4  -3   5 2741.38 324.770   3
  -4   3  -6 18267.4 699.716   1
   4  -3   6 15881.8 773.290   3
   4  -3   7 428.590 168.380   3
  -4   3  -7 442.803 139.385   1
   4  -3   7 455.879 104.398   4
   4  -3   8 1449.21 267.632   3
   4  -3   8 1377.70 224.607   1
   4  -3   9 155.617 171.719   3
   4  -3   9 9.19931 90.5064   1
   4  -3  10-66.6365 178.542   3
   4  -3  10 30.4973 90.5196   1
   4  -3  11 244.438 147.830   3
   4  -3  11 463.551 155.617   1
   4  -3  12 43.9608 154.085   3
   4  -3  13 218.509 178.471   3
   4  -3  14 205.387 255.262   3
  -4   2  12 659.099 269.050   1
  -4   2  11 3060.84 439.231   1
  -4   2  10 84.1014 132.692   1
  -4   2   9 151.469 146.810   1
  -4   2   8 919.255 245.098   1
  -4   2   7 1720.94 298.487   1
  -4   2   6 473.781 160.927   1
  -4   2   5 801.133 201.738   1
  -4   2   4 224.404 136.558   1
  -4   2   3 4207.21 393.750   1
  -4   2   2-13.1086 109.569   1
  -4   2   1 68.2717 116.159   1
  -4   2   1-12.2451 78.0596   4
  -4   2   0 99.4144 115.410   1
  -4   2   0-29.8071 94.0656   4
  -4   2  -1 289.025 145.845   1
  -4   2  -2-133.064 115.205   1
  -4   2  -3 166.703 100.941   1
   4  -2   4 492.159 138.275   3
  -4   2  -4 1099.63 183.792   1
   4  -2   5 74.3010 106.743   3
  -4   2  -5 208.618 132.647   1
  -4   2  -6 3239.40 317.648   1
   4  -2   6 3190.81 331.555   3
   4  -2   7 423.430 166.428   3
   4  -2   7 260.915 74.7352   4
   4  -2   7 310.674 118.144   1
   4  -2   8 6020.40 427.090   1
   4  -2   8 5553.76 456.861   3
   4  -2   9 28199.3 925.164   1
   4  -2   9 26326.8 1006.53   3
   4  -2  10 286.937 140.281   1
   4  -2  10 118.668 156.511   3
   4  -2  11 580.826 169.152   1
   4  -2  11 502.112 196.991   3
   4  -2  12-86.0563 102.331   1
   4  -2  12 216.274 204.438   3
   4  -2  13 95.3287 117.053   1
   4  -2  13 380.593 238.515   3
   4  -2  14 402.728 172.526   1
   4  -2  14 305.760 245.943   3
   4  -2  15 846.264 307.567   3
  -4   1  12 658.497 229.281   1
  -4   1  11-21.2553 128.298   1
  -4   1  10 0.23745 136.521   1
  -4   1   9 2794.48 388.692   1
  -4   1   8 15956.3 859.963   1
  -4   1   7 461.438 175.371   1
  -4   1   6 227.242 144.107   1
  -4   1   5 410.630 158.562   1
  -4   1   4 993.605 209.591   1
  -4   1   3 50.4081 116.628   1
  -4   1   2 198.880 128.232   1
  -4   1   1 664.720 175.222   1
  -4   1   0 5595.61 266.452   4
  -4   1   0 6383.61 449.478   1
  -4   1  -1 577.118 160.507   1
  -4   1  -1 401.025 71.5948   4
  -4   1  -2 40.4325 102.275   1
  -4   1  -3 475.906 151.068   1
  -4   1  -4 2461.38 275.401   1
   4  -1   4 2203.79 245.737   3
   4  -1   5 584.924 137.396   3
   4  -1   5 757.685 180.654   1
   4  -1   6 724.617 178.542   3
   4  -1   6 638.006 163.009   1
   4  -1   7 327.015 138.999   3
   4  -1   7 444.974 153.803   1
   4  -1   8 3280.02 333.640   1
   4  -1   8 2517.68 144.857   4
   4  -1   8 3064.53 310.991   3
   4  -1   9 988.150 194.190   1
   4  -1   9 820.656 173.522   3
   4  -1  10 273.785 143.597   1
   4  -1  10 12.8791 121.691   3
   4  -1  11 333.632 148.743   1
   4  -1  11 292.112 147.547   3
   4  -1  12 853.959 200.029   1
   4  -1  12 1095.53 293.616   3
   4  -1  13 241.477 143.980   1
   4  -1  13 527.068 221.240   3
   4  -1  14 158.512 129.928   1
   4  -1  15-82.3164 154.904   1
   4  -1  16 264.193 167.470   1
   4  -1  17 53.2457 152.029   1
  -4   0  12-51.1647 155.487   1
  -4   0  11 62.9488 162.683   1
  -4   0  10 288.878 172.057   1
  -4   0   9 233.925 182.534   1
  -4   0   8 45.7300 137.212   1
  -4   0   7 14.6983 116.618   1
  -4   0   6 2108.81 300.097   1
  -4   0   5 5936.80 484.344   1
  -4   0   4-15.1982 109.701   1
  -4   0   3 142.766 124.919   1
  -4   0   2 73.1098 145.891   1
  -4   0   1-8.98879 103.956   1
  -4   0   0 43.8752 92.3169   1
  -4   0  -1 195.323 115.242   1
  -4   0  -1 156.598 56.0383   4
  -4   0  -2-110.218 117.650   1
  -4   0  -3 1469.52 217.665   1
   4   0   3 1130.44 161.389   3
   4   0   4 84.8259 81.6046   3
   4   0   4 231.723 135.755   1
   4   0   5 299.878 110.126   3
   4   0   5 285.290 128.684   1
   4   0   6 3823.13 240.912   2
   4   0   6 3753.16 348.973   1
   4   0   6 3826.15 312.107   3
   4   0   7 16965.5 499.046   2
   4   0   7 16965.4 727.205   1
   4   0   7 16477.2 648.854   3
   4   0   8-30.9672 99.7510   1
   4   0   8 9.59167 123.431   3
   4   0   9 35.6988 85.7977   1
   4   0   9 92.5071 102.021   3
   4   0  10 318.086 131.119   1
   4   0  10 393.903 173.310   3
   4   0  11 5537.33 448.240   1
   4   0  11 6014.84 469.438   3
   4   0  12 2082.50 300.751   1
   4   0  12 2431.44 347.226   3
   4   0  13 1245.89 240.246   1
   4   0  14 83.8202 134.653   1
   4   0  15 437.863 177.850   1
   4   0  16-149.720 138.805   1
   4   0  17-106.904 139.384   1
  -4  -1  13 388.217 239.056   1
  -4  -1  12 62.2879 127.317   1
  -4  -1  11 690.136 255.412   1
  -4  -1  10-9.10060 127.017   1
  -4  -1   9 132.020 136.992   1
  -4  -1   8-154.176 144.231   1
  -4  -1   7 181.170 138.847   1
  -4  -1   6 49574.2 1397.42   1
  -4  -1   5 17442.0 813.422   1
  -4  -1   4 1474.47 248.086   1
  -4  -1   3 1426.16 246.058   1
  -4  -1   2 5117.56 424.480   1
  -4  -1   1 777.383 183.267   1
  -4  -1   0 102.746 117.085   1
  -4  -1  -1 588.360 160.201   1
  -4  -1  -2 1888.17 254.907   1
   4   1   3 845.728 116.117   3
  -4  -1  -3 980.850 200.961   1
   4   1   4 453.689 103.585   3
   4   1   4 495.613 174.045   1
   4   1   5 1418.76 181.352   3
   4   1   5 1293.17 219.222   1
   4   1   6 6171.90 258.450   2
   4   1   6 6339.14 453.997   1
   4   1   6 6116.25 345.713   3
   4   1   7 1948.66 258.348   1
   4   1   7 1760.93 207.457   3
   4   1   8 463.378 152.360   1
   4   1   8 515.661 158.270   3
   4   1   9 38.7337 107.385   1
   4   1   9 322.829 158.294   3
   4   1  10 1738.34 263.409   1
   4   1  10 2168.55 291.652   3
   4   1  11-44.9009 104.060   1
   4   1  12 278.250 152.307   1
   4   1  13 814.440 203.895   1
   4   1  14 1891.59 307.432   1
   4   1  15 2260.06 353.219   1
   4   1  16 620.176 194.830   1
   4   1  17-51.7043 122.129   1
  -4  -2  13 171.542 181.875   1
  -4  -2  12 139.668 165.393   1
  -4  -2  11 599.694 214.230   1
  -4  -2  10 295.751 179.331   1
  -4  -2   9 48.6333 126.566   1
  -4  -2   8 94.8923 133.892   1
  -4  -2   7 369.826 181.153   1
  -4  -2   6 2425.11 321.421   1
  -4  -2   5 692.219 194.359   1
  -4  -2   4 3759.49 375.532   1
  -4  -2   3 3773.03 373.976   1
  -4  -2   2 12257.1 642.899   1
  -4  -2   1 2016.27 270.315   1
  -4  -2   0 2718.76 301.857   1
  -4  -2  -1 1088.39 204.889   1
  -4  -2  -2 815.450 190.085   1
   4   2   2 864.031 96.7057   3
   4   2   3 1449.58 123.556   3
   4   2   3 1373.95 233.556   1
   4   2   4 1377.59 123.164   3
   4   2   4 1754.54 252.207   1
   4   2   5 875.518 117.837   3
   4   2   5 1182.29 225.925   1
   4   2   6 8380.08 523.157   1
   4   2   6 8249.47 354.300   3
   4   2   7 2373.64 289.096   1
   4   2   7 2680.51 237.579   3
   4   2   8 3290.61 347.037   1
   4   2   9 2892.04 333.658   1
   4   2  10 8547.79 568.670   1
   4   2  11-110.686 128.958   1
   4   2  12 28.3239 130.210   1
   4   2  13 696.798 208.405   1
   4   2  14 3295.52 406.942   1
   4   2  15 387.647 175.483   1
   4   2  16 801.841 228.111   1
   4   2  17 1781.68 341.913   1
  -4  -3  13 353.361 179.552   1
  -4  -3  12 88.7323 162.210   1
  -4  -3  11 378.939 194.751   1
  -4  -3  10 1068.90 241.938   1
  -4  -3   9 922.924 231.446   1
  -4  -3   8 90.3935 119.046   1
  -4  -3   7 89.6086 116.407   1
  -4  -3   6 330.752 148.962   1
  -4  -3   5 116.907 106.780   1
  -4  -3   4 6151.51 474.809   1
   4   3  -4 6320.43 337.968   3
  -4  -3   3 45408.5 1253.92   1
  -4  -3   2 28.9383 100.335   1
  -4  -3   1 84.8269 128.472   1
  -4  -3   0 121.831 126.231   1
  -4  -3  -1 902.883 202.965   1
   4   3   1 686.732 62.8977   3
  -4  -3  -2 209.079 135.552   1
   4   3   2 92.9020 107.562   1
  -4  -3  -3 47.5236 53.9792   4
   4   3   3 120.948 95.3434   1
   4   3   4 614.391 169.818   1
   4   3   5 2880.46 316.318   1
   4   3   6 107.714 120.196   1
   4   3   7 1482.59 245.969   1
   4   3   8 1141.83 219.665   1
  -4  -3  -8 953.186 134.227   3
   4   3   9 3528.03 369.835   1
   4   3  10 540.286 165.948   1
   4   3  11-60.3638 124.035   1
   4   3  12-104.752 111.907   1
   4   3  13 49.3390 132.482   1
   4   3  14 35.4486 149.988   1
   4   3  15 482.666 189.088   1
   4   3  16 1021.82 275.111   1
  -4  -4  13 107.694 125.101   1
  -4  -4  12 1327.51 303.116   1
  -4  -4  11 304.089 170.365   1
  -4  -4  10 453.086 174.107   1
  -4  -4   9 398.568 182.494   1
  -4  -4   8 1558.18 269.591   1
  -4  -4   7 1516.53 260.483   1
  -4  -4   6 2506.92 309.279   1
  -4  -4   5 1701.40 257.919   1
  -4  -4   4 4824.15 418.039   1
   4   4  -3-176.967 83.3151   3
  -4  -4   3 186.131 137.618   1
   4   4  -2-85.0714 70.6418   3
  -4  -4   2 96.3365 117.538   1
  -4  -4   1 2671.22 296.126   1
   4   4  -1 2425.43 125.526   3
  -4  -4   0 663.800 183.127   1
  -4  -4  -1 191.050 124.195   1
   4   4   2 1311.28 226.608   1
  -4  -4  -3 2143.95 169.974   4
   4   4   3 2005.35 254.089   1
   4   4   4 465.230 56.2302   2
  -4  -4  -4 855.544 144.712   4
   4   4   4 645.515 171.840   1
   4   4   5 6546.16 471.931   1
   4   4   6 4306.04 385.278   1
   4   4   7 3046.52 337.982   1
  -4  -4  -8 878.880 116.496   3
   4   4   8 1367.70 240.828   1
   4   4   9 116.796 132.801   1
   4   4  10 1122.60 234.221   1
   4   4  11 1343.47 257.830   1
   4   4  12 992.796 246.971   1
   4   4  13 311.348 152.321   1
   4   4  14 993.707 250.226   1
   4   4  15 272.076 183.645   1
   4   4  16 4716.97 557.525   1
  -4  -5  13 404.498 203.359   1
  -4  -5  12 95.0171 139.442   1
  -4  -5  11 131.935 137.177   1
  -4  -5  10 51.0845 138.199   1
  -4  -5   9 611.738 184.999   1
  -4  -5   8 694.290 188.581   1
  -4  -5   7 106.432 104.338   1
  -4  -5   6 521.230 175.308   1
  -4  -5   5 6859.19 493.946   1
  -4  -5   4 9.35928 110.960   1
  -4  -5   3 275.627 144.476   1
   4   5  -2 217.069 52.3793   3
  -4  -5   2 288.348 133.734   1
  -4  -5   1 4839.53 404.180   1
  -4  -5   0 5091.10 416.500   1
  -4  -5  -1 1508.70 245.467   1
   4   5   2 40.2816 60.2405   2
  -4  -5  -2-46.1780 106.053   4
   4   5   2-13.6445 107.409   1
   4   5   3 4312.89 220.779   2
   4   5   3 4179.28 376.661   1
  -4  -5  -3 4199.27 276.986   4
  -4  -5  -4 792.028 154.802   4
   4   5   4 412.335 157.125   1
   4   5   5 732.692 186.138   1
   4   5   6 115.569 124.873   1
   4   5   7 94.8257 124.792   1
   4   5   8 4494.29 418.536   1
   4   5   9 715.259 196.683   1
   4   5  10 161.134 150.816   1
   4   5  11 310.938 205.640   1
   4   5  12 229.607 146.970   1
   4   5  13 191.576 204.228   1
   4   5  14 270.106 164.843   1
   4   5  15 1722.07 327.690   1
  -4  -6  12 171.418 170.332   1
  -4  -6  11 581.470 196.838   1
  -4  -6  10 68.4311 126.730   1
  -4  -6   9 1168.07 233.004   1
  -4  -6   8 377.853 167.052   1
  -4  -6   7 561.701 175.263   1
  -4  -6   6 2054.42 275.462   1
  -4  -6   5 245.167 129.025   1
  -4  -6   4 385.557 143.794   1
  -4  -6   3 1403.54 231.108   1
  -4  -6   2 13604.6 671.511   1
  -4  -6   1 3607.86 364.479   1
   4   6   0 71.1056 108.423   2
  -4  -6   0 71.1137 100.681   1
   4   6   1 284.536 110.309   2
  -4  -6  -1 181.607 128.644   1
   4   6   2 3479.90 245.388   2
   4   6   2 3356.05 346.262   1
  -4  -6  -2 3137.09 276.237   4
   4   6   3-3.16648 57.3920   2
  -4  -6  -3-10.9093 120.130   4
   4   6   3 208.496 124.769   1
   4   6   4 9090.40 555.386   1
  -4  -6  -4 8697.84 458.825   4
   4   6   5 3103.98 343.552   1
  -4  -6  -5 2951.02 293.309   4
   4   6   6 36.4897 105.311   1
   4   6   7 3442.30 373.125   1
   4   6   8 299.303 139.803   1
   4   6   9 117.983 135.129   1
   4   6  10 75.2897 130.976   1
   4   6  11 42.4084 136.509   1
   4   6  12-12.9136 119.674   1
   4   6  13 273.480 211.109   1
   4   6  14 31.8800 140.469   1
   4   6  15 75.0610 139.115   1
  -4  -7   9 201.043 119.021   1
  -4  -7   8-33.9906 109.753   1
  -4  -7   7 64.0291 94.1916   1
  -4  -7   6 59.1526 113.862   1
  -4  -7   5 612.845 167.457   1
   4   7  -4 1176.49 243.431   2
  -4  -7   4 1043.12 196.639   1
   4   7  -3 432.662 153.502   2
  -4  -7   3 715.790 182.559   1
   4   7  -2 3352.38 333.888   2
  -4  -7   2 3495.12 344.129   1
   4   7  -1 116.087 117.691   2
  -4  -7   1 44.7753 89.0115   1
  -4  -7   0-37.8238 98.4391   1
   4   7   0 93.4233 105.482   2
   4   7   1 3548.34 292.819   2
  -4  -7  -1 3575.82 327.771   4
  -4  -7  -1 3329.78 357.986   1
   4   7   2 3012.92 257.524   2
   4   7   2 3450.42 344.802   1
  -4  -7  -2 2983.02 298.172   4
  -4  -7  -3 46.9904 96.7039   4
   4   7   3-42.2574 94.5520   1
  -4  -7  -4 731.272 178.787   4
   4   7   4 690.781 172.870   1
   4   7   5 2483.99 310.140   1
  -4  -7  -5 2617.98 294.352   4
   4   7   6 93.0528 131.520   1
   4   7   7 3554.96 375.198   1
   4   7   8 8.99457 109.571   1
   4   7   9 487.086 193.765   1
   4   7  10 280.144 162.829   1
   4   7  11 1204.73 271.687   1
   4   7  12 222.916 182.250   1
   4   7  13 3.79433 175.282   1
   4   7  14 329.196 194.323   1
   4   8  -9 689.459 260.647   2
   4   8  -8 78.6519 149.015   2
   4   8  -7 2099.29 352.023   2
   4   8  -6-5.89301 115.849   2
  -4  -8   6 282.947 140.437   1
  -4  -8   5 63.9009 111.160   1
   4   8  -5 71.0775 164.221   2
  -4  -8   4-25.8319 95.5169   1
   4   8  -4 151.678 130.461   2
   4   8  -3 273.088 122.967   2
  -4  -8   3 502.484 157.175   1
   4   8  -2 163.702 114.956   2
  -4  -8   2 111.015 118.166   1
  -4  -8   1 44.2812 106.379   1
   4   8  -1 115.067 114.010   2
   4   8   0 173.331 126.959   2
  -4  -8   0 237.724 124.897   1
   4   8   1 7642.68 471.368   2
  -4  -8  -1 7749.84 521.355   4
  -4  -8  -1 8297.26 526.183   1
   4   8   2 317.050 142.794   1
  -4  -8  -2 22.2528 135.637   4
  -4  -8  -3 412.961 162.951   4
   4   8   3 698.337 174.068   1
  -4  -8  -4 1286.44 235.709   4
   4   8   4 1344.05 246.133   1
   4   8   5 4034.80 392.697   1
  -4  -8  -5 3451.60 361.388   4
   4   8   6 2428.75 312.029   1
   4   8   7 58.3610 114.246   1
   4   8   8 788.974 218.017   1
   4   8   9 34.7704 124.579   1
   4   8  10 249.230 149.775   1
   4   8  11 668.651 216.896   1
   4   8  12 504.411 207.809   1
   4   8  13 101.988 163.659   1
   4   9  -7 129.328 174.666   2
   4   9  -6 49.3077 157.374   2
   4   9  -5 651.009 231.456   2
   4   9  -4 700.843 217.320   2
   4   9  -3-29.0064 130.231   2
   4   9  -2 482.186 166.931   2
  -4  -9   2 702.107 174.763   1
  -4  -9   1 1078.34 206.374   1
   4   9  -1 702.709 188.600   2
  -4  -9   0 233.236 125.319   1
  -4  -9   0 0.19217 153.498   4
  -4  -9  -1 910.015 203.763   1
  -4  -9  -1 572.805 161.276   4
  -4  -9  -2 2931.69 364.216   4
  -4  -9  -2 2987.97 352.734   1
   4   9   3 3485.15 346.936   1
  -4  -9  -3 3111.83 373.003   4
   4   9   4 8175.14 542.014   1
  -4  -9  -4 7495.15 549.799   4
   4   9   5 6313.85 492.227   1
  -4  -9  -5 5973.09 498.868   4
   4   9   6 188.353 165.376   1
   4   9   7 378.215 157.783   1
   4   9   8 410.046 169.656   1
   4   9   9 251.547 168.399   1
   4   9  10 697.347 230.601   1
   4   9  11 333.061 186.853   1
   4   9  12-34.4713 184.590   1
   4  10  -6 203.033 215.443   2
   4  10  -5 1407.87 292.878   2
   4  10  -4 1357.47 300.146   2
   4  10  -3-159.980 145.492   2
   4  10  -2 24.8057 127.485   2
  -4 -10   2-361.264 216.008   4
  -4 -10   1 127.076 191.418   4
  -4 -10   0-298.433 204.013   4
  -4 -10  -1 295.978 178.912   4
  -4 -10  -2 803.588 196.599   1
  -4 -10  -2 436.166 197.405   4
   4  10   3 750.835 207.863   1
  -4 -10  -3 758.694 250.992   4
  -4 -10  -4 270.440 195.890   4
   4  10   4-61.8187 116.067   1
  -4 -10  -5 1411.56 318.322   4
   4  10   5 1298.80 250.962   1
   4  10   6 1654.48 282.727   1
   4  10   7 3174.30 391.103   1
   4  10   8 1458.65 291.256   1
   4  10   9 215.016 209.907   1
   4  10  10 78.8007 134.988   1
   4  10  11 31.3666 152.330   1
  -4 -11   2-73.6087 197.879   4
  -4 -11   1-71.2376 191.129   4
  -4 -11   0 7.48840 168.880   4
  -4 -11  -1 35.7685 173.468   4
  -4 -11  -2 530.700 226.347   4
  -4 -11  -3 242.614 235.821   4
  -4 -11  -4 1378.78 305.610   4
  -4 -11  -5 775.078 289.916   4
   4  11   9 309.620 176.126   1
   5  -6   3-66.0335 160.640   3
   5  -6   4 88.1001 153.540   3
   5  -6   5 155.416 193.535   3
  -5   5   7 74.7959 164.715   1
  -5   5   6 238.854 172.869   1
  -5   5   5 432.983 195.780   1
  -5   5   4 47.1383 122.224   1
  -5   5   3 258.607 177.560   1
  -5   5   2 154.573 120.929   1
  -5   5   1-42.1490 112.287   1
  -5   5   0 932.318 210.163   1
   5  -5   3 80.7433 131.440   3
   5  -5   4 2402.61 365.815   3
   5  -5   5 45.6169 128.003   3
   5  -5   6 232.110 179.248   3
   5  -5   7 1008.00 265.355   3
   5  -5   8 431.721 225.005   3
   5  -5   9 139.949 201.100   3
  -5   4   8 1048.71 303.179   1
  -5   4   7 795.150 247.933   1
  -5   4   6 383.109 187.674   1
  -5   4   5 172.521 121.729   1
  -5   4   4-73.0422 162.845   1
  -5   4   3 248.678 177.056   1
  -5   4   2 457.965 179.337   1
  -5   4   1 120.911 137.733   1
  -5   4   0 976.279 218.176   1
  -5   4  -1 735.336 183.797   1
  -5   4  -2 545.322 179.567   1
  -5   4  -3 1105.88 222.984   1
   5  -4   4 497.482 175.387   3
  -5   4  -4 650.911 173.180   1
   5  -4   5-112.045 135.484   3
  -5   4  -5 566.078 174.210   1
   5  -4   6 25.9182 115.288   3
   5  -4   7 810.364 241.829   3
   5  -4   8 371.060 203.317   3
   5  -4   9 182.715 189.830   3
   5  -4  10 1378.95 302.416   3
   5  -4  11 1924.25 370.872   3
  -5   3   8 199.422 171.377   1
  -5   3   7 472.847 220.371   1
  -5   3   6 2200.27 348.945   1
  -5   3   5-152.733 142.445   1
  -5   3   4 343.783 159.282   1
  -5   3   3 877.806 237.323   1
  -5   3   2 149.179 116.465   1
  -5   3   1 1242.75 240.127   1
  -5   3   0 159.770 122.259   1
  -5   3  -1 667.630 181.539   1
  -5   3  -2 880.256 227.736   1
  -5   3  -3 869.659 212.277   1
   5  -3   4-45.1325 135.644   3
  -5   3  -4 64.1960 107.644   1
   5  -3   5 59.9424 108.707   3
  -5   3  -5 81.3728 104.201   1
   5  -3   6 447.880 185.953   3
  -5   3  -6 596.169 169.381   1
   5  -3   7 209.866 137.955   3
  -5   3  -7 269.982 148.440   1
   5  -3   8 1739.19 311.994   3
  -5   3  -8 1948.99 278.669   1
   5  -3   9 1011.34 277.255   3
   5  -3  10 4590.56 494.668   3
   5  -3  11 5139.46 519.051   3
   5  -3  12 137.235 147.240   3
   5  -3  13 709.516 284.160   3
  -5   2   9 468.319 215.713   1
  -5   2   8 141.662 131.814   1
  -5   2   7 2146.44 373.122   1
  -5   2   6 1506.69 313.737   1
  -5   2   5-97.6000 138.900   1
  -5   2   4 260.060 169.547   1
  -5   2   3 2934.94 372.727   1
  -5   2   2 308.249 139.691   1
  -5   2   1 1313.52 236.314   1
  -5   2   0 1349.79 248.306   1
  -5   2  -1 331.616 164.392   1
  -5   2  -2 3058.31 360.929   1
  -5   2  -3 600.340 183.917   1
   5  -2   4-221.714 141.359   3
  -5   2  -4-51.4042 102.460   1
   5  -2   5 1006.97 211.495   3
  -5   2  -5 968.450 208.616   1
   5  -2   6-163.136 144.895   3
  -5   2  -6 54.2281 111.070   1
   5  -2   7 215.512 154.673   3
  -5   2  -7 39.6138 97.5074   1
  -5   2  -8 1077.62 222.326   1
   5  -2   8 1124.32 250.648   3
   5  -2   9 6291.64 504.498   1
   5  -2   9 5418.46 486.445   3
   5  -2  10 3867.50 388.771   1
   5  -2  10 3624.84 411.798   3
   5  -2  11 1325.15 277.269   3
   5  -2  11 1772.50 283.088   1
   5  -2  12-46.7044 149.465   3
   5  -2  12 25.9810 116.669   1
   5  -2  13 659.366 258.347   3
   5  -2  14 235.384 195.975   3
  -5   1   9 316.467 184.034   1
  -5   1   8 1843.45 333.943   1
  -5   1   7 5514.93 553.014   1
  -5   1   6-46.5600 135.221   1
  -5   1   5 146.234 149.220   1
  -5   1   4 3662.35 429.599   1
  -5   1   3 2586.01 347.912   1
  -5   1   2 103.355 111.148   1
  -5   1   1 498.281 172.174   1
  -5   1   0 3135.42 359.261   1
  -5   1  -1 29.1208 97.2810   1
  -5   1  -2 2211.36 293.340   1
  -5   1  -3 1036.37 212.618   1
   5  -1   4 151.673 106.956   3
  -5   1  -4 132.445 115.174   1
   5  -1   5 451.376 143.874   3
  -5   1  -5 342.609 164.183   1
   5  -1   6 351.669 142.777   3
  -5   1  -6 80.5447 110.222   1
   5  -1   7 785.514 189.993   3
  -5   1  -7 875.684 205.026   1
   5  -1   8 2061.20 291.950   3
   5  -1   8 2094.71 304.850   1
   5  -1   9 34.0134 116.120   3
   5  -1   9 160.840 135.619   1
   5  -1  10 1554.35 260.760   3
   5  -1  10 1600.68 272.831   1
   5  -1  11 452.892 200.429   3
   5  -1  11 597.407 186.887   1
   5  -1  12 7402.15 563.689   1
   5  -1  12 6067.35 550.243   3
   5  -1  13 7101.69 575.946   1
   5  -1  13 6407.29 567.435   3
   5  -1  14 2450.68 356.433   1
   5  -1  14 2324.32 424.652   3
   5  -1  15 1465.17 290.492   1
  -5   0  10 603.692 222.888   1
  -5   0   9 223.209 155.897   1
  -5   0   8 3285.85 440.926   1
  -5   0   7 227.075 140.400   1
  -5   0   6 488.642 202.505   1
  -5   0   5 5505.35 510.894   1
  -5   0   4 3645.74 412.358   1
  -5   0   3 2496.91 333.805   1
  -5   0   2 4101.43 429.220   1
  -5   0   1 3461.63 389.076   1
  -5   0   0-97.3116 105.915   1
  -5   0  -1 610.491 189.837   1
  -5   0  -2 195.922 128.295   1
  -5   0  -3 55.8754 106.409   1
   5   0   3-65.0777 88.4432   3
   5   0   4 1492.33 196.300   3
  -5   0  -4 1165.84 224.577   1
   5   0   5 246.857 108.963   3
  -5   0  -5 75.7276 109.432   1
   5   0   6 351.632 141.099   3
   5   0   6 405.573 162.796   1
  -5   0  -6 281.449 134.827   1
   5   0   7 760.633 183.253   3
   5   0   7 495.214 178.377   1
   5   0   8 768.026 157.965   3
   5   0   8 1108.27 230.451   1
   5   0   9 1080.19 200.409   3
   5   0   9 1078.45 241.528   1
   5   0  10 1477.74 252.007   3
   5   0  10 2015.59 295.920   1
   5   0  11 1555.92 273.081   1
   5   0  11 1772.83 299.602   3
   5   0  12 624.309 211.465   1
   5   0  12 1027.30 251.482   3
   5   0  13 3286.69 415.823   1
   5   0  13 3350.56 426.923   3
   5   0  14 170.190 149.425   1
   5   0  15 159.829 169.149   1
   5   0  16 165.953 160.366   1
  -5  -1  10 30.4122 157.606   1
  -5  -1   9 274.557 177.128   1
  -5  -1   8 505.586 192.365   1
  -5  -1   7 461.107 196.780   1
  -5  -1   6 165.561 149.607   1
  -5  -1   5 211.613 144.516   1
  -5  -1   4 97.4594 167.382   1
  -5  -1   3 1380.39 285.894   1
  -5  -1   2-19.7133 114.019   1
  -5  -1   1 1024.14 226.283   1
  -5  -1   0 4163.70 413.335   1
  -5  -1  -1 5902.35 480.064   1
  -5  -1  -2 4198.44 404.490   1
   5   1   3-22.8199 67.9426   3
  -5  -1  -3 161.854 124.665   1
   5   1   4 87.9284 81.1360   3
  -5  -1  -4 165.172 109.961   1
   5   1   5 2301.11 318.319   1
  -5  -1  -5 1834.71 288.440   1
   5   1   5 2175.50 225.531   3
   5   1   6 1581.12 262.238   1
   5   1   6 1711.01 204.973   3
   5   1   7 137.128 86.6506   3
   5   1   7-80.3660 103.449   1
   5   1   8-93.4578 113.938   3
   5   1   8-12.0298 119.011   1
   5   1   9 41.9880 113.900   1
   5   1   9 258.772 132.383   3
   5   1  10 103.021 163.208   1
   5   1  10 323.753 153.316   3
   5   1  11 638.263 198.279   1
   5   1  11 792.534 212.550   3
   5   1  12 1452.98 274.613   1
   5   1  13 2567.57 375.702   1
   5   1  14 1211.36 269.124   1
   5   1  15 1742.32 353.991   1
   5   1  16 1061.72 267.747   1
  -5  -2  10 78.0005 164.694   1
  -5  -2   9-20.2679 135.545   1
  -5  -2   8 241.773 212.947   1
  -5  -2   7-223.127 184.942   1
  -5  -2   6 1225.23 265.710   1
  -5  -2   5 2504.74 360.483   1
  -5  -2   4 5486.39 499.409   1
  -5  -2   3 1720.96 298.080   1
  -5  -2   2 23195.6 990.407   1
  -5  -2   1 21310.2 935.714   1
  -5  -2   0 712.089 202.393   1
  -5  -2  -1 296.232 139.127   1
  -5  -2  -2 809.556 225.695   1
   5   2   2 409.203 80.4111   3
  -5  -2  -3 1394.95 245.100   1
   5   2   3 1451.97 146.827   3
  -5  -2  -4 236.690 145.050   1
   5   2   4 120.642 77.6962   3
   5   2   5 1581.16 151.193   3
   5   2   5 1857.80 279.871   1
   5   2   6 6186.94 489.241   1
   5   2   6 6019.53 312.122   3
   5   2   7 2032.17 203.788   3
   5   2   7 2368.58 323.894   1
   5   2   8 3249.60 378.279   1
   5   2   8 3659.12 290.245   3
   5   2   9 1130.11 226.689   1
   5   2  10 228.217 181.167   1
   5   2  11 2714.70 350.598   1
   5   2  12 27.0632 142.133   1
   5   2  13-75.0382 118.008   1
   5   2  14 153.356 208.336   1
   5   2  15-50.5765 142.855   1
  -5  -3  10 4632.85 529.466   1
  -5  -3   9-15.1503 137.812   1
  -5  -3   8 170.366 174.659   1
  -5  -3   7 1270.67 296.449   1
  -5  -3   6 90.4875 157.225   1
  -5  -3   5 165.845 187.703   1
  -5  -3   4 1114.59 235.656   1
  -5  -3   3 4952.39 471.853   1
  -5  -3   2 1009.52 219.019   1
  -5  -3   1 7879.89 577.493   1
  -5  -3   0 150.255 127.856   1
  -5  -3  -1-136.646 106.000   1
   5   3   1-39.8766 42.8946   3
  -5  -3  -2 9635.81 282.374   4
  -5  -3  -2 10896.2 652.500   1
   5   3   2 9881.83 259.525   3
   5   3   3 149.558 30.1994   3
  -5  -3  -3 292.598 176.171   1
   5   3   4 113.353 52.5119   3
   5   3   4 58.3967 118.209   1
   5   3   5 50.7102 109.671   1
   5   3   6 933.162 208.977   1
   5   3   7 24.5390 131.576   1
   5   3   8 282.887 142.831   1
   5   3   9 1689.22 307.335   1
   5   3  10-73.3982 139.262   1
   5   3  11 1450.42 314.326   1
   5   3  12 305.989 172.677   1
   5   3  13 198.680 147.404   1
   5   3  14 5541.85 557.492   1
   5   3  15 632.615 256.846   1
  -5  -4  10 25.3145 153.093   1
  -5  -4   9 268.514 169.894   1
  -5  -4   8 580.671 227.508   1
  -5  -4   7 81.1487 157.404   1
  -5  -4   6 125.575 170.287   1
  -5  -4   5 245.107 171.999   1
  -5  -4   4 1284.79 256.552   1
  -5  -4   3 1030.91 236.797   1
  -5  -4   2 727.037 187.542   1
  -5  -4   1 1000.23 220.287   1
  -5  -4   0 10787.6 660.693   1
  -5  -4  -1 24495.1 988.363   1
  -5  -4  -2 2674.71 190.735   4
  -5  -4  -2 2660.97 337.496   1
  -5  -4  -3-27.0272 53.3510   4
  -5  -4  -3-67.0410 138.409   1
   5   4   4 2321.30 322.516   1
   5   4   5 538.953 184.970   1
   5   4   6 6391.96 523.469   1
   5   4   7 3435.35 392.064   1
   5   4   8 1042.52 244.988   1
   5   4   9 136.933 129.481   1
   5   4  10 606.202 197.974   1
   5   4  11 219.583 179.074   1
   5   4  12-7.01946 145.705   1
   5   4  13 636.584 212.680   1
   5   4  14 1506.17 319.394   1
  -5  -5  10-215.584 166.118   1
  -5  -5   9 272.495 155.898   1
  -5  -5   8 997.580 239.328   1
  -5  -5   7 43.5737 117.872   1
  -5  -5   6-40.9939 126.574   1
  -5  -5   5 677.422 201.507   1
  -5  -5   4 655.333 193.027   1
  -5  -5   3 943.815 225.358   1
  -5  -5   2 325.383 144.297   1
  -5  -5   1 1026.57 225.076   1
  -5  -5   0 6458.80 517.185   1
  -5  -5  -1 2417.48 328.417   1
  -5  -5  -2 121.625 132.652   1
  -5  -5  -2 133.902 87.2794   4
  -5  -5  -3 388.671 187.199   1
  -5  -5  -3 386.068 91.0055   4
  -5  -5  -4 598.986 130.753   4
   5   5   4 445.309 166.231   1
   5   5   5 88.6355 137.894   1
   5   5   6 26.2624 118.698   1
   5   5   7 246.504 138.024   1
   5   5   8 1590.59 284.047   1
   5   5   9 360.987 164.501   1
   5   5  10 564.193 209.936   1
   5   5  11-22.3405 140.689   1
   5   5  12 13.3579 138.060   1
   5   5  13 906.337 253.165   1
   5   5  14 202.049 182.614   1
  -5  -6  10-27.8364 126.269   1
  -5  -6   9 235.947 154.919   1
  -5  -6   8 770.618 235.413   1
  -5  -6   7 1633.76 291.329   1
  -5  -6   6 540.962 192.557   1
  -5  -6   5-117.696 131.614   1
  -5  -6   4 434.342 176.802   1
  -5  -6   3 408.672 179.171   1
  -5  -6   2-249.375 163.357   1
  -5  -6   1 1701.03 287.851   1
  -5  -6   0 1141.89 231.104   1
  -5  -6  -1 144.500 139.065   1
   5   6   2 468.363 119.946   2
  -5  -6  -2 553.155 189.334   1
  -5  -6  -2 243.831 92.2764   4
   5   6   3 6798.48 537.408   1
  -5  -6  -3 6588.05 379.331   4
  -5  -6  -3 5873.19 499.840   1
  -5  -6  -4 1257.96 192.859   4
   5   6   4 1055.48 242.231   1
   5   6   5 615.769 197.046   1
   5   6   6 2105.14 326.686   1
   5   6   7 2988.39 371.269   1
   5   6   8 81.1967 157.516   1
   5   6   9 314.116 184.804   1
   5   6  10 224.347 134.922   1
   5   6  11 489.644 231.433   1
   5   6  12 321.939 182.263   1
   5   6  13 174.565 160.184   1
  -5  -7   9 798.449 211.566   1
  -5  -7   8-122.816 128.838   1
  -5  -7   7 19.5752 130.559   1
  -5  -7   6 781.670 230.198   1
  -5  -7   5 94.5398 123.379   1
  -5  -7   4 913.524 202.045   1
  -5  -7   3 953.469 231.744   1
  -5  -7   2 61.0428 140.127   1
  -5  -7   1 423.645 192.877   1
   5   7  -1 497.133 165.768   2
   5   7   0 23.7063 94.2254   2
  -5  -7   0-87.4807 125.863   1
  -5  -7  -1 1814.69 292.456   1
   5   7   1 1468.80 219.358   2
  -5  -7  -1 1423.81 215.936   4
  -5  -7  -2 7124.79 439.611   4
  -5  -7  -2 6902.19 549.528   1
  -5  -7  -3 2254.50 335.883   1
  -5  -7  -3 2178.05 256.121   4
  -5  -7  -4 57.0063 107.384   4
   5   7   4 118.175 131.859   1
   5   7   5 1534.95 286.920   1
   5   7   6 164.790 138.541   1
   5   7   7 1672.05 275.401   1
   5   7   8 357.197 195.417   1
   5   7   9 207.174 158.941   1
   5   7  10 1117.53 260.674   1
   5   7  11 436.935 239.971   1
   5   7  12 400.326 199.328   1
   5   7  13 166.709 205.063   1
   5   8  -7 37.7128 166.403   2
   5   8  -6 1279.94 313.667   2
  -5  -8   6 1570.54 280.484   1
  -5  -8   5 153.209 126.038   1
   5   8  -5 452.070 216.274   2
  -5  -8   4 241.375 139.959   1
   5   8  -4 385.675 165.852   2
   5   8  -3 666.941 222.079   2
  -5  -8   3 668.956 201.161   1
   5   8  -2 216.224 133.693   2
  -5  -8   2 37.8588 112.644   1
  -5  -8   1 158.669 159.437   1
   5   8  -1 94.8174 149.672   2
   5   8   0 137.648 112.708   2
  -5  -8   0 366.385 178.925   1
  -5  -8  -1 187.455 145.116   1
  -5  -8  -1 58.5991 139.667   4
  -5  -8  -2 2829.89 310.900   4
  -5  -8  -2 3566.37 406.236   1
  -5  -8  -3 488.626 173.471   1
  -5  -8  -3 577.115 161.663   4
  -5  -8  -4 359.817 167.763   4
   5   8   4 523.402 170.154   1
   5   8   5 4166.18 431.304   1
  -5  -8  -5 3761.12 369.856   4
   5   8   6 528.906 196.714   1
   5   8   7 105.076 119.527   1
   5   8   8 114.898 128.541   1
   5   8   9 204.306 157.058   1
   5   8  10 983.665 264.323   1
   5   8  11 739.831 225.382   1
   5   8  12 276.469 172.655   1
   5   9  -6-193.270 184.796   2
   5   9  -5 384.556 216.852   2
   5   9  -4 288.342 207.036   2
   5   9  -3 523.052 198.114   2
  -5  -9   3 561.811 173.927   1
   5   9  -2 364.501 159.886   2
  -5  -9   2 631.506 203.240   1
  -5  -9   1 238.875 153.709   1
  -5  -9   0 44.2814 123.636   1
  -5  -9   0 451.961 169.028   4
  -5  -9  -1 654.984 178.159   4
  -5  -9  -1 848.456 224.727   1
  -5  -9  -2 268.431 148.102   1
  -5  -9  -2-229.851 161.126   4
  -5  -9  -3 745.897 230.496   1
  -5  -9  -3 461.365 189.317   4
  -5  -9  -4 349.555 175.246   4
   5   9   4 90.4568 133.512   1
  -5  -9  -5 2468.70 345.574   4
   5   9   5 1942.19 322.935   1
   5   9   6 1669.39 303.144   1
   5   9   7 1920.25 323.780   1
   5   9   8-19.4951 180.240   1
   5   9   9 22.0822 140.862   1
   5   9  10 1280.76 306.596   1
   5   9  11 134.548 171.054   1
   5  10  -5-242.682 131.819   2
   5  10  -4 43.8575 128.165   2
  -5 -10   2 336.921 164.870   4
  -5 -10   1 14.0383 136.812   4
  -5 -10   0 71.8445 152.194   4
  -5 -10  -1 121.585 148.860   1
  -5 -10  -1-87.7139 137.776   4
  -5 -10  -2 204.539 130.729   1
  -5 -10  -2 640.094 222.032   4
  -5 -10  -3 568.106 218.870   1
  -5 -10  -3 569.767 206.499   4
  -5 -10  -4 475.640 200.615   4
  -5 -10  -4 440.903 189.560   1
  -5 -10  -5 1102.03 265.076   4
   5  10   5 467.184 186.910   1
   5  10   6 352.661 173.033   1
   5  10   7 577.247 194.719   1
   5  10   8 4895.54 517.423   1
   5  10   9 1222.29 294.219   1
  -5 -11   1 426.362 160.595   4
  -5 -11   0 1710.35 303.161   4
  -5 -11  -1-97.7838 200.333   4
  -5 -11  -2-153.082 167.692   4
  -5 -11  -3 181.191 172.377   4
  -5 -11  -4 594.940 252.914   4
  -5 -11  -5 477.613 249.274   4
  -6   4   4 263.344 152.025   1
  -6   4   3 356.291 160.195   1
  -6   4   2 386.467 183.268   1
  -6   4   1-58.5894 149.780   1
  -6   4   0 370.847 179.435   1
  -6   4  -1 765.795 218.105   1
   6  -4   3 1247.63 281.241   3
   6  -4   4-254.846 197.263   3
   6  -4   5 346.640 165.330   3
   6  -4   6 160.516 165.530   3
   6  -4   7 820.544 270.728   3
   6  -4   8 1493.62 313.965   3
  -6   3   4 1990.00 353.043   1
  -6   3   3 600.325 226.640   1
  -6   3   2 443.880 181.001   1
  -6   3   1 373.274 182.618   1
  -6   3   0 55.9343 186.807   1
  -6   3  -1 99.2853 151.683   1
  -6   3  -2 350.437 164.542   1
  -6   3  -3 1610.09 293.593   1
   6  -3   3 1334.99 276.098   3
   6  -3   4-54.3503 133.095   3
  -6   3  -4-4.24269 139.032   1
   6  -3   5 118.782 178.210   3
  -6   3  -5 284.086 154.371   1
   6  -3   6-137.521 175.408   3
   6  -3   7 316.097 206.523   3
   6  -3   8 1005.55 264.989   3
   6  -3   9 195.494 173.841   3
   6  -3  10-121.565 146.192   3
  -6   2   5 401.614 200.184   1
  -6   2   4 397.364 221.628   1
  -6   2   3 91.9656 149.356   1
  -6   2   2 478.889 215.962   1
  -6   2   1 768.200 218.940   1
  -6   2   0 662.930 195.589   1
  -6   2  -1 942.738 247.705   1
  -6   2  -2 1859.25 324.444   1
  -6   2  -3-56.0436 134.505   1
   6  -2   3-111.782 151.282   3
   6  -2   4-54.0065 151.396   3
  -6   2  -4 149.489 153.226   1
  -6   2  -5 288.971 173.633   1
   6  -2   5 94.0963 129.629   3
   6  -2   6 92.8793 160.772   3
  -6   2  -6 30.9457 127.975   1
   6  -2   7 563.057 201.507   3
  -6   2  -7 9.97971 124.734   1
   6  -2   8 418.893 188.853   3
  -6   2  -8 423.432 203.428   1
   6  -2   9 72.2747 147.183   3
  -6   2  -9 147.288 162.072   1
   6  -2  10-157.736 160.646   3
   6  -2  11 253.928 161.721   3
  -6   1   6 2531.18 413.789   1
  -6   1   5 372.069 200.274   1
  -6   1   4 703.449 245.115   1
  -6   1   3 3867.40 457.049   1
  -6   1   2 1042.68 272.662   1
  -6   1   1-210.787 179.911   1
  -6   1   0 44.8685 119.366   1
  -6   1  -1 267.776 182.420   1
  -6   1  -2 4390.42 459.477   1
  -6   1  -3 249.965 163.603   1
   6  -1   3 372.119 146.366   3
   6  -1   4 384.419 144.726   3
  -6   1  -4 618.317 188.868   1
   6  -1   5 538.110 162.071   3
  -6   1  -5 368.339 167.529   1
   6  -1   6 918.158 206.676   3
  -6   1  -6 783.538 221.300   1
   6  -1   7 224.553 152.383   3
  -6   1  -7 114.468 119.215   1
   6  -1   8 229.968 145.308   3
  -6   1  -8 132.358 192.615   1
   6  -1   9-59.8341 161.347   3
  -6   1  -9 170.380 153.303   1
  -6   1 -10-8.08279 135.366   1
   6  -1  11 24.9288 128.581   1
   6  -1  12 284.735 148.437   1
  -6   0   6 457.718 233.094   1
  -6   0   5-2.70374 165.516   1
  -6   0   4 1225.31 296.784   1
  -6   0   3 2841.43 401.087   1
  -6   0   2 348.974 186.049   1
  -6   0   1 1269.32 279.147   1
  -6   0   0 295.863 150.293   1
  -6   0  -1 6391.02 553.577   1
  -6   0  -2 116.351 177.174   1
   6   0   3 103.769 109.482   3
  -6   0  -3 530.475 184.080   1
   6   0   4 679.038 163.325   3
  -6   0  -4 757.469 216.355   1
   6   0   5 1633.63 230.869   3
  -6   0  -5 1221.41 259.897   1
  -6   0  -6 132.352 131.580   1
  -6   0  -7-139.011 152.501   1
  -6   0  -8 100.444 132.245   1
   6   0   9 106.292 168.545   1
   6   0  10 197.108 166.086   1
   6   0  11 303.317 154.278   1
   6   0  12-2.68342 134.760   1
   6   0  13 614.024 246.421   1
  -6  -1   6 476.916 240.955   1
  -6  -1   5 717.667 226.508   1
  -6  -1   4 4103.65 471.702   1
  -6  -1   3 340.377 189.794   1
  -6  -1   2 193.746 201.373   1
  -6  -1   1 763.803 216.437   1
  -6  -1   0 6972.64 584.719   1
  -6  -1  -1 575.254 215.721   1
  -6  -1  -2 210.796 168.725   1
  -6  -1  -3 66.3436 115.519   1
  -6  -1  -4 1519.58 287.536   1
  -6  -1  -5 63.0103 117.315   1
  -6  -1  -6-81.0307 116.244   1
  -6  -1  -7 395.972 202.410   1
   6   1   8 1819.24 313.316   1
   6   1   9-17.8920 146.192   1
   6   1  10 307.138 175.758   1
   6   1  11 88.9018 131.789   1
   6   1  12 458.229 205.639   1
   6   1  13 625.734 207.418   1
  -6  -2   7 114.058 169.225   1
  -6  -2   6 122.863 159.850   1
  -6  -2   5 183.530 181.076   1
  -6  -2   4 238.320 179.291   1
  -6  -2   3 55.5715 155.255   1
  -6  -2   2 806.611 251.372   1
  -6  -2   1 121.014 130.028   1
  -6  -2   0 1339.26 268.976   1
  -6  -2  -1 1208.20 249.289   1
  -6  -2  -2 655.571 213.109   1
  -6  -2  -3 123.568 120.747   1
  -6  -2  -4 179.941 181.546   1
  -6  -2  -5 833.894 231.905   1
  -6  -2  -6 855.693 227.982   1
   6   2   7 175.782 185.211   1
   6   2   8 249.264 132.838   1
   6   2   9 77.0601 131.561   1
   6   2  10 189.108 185.772   1
   6   2  11 609.001 238.598   1
   6   2  12 111.258 160.467   1
   6   2  13 550.016 264.820   1
  -6  -3   7 216.326 196.338   1
  -6  -3   6 93.4120 162.171   1
  -6  -3   5 144.049 193.323   1
  -6  -3   4 111.731 140.335   1
  -6  -3   3 492.312 216.396   1
  -6  -3   2 187.476 153.612   1
  -6  -3   1 491.668 200.847   1
  -6  -3   0-177.634 153.815   1
  -6  -3  -1 1023.34 258.382   1
  -6  -3  -2 22146.3 1022.53   1
  -6  -3  -3 5841.66 535.021   1
  -6  -3  -4 210.899 163.972   1
  -6  -3  -5 147.570 123.899   1
   6   3   6 177.353 139.743   1
  -6  -3  -6 318.407 166.241   1
   6   3   7 263.524 171.185   1
   6   3   8 180.079 156.570   1
   6   3   9 110.898 168.437   1
   6   3  10 786.055 239.966   1
   6   3  11 139.161 152.047   1
   6   3  12 111.404 173.199   1
  -6  -4   7 577.224 187.800   1
  -6  -4   6 3380.71 454.403   1
  -6  -4   5-91.0886 161.092   1
  -6  -4   4-30.5797 154.239   1
  -6  -4   3 668.361 239.701   1
  -6  -4   2 268.154 191.008   1
  -6  -4   1 18.6735 171.078   1
  -6  -4   0 798.449 230.988   1
  -6  -4  -1 1418.83 281.532   1
  -6  -4  -2 0.22345 123.665   1
  -6  -4  -3 3329.01 416.597   1
  -6  -4  -4 957.999 256.957   1
  -6  -4  -5 158.640 134.208   1
   6   4   6 4068.73 445.235   1
   6   4   7 173.399 147.612   1
   6   4   8-34.1695 139.079   1
   6   4   9-258.953 181.641   1
   6   4  10 681.928 255.597   1
   6   4  11 27.8402 157.816   1
   6   4  12 412.791 190.447   1
  -6  -5   7 528.008 218.329   1
  -6  -5   6 459.651 203.776   1
  -6  -5   5 32.2003 146.616   1
  -6  -5   4 224.293 158.870   1
  -6  -5   3 205.364 176.357   1
  -6  -5   2 805.543 254.145   1
  -6  -5   1 410.447 171.420   1
  -6  -5   0 29.3932 187.191   1
  -6  -5  -1 185.200 152.250   1
  -6  -5  -2-174.960 163.111   1
  -6  -5  -3 1908.50 313.586   1
  -6  -5  -4 7258.96 607.462   1
  -6  -5  -5 14775.6 857.755   1
   6   5   6 3541.75 431.590   1
   6   5   7 57.2639 138.138   1
   6   5   8 402.946 235.005   1
   6   5   9 333.079 179.749   1
   6   5  10 917.624 287.152   1
   6   5  11 194.073 189.703   1
  -6  -6   6 843.641 258.929   1
  -6  -6   5 858.743 260.881   1
  -6  -6   4 519.768 200.095   1
  -6  -6   3 893.208 237.497   1
  -6  -6   2 158.356 168.847   1
  -6  -6   1 191.341 158.396   1
  -6  -6   0 476.923 205.959   1
  -6  -6  -1 83.2338 164.879   1
  -6  -6  -2-109.381 182.792   1
  -6  -6  -3 105.300 156.813   1
  -6  -6  -4 583.666 209.765   1
   6   6   5 1874.73 331.735   1
  -6  -6  -5 1503.19 301.851   1
   6   6   6 1439.12 304.492   1
   6   6   7-7.61237 184.040   1
   6   6   8 259.478 186.159   1
   6   6   9 1000.47 260.960   1
   6   6  10 28.6275 132.693   1
   6   6  11-140.956 157.428   1
  -6  -7   6 361.552 179.105   1
  -6  -7   5 422.238 199.683   1
  -6  -7   4 235.391 178.276   1
  -6  -7   3 558.780 165.294   1
  -6  -7   2 413.268 188.359   1
  -6  -7   1 159.066 157.042   1
  -6  -7   0 1464.62 288.612   1
  -6  -7  -1 1644.36 308.057   1
  -6  -7  -2 212.523 142.723   1
  -6  -7  -3 422.747 201.123   1
  -6  -7  -4 857.813 232.266   1
   6   7   5 710.611 217.018   1
   6   7   6 511.845 235.525   1
   6   7   7 3650.12 464.064   1
   6   7   8 2466.80 397.379   1
   6   7   9 249.609 143.698   1
   6   7  10 51.0620 161.986   1
  -6  -8   5 2690.44 382.061   1
  -6  -8   4 733.530 256.839   1
  -6  -8   3 385.497 200.265   1
  -6  -8   2 205.288 150.256   1
  -6  -8   1-62.8027 132.873   1
  -6  -8   0 666.238 222.225   1
  -6  -8  -1 308.439 163.798   1
  -6  -8  -2 387.642 199.709   1
  -6  -8  -3-74.6553 143.623   1
  -6  -8  -4 414.311 205.534   1
  -6  -8  -5-57.1721 140.160   1
   6   8   5 401.078 179.075   1
   6   8   6 1046.93 269.104   1
   6   8   7 2198.72 368.897   1
   6   8   8 357.522 201.494   1
   6   8   9 642.398 216.931   1
  -6  -9   3-1.51951 150.270   1
  -6  -9   2 1025.68 256.038   1
  -6  -9   1 312.461 166.909   1
  -6  -9   0 1378.74 291.040   1
  -6  -9  -1 1407.93 295.176   1
  -6  -9  -2 797.807 221.048   1
  -6  -9  -3 393.244 186.069   1
  -6  -9  -4 78.5173 142.163   1
  -6  -9  -5-87.6001 133.669   1
   6   9   6 3003.30 422.956   1
   6   9   7 445.299 191.541   1
  -6 -10  -1 275.435 178.739   1
  -6 -10  -2 301.585 194.572   1
  -6 -10  -3 180.549 178.573   1
  -6 -10  -4 2.04464 133.747   1
  -6 -10  -5-7.60347 197.926   1
  -7   2  -2 43.2928 133.884   1
  -7   2  -3 744.435 228.927   1
  -7   2  -4 305.468 177.737   1
  -7   1  -1 107.191 161.919   1
  -7   1  -2 256.417 194.490   1
  -7   1  -3 224.322 183.249   1
  -7   1  -4 104.498 169.192   1
  -7   1  -5-84.2058 138.092   1
  -7   1  -6 156.150 159.904   1
  -7   1  -7 550.470 171.919   1
  -7   1  -8-9.32725 149.055   1
  -7   0   0 277.280 224.035   1
  -7   0  -1 2736.12 412.365   1
  -7   0  -2 1988.80 353.032   1
  -7   0  -3-51.5532 149.942   1
  -7   0  -4 254.518 187.275   1
  -7   0  -5-50.9128 143.576   1
  -7   0  -6 488.437 201.021   1
  -7   0  -7 487.242 222.421   1
  -7   0  -8 214.889 197.456   1
  -7  -1   0 503.424 240.116   1
  -7  -1  -1 2470.66 396.315   1
  -7  -1  -2-221.517 214.037   1
  -7  -1  -3 285.972 216.443   1
  -7  -1  -4 1162.46 278.982   1
  -7  -1  -5 988.729 262.077   1
  -7  -1  -6 968.490 277.821   1
  -7  -1  -7-61.0955 164.264   1
  -7  -1  -8 276.273 211.710   1
  -7  -2   0 2774.15 412.190   1
  -7  -2  -1 1366.59 300.530   1
  -7  -2  -2 147.593 193.095   1
  -7  -2  -3 698.321 211.525   1
  -7  -2  -4 2440.37 404.907   1
  -7  -2  -5 175.029 174.438   1
  -7  -2  -6 1142.74 276.792   1
  -7  -2  -7 340.832 210.379   1
  -7  -2  -8 381.113 236.509   1
  -7  -3   0 1738.40 322.511   1
  -7  -3  -1 233.387 204.023   1
  -7  -3  -2 347.466 218.917   1
  -7  -3  -3 119.118 150.656   1
  -7  -3  -4 246.293 165.749   1
  -7  -3  -5 141.571 198.082   1
  -7  -3  -6 1185.61 313.647   1
  -7  -3  -7-170.871 213.894   1
  -7  -4   0 340.239 208.695   1
  -7  -4  -1-447.791 185.661   1
  -7  -4  -2-218.188 196.943   1
  -7  -4  -3 1276.35 321.423   1
  -7  -4  -4 128.267 169.179   1
  -7  -4  -5 203.182 162.322   1
  -7  -4  -6 5969.82 591.775   1
  -7  -4  -7 4908.38 565.139   1
  -7  -5  -1 289.139 198.097   1
  -7  -5  -2 64.4855 180.942   1
  -7  -5  -3 242.064 198.337   1
  -7  -5  -4 13.9147 182.164   1
  -7  -5  -5 130.296 235.845   1
   0   0   0    0.00    0.00   0
;
_shelx_hkl_checksum              96443
loop_
_space_group_symop_operation_xyz
'x, y, z'
'-x, -y, -z'
loop_
_atom_site_label
_atom_site_type_symbol
_atom_site_fract_x
_atom_site_fract_y
_atom_site_fract_z
_atom_site_U_iso_or_equiv
_atom_site_adp_type
_atom_site_occupancy
_atom_site_site_symmetry_order
_atom_site_calc_flag
_atom_site_refinement_flags_posn
_atom_site_refinement_flags_adp
_atom_site_refinement_flags_occupancy
_atom_site_disorder_assembly
_atom_site_disorder_group
O1 O 1.1091(3) 0.77268(15) 0.49833(10) 0.0292(4) Uani 1 1 d . . . . .
N2 N 1.1338(3) 0.61946(17) 0.68750(12) 0.0230(4) Uani 1 1 d . . . . .
O2 O 0.7344(3) 0.78148(15) 0.58458(11) 0.0322(4) Uani 1 1 d . . . . .
N1 N -0.5428(3) -0.12525(18) 1.28938(13) 0.0299(5) Uani 1 1 d . . . . .
C1 C 0.9773(4) 0.5552(2) 0.74316(15) 0.0224(5) Uani 1 1 d . . . . .
C2 C 0.8352(4) 0.4977(2) 0.79557(15) 0.0266(5) Uani 1 1 d . . . . .
C3 C 0.6656(4) 0.4336(2) 0.85006(15) 0.0241(5) Uani 1 1 d . . . . .
C4 C 0.5150(4) 0.3756(2) 0.89749(15) 0.0240(5) Uani 1 1 d . . . . .
C5 C 0.3494(4) 0.30857(19) 0.95319(14) 0.0204(5) Uani 1 1 d . . . . .
C6 C 0.2104(4) 0.2466(2) 1.00361(14) 0.0196(5) Uani 1 1 d . . . . .
C7 C 0.0517(4) 0.1692(2) 1.06443(14) 0.0179(5) Uani 1 1 d . . . . .
C8 C 0.1398(4) 0.02005(19) 1.09480(14) 0.0191(5) Uani 1 1 d . . . . .
H8 H 0.3059 -0.0296 1.0755 0.023 Uiso 1 1 calc R U . . .
C9 C -0.0136(4) -0.0549(2) 1.15265(14) 0.0190(5) Uani 1 1 d . . . . .
H9 H 0.0472 -0.1558 1.1734 0.023 Uiso 1 1 calc R U . . .
C10 C -0.2579(4) 0.0175(2) 1.18074(14) 0.0179(5) Uani 1 1 d . . . . .
C11 C -0.3472(4) 0.1662(2) 1.15125(14) 0.0215(5) Uani 1 1 d . . . . .
H11 H -0.5132 0.2158 1.1708 0.026 Uiso 1 1 calc R U . . .
C12 C -0.1929(4) 0.2410(2) 1.09352(14) 0.0210(5) Uani 1 1 d . . . . .
H12 H -0.2535 0.3422 1.0734 0.025 Uiso 1 1 calc R U . . .
C13 C -0.4173(4) -0.0618(2) 1.24140(15) 0.0210(5) Uani 1 1 d . . . . .
C14 C 1.3721(4) 0.5310(2) 0.64554(17) 0.0362(6) Uani 1 1 d . . . . .
H14A H 1.4021 0.4306 0.6764 0.054 Uiso 1 1 calc R U . . .
H14B H 1.4998 0.5776 0.6544 0.054 Uiso 1 1 calc R U . . .
H14C H 1.3740 0.5257 0.5777 0.054 Uiso 1 1 calc R U . . .
C15 C 1.0682(4) 0.7800(2) 0.66670(15) 0.0250(5) Uani 1 1 d . . . . .
H15A H 1.2181 0.8160 0.6588 0.030 Uiso 1 1 calc R U . . .
H15B H 0.9565 0.8267 0.7219 0.030 Uiso 1 1 calc R U . . .
C16 C 0.9479(4) 0.8314(2) 0.57995(16) 0.0268(5) Uani 1 1 d . . . . .
H16 H 0.9055 0.9423 0.5725 0.032 Uiso 1 1 calc R U . . .
C17 C 0.9540(4) 0.7585(3) 0.43315(16) 0.0362(6) Uani 1 1 d . . . . .
H17C H 0.9872 0.6543 0.4165 0.043 Uiso 0.582(9) 1 calc R U P A 2
H17D H 0.9754 0.8227 0.3745 0.043 Uiso 0.582(9) 1 calc R U P A 2
H17A H 1.0441 0.6851 0.3864 0.043 Uiso 0.418(9) 1 calc R U P A 1
H17B H 0.8927 0.8551 0.3989 0.043 Uiso 0.418(9) 1 calc R U P A 1
C18B C 0.6929(8) 0.8112(9) 0.4910(3) 0.0369(17) Uani 0.582(9) 1 d . . P A 2
H18A H 0.6225 0.9185 0.4773 0.044 Uiso 0.582(9) 1 calc R U P A 2
H18B H 0.5816 0.7546 0.4769 0.044 Uiso 0.582(9) 1 calc R U P A 2
C18A C 0.7544(12) 0.7086(10) 0.4915(4) 0.0238(19) Uani 0.418(9) 1 d . . P A 1
H18C H 0.7938 0.5989 0.5011 0.029 Uiso 0.418(9) 1 calc R U P A 1
H18D H 0.6018 0.7443 0.4637 0.029 Uiso 0.418(9) 1 calc R U P A 1
loop_
_atom_site_aniso_label
_atom_site_aniso_U_11
_atom_site_aniso_U_22
_atom_site_aniso_U_33
_atom_site_aniso_U_23
_atom_site_aniso_U_13
_atom_site_aniso_U_12
O1 0.0214(9) 0.0494(9) 0.0207(9) 0.0026(7) -0.0049(7) -0.0166(7)
N2 0.0224(10) 0.0247(10) 0.0210(10) 0.0003(8) 0.0021(8) -0.0088(8)
O2 0.0233(9) 0.0476(9) 0.0296(10) 0.0066(8) -0.0035(7) -0.0196(7)
N1 0.0269(11) 0.0346(10) 0.0288(11) 0.0033(9) -0.0054(9) -0.0100(9)
C1 0.0239(12) 0.0207(11) 0.0209(12) -0.0016(9) -0.0030(10) -0.0031(9)
C2 0.0292(14) 0.0182(11) 0.0274(13) 0.0008(9) 0.0034(11) -0.0030(10)
C3 0.0249(13) 0.0170(11) 0.0249(13) -0.0031(9) 0.0014(10) 0.0012(9)
C4 0.0248(13) 0.0161(11) 0.0266(13) 0.0004(9) -0.0008(10) -0.0002(9)
C5 0.0194(12) 0.0152(10) 0.0231(12) -0.0024(9) -0.0020(10) 0.0011(9)
C6 0.0188(12) 0.0179(10) 0.0210(12) -0.0032(9) -0.0048(9) -0.0008(9)
C7 0.0164(11) 0.0217(11) 0.0168(11) -0.0034(8) -0.0045(9) -0.0050(9)
C8 0.0131(11) 0.0207(11) 0.0217(12) -0.0051(9) -0.0024(9) 0.0002(8)
C9 0.0208(12) 0.0160(10) 0.0206(12) -0.0026(9) -0.0069(9) -0.0026(9)
C10 0.0166(11) 0.0200(11) 0.0202(12) -0.0028(9) -0.0071(9) -0.0063(9)
C11 0.0135(11) 0.0239(11) 0.0261(13) -0.0020(9) -0.0045(10) -0.0019(9)
C12 0.0208(12) 0.0171(10) 0.0249(12) 0.0007(9) -0.0080(10) -0.0026(9)
C13 0.0177(12) 0.0221(11) 0.0237(12) -0.0006(9) -0.0069(10) -0.0037(9)
C14 0.0252(14) 0.0392(14) 0.0379(15) 0.0048(11) 0.0040(11) -0.0063(11)
C15 0.0265(13) 0.0256(11) 0.0254(13) -0.0036(9) 0.0005(10) -0.0130(9)
C16 0.0211(12) 0.0291(12) 0.0312(14) 0.0015(10) 0.0014(10) -0.0130(10)
C17 0.0285(15) 0.0582(16) 0.0308(15) -0.0006(12) -0.0115(12) -0.0229(12)
C18B 0.029(3) 0.051(4) 0.036(3) 0.008(3) -0.013(2) -0.017(3)
C18A 0.028(3) 0.025(4) 0.022(3) -0.003(3) -0.005(3) -0.012(3)
loop_
_atom_type_symbol
_atom_type_description
_atom_type_scat_dispersion_real
_atom_type_scat_dispersion_imag
_atom_type_scat_source
C C 0.0033 0.0016 'International Tables Vol C Tables 4.2.6.8 and 6.1.1.4'
H H 0.0000 0.0000 'International Tables Vol C Tables 4.2.6.8 and 6.1.1.4'
O O 0.0106 0.0060 'International Tables Vol C Tables 4.2.6.8 and 6.1.1.4'
N N 0.0061 0.0033 'International Tables Vol C Tables 4.2.6.8 and 6.1.1.4'
loop_
_geom_angle_atom_site_label_1
_geom_angle_atom_site_label_2
_geom_angle_atom_site_label_3
_geom_angle
C16 O1 C17 105.56(17)
C1 N2 C15 119.86(19)
C1 N2 C14 120.55(18)
C15 N2 C14 119.58(17)
C18B O2 C16 100.9(2)
C16 O2 C18A 107.5(2)
C2 C1 N2 178.6(2)
C1 C2 C3 176.2(2)
C4 C3 C2 179.2(3)
C3 C4 C5 178.2(2)
C6 C5 C4 177.7(2)
C5 C6 C7 178.1(2)
C12 C7 C8 119.28(18)
C12 C7 C6 120.44(17)
C8 C7 C6 120.28(19)
C9 C8 C7 120.28(19)
C9 C8 H8 119.9
C7 C8 H8 119.9
C8 C9 C10 120.01(18)
C8 C9 H9 120.0
C10 C9 H9 120.0
C9 C10 C11 120.17(18)
C9 C10 C13 119.66(17)
C11 C10 C13 120.17(19)
C12 C11 C10 119.65(19)
C12 C11 H11 120.2
C10 C11 H11 120.2
C11 C12 C7 120.62(18)
C11 C12 H12 119.7
C7 C12 H12 119.7
N1 C13 C10 179.7(3)
N2 C14 H14A 109.5
N2 C14 H14B 109.5
H14A C14 H14B 109.5
N2 C14 H14C 109.5
H14A C14 H14C 109.5
H14B C14 H14C 109.5
N2 C15 C16 115.08(17)
N2 C15 H15A 108.5
C16 C15 H15A 108.5
N2 C15 H15B 108.5
C16 C15 H15B 108.5
H15A C15 H15B 107.5
O2 C16 O1 106.53(17)
O2 C16 C15 112.13(16)
O1 C16 C15 109.98(18)
O2 C16 H16 109.4
O1 C16 H16 109.4
C15 C16 H16 109.4
O1 C17 C18A 105.1(3)
O1 C17 C18B 102.4(2)
O1 C17 H17C 111.3
C18B C17 H17C 111.3
O1 C17 H17D 111.3
C18B C17 H17D 111.3
H17C C17 H17D 109.2
O1 C17 H17A 110.7
C18A C17 H17A 110.7
O1 C17 H17B 110.7
C18A C17 H17B 110.7
H17A C17 H17B 108.8
O2 C18B C17 103.0(3)
O2 C18B H18A 111.2
C17 C18B H18A 111.2
O2 C18B H18B 111.2
C17 C18B H18B 111.2
H18A C18B H18B 109.1
C17 C18A O2 101.6(3)
C17 C18A H18C 111.5
O2 C18A H18C 111.5
C17 C18A H18D 111.5
O2 C18A H18D 111.5
H18C C18A H18D 109.3
loop_
_geom_bond_atom_site_label_1
_geom_bond_atom_site_label_2
_geom_bond_distance
O1 C16 1.422(3)
O1 C17 1.442(2)
N2 C1 1.319(2)
N2 C15 1.459(2)
N2 C14 1.462(3)
O2 C18B 1.394(4)
O2 C16 1.413(2)
O2 C18A 1.541(6)
N1 C13 1.145(2)
C1 C2 1.204(3)
C2 C3 1.364(3)
C3 C4 1.212(3)
C4 C5 1.371(3)
C5 C6 1.204(3)
C6 C7 1.432(3)
C7 C12 1.398(3)
C7 C8 1.401(2)
C8 C9 1.379(3)
C8 H8 0.9500
C9 C10 1.395(3)
C9 H9 0.9500
C10 C11 1.396(2)
C10 C13 1.445(3)
C11 C12 1.381(3)
C11 H11 0.9500
C12 H12 0.9500
C14 H14A 0.9800
C14 H14B 0.9800
C14 H14C 0.9800
C15 C16 1.505(3)
C15 H15A 0.9900
C15 H15B 0.9900
C16 H16 1.0000
C17 C18A 1.448(6)
C17 C18B 1.562(6)
C17 H17C 0.9900
C17 H17D 0.9900
C17 H17A 0.9900
C17 H17B 0.9900
C18B H18A 0.9900
C18B H18B 0.9900
C18A H18C 0.9900
C18A H18D 0.9900
loop_
_geom_torsion_atom_site_label_1
_geom_torsion_atom_site_label_2
_geom_torsion_atom_site_label_3
_geom_torsion_atom_site_label_4
_geom_torsion
C12 C7 C8 C9 0.1(3)
C6 C7 C8 C9 -179.40(18)
C7 C8 C9 C10 0.4(3)
C8 C9 C10 C11 -0.7(3)
C8 C9 C10 C13 -179.97(18)
C9 C10 C11 C12 0.5(3)
C13 C10 C11 C12 179.80(18)
C10 C11 C12 C7 0.0(3)
C8 C7 C12 C11 -0.3(3)
C6 C7 C12 C11 179.23(18)
C1 N2 C15 C16 -91.0(2)
C14 N2 C15 C16 88.4(2)
C18B O2 C16 O1 -46.2(4)
C18A O2 C16 O1 -9.1(4)
C18B O2 C16 C15 -166.6(4)
C18A O2 C16 C15 -129.5(4)
C17 O1 C16 O2 29.10(19)
C17 O1 C16 C15 150.85(15)
N2 C15 C16 O2 56.9(3)
N2 C15 C16 O1 -61.5(2)
C16 O1 C17 C18A -38.6(4)
C16 O1 C17 C18B -1.9(3)
C16 O2 C18B C17 42.8(4)
O1 C17 C18B O2 -25.8(5)
O1 C17 C18A O2 31.1(5)
C16 O2 C18A C17 -13.8(5)
