#------------------------------------------------------------------------------
#$Date: 2017-11-07 02:59:46 +0200 (Tue, 07 Nov 2017) $
#$Revision: 202755 $
#$URL: file:///home/coder/svn-repositories/cod/cif/4/03/29/4032996.cif $
#------------------------------------------------------------------------------
#
# This file is available in the Crystallography Open Database (COD),
# http://www.crystallography.net/
#
# All data on this site have been placed in the public domain by the
# contributors.
#
data_4032996
loop_
_publ_author_name
'Takahashi, Yuka'
'Ikeda, Hirotaka'
'Kanase, Yuki'
'Makino, Kosho'
'Tabata, Hidetsugu'
'Oshitari, Tetsuta'
'Inagaki, Satoshi'
'Otani, Yuko'
'Natsugari, Hideaki'
'Takahashi, Hideyo'
'Ohwada, Tomohiko'
_publ_section_title
;
 Elucidation of the E-Amide Preference of N-Acyl Azoles.
;
_journal_issue                   21
_journal_name_full               'The Journal of organic chemistry'
_journal_page_first              11370
_journal_page_last               11382
_journal_paper_doi               10.1021/acs.joc.7b01759
_journal_volume                  82
_journal_year                    2017
_chemical_formula_moiety         'C9 H4 Cl3 N3 O'
_chemical_formula_sum            'C9 H4 Cl3 N3 O'
_chemical_formula_weight         276.51
_space_group_crystal_system      triclinic
_space_group_IT_number           2
_space_group_name_Hall           '-P 1'
_space_group_name_H-M_alt        'P -1'
_symmetry_space_group_name_Hall  '-P 1'
_symmetry_space_group_name_H-M   'P -1'
_atom_sites_solution_hydrogens   geom
_atom_sites_solution_primary     direct
_atom_sites_solution_secondary   difmap
_cell_angle_alpha                86.170(2)
_cell_angle_beta                 83.778(2)
_cell_angle_gamma                80.605(3)
_cell_formula_units_Z            2
_cell_length_a                   7.4103(3)
_cell_length_b                   8.3251(3)
_cell_length_c                   9.0266(3)
_cell_measurement_reflns_used    3731
_cell_measurement_temperature    173
_cell_measurement_theta_max      68.14
_cell_measurement_theta_min      4.93
_cell_volume                     545.47(4)
_computing_cell_refinement       'RAPID AUTO'
_computing_data_collection       'RAPID AUTO (Rigaku, ????)'
_computing_data_reduction        'RAPID AUTO'
_computing_molecular_graphics    'CrystalStructure 4.2.2'
_computing_publication_material  'CrystalStructure 4.2.2 (Rigaku, 2016)'
_computing_structure_refinement  'SHELXL97 (Sheldrick, 2008)'
_computing_structure_solution    'SIR92 (Altomare, et al., 1994)'
_diffrn_ambient_temperature      173
_diffrn_detector_area_resol_mean 10.000
_diffrn_measured_fraction_theta_full 0.977
_diffrn_measured_fraction_theta_max 0.974
_diffrn_measurement_device_type  'Rigaku R-AXIS RAPID'
_diffrn_measurement_method       \w
_diffrn_radiation_type           'Cu K\a'
_diffrn_radiation_wavelength     1.54187
_diffrn_reflns_av_R_equivalents  0.0711
_diffrn_reflns_Laue_measured_fraction_full 0.977
_diffrn_reflns_Laue_measured_fraction_max 0.974
_diffrn_reflns_limit_h_max       8
_diffrn_reflns_limit_h_min       -8
_diffrn_reflns_limit_k_max       9
_diffrn_reflns_limit_k_min       -9
_diffrn_reflns_limit_l_max       10
_diffrn_reflns_limit_l_min       -10
_diffrn_reflns_number            5804
_diffrn_reflns_point_group_measured_fraction_full 0.977
_diffrn_reflns_point_group_measured_fraction_max 0.974
_diffrn_reflns_theta_full        67.687
_diffrn_reflns_theta_max         68.222
_diffrn_reflns_theta_min         4.935
_diffrn_standards_number         0
_exptl_absorpt_coefficient_mu    7.464
_exptl_absorpt_correction_T_max  0.593
_exptl_absorpt_correction_T_min  0.440
_exptl_absorpt_correction_type   multi-scan
_exptl_absorpt_process_details   'ABSCOR (Rigaku, 1995)'
_exptl_crystal_colour            colorless
_exptl_crystal_density_diffrn    1.683
_exptl_crystal_density_method    'not measured'
_exptl_crystal_description       block
_exptl_crystal_F_000             276.00
_exptl_crystal_size_max          0.150
_exptl_crystal_size_mid          0.150
_exptl_crystal_size_min          0.070
_refine_diff_density_max         0.54
_refine_diff_density_min         -0.47
_refine_ls_extinction_method     none
_refine_ls_goodness_of_fit_ref   1.012
_refine_ls_hydrogen_treatment    constr
_refine_ls_number_parameters     145
_refine_ls_number_reflns         1938
_refine_ls_number_restraints     0
_refine_ls_R_factor_all          0.0689
_refine_ls_R_factor_gt           0.0498
_refine_ls_shift/su_max          0.000
_refine_ls_structure_factor_coef Fsqd
_refine_ls_weighting_details
'w = 1/[\s^2^(Fo^2^)+1.1000P] where P=(Fo^2^+2Fc^2^)/3'
_refine_ls_weighting_scheme      calc
_refine_ls_wR_factor_gt          0.0991
_refine_ls_wR_factor_ref         0.1150
_reflns_Friedel_coverage         0.000
_reflns_number_gt                1443
_reflns_number_total             1938
_reflns_threshold_expression     F^2^>2.0\s(F^2^)
_cod_data_source_file            jo7b01759_si_002.cif
_cod_data_source_block           131203_compound_7b
_cod_depositor_comments
'Adding full bibliography for 4032995--4033001.cif.'
_cod_original_cell_volume        545.47(3)
_cod_database_code               4032996
_shelxl_version_number           2013-4
_shelx_res_file
;
TITL 131203
CELL  1.54187 7.41030 8.32507 9.02660 86.16960 83.77780 80.60540
ZERR  2 0.00027 0.00032 0.00031 0.00230 0.00240 0.00250
LATT 1
SFAC C H O N CL
UNIT 18 8 2 6 6
L.S. 15
FMAP 2
PLAN 20
WPDB -2
HTAB
BOND $H
CONF
LIST 4
TEMP -100.0
ACTA
SIZE 0.150 0.150 0.070
WGHT    0.000000    1.100000
FVAR       2.03149
CL1   5    0.068184    0.557763    0.288866    11.00000    0.04229    0.03170 =
         0.03352   -0.00554    0.00874   -0.00654
CL2   5    0.429714    0.370810   -0.237425    11.00000    0.04301    0.04732 =
         0.02912    0.00095    0.01289   -0.00821
CL3   5    0.155703   -0.069928    0.149081    11.00000    0.04904    0.02812 =
         0.03228    0.00019    0.00046   -0.00810
O1    3    0.086487    0.185216    0.467822    11.00000    0.03169    0.04839 =
         0.02713    0.00325   -0.00499   -0.00956
N1    4   -0.169438    0.206544    0.346319    11.00000    0.02513    0.03452 =
         0.01973    0.00099    0.00067   -0.00530
N2    4   -0.244420    0.214273    0.212387    11.00000    0.03211    0.03623 =
         0.02943   -0.00111   -0.00146   -0.00900
N3    4   -0.417686    0.203281    0.245090    11.00000    0.02948    0.04667 =
         0.03577   -0.00211   -0.00334   -0.00737
C1    1   -0.454211    0.187607    0.397412    11.00000    0.02545    0.04657 =
         0.03934    0.00272    0.00686   -0.00486
AFIX  43
H1    2   -0.570937    0.177798    0.449022    11.00000   -1.20000
AFIX   0
C2    1   -0.299923    0.188290    0.461906    11.00000    0.03120    0.04640 =
         0.02704    0.00624    0.00646   -0.00913
AFIX  43
H2    2   -0.284813    0.178253    0.565463    11.00000   -1.20000
AFIX   0
C3    1    0.020138    0.209267    0.350543    11.00000    0.02463    0.02971 =
         0.02792    0.00053    0.00413   -0.00395
C4    1    0.122361    0.248842    0.202979    11.00000    0.02104    0.02834 =
         0.02474    0.00109    0.00177   -0.00601
C5    1    0.154462    0.405871    0.163903    11.00000    0.02595    0.02619 =
         0.02962   -0.00101    0.00554    0.00118
C6    1    0.248742    0.447562    0.030146    11.00000    0.02769    0.03280 =
         0.02882    0.00202    0.00378   -0.00763
AFIX  43
H3    2    0.268153    0.556516    0.005167    11.00000   -1.20000
AFIX   0
C7    1    0.313754    0.323534   -0.065985    11.00000    0.02804    0.03984 =
         0.02804    0.00351    0.00650   -0.00386
C8    1    0.289645    0.162978   -0.032600    11.00000    0.02956    0.03503 =
         0.02586   -0.00362    0.00154    0.00036
AFIX  43
H4    2    0.338045    0.079819   -0.099687    11.00000   -1.20000
AFIX   0
C9    1    0.192344    0.128600    0.102239    11.00000    0.02932    0.02301 =
         0.02907   -0.00149   -0.00199   -0.00569
HKLF 4

REM  131203
REM R1 =  0.0498 for    1443 Fo > 4sig(Fo)  and  0.0689 for all    1938 data
REM    145 parameters refined using      0 restraints

END

WGHT      0.0352      0.4231

REM Instructions for potential hydrogen bonds
EQIV $1 x-1, y, z
HTAB C1 O1_$1
EQIV $2 x-1, y, z+1
HTAB C2 Cl2_$2
EQIV $3 -x, -y, -z+1
HTAB C2 Cl3_$3
EQIV $4 -x, -y+1, -z
HTAB C6 N2_$4

REM Highest difference peak  0.540,  deepest hole -0.466,  1-sigma level  0.093
Q1    1   0.2312  0.6221  0.2819  11.00000  0.05    0.54
Q2    1   0.5330  0.2834 -0.2926  11.00000  0.05    0.39
Q3    1   0.0022 -0.1228  0.1509  11.00000  0.05    0.39
Q4    1   0.1624  0.0471  0.1028  11.00000  0.05    0.39
Q5    1   0.1317 -0.2173  0.1060  11.00000  0.05    0.36
Q6    1   0.0272  0.0514  0.2173  11.00000  0.05    0.35
Q7    1   0.2702  0.2975 -0.2270  11.00000  0.05    0.35
Q8    1   0.3196 -0.0565  0.1613  11.00000  0.05    0.35
Q9    1   0.5970  0.4283 -0.2416  11.00000  0.05    0.34
Q10   1   0.4090  0.2322 -0.2721  11.00000  0.05    0.33
Q11   1  -0.0490  0.6555  0.3374  11.00000  0.05    0.33
Q12   1   0.2915 -0.1801  0.1075  11.00000  0.05    0.33
Q13   1  -0.6415  0.1318  0.4137  11.00000  0.05    0.32
Q14   1  -0.5602  0.2080  0.3985  11.00000  0.05    0.30
Q15   1  -0.6298  0.3577  0.3667  11.00000  0.05    0.30
Q16   1  -0.0658  0.0932  0.2523  11.00000  0.05    0.30
Q17   1   0.1308  0.4768  0.2180  11.00000  0.05    0.29
Q18   1  -0.0988  0.5240  0.2942  11.00000  0.05    0.29
Q19   1   0.4425  0.4872 -0.2909  11.00000  0.05    0.29
Q20   1   0.3066  0.4832 -0.1754  11.00000  0.05    0.29
;
_shelx_res_checksum              505
_shelx_hkl_file
;
   0   0   1 1499.73   59.86
   0   0   1 1581.46   48.72
   0   0   1 1457.72   55.72
   0   0   1 1485.93   67.89
   0   0  -1 1494.59   56.70
   0   0  -1 1509.69   60.92
   0   0  -1 1456.11   58.62
   0   0  -1 1518.06   86.38
   0   0   211201.29  878.91
   0   0   210923.47  927.01
   0   0   211928.18  839.99
   0   0  -211491.94  870.85
   0   0  -211445.89  975.19
   0   0  -211100.49  867.84
   0   0  -211442.49  905.16
   0   0   3 1400.49  107.04
   0   0   3 1345.81   76.37
   0   0   3 1389.34   52.42
   0   0   3 1433.08   89.11
   0   0  -3 1342.31   84.26
   0   0  -3 1456.83   91.82
   0   0  -3 1363.14   76.56
   0   0  -3 1484.42  114.99
   0   0   4 2286.55  182.53
   0   0   4 2422.58  156.26
   0   0   4 1758.39   91.40
   0   0   4 2336.09  140.45
   0   0   4 1981.84   88.16
   0   0  -4 2210.94  143.81
   0   0  -4 2457.92  201.78
   0   0  -4 2320.50  135.16
   0   0   5   11.92   15.71
   0   0   5    1.64   11.59
   0   0   5    8.25   26.61
   0   0  -5   11.09   18.51
   0   0  -5   14.60   12.55
   0   0  -5    5.65   11.69
   0   0   6   -6.28   14.04
   0   0   6   -4.29    8.55
   0   0  -6    1.35   16.48
   0   0  -6    8.47   10.20
   0   0   7  109.80   44.03
   0   0  -7   74.82   33.36
   0   0  -7   95.00   32.87
   0   0   8  145.85   64.59
   0   0  -8  181.75   46.61
   0   0   9   10.61   26.11
   0   0  -9   -2.94   18.55
   0   0  -9   19.50   18.04
   0   0  10  521.57   99.69
   0   0 -10  535.95   70.26
   0   1 -10  307.55   78.96
   0  -1  10  268.71  103.67
   0   1  -9    2.47   18.31
   0   1  -9    9.98   18.65
   0  -1   9    7.04   24.03
   0   1  -8  772.34  109.21
   0   1  -8  729.40  165.42
   0  -1   8  745.86  134.16
   0   1  -7  354.03   64.96
   0   1  -7  344.98   66.44
   0  -1   7  342.54   82.69
   0   1  -6 1521.19  144.03
   0   1  -6 1704.36  161.36
   0  -1   6 1672.27  254.28
   0   1  -5   -3.34   31.97
   0   1  -5   77.77   22.28
   0   1  -5   69.04   12.72
   0   1  -5   73.61   23.51
   0   1  -5   75.90   24.37
   0  -1   5   55.61   12.60
   0  -1   5   57.16   29.21
   0   1  -417674.28 1812.62
   0   1  -417376.58 1647.22
   0   1  -416012.61 1633.49
   0  -1   416596.04 1510.49
   0  -1   417666.59 1785.62
   0  -1   416816.15 1810.72
   0   1  -3 1462.25   99.51
   0   1  -3 1233.49  108.14
   0   1  -3 1340.64   90.66
   0   1  -3 1314.11   74.79
   0  -1   3 1375.88  106.87
   0  -1   3 1329.85   75.10
   0  -1   3 1405.77   92.70
   0  -1   3 1303.49   96.03
   0   1  -2   83.39   26.60
   0   1  -2   57.27   30.29
   0   1  -2   68.31   10.99
   0  -1   2   50.03   18.56
   0  -1   2   44.08   15.86
   0  -1   2   39.52   18.91
   0  -1   2   45.82   10.29
   0   1  -1 1767.73   84.72
   0   1  -1 1795.98   84.83
   0   1  -1 1893.66   95.33
   0   1  -1 1580.67   47.29
   0  -1   1 1826.72  107.06
   0  -1   1 1541.98   90.69
   0  -1   1 1963.83   98.72
   0  -1   1 1767.52   85.11
   0   1   0  142.92   17.53
   0   1   0  135.16   10.29
   0   1   0  130.46    8.69
   0   1   0  115.94   13.74
   0   1   0  144.06    6.04
   0  -1   0  154.06   12.51
   0  -1   0  143.86    7.40
   0  -1   0  146.38   21.67
   0   1   1 2568.21  115.85
   0   1   1 2765.56  138.50
   0   1   1 2759.36  113.50
   0   1   1 2848.51  128.86
   0   1   1 2636.40  183.38
   0  -1  -1 2910.43  161.37
   0  -1  -1 2806.10  164.40
   0   1   219847.32 2033.50
   0   1   221391.10 2047.03
   0   1   220171.02 1841.45
   0   1   220039.89 1958.55
   0  -1  -220409.77 2088.08
   0  -1  -221028.19 2049.47
   0   1   312105.67  960.97
   0   1   311100.21  792.97
   0   1   311236.68  932.61
   0   1   311067.87  788.80
   0   1   311468.30 1021.72
   0  -1  -311185.16  936.77
   0  -1  -312209.87 1079.59
   0  -1  -312005.50  963.54
   0  -1  -312114.67 1000.84
   0   1   4 1358.14   86.95
   0   1   4 1299.02  120.59
   0  -1  -4 1378.44   98.11
   0  -1  -4 1380.83   93.39
   0  -1  -4 1359.56  177.90
   0  -1  -4 1286.90  114.36
   0   1   5  635.51   51.69
   0   1   5  620.64   83.33
   0  -1  -5  654.59   84.32
   0  -1  -5  763.60   94.12
   0  -1  -5  626.58   56.58
   0  -1  -5  690.50   59.33
   0   1   6  452.33   55.19
   0   1   6  476.86   79.09
   0  -1  -6  456.69   53.58
   0  -1  -6  434.49   55.28
   0   1   7  264.98   67.98
   0   1   7  283.78   47.57
   0  -1  -7  238.27   45.86
   0  -1  -7  235.64   47.07
   0   1   8 1960.78  258.92
   0   1   8 2056.54  201.20
   0  -1  -8 1769.18  180.03
   0   1   9  157.22   51.54
   0  -1  -9   63.97   32.05
   0  -1  -9   89.94   51.33
   0   1  10   18.42   26.57
   0   2 -10   10.13   23.02
   0   2 -10    2.02   13.24
   0  -2  10    8.80   28.46
   0   2  -9  838.86  114.22
   0   2  -9  846.47  118.24
   0  -2   9  823.49  140.42
   0   2  -8 1712.08  198.40
   0   2  -8 1737.50  283.15
   0  -2   8 1764.72  242.09
   0   2  -7  640.44  142.67
   0   2  -7  602.81   97.14
   0  -2   7  634.32  172.01
   0   2  -6  220.16   46.28
   0   2  -6  205.14   48.95
   0  -2   6  165.75   57.75
   0   2  -5 1672.49  153.58
   0   2  -5 1702.52  157.25
   0   2  -5 1577.16  143.17
   0   2  -5 1799.43  157.24
   0  -2   5 1652.22  172.89
   0   2  -4    5.71   11.94
   0   2  -4    3.98    5.30
   0   2  -4    0.90   14.51
   0   2  -4   51.82   13.77
   0   2  -4   14.52   12.61
   0   2  -4   -4.44   14.08
   0  -2   4   11.22   16.75
   0  -2   4    8.73    6.91
   0   2  -3 2103.26  127.68
   0   2  -3 2200.51   92.37
   0   2  -3 2203.20  149.91
   0   2  -3 2375.14  161.97
   0   2  -3 2198.74  160.23
   0  -2   3 2313.56  133.11
   0  -2   3 2445.89  173.73
   0  -2   3 2228.04  180.00
   0   2  -2 9369.35  713.62
   0   2  -2 8949.41  726.12
   0   2  -2 9139.56  722.84
   0   2  -2 9935.45  758.85
   0  -2   2 9998.52  750.52
   0  -2   2 7884.32  675.45
   0  -2   210540.40  821.25
   0  -2   2 9031.81  758.25
   0   2  -128442.77 3203.71
   0   2  -131049.67 3391.10
   0   2  -124903.18 2956.01
   0   2  -131739.93 3478.53
   0   2  -131642.87 3550.17
   0  -2   133526.98 3759.97
   0  -2   124743.10 2968.02
   0   2   0 3580.76  170.87
   0   2   0 3437.71  171.44
   0   2   0 3488.14  190.79
   0   2   0 3126.15  217.69
   0   2   0 3707.19  190.81
   0   2   0 3708.98  222.57
   0  -2   0 4034.98  243.54
   0  -2   0 3098.44  212.72
   0   2   1 1560.50   56.67
   0   2   1 1499.26   78.48
   0   2   1 1333.37   84.16
   0   2   1 1414.78  102.10
   0   2   1 1601.38  114.02
   0  -2  -1 1617.95  152.71
   0   2   2 3982.35  198.30
   0   2   2 3781.41  270.27
   0   2   2 4002.01  223.39
   0   2   2 3593.39  226.56
   0   2   2 3836.30  207.24
   0  -2  -2 4309.10  293.99
   0   2   3 3922.93  363.74
   0   2   3 3851.50  219.14
   0   2   3 3954.91  233.82
   0  -2  -3 3986.72  271.80
   0  -2  -3 4206.90  314.67
   0   2   4 1360.27  120.97
   0   2   4 1410.32   74.41
   0   2   4 1023.97   48.04
   0   2   4 1061.91   51.73
   0  -2  -4 1455.31  104.13
   0  -2  -4 1498.64  126.10
   0  -2  -4 1262.47   72.95
   0  -2  -4 1354.90   78.32
   0   2   511739.88 1050.39
   0   2   512165.15 1272.81
   0   2   512078.51 1224.18
   0  -2  -511449.40 1052.50
   0  -2  -512922.76 1212.21
   0  -2  -513223.19 1473.81
   0  -2  -511181.72 1036.87
   0   2   6  487.52  112.81
   0   2   6  389.22   54.97
   0  -2  -6  342.52   41.47
   0   2   7 8757.96  864.44
   0   2   7 8817.65 1161.49
   0   2   8 1966.86  262.51
   0   2   9  519.93   67.62
   0  -2  -9    8.76   48.73
   0   2  10   11.86   30.88
   0  -2 -10   46.56   20.01
   0   3 -10  140.90   47.01
   0   3 -10  122.04   28.39
   0  -3  10   75.25   34.33
   0   3  -9  278.41   64.94
   0   3  -9  352.17   63.64
   0  -3   9  297.62   75.86
   0   3  -8   22.91   31.00
   0   3  -8   40.83   28.85
   0  -3   8   29.77   34.08
   0   3  -7   -7.48   28.55
   0   3  -7   15.36   27.86
   0  -3   7   -9.29   22.11
   0   3  -6    3.63   34.07
   0   3  -6   -3.58   19.02
   0  -3   6   41.29   25.14
   0   3  -5  120.99   39.06
   0   3  -5  159.72   35.04
   0  -3   5  135.78   23.67
   0  -3   5  104.83   44.99
   0   3  -4  185.43   39.17
   0   3  -4  226.39   35.01
   0   3  -4  215.19   37.00
   0   3  -4  204.26   26.68
   0  -3   4  192.38   27.58
   0  -3   4  200.50   49.00
   0   3  -3  705.83   60.76
   0   3  -3  629.03   65.03
   0   3  -3  629.38   55.15
   0   3  -3  683.41   57.81
   0  -3   3  740.27   57.63
   0  -3   3  704.55   80.76
   0   3  -2  627.49   81.46
   0   3  -2  704.76   49.56
   0   3  -2  630.16   79.11
   0   3  -2  675.89   68.20
   0  -3   2  476.97   69.54
   0  -3   2  743.47   60.09
   0   3  -1 8190.40  710.10
   0   3  -1 8863.25  690.64
   0   3  -1 9185.78  666.57
   0   3  -1 9098.89  728.33
   0   3  -1 8879.77  682.05
   0  -3   110011.80  790.18
   0   3   0 8590.18  553.94
   0   3   0 8644.49  658.03
   0   3   0 7661.77  643.46
   0   3   0 8439.14  542.57
   0   3   0 7525.24  509.03
   0   3   0 7733.63  554.89
   0  -3   0 9153.41  691.54
   0   3   143671.58 5739.17
   0   3   137397.08 5197.22
   0   3   143621.89 5243.50
   0   3   135612.05 4628.98
   0   3   2 2232.57  129.15
   0   3   2 2177.72   93.40
   0   3   2 2113.32  164.46
   0   3   2 2231.23  130.73
   0   3   3 8508.19  646.09
   0   3   3 8429.51  764.03
   0   3   3 8885.89  638.61
   0   3   3 8361.96  576.05
   0  -3  -310456.71 1004.78
   0   3   4  573.79   33.28
   0   3   4  624.33   77.32
   0   3   4  632.99   90.28
   0  -3  -4  664.76   63.12
   0  -3  -4  700.28   82.57
   0   3   5  201.56   38.32
   0   3   5  190.84   50.90
   0   3   6 1230.95  124.64
   0   3   6 1209.65  161.17
   0   3   7  135.17   43.43
   0   3   7  113.16   55.06
   0   3   8   76.74   46.04
   0   3   9  149.54   39.45
   0  -3  -9  -27.89   34.75
   0   3  10   78.65   35.93
   0  -3 -10   83.45   28.38
   0   4  -9 1047.34  107.06
   0   4  -9  946.35  116.37
   0  -4   9  805.92  127.22
   0   4  -8   35.26   24.23
   0   4  -8    0.26   21.92
   0  -4   8    3.30   26.41
   0   4  -7  294.22   62.70
   0   4  -7  275.14   68.45
   0  -4   7  197.17   79.76
   0   4  -6   42.19   35.04
   0   4  -6   70.33   47.26
   0  -4   6   55.89   40.37
   0   4  -5  479.55   82.86
   0   4  -5  529.57   82.79
   0   4  -5  572.16   72.68
   0  -4   5  530.90   95.27
   0   4  -4 1673.40  144.19
   0   4  -4 1702.66  140.54
   0   4  -4 1664.76  161.32
   0   4  -4 1762.64  149.00
   0  -4   4 1856.53  140.34
   0  -4   4 1727.74  192.44
   0   4  -3  870.69   80.61
   0   4  -3  914.72   74.89
   0   4  -3  934.55   73.54
   0   4  -3  868.89   86.87
   0  -4   3  961.37   81.97
   0  -4   3  911.78  104.42
   0   4  -2  944.02   81.63
   0   4  -2  975.86  118.88
   0   4  -2 1043.61   93.71
   0   4  -2 1026.10   68.54
   0  -4   2 1065.61   88.99
   0   4  -1 7564.68  608.57
   0   4  -1 7720.78  578.77
   0   4  -1 7805.58  595.48
   0   4  -1 7729.06  697.59
   0   4  -1 8131.55  673.46
   0  -4   1 8532.83  694.92
   0   4   0  749.09  118.65
   0   4   0  783.69   43.88
   0   4   0  714.84   71.32
   0   4   0  794.51   71.89
   0  -4   0 1350.07  115.98
   0   4   1  939.52   74.78
   0   4   1 1055.77  100.05
   0   4   1 1095.60   82.80
   0   4   1 1080.07   60.43
   0   4   2 1485.26  100.38
   0   4   2 1415.64   89.77
   0   4   2 1430.66  131.41
   0   4   2 1521.52   98.40
   0   4   3 5054.27  531.96
   0   4   3 5230.47  379.26
   0   4   3 5636.69  427.83
   0   4   4 3755.73  357.47
   0   4   4 4133.39  326.17
   0   4   5  359.66   74.24
   0   4   5  422.06   60.80
   0   4   6 1319.76  141.59
   0   4   6 1160.01  167.37
   0   4   7   27.37   34.70
   0   4   7   37.55   30.73
   0   4   8 1351.19  159.97
   0   4   8 1016.87  168.62
   0  -4  -9 1208.87  154.74
   0   4  10  213.38   52.02
   0  -4 -10  294.45   45.58
   0   5  -9  290.59   37.98
   0   5  -9  304.52   67.38
   0  -5   9  187.01   45.94
   0   5  -8  348.02   55.56
   0   5  -8  307.00   64.51
   0  -5   8  259.31   70.85
   0   5  -7  523.25   93.74
   0   5  -7  574.72   83.52
   0  -5   7  445.65  106.16
   0   5  -6 2412.52  275.77
   0   5  -6 2611.42  330.75
   0  -5   6 2373.46  315.34
   0   5  -5 1860.55  227.20
   0   5  -5 1917.84  217.62
   0   5  -5 2056.84  189.38
   0  -5   5 1973.00  248.76
   0   5  -4  837.51   88.00
   0   5  -4  936.56   99.43
   0   5  -4  783.69  104.84
   0  -5   4  904.69  133.04
   0   5  -3   19.66   16.77
   0   5  -3    7.07   12.10
   0   5  -3   13.69   16.90
   0   5  -3   11.89   12.94
   0  -5   3    7.25   21.71
   0   5  -2  408.82   50.95
   0   5  -2  466.32   59.15
   0   5  -2  412.31   36.86
   0   5  -2  410.37   39.96
   0  -5   2  434.56   75.06
   0   5  -1 3110.39  291.40
   0   5  -1 2700.83  246.74
   0   5  -1 3257.01  262.67
   0  -5   1 3747.91  367.38
   0   5   0 4131.67  319.69
   0   5   0 4685.28  418.65
   0   5   0 5209.20  405.35
   0   5   1  909.90   86.44
   0   5   1  881.71  102.13
   0   5   2 1060.01   89.35
   0   5   2 1009.03  118.51
   0   5   2 1037.45   76.19
   0   5   3  671.29   59.84
   0   5   3  606.51   95.20
   0   5   3  677.28   64.91
   0   5   4 2197.56  184.42
   0   5   4 1912.48  227.05
   0   5   5  321.99  126.49
   0   5   5  383.26   63.13
   0   5   6 4436.49  681.68
   0   5   6 5375.74  517.35
   0   5   7  208.95   57.41
   0   5   7  162.15  104.48
   0   5   8 1125.39  110.11
   0  -5  -8   20.69   86.06
   0   5   9   11.80   22.66
   0  -5  -9   14.55   22.28
   0   6  -8    0.53    8.84
   0   6  -8   15.65   13.71
   0  -6   8   -6.35   13.22
   0   6  -7   41.10   22.39
   0   6  -7   40.38   28.36
   0  -6   7   58.04   32.81
   0   6  -6  695.72  106.57
   0   6  -6  773.66   92.28
   0  -6   6  804.71  135.85
   0   6  -5  -11.37   36.53
   0   6  -5   16.28   20.25
   0   6  -5   23.25   24.51
   0  -6   5   55.54   30.82
   0   6  -4  892.74  107.79
   0   6  -4  720.93  109.06
   0  -6   4  956.49  145.26
   0   6  -3  283.40   55.73
   0   6  -3  190.70   47.56
   0  -6   3  293.16   68.21
   0   6  -2   88.79   30.90
   0   6  -2   40.50   37.79
   0  -6   2   36.52   37.94
   0   6  -1   33.06   26.07
   0   6  -1   47.35   29.80
   0   6   0  985.73  132.80
   0   6   0  678.09  136.23
   0   6   1 1506.22  204.47
   0   6   1 1724.93  196.62
   0   6   2 7369.04  792.02
   0   6   2 7985.06  819.63
   0   6   3  563.62   98.19
   0   6   3  546.43   94.15
   0   6   4  -39.71   20.88
   0   6   4   15.10   29.83
   0   6   5   27.91   22.28
   0   6   5   16.37   32.04
   0   6   6  123.62   40.04
   0   6   6   86.80   54.16
   0   6   7 1765.82  215.00
   0  -6  -7 1232.75  178.53
   0   6   8  -23.20   26.38
   0  -6  -8   60.19   24.76
   0   7  -7   32.33   19.94
   0   7  -6   18.84   18.60
   0  -7   6    2.82   22.08
   0   7  -5   80.81   27.69
   0   7  -5   -0.98   27.56
   0  -7   5   33.64   33.61
   0   7  -4    3.24   19.18
   0   7  -4   15.71   19.39
   0  -7   4   14.85   42.09
   0   7  -3 1072.14  135.87
   0  -7   3 1170.62  167.83
   0   7  -2   18.64   28.02
   0  -7   2   44.85   32.93
   0   7  -1   16.40   17.92
   0  -7   1  -17.46   21.90
   0   7   0 1072.53  129.51
   0   7   0  971.27  152.34
   0   7   1   90.69   56.12
   0   7   1  827.73   93.10
   0   7   2 1099.63  163.69
   0   7   2 1209.07  128.54
   0   7   3  843.39   96.14
   0   7   3  974.25  201.52
   0   7   4  858.70  142.60
   0   7   5  870.31  156.84
   0  -7  -5 1166.70  127.91
   0   7   6  155.15   60.99
   0  -7  -6  216.85   49.52
   0   7   7  432.78   90.56
   0  -7  -7  648.04   79.91
   0   7   8   19.85   29.84
   0   8  -5   28.96   14.76
   0  -8   5   43.33   24.42
   0   8  -4   13.44   22.19
   0  -8   4   19.56   23.37
   0   8  -3   33.98   25.62
   0  -8   3   33.37   32.83
   0   8  -2  149.70   43.26
   0  -8   2   96.11   53.03
   0   8  -1   92.59   33.67
   0  -8   1   24.36   41.95
   0   8   0 1698.38  128.42
   0  -8   0    8.70  114.94
   0   8   1   17.65   60.27
   0   8   1 1205.00   97.61
   0   8   2  203.15   74.77
   0   8   2  314.72   53.50
   0   8   3    3.64   30.77
   0   8   3   33.39   18.86
   0   8   4  183.45   58.89
   0   8   5  467.52   87.32
   0   8   6   17.29   21.37
   0   9  -3 1160.79  127.23
   0   9  -2   79.29   47.21
   0  -9   2   63.75   33.79
   0   9  -1  153.65   36.60
   0  -9   1   62.28   41.90
   0   9   0   75.48   28.32
   0  -9   0   43.86   35.41
   0   9   1   14.49   20.82
   0  -9  -1   47.29   27.88
   0   9   2  755.58   62.34
   0  -9  -2   -8.18   74.34
   0   9   3  116.66   40.92
   0   9   4   15.51   18.92
  -1   9   4  777.83   96.80
  -1   9   3  210.03   51.65
   1  -9  -2   14.56  100.83
  -1   9   2 1312.44   90.61
   1  -9  -1 1373.48  131.56
  -1   9   1  409.84   70.39
   1  -9   0 1352.13  168.00
  -1   9   0 1176.52  123.72
   1  -9   1  156.81   54.98
  -1   9  -1  211.98   42.97
   1  -9   2   13.17   20.58
  -1   9  -2    6.68   15.78
   1  -9   3    3.56   18.19
  -1   9  -3   30.64   25.88
  -1   8   6  556.90   81.84
  -1   8   5  495.19   87.87
  -1   8   4   61.31   39.00
  -1   8   3   -0.97   25.73
  -1   8   3   13.68   15.63
  -1   8   2   14.35   24.87
  -1   8   2   78.88   35.62
  -1   8   1   98.27   58.15
  -1   8   1  146.65   42.94
   1  -8   0    7.48   75.23
  -1   8   0  280.24   52.94
   1  -8   1  552.56  110.81
  -1   8  -1  521.26   87.31
   1  -8   2  893.24  144.31
  -1   8  -2  880.44  117.68
   1  -8   3  277.38   76.49
  -1   8  -3  282.01   56.10
   1  -8   4  432.93  120.12
  -1   8  -4  336.54   84.71
   1  -8   5   44.08   28.96
   1  -7  -7  183.77   38.03
  -1   7   7  168.99   79.54
   1  -7  -6  419.68   66.26
   1  -7  -5  397.17   66.25
  -1   7   5  445.80  145.90
  -1   7   4 1961.81  353.84
  -1   7   3  221.69   67.12
  -1   7   3  133.00   68.10
  -1   7   2  377.81   99.90
  -1   7   2  385.37   92.39
  -1   7   1 1753.43  263.28
  -1   7   1 1909.51  245.55
  -1   7   0  402.19   78.56
  -1   7   0  -12.70   83.48
   1  -7   1   18.70  112.51
  -1   7  -1 1155.42  108.62
   1  -7   2  169.12   65.95
  -1   7  -2  184.47   53.24
   1  -7   3 2481.35  309.63
  -1   7  -3 2383.66  248.77
   1  -7   4  508.42  109.01
  -1   7  -4  434.92   74.41
   1  -7   5  726.72  124.28
  -1   7  -5  630.13  124.99
   1  -7   6  748.86   87.97
  -1   7  -6  253.75   58.25
   1  -7   7  125.29   57.62
   1  -6  -8  205.33   47.66
  -1   6   8  158.20   52.87
   1  -6  -7  622.33   94.60
  -1   6   7  511.80  107.78
   1  -6  -6   11.98   22.89
  -1   6   6    4.18   27.37
   1  -6  -5    7.96   32.68
  -1   6   5   97.17   41.36
   1  -6  -4   -7.96   20.70
  -1   6   4   54.50   29.46
   1  -6  -3 1103.26  115.36
  -1   6   3 1031.65  111.66
  -1   6   3 1210.21  162.21
  -1   6   2   84.97   65.91
  -1   6   2   63.86   29.90
  -1   6   1 7741.43  792.49
  -1   6   1 9477.99 1026.39
  -1   6   0 3469.80  345.40
  -1   6   0 4776.57  476.61
  -1   6  -1 1410.28  148.45
  -1   6  -1 1410.40  185.65
   1  -6   2  253.28   75.62
  -1   6  -2  266.28   85.24
   1  -6   3   74.85   52.55
  -1   6  -3  124.66   39.31
   1  -6   4  820.60  132.39
  -1   6  -4  399.82   85.00
  -1   6  -4  810.63   92.34
   1  -6   5   21.42   36.22
  -1   6  -5  -15.42   13.62
  -1   6  -5    6.18   14.04
  -1   6  -5   -0.36   15.86
   1  -6   6  297.04   58.62
  -1   6  -6  245.45   62.27
  -1   6  -6   -1.78   42.30
   1  -6   7   50.13   29.42
  -1   6  -7    6.40   22.75
  -1   6  -7   30.58   19.67
   1  -6   8   35.97   27.60
  -1   6  -8   35.34   37.05
  -1   6  -8   65.49   17.10
   1  -5  -9    8.64   20.14
  -1   5   9   21.90   21.43
   1  -5  -8   -0.66   18.01
  -1   5   8   -3.26   19.93
   1  -5  -7  337.69   75.65
  -1   5   7  196.50   77.48
   1  -5  -6   15.07   37.43
  -1   5   6   83.33   40.85
  -1   5   5  370.90   88.78
  -1   5   5  377.08   68.01
  -1   5   4  366.68   57.99
  -1   5   4  346.00   85.25
   1  -5  -3    1.32   18.59
  -1   5   3   13.37   26.16
  -1   5   3   29.69   14.90
   1  -5  -2 1400.48  113.85
  -1   5   2 1217.34  113.71
  -1   5   2 1373.36  154.44
  -1   5   1  179.99   37.40
  -1   5   1  191.63   80.26
   1  -5   0 3969.41  337.73
   1  -5   0 3439.11  329.64
  -1   5   0 3264.01  285.48
  -1   5   0 3263.08  318.78
  -1   5  -1 2302.09  227.30
  -1   5  -1 2246.41  197.60
  -1   5  -2 1033.12  111.13
  -1   5  -2 1076.74   99.32
  -1   5  -2  779.93   79.30
  -1   5  -2 1038.93  102.19
  -1   5  -2  892.94   83.16
   1  -5   3 1840.43  205.77
  -1   5  -3 1771.61  142.11
  -1   5  -3 1805.92  209.40
  -1   5  -3 1519.36  149.01
   1  -5   4  924.92  119.94
  -1   5  -4  504.14   68.50
  -1   5  -4  421.00   74.70
  -1   5  -4  549.86   70.13
   1  -5   5  483.33  151.44
  -1   5  -5  302.01   70.92
  -1   5  -5  381.74   56.98
  -1   5  -5  405.60   64.34
   1  -5   6 1603.27  232.10
  -1   5  -6 1494.92  191.11
  -1   5  -6 1649.29  174.31
   1  -5   7  169.22   64.63
  -1   5  -7  239.27   77.88
  -1   5  -7  144.57   52.30
   1  -5   8 1243.01  231.23
  -1   5  -8 1033.81  137.95
  -1   5  -8 1261.01  130.00
   1  -4  -9 2276.26  218.93
  -1   4   9 1729.09  226.40
   1  -4  -8  306.39   71.65
  -1   4   8  155.22  112.32
   1  -4  -7   24.16   70.55
  -1   4   7  446.93   73.18
  -1   4   6  387.01   77.78
  -1   4   6  373.89   85.01
  -1   4   5  303.70   56.40
  -1   4   5  242.06   66.47
  -1   4   4  554.71   60.45
  -1   4   4  526.35  111.12
  -1   4   4  341.39   42.29
   1  -4  -3 3683.19  333.40
  -1   4   3 3347.05  294.46
  -1   4   3 3652.80  281.15
  -1   4   3 3547.52  324.48
   1  -4  -2 1700.67  161.05
  -1   4   2 1558.23  112.44
  -1   4   2 1555.85  153.97
  -1   4   2 1574.95  159.06
   1  -4  -1 4183.41  430.35
   1  -4  -1 4515.30  297.60
  -1   4   1 3561.67  233.25
  -1   4   1 4120.60  352.55
  -1   4   1 4050.70  358.46
   1  -4   0 1265.35  122.07
   1  -4   0 1520.56  120.42
  -1   4   0 1369.23  105.73
  -1   4   0 1084.65   74.38
  -1   4   0 1243.04  168.64
  -1   4   0 1130.48   70.25
   1  -4   1  482.98   70.04
   1  -4   1  682.03   68.62
  -1   4  -1  578.56   60.19
  -1   4  -1  464.19   38.06
  -1   4  -1  536.47   40.39
  -1   4  -1  552.10   59.85
  -1   4  -1  501.52   70.50
   1  -4   2 6427.84  513.79
   1  -4   2 5308.49  481.64
  -1   4  -2 5833.58  434.45
  -1   4  -2 5429.57  420.55
  -1   4  -2 5080.51  384.11
  -1   4  -2 4660.17  412.11
  -1   4  -2 5170.78  413.50
  -1   4  -2 5019.25  466.12
   1  -4   3  430.50   53.00
   1  -4   3  331.22   65.14
   1  -4   3  360.53   67.82
  -1   4  -3  400.70   49.93
  -1   4  -3  311.83   42.03
  -1   4  -3  320.06   64.54
  -1   4  -3  351.57   48.01
  -1   4  -3  326.58   44.80
   1  -4   4 5175.64  407.93
   1  -4   4 4446.59  454.82
  -1   4  -4 4371.40  364.76
  -1   4  -4 4068.82  329.91
  -1   4  -4 3827.11  353.34
   1  -4   5  183.56  104.24
  -1   4  -5  181.64   73.80
  -1   4  -5  214.96   44.87
   1  -4   6 3013.93  364.60
  -1   4  -6 3053.59  293.80
  -1   4  -6 2765.81  396.55
   1  -4   7 2840.85  365.23
  -1   4  -7 2855.97  290.58
  -1   4  -7 2643.30  303.26
   1  -4   8   54.27   72.30
  -1   4  -8   83.02   37.87
  -1   4  -8   82.63   40.14
   1  -4   9   -7.66   22.10
  -1   4  -9    6.16   19.02
  -1   4  -9   23.80   17.55
   1  -3 -10    1.61   12.68
  -1   3  10   13.68   26.46
   1  -3  -9  120.46   41.52
  -1   3   9   91.24   46.76
   1  -3  -8  747.85  116.78
  -1   3   8  619.60  124.81
  -1   3   7  399.39   95.37
  -1   3   7  457.98   82.38
  -1   3   6 1123.84  154.54
  -1   3   6 1130.41  133.00
  -1   3   5  158.41   47.32
  -1   3   5  170.13   40.29
   1  -3  -4    2.02    8.63
   1  -3  -4    8.57   18.10
   1  -3  -4    1.30   13.41
  -1   3   4   10.32   10.99
  -1   3   4    7.71    8.01
  -1   3   4   21.85   13.45
  -1   3   4   -2.01   16.66
   1  -3  -3  105.05   29.79
  -1   3   3   78.10   17.29
  -1   3   3   93.23   22.82
  -1   3   3   77.44   11.48
  -1   3   3   81.47   28.19
   1  -3  -2  255.20   44.25
  -1   3   2  248.87   31.02
  -1   3   2  231.24   29.32
  -1   3   2  211.83   64.48
  -1   3   2  230.70   30.78
   1  -3  -1 2128.61  217.28
  -1   3   1 2024.18  161.88
  -1   3   1 1787.57  119.92
  -1   3   1 2103.00  123.63
  -1   3   1 2123.61  142.35
   1  -3   0 1760.66   98.04
   1  -3   0 1626.27  129.04
   1  -3   0 1908.17  130.96
  -1   3   0 1542.92   73.50
  -1   3   0 1770.86  139.87
  -1   3   0 1523.02   89.68
  -1   3   0 1773.00  123.40
   1  -3   1  590.13   57.35
   1  -3   1  558.41   61.88
  -1   3  -1  458.43   32.30
  -1   3  -1  463.18   72.90
  -1   3  -1  488.53   59.58
  -1   3  -1  552.30   41.61
   1  -3   2 3002.61  246.76
   1  -3   2 3368.58  231.15
  -1   3  -2 3142.83  209.74
  -1   3  -2 2785.21  191.88
  -1   3  -2 2527.30  177.12
  -1   3  -2 3175.96  205.78
  -1   3  -2 2725.41  185.65
  -1   3  -2 2535.23  218.80
   1  -3   3   26.17   22.00
   1  -3   3   34.44   22.70
   1  -3   3   27.93   14.17
  -1   3  -3    9.09   14.42
  -1   3  -3   24.02   16.24
  -1   3  -3   25.51   11.55
   1  -3   4  111.01   19.67
   1  -3   4   51.20   35.00
   1  -3   4   52.27   33.99
  -1   3  -4   43.26   28.38
  -1   3  -4   66.12   40.35
  -1   3  -4   84.59   16.74
  -1   3  -4   91.06   38.15
  -1   3  -4   58.15   25.84
   1  -3   5 5964.26  741.26
  -1   3  -5 6061.87  571.26
  -1   3  -5 6325.86  564.06
   1  -3   6   23.27   41.41
  -1   3  -6   67.33   34.06
  -1   3  -6   87.18   32.73
   1  -3   7 2333.89  300.79
  -1   3  -7 2328.60  245.42
  -1   3  -7 2180.50  259.45
   1  -3   8  323.80  151.50
  -1   3  -8  517.11  125.75
  -1   3  -8  401.14  128.74
   1  -3   9   57.61   37.35
  -1   3  -9   35.32   32.15
  -1   3  -9   51.79   30.50
   1  -3  10   94.26   38.37
  -1   3 -10  151.80   31.10
  -1   3 -10  105.06   33.09
   1  -2 -10 1666.17  139.10
  -1   2  10 1682.11  189.12
   1  -2  -9  175.97   46.83
  -1   2   9  184.80   61.00
   1  -2  -8   29.07   32.49
  -1   2   8   54.78   37.64
   1  -2  -7  505.63   74.67
  -1   2   7  639.40   88.19
  -1   2   7  564.91  108.82
   1  -2  -6   12.14   26.82
  -1   2   6   14.10   20.60
  -1   2   6   31.82   26.10
   1  -2  -5 1105.98  125.38
   1  -2  -5 1117.26  128.87
   1  -2  -5 1260.57  111.14
  -1   2   5 1078.41  104.81
  -1   2   5 1245.91  130.54
  -1   2   5 1072.55   83.77
   1  -2  -4  301.81   49.86
   1  -2  -4  278.37   47.22
   1  -2  -4  305.28   39.40
  -1   2   4  284.26   37.48
  -1   2   4  272.45   40.53
  -1   2   4  297.43   49.45
  -1   2   4  209.82   22.32
   1  -2  -3  811.97   97.03
   1  -2  -3  870.78   86.22
   1  -2  -3  759.53   56.61
  -1   2   3  756.28   70.80
  -1   2   3  797.04   49.82
  -1   2   3  890.36   84.23
  -1   2   3  817.23   66.36
   1  -2  -2 5115.05  377.46
   1  -2  -2 4349.68  288.19
  -1   2   2 4521.70  344.35
  -1   2   2 4822.67  355.79
  -1   2   2 5093.59  346.02
  -1   2   2 4728.61  320.18
   1  -2  -114185.99 1392.24
  -1   2   114891.91 1278.39
  -1   2   114665.26 1301.95
  -1   2   114514.49 1408.98
  -1   2   113099.06 1161.36
   1  -2   0  644.27   63.05
   1  -2   0  600.93   52.65
   1  -2   0  565.76   53.05
  -1   2   0  691.68   26.15
  -1   2   0  591.22   51.40
  -1   2   0  557.82   29.65
  -1   2   0  503.15   37.72
  -1   2   0  549.33   54.31
   1  -2   112844.37 1192.01
   1  -2   113702.09 1173.43
   1  -2   114472.50 1250.45
  -1   2  -114328.29 1174.88
  -1   2  -113211.25 1096.50
  -1   2  -113487.47 1161.89
  -1   2  -111706.90 1096.94
  -1   2  -113357.28 1159.91
   1  -2   2 5303.71  337.15
   1  -2   2 4727.39  352.17
  -1   2  -2 3839.17  211.22
  -1   2  -2 5020.49  327.26
  -1   2  -2 4535.83  301.99
  -1   2  -2 4703.52  363.14
  -1   2  -2 4502.18  288.80
   1  -2   3 4130.80  320.81
   1  -2   3 4173.86  255.14
   1  -2   3 3359.11  267.69
  -1   2  -3 3582.40  253.60
  -1   2  -3 3792.57  268.28
  -1   2  -3 3263.15  197.72
  -1   2  -3 3241.58  230.58
  -1   2  -3 2818.82  166.30
   1  -2   4 2705.52  253.67
   1  -2   4 2692.48  238.61
   1  -2   4 3239.72  194.15
  -1   2  -4 2704.54  223.83
  -1   2  -4 2570.23  259.97
  -1   2  -4 2902.15  226.48
  -1   2  -4 2914.26  238.64
   1  -2   5 1822.99  193.25
   1  -2   5 1902.16  193.12
  -1   2  -5 1925.18  164.47
  -1   2  -5 1912.27  179.73
  -1   2  -5 2085.58  187.62
  -1   2  -5 2109.98  180.88
   1  -2   6 2429.55  265.43
  -1   2  -6 2174.18  225.72
  -1   2  -6 2159.25  207.49
   1  -2   7 1929.08  257.54
  -1   2  -7 2050.40  207.20
  -1   2  -7 2024.80  230.04
   1  -2   8  245.75   78.70
  -1   2  -8  359.90   98.36
  -1   2  -8  207.32   69.24
   1  -2   9 1818.92  259.43
  -1   2  -9 1932.25  207.18
  -1   2  -9 2057.29  308.64
   1  -2  10   84.30   38.51
  -1   2 -10   76.56   30.89
  -1   2 -10   82.65   28.86
  -1   1  10  495.14   85.98
   1  -1  -9  209.61   45.36
   1  -1  -9  222.68   48.29
  -1   1   9  187.10   67.11
   1  -1  -8 2095.69  210.56
   1  -1  -8 1980.94  277.96
  -1   1   8 1967.26  267.93
   1  -1  -7 2877.59  270.73
  -1   1   7 3031.06  274.24
  -1   1   7 3246.68  459.55
   1  -1  -6 2498.62  212.19
  -1   1   6 2655.22  267.89
  -1   1   6 2631.51  217.84
   1  -1  -5   75.24   33.25
   1  -1  -5   61.15   21.49
   1  -1  -5   87.68   22.11
  -1   1   5   83.43   22.80
  -1   1   5   60.89   20.88
  -1   1   5   76.84   30.78
   1  -1  -4  335.77   34.37
   1  -1  -4  334.34   37.93
   1  -1  -4  259.61   48.06
  -1   1   4  228.67   29.21
  -1   1   4  327.66   37.35
  -1   1   4  241.27   23.72
  -1   1   4  321.34   46.36
  -1   1   4  340.71   51.61
   1  -1  -3  780.50   73.08
   1  -1  -3  723.90   51.33
   1  -1  -3  713.93   55.86
  -1   1   3  636.48   44.23
  -1   1   3  598.82   42.64
  -1   1   3  715.79   56.51
  -1   1   3  732.01   49.88
  -1   1   3  796.55   67.03
   1  -1  -2 8350.91  714.06
   1  -1  -2 7988.23  626.47
   1  -1  -2 8526.23  625.48
  -1   1   2 8562.27  610.00
  -1   1   2 8477.42  624.45
  -1   1   2 9054.61  753.02
  -1   1   2 7245.22  547.37
   1  -1  -1 4039.58  300.04
   1  -1  -1 3893.67  252.18
   1  -1  -1 3668.47  229.77
  -1   1   1 3842.14  249.60
  -1   1   1 3815.73  231.06
  -1   1   1 4186.99  261.95
  -1   1   1 3931.86  240.95
   1  -1   0  192.46   24.96
   1  -1   0  175.42   24.34
   1  -1   0  196.26   26.57
  -1   1   0  205.01   11.12
  -1   1   0  229.48   17.94
  -1   1   0  187.05   22.78
  -1   1   0  238.10   29.02
   1  -1   112887.56  991.93
   1  -1   111456.77  941.00
   1  -1   111565.45  921.13
  -1   1  -110463.13  877.87
  -1   1  -1 9630.87  745.57
  -1   1  -112348.74  946.80
  -1   1  -111683.44  901.60
  -1   1  -112075.17  960.13
   1  -1   2  278.51   20.62
   1  -1   2  182.45   29.93
  -1   1  -2  179.69   28.42
  -1   1  -2  188.52   17.78
  -1   1  -2  179.14   26.00
  -1   1  -2  196.81   27.89
  -1   1  -2  197.77   27.77
   1  -1   3 3844.10  322.77
   1  -1   3 4939.13  275.33
   1  -1   3 4017.70  307.89
  -1   1  -3 4626.61  324.49
  -1   1  -3 4093.24  302.25
  -1   1  -3 4031.63  281.96
  -1   1  -3 4284.02  309.96
  -1   1  -3 4626.31  301.72
   1  -1   4  766.77   88.99
   1  -1   4  909.85   41.03
   1  -1   4  799.03   87.49
   1  -1   4  750.15   45.37
  -1   1  -4  932.30   82.04
  -1   1  -4  873.66   81.94
  -1   1  -4  846.27   67.27
  -1   1  -4  792.13  104.80
  -1   1  -4  838.86   82.67
   1  -1   5 2908.56  258.10
   1  -1   5 2650.07  169.71
   1  -1   5 2624.95  250.68
  -1   1  -5 2964.21  211.69
  -1   1  -5 2710.88  214.55
  -1   1  -5 2925.39  307.55
  -1   1  -5 2868.39  238.86
   1  -1   6  404.98   81.29
  -1   1  -6  427.42   61.13
  -1   1  -6  494.61   69.53
   1  -1   7  184.61   83.97
  -1   1  -7  116.62   36.78
  -1   1  -7   85.91   42.17
   1  -1   8  115.70   58.27
  -1   1  -8  150.51   44.48
   1  -1   9  208.98   82.98
  -1   1  -9  436.20  110.14
  -1   1  -9  334.03   62.23
   1  -1  10  203.16   54.41
  -1   1 -10  208.98   38.78
  -1   1 -10  104.61   41.99
   1   0 -10   -5.02   14.23
  -1   0  10   21.22   18.07
   1   0  -9  543.16  126.48
  -1   0   9  498.30  104.68
   1   0  -8  208.10   50.17
  -1   0   8  177.99   65.89
   1   0  -7 2397.20  290.13
   1   0  -7 2646.73  251.19
  -1   0   7 2680.44  301.30
   1   0  -6  221.61   43.85
   1   0  -6  236.20   32.09
   1   0  -6  232.52   38.03
  -1   0   6  228.16   54.05
  -1   0   6  199.03   34.84
   1   0  -510059.60 1045.98
   1   0  -510330.65  972.35
   1   0  -511293.88 1029.79
   1   0  -510687.33  949.30
  -1   0   510919.68 1012.36
  -1   0   510955.40 1088.12
  -1   0   510711.69  970.78
   1   0  -4 3919.73  333.03
   1   0  -4 4384.69  289.12
   1   0  -4 4120.91  269.50
   1   0  -4 3926.23  282.92
  -1   0   4 2545.13  232.49
  -1   0   4 4256.16  298.91
  -1   0   4 4230.47  321.95
  -1   0   4 4162.90  280.10
  -1   0   4 3817.85  238.50
   1   0  -3  727.40   46.54
   1   0  -3  623.14   42.98
   1   0  -3  824.35  103.13
   1   0  -3  646.45   52.45
  -1   0   3  659.03   52.21
  -1   0   3  676.61   52.05
  -1   0   3  708.36   59.12
  -1   0   3  669.79   49.78
  -1   0   3  624.39   42.38
  -1   0   3  586.05   37.34
   1   0  -2 2660.08  180.21
   1   0  -2 2618.59  155.44
   1   0  -2 2652.23  167.42
  -1   0   2 2886.09  173.06
  -1   0   2 2501.28  160.42
  -1   0   2 2629.90  178.62
  -1   0   2 2907.36  180.77
  -1   0   2 2959.58  162.65
  -1   0   2 2662.18  164.28
   1   0  -1   -0.69    5.88
   1   0  -1    7.33    7.54
   1   0  -1   -4.29    7.06
   1   0  -1    5.94    6.87
  -1   0   1    1.94    8.66
  -1   0   1    7.71    4.69
  -1   0   1    2.54    7.74
  -1   0   1    4.26    7.67
   1   0   0 3703.53  149.80
   1   0   0 3322.90  198.09
   1   0   0 2273.78  141.94
   1   0   0 3336.91  167.35
  -1   0   0 3356.43  166.53
  -1   0   0 3558.14  163.32
  -1   0   0 3222.20  164.71
  -1   0   0 3149.52  167.97
   1   0   1  876.96   47.57
   1   0   1  786.02   48.08
   1   0   1  861.72   45.06
   1   0   1  910.71   44.73
   1   0   1  862.42   46.77
   1   0   1  810.80   41.30
  -1   0  -1  984.38   53.10
  -1   0  -1  913.51   50.39
  -1   0  -1  891.29   53.92
   1   0   2 4821.56  329.76
   1   0   2 4975.48  257.26
   1   0   2 4972.65  305.40
   1   0   2 4553.62  392.78
  -1   0  -2 5018.42  313.76
  -1   0  -2 5053.85  313.09
  -1   0  -2 4995.88  405.48
   1   0   3  788.02   69.85
   1   0   3  845.92   52.65
  -1   0  -3  846.75   57.84
  -1   0  -3  862.31   67.30
  -1   0  -3  864.46   67.81
  -1   0  -3  914.17   54.62
   1   0   4 1001.09   66.44
   1   0   4  852.74   91.25
  -1   0  -4  918.98   98.83
  -1   0  -4  935.97   83.14
  -1   0  -4 1020.67   66.67
   1   0   5   11.86    9.56
   1   0   5    4.26   16.33
  -1   0  -5   -1.58   13.94
  -1   0  -5    8.63   11.15
   1   0   613089.71 1272.49
   1   0   612324.56 1527.27
  -1   0  -613343.00 1522.10
  -1   0  -612698.66 1278.33
   1   0   7  293.72   76.45
  -1   0  -7  323.80   62.21
  -1   0  -7  335.01   79.89
   1   0   8 3168.13  398.37
  -1   0  -8 3333.38  363.64
  -1   0  -8 3379.63  321.32
   1   0   9  247.34   74.93
  -1   0  -9  226.62   57.85
  -1   0  -9  268.04   52.32
   1   0  10  201.39   83.01
  -1   0 -10  207.17   34.81
  -1   0 -10   86.91   38.30
   1   1 -10  299.52   50.73
  -1  -1  10  220.16   56.61
   1   1  -9  722.60  121.27
   1   1  -9 1710.30  201.38
  -1  -1   9 1657.79  242.96
   1   1  -8  238.63   57.47
   1   1  -8  330.42   62.68
  -1  -1   8  232.40   73.64
   1   1  -7  482.58   79.78
   1   1  -7  505.51  110.34
  -1  -1   7  484.90   95.25
   1   1  -6  726.08   88.62
   1   1  -6  729.77   84.30
  -1  -1   6  726.22   98.73
   1   1  -5  187.69   21.14
   1   1  -5  198.36   45.50
   1   1  -5  203.61   37.51
   1   1  -5  159.35   34.21
  -1  -1   5  217.05   35.00
  -1  -1   5  178.40   22.87
  -1  -1   5  192.76   66.29
   1   1  -4 3858.17  340.40
   1   1  -4 4115.34  258.33
   1   1  -4 4101.63  374.12
   1   1  -4 4351.07  316.80
  -1  -1   4 4157.05  272.99
  -1  -1   4 4424.20  355.47
  -1  -1   4 4392.21  326.56
  -1  -1   4 3819.89  288.10
  -1  -1   4 4060.22  264.67
   1   1  -3 2096.34  133.94
   1   1  -3 1836.52  113.38
   1   1  -3 1890.65  121.17
   1   1  -3 1820.01  140.85
   1   1  -3 1895.98  162.72
  -1  -1   3 1987.60  131.13
  -1  -1   3 1968.43  134.12
  -1  -1   3 1965.01  129.40
  -1  -1   3 2165.51  149.38
   1   1  -2  606.83   67.71
   1   1  -2  630.72   49.52
   1   1  -2  610.55   36.93
   1   1  -2  679.90   52.69
   1   1  -2  613.59   48.93
   1   1  -2  594.10   31.18
  -1  -1   2  613.63   43.86
  -1  -1   2  756.75   55.09
  -1  -1   2  699.78   77.99
  -1  -1   2  598.40   69.03
   1   1  -1   80.81   10.92
   1   1  -1  121.77   18.57
   1   1  -1   92.08   16.33
   1   1  -1   72.24   12.14
   1   1  -1  110.67   33.50
  -1  -1   1  111.32   19.34
  -1  -1   1  104.96   19.80
   1   1   0  135.84   17.72
   1   1   0  125.84    6.17
   1   1   0  138.07   16.90
   1   1   0  116.91   15.51
   1   1   0  126.30   24.10
  -1  -1   0  121.63   17.65
  -1  -1   0  157.35   16.52
   1   1   1 5862.08  342.33
   1   1   1 6023.94  362.66
   1   1   1 5984.25  320.84
   1   1   1 6385.21  394.60
   1   1   1 5224.00  358.48
  -1  -1  -1 6306.90  390.26
  -1  -1  -1 5050.91  343.17
   1   1   2 8021.12  603.88
   1   1   2 7982.97  612.93
   1   1   2 8839.55  644.52
  -1  -1  -2 9424.82  687.84
   1   1   3 5085.92  356.93
   1   1   3 5199.69  352.06
   1   1   3 4671.71  348.14
  -1  -1  -3 5156.69  348.13
  -1  -1  -3 5543.12  371.71
   1   1   4   31.26   19.96
  -1  -1  -4   30.37   17.06
  -1  -1  -4   50.68   16.19
  -1  -1  -4   39.82   11.86
   1   1   5 1311.67  131.44
  -1  -1  -5 1390.43  115.01
  -1  -1  -5 1335.53   94.45
  -1  -1  -5 1524.38  112.23
   1   1   6   24.94   24.84
   1   1   6   34.61   17.20
  -1  -1  -6   25.31   23.57
  -1  -1  -6   17.68   19.35
   1   1   7   43.58   26.63
   1   1   7   26.36   28.41
  -1  -1  -7    4.65   17.61
  -1  -1  -7   14.66   20.34
   1   1   8 3722.19  348.71
   1   1   8 3622.61  434.93
  -1  -1  -8 3419.23  372.16
  -1  -1  -8 3524.55  323.93
   1   1   9    4.80   50.23
   1   1   9   26.35   18.31
  -1  -1  -9   16.22   18.35
  -1  -1  -9   14.54   20.89
   1   1  10  985.07  144.71
   1   2 -10  982.24   95.42
  -1  -2  10  564.12   93.34
   1   2  -9  506.12   82.90
   1   2  -9  701.20   92.27
  -1  -2   9  587.61  108.33
   1   2  -8  697.02  101.83
   1   2  -8  580.93   96.54
  -1  -2   8  635.93  118.81
   1   2  -7 4218.30  430.94
   1   2  -7 4198.07  421.36
  -1  -2   7 4385.32  481.53
   1   2  -6 1103.37  169.52
   1   2  -6 1054.18  121.42
  -1  -2   6 1133.02  201.34
   1   2  -5    1.96   26.58
   1   2  -5   79.13   27.60
   1   2  -5   12.30   12.16
  -1  -2   5    2.79   15.42
  -1  -2   5   22.30   19.33
  -1  -2   5    2.14   13.91
   1   2  -4 3435.42  191.47
   1   2  -4 3609.00  321.69
   1   2  -4 3846.71  283.48
   1   2  -4 3254.21  200.62
   1   2  -4 3913.74  295.53
  -1  -2   4 3791.58  249.63
  -1  -2   4 3652.52  276.82
  -1  -2   4 4130.27  330.34
   1   2  -3  113.75    7.55
   1   2  -3  119.23   40.26
   1   2  -3  104.05    9.49
   1   2  -3  100.26   37.16
   1   2  -3  142.12   22.18
  -1  -2   3   99.86   18.47
  -1  -2   3  170.01   26.60
  -1  -2   3  144.80   43.81
   1   2  -210473.29  691.22
   1   2  -2 8101.98  569.82
   1   2  -210663.70  832.71
   1   2  -210282.76  826.08
   1   2  -210992.68  892.22
  -1  -2   210722.98  851.64
  -1  -2   211698.46 1016.49
  -1  -2   211778.52  950.92
   1   2  -1 5398.68  367.26
   1   2  -1 5350.14  359.37
   1   2  -1 5140.82  271.60
   1   2  -1 5413.96  323.90
  -1  -2   1 5549.68  367.71
  -1  -2   1 5464.86  369.50
   1   2   016685.64 1447.65
   1   2   017060.06 1390.25
   1   2   017403.63 1595.46
   1   2   015541.60 1452.75
   1   2   016422.64 1617.22
  -1  -2   018037.76 1651.89
  -1  -2   016738.57 1523.62
   1   2   1   22.47    8.46
   1   2   1   12.37   11.40
   1   2   1   13.60    8.41
   1   2   1   12.21    8.47
   1   2   2 2253.14  186.47
   1   2   2 2319.38  150.93
   1   2   2 2611.17  159.52
   1   2   2 2628.67  124.85
  -1  -2  -2 2693.22  162.47
   1   2   3 3986.94  297.41
   1   2   3 4106.25  279.83
   1   2   3 4181.76  198.44
  -1  -2  -3 4708.56  317.33
   1   2   4 3531.95  251.52
   1   2   4 3087.25  262.55
  -1  -2  -4 3797.03  271.19
   1   2   5  454.42   66.73
   1   2   5  465.65   56.26
  -1  -2  -5  489.58   52.04
  -1  -2  -5  550.59   59.40
  -1  -2  -5  493.11   54.45
   1   2   6  398.40   67.27
   1   2   6  419.76   49.04
  -1  -2  -6  375.20   49.40
  -1  -2  -6  222.81   32.62
   1   2   7    6.82   23.54
   1   2   7  -73.86   28.83
  -1  -2  -7   20.90   24.98
   1   2   8   72.60   35.27
   1   2   8   72.64   70.12
   1   2   9  282.81   78.39
   1   2   9  288.61   55.91
   1   2  10   78.23   37.50
  -1  -2 -10   76.24   27.06
   1   3  -9  217.50   43.59
   1   3  -9  103.83   40.36
  -1  -3   9  103.25   45.58
   1   3  -8  514.02   88.55
   1   3  -8  552.90   87.01
  -1  -3   8  436.68   96.58
   1   3  -7  636.25   99.44
   1   3  -7  682.77  104.96
  -1  -3   7  559.45  172.96
   1   3  -6 3649.53  361.16
   1   3  -6 3519.24  339.99
  -1  -3   6 3672.78  416.59
   1   3  -5   86.10   31.50
   1   3  -5  147.04   54.99
   1   3  -5  156.60   38.92
  -1  -3   5  102.40   42.02
  -1  -3   5  136.05   23.61
   1   3  -4 7213.54  625.05
   1   3  -4 7394.07  650.66
   1   3  -4 7515.99  680.21
  -1  -3   4 7909.61  735.02
  -1  -3   4 7641.52  634.76
  -1  -3   4 7875.29  710.84
   1   3  -3 1216.91  109.75
   1   3  -3 1256.20   92.06
   1   3  -3 1243.87  100.14
  -1  -3   3 1472.95  122.22
  -1  -3   3 1264.52  124.55
  -1  -3   3 1327.80  120.89
   1   3  -2  499.08   39.53
   1   3  -2  528.56   56.34
   1   3  -2  507.22   51.44
  -1  -3   2  523.31   52.37
  -1  -3   2  626.26   91.01
  -1  -3   2  616.63   58.38
   1   3  -1  206.23   29.05
   1   3  -1  194.78   28.31
   1   3  -1  208.98   27.90
   1   3  -1  182.88   15.86
  -1  -3   1  209.73   30.36
   1   3   0 4111.53  196.50
   1   3   0 3824.53  299.30
   1   3   0 4247.52  284.69
   1   3   0 4010.95  272.38
   1   3   0 4010.66  224.85
   1   3   0 3914.73  189.46
  -1  -3   0 4626.64  355.13
   1   3   1 1958.95  130.40
   1   3   1 1981.67  131.02
   1   3   1 2311.28  169.71
   1   3   2  207.83   26.01
   1   3   2  219.56   31.26
   1   3   2  186.18   28.97
   1   3   3  492.81   26.90
   1   3   3  412.33   49.71
   1   3   3  431.90   40.04
   1   3   4   16.15   12.81
   1   3   4   36.43   15.85
   1   3   4   30.64   18.63
  -1  -3  -4   45.13   17.99
   1   3   5   30.46   20.42
   1   3   5   19.89   17.02
  -1  -3  -5   10.53   13.83
  -1  -3  -5   37.17   19.42
   1   3   6  306.07   71.43
   1   3   6  228.21   59.41
   1   3   7 2691.80  323.23
   1   3   7 2934.84  270.18
   1   3   8   52.85   39.57
   1   3   8   61.85   32.88
   1   3   9 1383.45  203.96
   1   3   9 1667.83  170.32
   1   3  10  130.67   49.11
  -1  -3 -10  210.82   41.99
   1   4  -9  123.93   51.96
   1   4  -9  198.85   53.24
  -1  -4   9   58.53   34.55
   1   4  -8  895.00  119.37
   1   4  -8  847.39  111.19
  -1  -4   8  725.72  126.46
   1   4  -7  233.11   52.71
   1   4  -7  214.00   58.80
  -1  -4   7   41.44   94.31
   1   4  -6  349.22   73.58
   1   4  -6  338.69   63.79
  -1  -4   6  309.30   80.36
   1   4  -5 6502.85  662.44
   1   4  -5 6403.46  643.87
   1   4  -5 6674.83  628.52
  -1  -4   5 6985.02  735.12
   1   4  -4 1282.62  134.29
   1   4  -4 1246.17  151.75
   1   4  -4 1268.83  146.19
  -1  -4   4 1339.69  194.86
   1   4  -3 5798.11  513.15
   1   4  -3 6257.62  495.27
   1   4  -3 5931.44  508.38
   1   4  -3 5820.21  462.04
  -1  -4   3 6579.32  539.76
  -1  -4   3 6331.68  569.84
   1   4  -2 1963.83  121.62
   1   4  -2 1897.74  150.92
   1   4  -2 1886.96  117.16
   1   4  -2 1910.36  151.32
  -1  -4   2 1993.67  161.90
  -1  -4   2 2118.66  161.85
   1   4  -1 2375.20  175.20
   1   4  -1 2618.38  192.18
   1   4  -1 2606.32  196.84
   1   4  -1 2414.46  132.09
   1   4  -1 2502.23  149.77
  -1  -4   1 2922.71  210.32
   1   4   0 1438.11  107.96
   1   4   0 1543.20  118.61
   1   4   0 1510.45  117.16
   1   4   1  479.46   69.95
   1   4   1  451.91   44.55
   1   4   1  489.35   50.95
   1   4   1  456.19   28.78
   1   4   2  912.21   85.26
   1   4   2  809.18   78.37
   1   4   2  808.38   63.16
   1   4   2  859.56   56.31
   1   4   3  707.29   76.46
   1   4   3  716.63   76.44
   1   4   3  801.70   52.19
   1   4   3  809.58   62.47
   1   4   4  811.80   68.10
   1   4   4  912.17   97.38
   1   4   4  997.48   81.16
   1   4   5 1301.45  113.85
   1   4   5 1067.19  132.62
   1   4   6  113.11   47.99
   1   4   6  186.74   63.74
   1   4   7  673.24   90.52
   1   4   7  457.64  104.05
   1   4   8    2.60   19.90
   1   4   8  -13.82   21.97
   1   4   9  275.02   69.18
   1   4  10  220.40   49.66
   1   5  -8  159.58   66.56
   1   5  -8  181.19   35.70
  -1  -5   8   59.75   39.82
   1   5  -7  386.58   74.89
   1   5  -7  397.95   65.68
  -1  -5   7  217.94  120.59
   1   5  -6 1339.13  172.19
   1   5  -6 1414.10  149.91
  -1  -5   6 1329.78  189.94
   1   5  -5 1588.28  191.74
   1   5  -5 1636.88  187.38
   1   5  -5 1628.62  162.10
  -1  -5   5 1622.03  208.87
   1   5  -4  197.05   50.77
   1   5  -4  254.76   70.31
   1   5  -4  203.24   39.27
  -1  -5   4  255.44   91.84
   1   5  -3 1473.14  139.52
   1   5  -3 1417.81  141.56
   1   5  -3 1469.56  146.72
   1   5  -3 1306.54  136.53
  -1  -5   3 1557.93  161.47
   1   5  -2  300.27   50.66
   1   5  -2  388.88   54.43
  -1  -5   2  399.66   59.71
   1   5  -1 6778.81  590.45
   1   5  -1 6580.80  585.37
   1   5  -1 6821.05  620.92
  -1  -5   1 7046.34  609.28
   1   5   0 2066.66  163.99
   1   5   0 1984.70  173.10
   1   5   0 1888.78  153.95
   1   5   1 7873.04  807.62
   1   5   1 8369.12  707.90
   1   5   1 7094.92  691.56
   1   5   2   97.99   23.47
   1   5   2  104.97   35.51
   1   5   2  134.11   31.52
   1   5   2  207.04   26.02
   1   5   3  662.28   55.22
   1   5   3  563.15   81.61
   1   5   3  686.81   81.70
   1   5   4   89.89   41.76
   1   5   4  175.49   48.22
   1   5   5  367.29   60.15
   1   5   5  358.67  112.68
   1   5   6   13.02   21.65
   1   5   6   13.85   38.91
   1   5   7   10.23   40.46
   1   5   8    9.78   38.36
   1   5   9   75.72   30.44
  -1  -5  -9   12.10   32.92
   1   6  -8  508.74   73.14
   1   6  -7  628.21   69.90
   1   6  -7  745.81  147.84
  -1  -6   7  409.94  130.00
   1   6  -6   51.02   51.19
   1   6  -6   45.07   24.33
  -1  -6   6   52.38   33.90
   1   6  -5  660.76  100.54
   1   6  -5  545.72   98.42
  -1  -6   5  564.94  106.93
   1   6  -4    0.92   32.33
   1   6  -4    2.00   30.93
  -1  -6   4   19.21   32.92
   1   6  -3 1432.75  154.34
   1   6  -3 1381.55  216.04
  -1  -6   3 1529.74  186.97
   1   6  -2  126.52   35.00
   1   6  -2   74.92   33.78
  -1  -6   2   67.18   37.65
   1   6  -1   -0.02   15.53
   1   6  -1   14.77   16.36
  -1  -6   1    5.45   18.44
   1   6   0  370.10   57.34
   1   6   0  311.88   52.20
   1   6   0  432.30   64.12
   1   6   1   29.91   19.05
   1   6   1    6.79   26.08
   1   6   2 7703.49  695.62
   1   6   2 7219.26  864.49
   1   6   3 1074.63   94.68
   1   6   3 1025.55  135.10
   1   6   3 1035.80   93.43
   1   6   4 1045.36  110.65
   1   6   4  945.86  141.50
   1   6   5  231.41   68.53
   1   6   5  253.30   51.25
   1   6   6   63.36   40.47
   1   6   7   37.52   33.33
   1   6   8  499.07   89.26
   1   6   9  280.36   49.86
   1   7  -6  259.29   58.10
   1   7  -5   54.27   33.77
   1   7  -5   51.93   33.33
  -1  -7   5   51.33   32.73
   1   7  -4 1899.50  207.96
   1   7  -4 1562.28  192.24
  -1  -7   4 1514.63  207.74
   1   7  -3   38.81   26.73
   1   7  -3   18.68   27.35
  -1  -7   3   27.37   29.90
   1   7  -2 2963.66  343.39
   1   7  -2 3692.48  352.08
  -1  -7   2 3782.15  396.77
   1   7  -1  685.91   97.29
  -1  -7   1  641.92  106.67
   1   7   0  869.76  110.94
   1   7   0  845.20  122.34
   1   7   1    2.21   39.70
   1   7   1  423.37   54.95
   1   7   2 1026.52  109.97
   1   7   2  956.14  139.62
   1   7   3   10.99   37.03
   1   7   4  257.70  106.03
   1   7   5  474.26   93.88
   1   7   6  928.92  138.52
   1   7   7   34.30   29.35
  -1  -7  -7   56.10   28.86
   1   8  -5  229.53   44.83
   1   8  -5  136.24   40.92
   1   8  -4  -12.84   15.75
   1   8  -4   29.70   19.52
   1   8  -3  255.93   59.91
  -1  -8   3  119.87   80.24
   1   8  -2 1094.54  187.98
  -1  -8   2  924.30  141.18
   1   8  -1  272.13   53.66
  -1  -8   1  127.38   57.17
   1   8   0 2869.66  273.63
  -1  -8   0 2562.20  305.60
   1   8   1  164.43   39.95
   1   8   1   91.24   45.53
   1   8   2 1077.12  115.91
   1   8   2  919.07  139.59
   1   8   3   20.55   26.10
   1   8   4   60.72   34.74
   1   8   5    1.76   15.74
   1   8   6   56.84   28.97
   1   9  -4  320.53   56.31
   1   9  -3  133.65   44.09
   1   9  -2   20.67   25.81
   1   9  -1   35.15   44.90
   1   9   0   72.06   49.14
   1   9   1  734.36  129.21
   1   9   2    5.25   22.94
   1   9   4   11.57   14.90
   2  -9  -2  275.56   52.03
  -2   9   2  138.19   28.32
   2  -9  -1  140.10   40.24
  -2   9   1   50.04   25.04
   2  -9   0   50.40   30.45
  -2   9   0   30.48   20.88
   2  -9   1   -6.32   20.37
  -2   9  -1   18.35   15.06
   2  -9   2   42.01   21.35
  -2   9  -2    3.53   15.50
  -2   8   5   73.72   33.64
  -2   8   4  129.38   47.10
  -2   8   3  216.32   47.12
  -2   8   3  440.26   73.92
  -2   8   2  -37.17   29.42
  -2   8   2   49.74   21.41
  -2   8   1   19.50   22.65
  -2   8   1   16.72   29.32
   2  -8   0  390.91   92.53
  -2   8   0  283.56   65.14
   2  -8   1  877.30  138.39
  -2   8  -1  732.74  107.29
   2  -8   2   19.80   21.91
  -2   8  -2   -5.49   16.78
   2  -8   3  151.57   48.30
  -2   8  -3   73.82   33.21
   2  -8   4   19.35   22.54
  -2   8  -4    4.30   22.51
   2  -8   5   76.69   31.80
  -2   7   6  186.34   53.59
   2  -7  -5    5.08   15.59
  -2   7   5   30.81   37.75
  -2   7   4 1273.99  183.99
  -2   7   3  216.23   50.88
  -2   7   3  321.30   76.84
  -2   7   2 1167.04  158.69
  -2   7   2  783.00  122.19
  -2   7   1  993.37  158.10
  -2   7   1  888.81  121.94
  -2   7   0   72.46   33.01
  -2   7   0    9.98   46.80
   2  -7   1   -3.14   31.18
  -2   7  -1  -23.24   36.26
   2  -7   2  611.10  120.92
  -2   7  -2  517.29   90.17
   2  -7   3   30.92   39.29
  -2   7  -3   45.56   28.09
   2  -7   4  637.96  118.18
  -2   7  -4  460.76   73.88
   2  -7   5   16.77   28.26
   2  -7   6  102.98   41.13
   2  -6  -7    4.18   15.78
  -2   6   7   -0.49   19.22
   2  -6  -6 1383.95  160.34
  -2   6   6 1308.69  194.37
   2  -6  -5 1047.42  131.51
  -2   6   5 1029.74  167.24
   2  -6  -4    2.94   28.11
  -2   6   4   36.75   22.84
  -2   6   4  125.62   40.07
   2  -6  -3    1.08   17.78
  -2   6   3   13.19   18.42
  -2   6   3   57.42   44.46
  -2   6   2   44.10   30.69
  -2   6   2  145.72   65.87
  -2   6   1 2048.55  220.40
  -2   6   1 2367.22  268.81
  -2   6   0  -58.47   34.59
  -2   6   0   -6.03   26.22
  -2   6  -1  300.70   61.87
  -2   6  -1  292.54   80.03
   2  -6   2  302.87   83.47
  -2   6  -2  281.23   60.28
   2  -6   3    8.20   21.67
  -2   6  -3  -12.73   23.41
   2  -6   4   75.61   48.68
  -2   6  -4   54.76   28.26
  -2   6  -4   53.82   25.65
   2  -6   5 1111.51  232.11
  -2   6  -5  894.81  106.50
   2  -6   6  373.48   84.80
  -2   6  -6  290.04   53.37
   2  -6   7  300.75   58.46
  -2   6  -7   80.93   37.55
  -2   6  -7  252.91   39.24
   2  -5  -8  765.39  103.17
  -2   5   8  631.87  109.35
   2  -5  -7  501.40   89.06
  -2   5   7  415.89   99.51
   2  -5  -6 1011.25  141.36
  -2   5   6  941.80  160.64
   2  -5  -5 4566.48  478.29
  -2   5   5 4461.57  536.35
   2  -5  -4 1058.11  116.50
  -2   5   4  553.32   84.29
  -2   5   4 1119.63  144.03
   2  -5  -3  271.40   49.67
  -2   5   3  295.24   71.71
  -2   5   3  213.80   44.56
   2  -5  -2 1288.62  119.55
  -2   5   2 1173.43  173.53
  -2   5   2 1423.17  166.30
  -2   5   1  332.53   57.31
  -2   5   1  433.93  105.34
  -2   5   0    3.44   17.41
  -2   5   0   18.19   21.54
  -2   5  -1   88.40   34.57
  -2   5  -1   57.50   19.00
  -2   5  -1   74.21   28.20
  -2   5  -1   45.07   20.26
   2  -5   2    8.71   67.56
  -2   5  -2  341.48   51.98
  -2   5  -2  325.13   40.85
   2  -5   3  597.21  109.96
  -2   5  -3  593.26   68.35
  -2   5  -3  585.09   73.24
   2  -5   4   74.15   43.00
  -2   5  -4   52.15   39.28
  -2   5  -4   43.29   24.00
  -2   5  -4   43.31   23.52
   2  -5   5  499.34  147.86
  -2   5  -5  401.04   62.15
  -2   5  -5  219.42   60.79
   2  -5   6  812.87  131.05
  -2   5  -6  504.36   95.37
  -2   5  -6  746.69   96.68
   2  -5   7 1356.99  191.83
  -2   5  -7 1077.95  149.52
  -2   5  -7 1351.51  143.64
   2  -5   8   28.07   35.98
  -2   5  -8    9.79   17.89
  -2   5  -8    7.60   17.47
   2  -4  -9  252.09   49.75
  -2   4   9  171.26   51.44
   2  -4  -8  863.71  117.31
  -2   4   8  651.15  120.39
   2  -4  -7   53.43   37.85
  -2   4   7   46.75   39.88
   2  -4  -6  500.74   93.93
  -2   4   6  371.33  146.00
   2  -4  -5 1354.17  169.18
  -2   4   5 1170.60  243.79
   2  -4  -4  158.82   40.04
  -2   4   4   69.93   28.57
  -2   4   4  164.40   44.34
   2  -4  -3 7045.76  626.99
  -2   4   3 6877.53  664.79
  -2   4   3 5542.54  524.56
   2  -4  -2 1060.91  113.75
   2  -4  -2  720.99   94.85
   2  -4  -2 1030.72   88.11
  -2   4   2 1046.71  119.22
  -2   4   2  841.70   89.29
  -2   4   2  851.91   69.81
   2  -4  -1 4149.10  350.42
   2  -4  -1 3280.21  257.45
   2  -4  -1 3905.96  290.05
  -2   4   1 3766.76  311.35
  -2   4   1 3517.12  266.27
  -2   4   1 4449.81  375.49
   2  -4   0 1567.76  124.10
   2  -4   0 1630.57  146.29
   2  -4   0 1810.34  162.37
   2  -4   0 2081.29  242.68
  -2   4   0 1701.24  148.48
  -2   4   0 1699.22  163.85
  -2   4   0 1601.34  119.43
   2  -4   1 2310.87  197.12
   2  -4   1 2078.93  191.52
  -2   4  -1 1843.46  213.91
  -2   4  -1 1999.47  187.80
  -2   4  -1 1873.52  145.84
   2  -4   2 1506.27  145.33
   2  -4   2 1544.54  132.18
  -2   4  -2 1323.78  150.36
  -2   4  -2 1354.61  135.86
  -2   4  -2 1305.93  115.36
  -2   4  -2  929.27  104.76
  -2   4  -2 1329.03  106.59
  -2   4  -2 1272.21  124.18
   2  -4   3 3068.39  295.71
   2  -4   3 3518.22  274.08
  -2   4  -3 2717.63  216.71
  -2   4  -3 2261.10  198.43
  -2   4  -3 2790.65  229.59
  -2   4  -3 3119.56  250.94
   2  -4   4   49.74   31.70
  -2   4  -4   46.15   25.84
  -2   4  -4   23.97   21.27
  -2   4  -4   19.23   19.25
   2  -4   5  548.72  154.51
  -2   4  -5  453.09   69.81
  -2   4  -5  384.12   66.58
   2  -4   6  118.92   57.60
  -2   4  -6  107.32   43.90
  -2   4  -6  178.44   45.67
   2  -4   7   34.17   46.03
  -2   4  -7   80.82   34.99
  -2   4  -7   72.60   56.00
   2  -4   8   14.10   45.86
  -2   4  -8   63.45   36.78
  -2   4  -8    0.64   23.69
   2  -4   9    3.18   22.23
  -2   4  -9   26.49   18.55
  -2   4  -9   10.74   19.30
   2  -3  -9 1003.33  112.56
  -2   3   9  696.13  120.40
   2  -3  -8   52.37   35.32
  -2   3   8   52.80   60.41
   2  -3  -7 2917.51  312.32
  -2   3   7 2444.50  311.62
   2  -3  -6  300.40   72.55
  -2   3   6  264.61   70.05
   2  -3  -5  979.73  109.82
   2  -3  -5 1411.50  151.96
  -2   3   5 1261.44  146.59
   2  -3  -4  379.71   69.34
   2  -3  -4  202.04   61.81
  -2   3   4  326.29   47.53
  -2   3   4  399.37   39.21
  -2   3   4  429.82   63.20
  -2   3   4  327.52   44.58
   2  -3  -3  158.79   28.46
   2  -3  -3  185.07   38.54
   2  -3  -3  170.51   64.68
  -2   3   3  163.06   22.66
  -2   3   3  168.09   59.46
  -2   3   3  148.63   30.26
   2  -3  -2 3566.39  265.89
   2  -3  -2 3147.73  234.27
   2  -3  -2 3453.82  281.94
  -2   3   2 3320.54  231.70
  -2   3   2 3469.93  282.60
  -2   3   2 3046.38  245.09
   2  -3  -1 3500.32  244.66
   2  -3  -1 3475.53  339.41
   2  -3  -1 3155.46  232.53
  -2   3   1 3130.09  220.67
  -2   3   1 3736.35  294.57
  -2   3   1 3280.73  257.06
   2  -3   0 4899.47  355.09
   2  -3   0 4819.97  364.66
   2  -3   0 5253.52  417.78
   2  -3   0 6251.49  574.30
  -2   3   0 4896.66  365.65
  -2   3   0 5723.20  539.71
  -2   3   0 4976.30  397.62
   2  -3   1  292.28   45.60
   2  -3   1  335.21   44.34
   2  -3   1  282.33   35.84
  -2   3  -1  254.16   39.12
  -2   3  -1  314.92   44.47
  -2   3  -1  260.02   35.15
  -2   3  -1  303.92   33.51
  -2   3  -1  231.42   19.23
   2  -3   2 2358.62  193.60
   2  -3   2 2441.59  178.05
  -2   3  -2 2126.52  190.24
  -2   3  -2 1950.94  134.82
  -2   3  -2 2286.46  169.40
  -2   3  -2 1538.41  134.98
  -2   3  -2 2084.14  174.52
  -2   3  -2 2433.94  156.37
   2  -3   3 1773.53  178.71
   2  -3   3 2207.19  158.71
   2  -3   3 2085.92  191.83
  -2   3  -3 1722.04  127.67
  -2   3  -3 1602.86  135.21
  -2   3  -3 2051.71  166.05
  -2   3  -3 1778.20  145.82
  -2   3  -3 2032.13  154.68
   2  -3   4  978.33  108.52
   2  -3   4  637.69   86.97
  -2   3  -4  485.90   45.76
  -2   3  -4  546.02   67.87
  -2   3  -4  508.14   65.48
  -2   3  -4  657.34   73.34
   2  -3   5   64.21   62.57
  -2   3  -5  135.67   49.42
  -2   3  -5   57.74   31.56
   2  -3   6  333.80   76.54
  -2   3  -6  324.71   62.24
  -2   3  -6  228.44   65.40
   2  -3   7  161.29   61.89
  -2   3  -7   27.15   55.48
  -2   3  -7  218.36   48.39
   2  -3   8   15.93   36.67
  -2   3  -8   -1.68   18.41
  -2   3  -8    6.72   19.95
   2  -3   9  296.88   71.44
  -2   3  -9  305.17   61.31
  -2   3  -9  262.27   62.37
   2  -2  -9   35.90   22.80
  -2   2   9    2.91   25.76
   2  -2  -8   -4.92   14.59
   2  -2  -8  -15.25   17.11
  -2   2   8   20.84   18.37
   2  -2  -7  118.12   44.17
   2  -2  -7   77.74   36.23
  -2   2   7   89.15   45.34
   2  -2  -6 6447.80  665.16
   2  -2  -6 7649.26  761.00
  -2   2   6 7074.83  759.36
   2  -2  -5 7095.22  674.87
  -2   2   5 7793.80  762.35
   2  -2  -410398.21 1025.85
   2  -2  -410576.38  989.73
   2  -2  -410428.28 1030.05
  -2   2   410513.48  936.66
  -2   2   4 8918.51  855.30
  -2   2   411454.91 1084.36
  -2   2   4 9153.80  924.84
   2  -2  -3 2404.72  181.78
   2  -2  -3 2960.53  236.30
   2  -2  -3 2412.78  178.92
  -2   2   3 2549.74  199.53
  -2   2   3 2156.99  174.41
  -2   2   3 2339.93  160.92
   2  -2  -2 1045.84   86.14
   2  -2  -2  947.45   84.67
   2  -2  -2  923.26   77.45
  -2   2   2  872.88   83.01
  -2   2   2 1008.53   83.78
  -2   2   2  959.02   72.93
   2  -2  -1 5784.34  422.24
   2  -2  -1 5568.59  421.35
   2  -2  -1 5747.86  428.42
   2  -2  -1 6186.28  499.49
  -2   2   1 5885.53  441.63
  -2   2   1 5710.71  452.90
  -2   2   1 5275.52  388.96
   2  -2   0 2501.59  169.77
   2  -2   0 2428.07  156.39
   2  -2   0 2944.36  216.05
   2  -2   0 2427.75  169.98
  -2   2   0 2398.50  222.19
  -2   2   0 2787.23  188.38
  -2   2   0 2370.96  115.51
  -2   2   0 2563.95  121.33
  -2   2   0 2287.46  158.44
   2  -2   1   26.89   25.50
   2  -2   1   23.49   14.37
   2  -2   1   15.55   10.71
   2  -2   1   25.82   25.70
  -2   2  -1   30.57   23.66
  -2   2  -1   20.57   15.70
  -2   2  -1   28.55    8.70
  -2   2  -1   17.72   13.84
  -2   2  -1   38.60    8.69
   2  -2   2 3868.78  310.31
   2  -2   2 3363.56  250.34
   2  -2   2 3058.73  224.79
  -2   2  -2 2696.81  174.77
  -2   2  -2 2992.39  200.22
  -2   2  -2 3112.18  231.28
  -2   2  -2 2926.93  202.34
  -2   2  -2 3410.83  256.57
   2  -2   3   36.27   22.04
   2  -2   3   42.97   20.38
   2  -2   3   66.51   21.12
  -2   2  -3   13.47    8.84
  -2   2  -3   28.82   10.53
  -2   2  -3   56.16   18.84
  -2   2  -3   41.15   16.64
  -2   2  -3   27.84   16.74
  -2   2  -3   34.73   26.79
   2  -2   4 3701.96  293.30
   2  -2   4 2992.66  289.13
   2  -2   4 3366.72  369.76
  -2   2  -4 2913.30  244.80
  -2   2  -4 2995.27  324.30
  -2   2  -4 3436.00  290.67
  -2   2  -4 3395.35  345.16
   2  -2   5  611.93   86.01
  -2   2  -5  559.24   73.00
  -2   2  -5  536.65  117.15
   2  -2   6  766.00  124.67
  -2   2  -6  844.21  114.22
  -2   2  -6  899.56  103.77
   2  -2   7  522.75  108.25
  -2   2  -7  526.23  102.99
  -2   2  -7  560.20   86.20
   2  -2   8  122.03   96.98
  -2   2  -8  215.90   47.81
  -2   2  -8   90.09   57.00
   2  -2   9  570.03  117.67
  -2   2  -9  686.90   96.74
   2  -2  10  430.34   83.35
  -2   2 -10  563.11   65.31
  -2   2 -10  492.62   75.99
  -2   1  10  220.96   69.12
   2  -1  -9  137.14   42.80
   2  -1  -9  254.27   46.17
  -2   1   9  125.24   54.62
   2  -1  -8  507.33   89.63
   2  -1  -8  599.98   86.84
  -2   1   8  510.42  102.10
   2  -1  -7  308.32   61.42
   2  -1  -7  286.36   64.07
  -2   1   7  261.24   72.35
   2  -1  -6   14.74   18.07
   2  -1  -6   -4.85   17.97
  -2   1   6   12.06   20.08
   2  -1  -5   69.18   22.87
   2  -1  -5   34.32   27.32
   2  -1  -5   59.28   39.55
  -2   1   5   73.75   44.01
  -2   1   5   51.04   22.54
   2  -1  -4 2451.22  235.64
   2  -1  -4 2289.04  168.73
   2  -1  -4 2283.62  192.55
  -2   1   4 2433.18  172.36
  -2   1   4 2663.24  255.46
  -2   1   4 1997.86  189.35
  -2   1   4 1832.52  153.83
   2  -1  -3  156.92   27.22
   2  -1  -3  124.23   31.91
   2  -1  -3  146.53   31.28
   2  -1  -3  134.43   28.49
  -2   1   3  258.18   27.81
  -2   1   3  148.79   28.05
  -2   1   3  135.56   25.29
  -2   1   3   58.01   24.94
   2  -1  -220162.22 2057.66
   2  -1  -221449.72 2172.57
   2  -1  -219300.15 2029.50
   2  -1  -219279.79 2020.99
  -2   1   216779.80 1774.68
  -2   1   220726.99 2086.47
  -2   1   215416.26 1660.96
  -2   1   221632.18 2151.87
  -2   1   218178.52 1573.85
   2  -1  -1 1310.28  109.44
   2  -1  -1 1360.49   94.16
   2  -1  -1 1333.27   78.22
   2  -1  -1 1310.23   88.90
   2  -1  -1 1344.27   95.71
  -2   1   1 1471.23  109.83
  -2   1   1 1308.48   89.66
  -2   1   1 1282.80   44.65
  -2   1   1 1129.15   92.97
   2  -1   0 4321.46  308.04
   2  -1   0 3977.29  274.71
   2  -1   0 3728.60  297.53
   2  -1   0 3984.45  239.74
  -2   1   0 3751.00  253.54
  -2   1   0 3984.52  210.86
  -2   1   0 3830.22  271.16
   2  -1   1 1338.84   81.80
   2  -1   1 1163.30   80.15
   2  -1   1 1466.22  103.81
   2  -1   1 1168.69  121.85
  -2   1  -1 1293.66   74.30
  -2   1  -1 1159.16  122.25
  -2   1  -1 1356.11   91.15
  -2   1  -1 1392.77   88.52
  -2   1  -1 1193.56   83.26
   2  -1   2 1456.01   88.97
   2  -1   2  973.66   80.28
   2  -1   2  957.78   62.94
   2  -1   2 1163.35  108.52
   2  -1   2 1035.78   84.13
  -2   1  -2 1056.99   64.21
  -2   1  -2 1079.47  100.78
  -2   1  -2 1150.28   80.14
  -2   1  -2 1138.84   87.60
   2  -1   3 1539.85  128.83
   2  -1   3 1497.65  115.12
   2  -1   3 1372.92  107.12
  -2   1  -3 1614.73  125.54
  -2   1  -3 1307.32  101.83
  -2   1  -3 1658.12  126.20
  -2   1  -3 1564.21  104.93
   2  -1   4 1304.09   81.71
   2  -1   4 1219.74  119.50
   2  -1   4 1459.46  125.00
   2  -1   4 1265.15   74.56
  -2   1  -4 1374.70  121.47
  -2   1  -4 1651.26  106.17
  -2   1  -4 1554.93  132.68
  -2   1  -4 1340.26  108.19
   2  -1   5 1958.87  135.27
   2  -1   5 2417.47  208.24
   2  -1   5 1959.59  196.87
  -2   1  -5 2489.01  223.17
  -2   1  -5 2179.03  180.43
  -2   1  -5 2180.20  198.36
  -2   1  -5 2496.16  176.23
   2  -1   6  362.01   71.47
  -2   1  -6  414.16   58.97
  -2   1  -6  372.87  108.46
   2  -1   7  261.16  120.70
  -2   1  -7  353.03   60.79
  -2   1  -7  344.02   74.37
   2  -1   8    3.40   19.18
  -2   1  -8   10.65   14.63
  -2   1  -8  -16.18   17.83
   2  -1   9   33.28   38.88
  -2   1  -9   51.69   34.24
  -2   1  -9   70.11   30.34
   2  -1  10   28.33   21.32
  -2   1 -10   -1.74   15.11
  -2   1 -10   23.90   29.63
   2   0 -10   -5.63   13.35
   2   0  -9  289.63   56.82
  -2   0   9  163.20   58.89
   2   0  -8  913.70  124.26
  -2   0   8  762.18  137.39
   2   0  -7   28.08   20.59
   2   0  -7  -11.16   36.81
  -2   0   7   20.65   41.77
   2   0  -6 3274.83  297.23
   2   0  -6 3069.63  291.47
  -2   0   6 3509.85  340.62
   2   0  -5  414.71   43.59
   2   0  -5  378.43   38.57
   2   0  -5  314.15   57.17
   2   0  -5  399.87   53.61
   2   0  -5  445.97   51.51
  -2   0   5  288.08   37.14
  -2   0   5  415.81   53.48
  -2   0   5  397.21   56.47
  -2   0   5  179.13   54.98
   2   0  -4    7.48   12.83
   2   0  -4   11.22   12.11
   2   0  -4   20.59   11.88
   2   0  -4    9.76    9.39
   2   0  -4   -0.89    7.54
  -2   0   4   -0.44    7.18
  -2   0   4    8.75    8.23
  -2   0   4    1.48   11.53
  -2   0   4   -4.28   12.08
  -2   0   4   12.93   11.20
   2   0  -3   -6.60    5.59
   2   0  -3   -4.22   15.08
   2   0  -3   -4.75    8.05
   2   0  -3    9.61    9.59
   2   0  -3   11.72    9.62
  -2   0   3   11.54   12.52
  -2   0   3   -1.62   10.75
  -2   0   3   -3.87    8.50
  -2   0   3    6.06    9.19
  -2   0   3    6.48    5.56
   2   0  -2  262.96   31.47
   2   0  -2  219.76   23.87
   2   0  -2  243.58   52.37
   2   0  -2  224.61   29.14
  -2   0   2  333.45   35.99
  -2   0   2  220.59   47.22
  -2   0   2  247.64   28.99
  -2   0   2  182.43   38.08
   2   0  -1 7347.40  492.68
   2   0  -1 6577.14  477.70
   2   0  -1 6914.61  506.39
   2   0  -1 7256.80  526.36
  -2   0   1 6350.74  495.75
  -2   0   1 7400.72  532.58
  -2   0   1 6557.16  520.57
  -2   0   1 7170.11  482.30
   2   0   0  172.66   32.44
   2   0   0  190.30   20.52
   2   0   0  177.84   48.08
  -2   0   0  130.74   30.96
  -2   0   0  119.42   34.13
  -2   0   0  166.77   22.11
  -2   0   0  160.74   29.26
  -2   0   0  260.28   38.35
   2   0   174992.3112507.15
   2   0   167555.5411774.14
   2   0   171265.9412278.06
   2   0   172547.2912540.33
   2   0   178501.5812974.06
  -2   0  -171832.6612468.32
  -2   0  -170520.7112351.09
  -2   0  -177293.2913529.18
   2   0   220548.09 2248.79
   2   0   221135.42 2313.84
   2   0   222603.25 2395.49
   2   0   224732.04 2546.19
   2   0   222877.24 2426.73
  -2   0  -225390.43 2694.90
  -2   0  -223052.85 2496.08
   2   0   3 2386.64  178.06
   2   0   3 2171.93  159.22
   2   0   3 2784.55  178.47
   2   0   3 2455.02  157.37
  -2   0  -3 2331.24  154.92
  -2   0  -3 2733.05  198.40
  -2   0  -3 2970.59  189.50
   2   0   4 3381.25  287.08
   2   0   4 4541.64  343.57
   2   0   4 3839.85  269.54
  -2   0  -4 4051.15  291.62
  -2   0  -4 3939.27  318.52
  -2   0  -4 4452.83  355.51
  -2   0  -4 4890.97  339.20
   2   0   5 2006.10  191.87
   2   0   5 2512.15  210.25
   2   0   5 2119.82  190.12
  -2   0  -5 2308.42  219.02
  -2   0  -5 2272.80  201.68
  -2   0  -5 2408.74  217.58
  -2   0  -5 2844.48  204.93
   2   0   6   11.46   28.12
   2   0   6   17.18   11.48
  -2   0  -6   -9.07   13.06
  -2   0  -6    9.46   15.07
  -2   0  -6    2.22   17.16
   2   0   7   16.40   21.19
   2   0   7   -0.47   13.11
  -2   0  -7   12.10   31.72
  -2   0  -7   10.23   15.60
   2   0   8    3.78   25.12
  -2   0  -8   14.27   27.38
   2   0   9  345.00   91.58
  -2   0  -9  491.96   83.32
  -2   0  -9  373.79   64.25
   2   0  10  120.25   57.70
  -2   0 -10   35.61   48.32
   2   1 -10  295.99   50.36
   2   1  -9  172.13   46.05
  -2  -1   9   89.82   43.79
   2   1  -8  406.40  115.73
  -2  -1   8  252.22  114.03
   2   1  -7   27.23   25.91
   2   1  -7   62.47   33.74
  -2  -1   7   87.88   33.90
   2   1  -6   -1.45   14.98
   2   1  -6    0.08   18.64
  -2  -1   6   38.50   19.32
   2   1  -5 1237.57  101.89
   2   1  -5 1271.29  116.69
   2   1  -5 1161.15   99.07
   2   1  -5 1231.18   86.47
   2   1  -5 1131.97  126.14
  -2  -1   5 1044.03   88.50
  -2  -1   5  841.99  106.93
  -2  -1   5 1247.15  122.76
   2   1  -4 1615.09  112.95
   2   1  -4 1434.03  126.56
   2   1  -4 1615.64  114.23
   2   1  -4 1550.43  126.38
   2   1  -4 1522.58   96.12
  -2  -1   4 1496.86  120.65
  -2  -1   4 1452.62  106.79
  -2  -1   4 1469.41  108.17
  -2  -1   4 1666.13  128.00
  -2  -1   4 1364.60  128.52
   2   1  -322198.31 2613.33
   2   1  -325480.00 2888.50
   2   1  -325980.47 2906.32
   2   1  -325288.37 2897.50
   2   1  -324499.36 2701.50
  -2  -1   324648.26 2821.74
  -2  -1   324766.90 2820.86
  -2  -1   325583.87 2875.92
  -2  -1   328396.60 3189.37
  -2  -1   321136.90 2597.37
   2   1  -2 2731.13  163.66
   2   1  -2 2716.24  197.50
   2   1  -2 2682.76  162.27
   2   1  -2 2917.20  186.63
   2   1  -2 2610.13  168.65
   2   1  -2 2993.70  180.73
  -2  -1   2 2812.50  190.60
  -2  -1   2 3068.94  187.51
   2   1  -1  334.72   40.08
   2   1  -1  265.74   31.28
   2   1  -1  334.13   50.90
   2   1  -1  389.38   51.65
  -2  -1   1  367.78   37.06
  -2  -1   1  356.37   48.15
   2   1   0 3291.48  192.28
   2   1   0 2456.04  154.97
   2   1   0 2284.11  133.15
   2   1   0 2187.04  144.59
  -2  -1   0 2082.72  136.69
  -2  -1   0 2163.47  137.57
   2   1   1 8031.29  590.03
   2   1   1 8402.63  519.88
   2   1   1 8783.42  674.07
   2   1   1 8172.21  649.26
   2   1   110342.30  624.13
  -2  -1  -1 8693.63  685.67
  -2  -1  -1 9463.56  726.97
   2   1   2  164.26   23.64
   2   1   2   11.85   11.82
   2   1   2    7.66    8.57
   2   1   2    8.22   12.76
  -2  -1  -2   94.86   23.25
  -2  -1  -2    9.73   13.87
   2   1   3 2901.77  239.07
   2   1   3 3221.44  239.94
   2   1   3 3465.80  230.78
  -2  -1  -3 3500.12  206.19
  -2  -1  -3 3605.52  283.93
  -2  -1  -3 3429.46  251.04
   2   1   4   27.90   14.40
   2   1   4   35.10   18.18
   2   1   4   12.16   23.85
  -2  -1  -4   24.52   11.02
  -2  -1  -4   24.34   14.94
   2   1   5 2763.96  252.94
   2   1   5 3136.93  284.33
  -2  -1  -5 3202.63  223.92
  -2  -1  -5 3250.55  273.33
  -2  -1  -5 3588.05  259.81
   2   1   6  138.89   46.89
   2   1   6  222.19   37.66
  -2  -1  -6  206.02   32.45
  -2  -1  -6  192.83   45.51
   2   1   7  424.91   90.35
   2   1   7  535.05   65.74
  -2  -1  -7  483.02   60.53
  -2  -1  -7  494.77   82.82
   2   1   8   -0.74   57.11
   2   1   8  130.89   54.93
  -2  -1  -8  103.05   49.29
  -2  -1  -8  198.58   36.55
   2   1   9  496.96  144.62
   2   1   9  516.06   65.29
  -2  -1  -9  388.11   80.65
   2   1  10   99.26   33.19
  -2  -1 -10   31.35   25.49
   2   2 -10   45.72   23.07
   2   2  -9   34.56   22.79
  -2  -2   9   -3.38   18.80
   2   2  -8  443.05  113.53
   2   2  -8  327.53   63.21
  -2  -2   8  348.93   75.24
   2   2  -7  307.53   63.67
   2   2  -7  277.45   57.16
  -2  -2   7  219.67   64.82
   2   2  -6  362.34   60.03
   2   2  -6  376.73   65.48
  -2  -2   6  312.39   65.92
   2   2  -5  509.01   64.53
   2   2  -5  492.73   61.76
  -2  -2   5  469.83   64.94
  -2  -2   5  359.29   63.40
  -2  -2   5  424.53   47.77
   2   2  -4  609.39   70.56
   2   2  -4  673.11   67.33
   2   2  -4  507.31   58.90
   2   2  -4  586.70   52.04
   2   2  -4  703.58   65.84
  -2  -2   4  687.99   58.07
  -2  -2   4  638.95   64.64
  -2  -2   4  741.40   69.85
   2   2  -3 2474.22  175.26
   2   2  -3 2418.33  171.35
   2   2  -3 1935.61  151.91
   2   2  -3 2604.81  202.15
   2   2  -3 2208.76  124.65
  -2  -2   3 2354.73  166.80
  -2  -2   3 2350.57  172.40
  -2  -2   3 2684.23  181.64
   2   2  -2    7.78    5.60
   2   2  -2    4.88   11.53
   2   2  -2   18.60   13.41
   2   2  -2   12.48    9.90
   2   2  -2   10.47    6.90
  -2  -2   2   16.74   19.02
  -2  -2   2   14.63   12.38
   2   2  -115543.29 1383.36
   2   2  -113100.15 1195.06
   2   2  -116233.12 1577.39
   2   2  -115754.31 1483.88
  -2  -2   115955.99 1494.97
  -2  -2   116004.89 1490.54
   2   2   0 2308.22  147.92
   2   2   0 2400.40  163.19
   2   2   0 2161.74  126.67
   2   2   0 2133.93  111.85
  -2  -2   0 2304.37  154.14
   2   2   1 2281.09  110.43
   2   2   1 2680.46  155.78
   2   2   1 2625.98  158.85
   2   2   1 2582.71  127.29
   2   2   1 2490.10  222.79
  -2  -2  -1 2613.47  228.58
   2   2   2   13.04    5.99
   2   2   2    3.44    9.96
   2   2   2    2.88   12.02
   2   2   2    5.31    9.58
  -2  -2  -2    9.71   11.85
  -2  -2  -2   -4.52   16.44
   2   2   3  368.01   46.82
   2   2   3  434.78   46.36
   2   2   3  397.58   37.67
  -2  -2  -3  456.88   47.42
   2   2   4 4378.19  351.94
   2   2   4 3651.24  309.26
   2   2   4 4620.88  342.75
  -2  -2  -4 4799.42  353.59
   2   2   5  809.18   92.69
   2   2   5  983.60   89.43
  -2  -2  -5  876.19   58.66
  -2  -2  -5  954.00   94.01
  -2  -2  -5 1116.38   96.49
   2   2   6 3963.91  412.92
   2   2   6 4574.33  387.56
  -2  -2  -6 4620.19  423.18
   2   2   7   95.18   48.56
   2   2   7  164.98   37.32
  -2  -2  -7  135.68   42.50
   2   2   8 3642.30  532.41
  -2  -2  -8 3609.57  452.68
   2   2   9  657.58  102.12
  -2  -2  -9  422.02   77.81
   2   2  10  -16.26   21.59
   2   3  -9  275.78   48.58
   2   3  -9  112.00   41.21
   2   3  -8   49.39   27.42
   2   3  -8   50.68   48.54
  -2  -3   8   34.03   28.84
   2   3  -7   29.70   30.01
   2   3  -7   61.35   30.93
  -2  -3   7   34.37   30.71
   2   3  -6  249.31   52.05
   2   3  -6  237.45   53.14
  -2  -3   6  150.11   51.99
   2   3  -5  765.67   90.14
   2   3  -5  738.00   85.36
   2   3  -5  574.31   83.86
  -2  -3   5  641.60   95.23
   2   3  -4  434.46   57.82
   2   3  -4  340.37   46.67
   2   3  -4  340.30   52.95
  -2  -3   4  305.54   43.07
  -2  -3   4  389.51   55.75
  -2  -3   4  304.21   50.70
   2   3  -3  998.67   95.94
   2   3  -3 1059.70  101.12
   2   3  -3 1008.63   81.97
  -2  -3   3 1052.33   98.45
  -2  -3   3 1042.55   88.56
  -2  -3   3  999.36   86.84
   2   3  -2   80.18   11.10
   2   3  -2  164.02   26.86
   2   3  -2  123.94   18.65
   2   3  -2   91.27    8.43
   2   3  -2  135.10   43.36
  -2  -3   2  144.26   26.15
  -2  -3   2  148.88   27.46
   2   3  -1   17.46   21.30
   2   3  -1   15.99    7.20
   2   3  -1    9.82    5.46
   2   3  -1   19.52   25.02
  -2  -3   1   20.00   13.72
  -2  -3   1   31.44   13.49
   2   3   011373.37  992.16
   2   3   010721.35  829.17
   2   3   012389.73 1129.79
   2   3   012702.67 1001.74
   2   3   011170.49  936.17
  -2  -3   012498.89 1101.70
   2   3   1 3717.72  242.25
   2   3   1 3848.69  289.94
   2   3   1 3754.79  224.16
   2   3   1 3738.11  233.97
   2   3   2 8921.68  763.06
   2   3   2 9336.52  827.23
   2   3   2 9647.18  783.87
   2   3   210249.02  830.27
   2   3   3 1454.86   75.20
   2   3   3 1286.02   94.02
   2   3   3 1427.59  153.93
   2   3   3 1592.98  114.20
   2   3   4 6187.44  524.72
   2   3   4 5353.57  476.19
   2   3   4 6223.81  504.14
  -2  -3  -4 6892.55  552.81
   2   3   5 2386.50  228.66
   2   3   5 2861.85  240.15
   2   3   5 2896.32  228.43
   2   3   6  782.33  114.52
   2   3   6 1031.94  104.20
  -2  -3  -6  950.16  112.99
   2   3   7  154.77   48.58
   2   3   7  174.06   40.71
  -2  -3  -7   97.97   39.52
   2   3   8  402.92   84.49
   2   3   9    8.46   20.05
   2   3   9  -18.23   18.95
   2   3  10  411.09   51.07
   2   3  10  268.44   64.93
   2   4  -9  835.82   87.33
   2   4  -9  604.14   84.41
   2   4  -8  369.34   79.29
   2   4  -8    7.19   74.51
   2   4  -7 1374.81  151.62
   2   4  -7 1289.96  139.33
  -2  -4   7  728.12  140.83
   2   4  -6   -5.74   17.97
   2   4  -6    1.19   15.72
  -2  -4   6   20.24   25.73
   2   4  -5   79.72   31.43
   2   4  -5   65.92   25.99
   2   4  -5   52.33   29.43
  -2  -4   5  -14.28   29.21
   2   4  -4  951.13  115.38
   2   4  -4  958.92   95.23
   2   4  -4 1182.25  128.72
  -2  -4   4  915.68  114.31
   2   4  -3 4535.61  407.10
   2   4  -3 4341.23  386.63
   2   4  -3 4251.58  335.88
  -2  -4   3 4483.88  439.28
  -2  -4   3 4909.15  428.25
  -2  -4   3 4601.10  440.62
   2   4  -2 2323.36  248.74
   2   4  -2 2587.49  167.70
   2   4  -2 2491.23  209.37
  -2  -4   2 2648.02  211.96
  -2  -4   2 2691.54  206.11
   2   4  -1  861.55   61.30
   2   4  -1  858.51   81.05
   2   4  -1 1001.60   95.01
  -2  -4   1 1000.39   88.18
  -2  -4   1  990.83   71.86
   2   4   0 1823.76  135.47
   2   4   0 1974.19  161.23
   2   4   0 2022.96  126.80
   2   4   0 1772.17   95.57
   2   4   1  350.48   38.11
   2   4   1  336.45   50.58
   2   4   1  405.56   50.22
   2   4   1  363.64   42.14
   2   4   2 1409.26   91.42
   2   4   2 1355.09  115.94
   2   4   2 1411.41  102.81
   2   4   2 1411.67  122.34
   2   4   3 2168.89  210.53
   2   4   3 2272.08  178.22
   2   4   3 2243.53  157.65
   2   4   3 2454.30  171.75
   2   4   4 3012.64  253.06
   2   4   4 2743.86  243.65
   2   4   4 3256.38  245.00
   2   4   5   21.90   17.69
   2   4   5   22.56   20.34
   2   4   5   30.31   19.36
   2   4   6 1037.68  127.79
   2   4   6 1299.26  116.65
  -2  -4  -6  682.96  110.03
   2   4   7    8.17   23.54
   2   4   7   22.35   32.05
   2   4   8  148.18   43.83
   2   4   8   85.32   46.04
   2   4   9   31.12   27.18
   2   5  -8  231.14   45.30
   2   5  -8  222.94   54.14
   2   5  -7  231.21   73.12
   2   5  -7  198.40   96.56
   2   5  -6   77.54   28.93
   2   5  -6  138.77   56.07
  -2  -5   6  -17.11   35.25
   2   5  -5  261.08   59.62
   2   5  -5  187.11   57.70
   2   5  -5  191.56   44.81
   2   5  -4 4234.75  415.13
   2   5  -4 3831.62  380.76
   2   5  -4 3604.42  313.80
  -2  -5   4 3465.30  372.24
   2   5  -3  651.53  137.24
   2   5  -3  829.55  144.91
  -2  -5   3  578.45  125.48
   2   5  -2  218.77   41.82
  -2  -5   2  188.55   37.59
   2   5  -1   23.05   17.55
   2   5  -1   13.64   20.38
  -2  -5   1   19.16   14.63
  -2  -5   1   24.81   19.60
   2   5   0 2607.46  212.32
   2   5   0 2729.31  240.05
   2   5   0 2767.49  212.45
   2   5   1 1423.25  131.75
   2   5   1  510.27   68.47
   2   5   2  140.54   25.26
   2   5   2  160.66   29.72
   2   5   2  151.70   32.20
   2   5   2  133.40   21.08
   2   5   3  499.83   64.66
   2   5   3  441.82   86.49
   2   5   3  529.98   51.22
   2   5   4  107.62   22.58
   2   5   4   18.36   22.67
   2   5   4   61.77   28.47
   2   5   5 3193.93  269.68
   2   5   5 2714.58  380.20
   2   5   6  433.09   83.69
   2   5   6   31.49   91.11
   2   5   7 2342.48  355.75
   2   5   8  489.64   92.01
   2   5   9  459.92   77.88
   2   6  -7   37.87   21.26
   2   6  -7  101.98   34.27
   2   6  -6   18.95   25.89
  -2  -6   6    9.06   24.24
   2   6  -5 1578.82  200.47
   2   6  -5 1748.25  219.10
   2   6  -4   24.44   30.59
   2   6  -4   27.22   30.99
   2   6  -3   56.06   38.13
   2   6  -3   51.63   36.03
   2   6  -2 1504.43  226.69
   2   6  -2 1568.03  179.71
   2   6  -1   13.82   19.36
   2   6  -1   13.27   21.20
   2   6   0   18.14   23.78
   2   6   0   36.95   21.57
   2   6   1 1990.97  170.24
   2   6   1 1775.96  181.50
   2   6   1 1857.82  175.32
   2   6   2  358.80   57.66
   2   6   2  326.95   58.95
   2   6   2  420.09   50.66
   2   6   3 3852.12  337.84
   2   6   3 3246.15  343.66
   2   6   4 3074.35  311.78
   2   6   4 2517.69  294.16
   2   6   5   29.99   20.71
   2   6   5    1.89   24.08
   2   6   6   98.54   42.26
   2   6   7   45.13   31.28
   2   6   8  118.41   39.99
   2   7  -7  250.65   48.29
   2   7  -6  580.33   84.29
  -2  -7   6  337.35   72.19
   2   7  -5  136.90   45.12
   2   7  -5   97.18   49.60
   2   7  -4   59.49   36.49
   2   7  -4   16.57   34.15
   2   7  -3   45.85   37.69
   2   7  -3   45.83   35.23
   2   7  -2 1537.63  253.47
   2   7  -2 1120.69  160.81
   2   7  -1   19.40   38.55
   2   7  -1   18.56   25.48
   2   7   0  126.29   38.83
   2   7   0   84.88   61.98
   2   7   1  348.79   60.81
   2   7   2   28.44   20.49
   2   7   6   50.40   29.27
   2   7   7  426.16   53.42
   2   7   7   58.57   81.66
   2   8  -5  977.07  121.69
   2   8  -5 1135.79  124.16
   2   8  -4  171.38   49.72
   2   8  -4   94.22   42.71
   2   8  -3  399.20   81.75
   2   8  -3  555.22   96.11
   2   8  -2   88.36   39.47
   2   8  -2   -0.03   51.42
   2   8  -1   18.68   44.82
   2   8   0  172.69   86.11
   2   8   1  550.51  135.21
   2   8   2  318.39   92.05
   2   9  -3   21.96   26.11
   2   9  -2  684.82  111.47
   2   9  -1  922.61  128.77
   2   9   0    6.83   20.33
   2   9   1   17.69   22.45
   2   9   2   15.62   19.23
  -3   8   4  877.44  102.23
  -3   8   3    2.26   14.22
  -3   8   3   50.20   22.41
  -3   8   2   27.95   26.41
  -3   8   2  113.77   34.42
   3  -8  -1  244.02   62.37
  -3   8   1   86.15   67.73
   3  -8   0  -27.74   22.03
  -3   8   0   10.40   15.36
   3  -8   1  423.56   76.01
  -3   8  -1  266.57   58.77
   3  -8   2  169.26   42.97
  -3   8  -2   54.20   31.45
   3  -8   3  471.92  127.98
  -3   8  -3  392.39   53.22
  -3   7   5  404.82   72.20
  -3   7   4   -1.28   21.17
  -3   7   4   20.48   22.38
  -3   7   3 1069.88  140.76
  -3   7   3 1814.96  193.24
  -3   7   2   86.08   40.71
  -3   7   2   43.99   31.79
  -3   7   1  244.17   60.86
  -3   7   1  279.10   73.63
   3  -7   0 -102.32   41.88
  -3   7   0    0.46   28.66
   3  -7   1  461.36   93.06
  -3   7  -1  289.26   69.49
   3  -7   2  568.57  108.89
  -3   7  -2  461.06  124.50
   3  -7   3   33.50   26.65
  -3   7  -3   -1.07   18.67
   3  -7   4 1405.67  230.03
  -3   7  -4  784.96   94.93
   3  -7   5  573.49   96.31
   3  -6  -7  268.47   45.68
  -3   6   7  198.26   47.65
   3  -6  -6  550.91  110.54
  -3   6   6  319.00  128.99
   3  -6  -5   -9.26   28.27
  -3   6   5    0.50   35.30
   3  -6  -4  195.05   60.58
  -3   6   4   52.46   32.77
  -3   6   4  253.80   79.18
   3  -6  -3  -38.19   21.50
  -3   6   3    0.98   13.14
  -3   6   3   26.93   18.13
  -3   6   2  737.16  117.62
  -3   6   2 1135.02  147.24
  -3   6   1  247.92   71.88
  -3   6   1  550.57  101.90
  -3   6   0 3972.28  444.48
  -3   6   0 5461.64  591.45
   3  -6   1  -24.14  143.29
  -3   6  -1 2502.54  172.47
   3  -6   2   55.27   40.67
  -3   6  -2   39.83   30.19
   3  -6   3 1239.14  161.21
  -3   6  -3  843.21  156.71
  -3   6  -3  754.09  133.92
   3  -6   4  189.67   61.17
  -3   6  -4  101.10   35.36
  -3   6  -4  118.19   34.28
   3  -6   5   71.06   40.18
  -3   6  -5   42.63   24.87
   3  -6   6   16.30   27.22
  -3   6  -6   18.36   17.83
   3  -6   7   11.40   20.95
  -3   6  -7   18.20   22.69
   3  -5  -8  137.64   60.81
   3  -5  -7  107.63   39.09
  -3   5   7   73.39   42.14
   3  -5  -6   83.40   39.23
  -3   5   6   64.26   44.26
   3  -5  -5  550.78   91.17
  -3   5   5  477.20  110.83
   3  -5  -4  678.50   92.81
  -3   5   4  338.66   72.88
  -3   5   4  765.18  114.56
   3  -5  -3  958.19  118.62
  -3   5   3 1116.35  150.49
  -3   5   3  792.68  167.79
   3  -5  -2  -13.72   26.79
  -3   5   2   11.81   34.72
  -3   5   2  -16.17   30.51
  -3   5   1   30.83   27.57
  -3   5   1    4.72   38.21
  -3   5   0  723.70  157.15
  -3   5   0  932.05  128.61
  -3   5  -1  378.31   57.32
  -3   5  -1  419.61   72.20
  -3   5  -1  536.71   85.54
   3  -5   2 3094.85  317.41
  -3   5  -2 2404.29  243.81
  -3   5  -2 2344.45  220.15
   3  -5   3   40.06   37.54
  -3   5  -3   44.30   24.65
  -3   5  -3   36.59   24.16
   3  -5   4  909.75  140.61
  -3   5  -4  564.93  114.49
  -3   5  -4  657.40   89.82
   3  -5   5    1.26   52.75
  -3   5  -5   24.35   22.99
   3  -5   6  335.32   80.87
  -3   5  -6  269.42   58.30
   3  -5   7  226.19   65.36
  -3   5  -7  108.47   44.08
  -3   5  -7  334.02   50.27
   3  -5   8  137.82   53.44
  -3   5  -8  116.89   45.39
  -3   5  -8   62.42   24.66
   3  -4  -8 1325.55  137.25
  -3   4   8  867.96  135.42
   3  -4  -7   44.61   31.32
  -3   4   7   16.60   30.70
   3  -4  -6   86.61   39.96
  -3   4   6   38.34   41.08
   3  -4  -5  673.16  108.83
  -3   4   5  628.54  118.51
   3  -4  -4  151.89   44.43
  -3   4   4  188.18   50.98
  -3   4   4   62.26   34.89
   3  -4  -3   16.19   19.79
   3  -4  -3   17.10   15.82
  -3   4   3   12.44   18.52
  -3   4   3   -3.70   25.08
   3  -4  -2 2203.09  197.74
   3  -4  -2 1927.67  232.60
  -3   4   2 2636.20  244.19
  -3   4   2 1776.22  191.01
   3  -4  -1  123.26   48.61
   3  -4  -1   93.86   30.41
  -3   4   1  163.59   29.57
  -3   4   1  155.13   62.36
  -3   4   1   94.08   37.71
   3  -4   0  775.85   86.33
   3  -4   0  763.40   80.25
  -3   4   0  962.23  123.96
  -3   4   0  990.07  109.05
  -3   4   0  760.36   98.32
   3  -4   1  181.74   41.49
  -3   4  -1  237.17   48.95
  -3   4  -1  236.48   46.54
   3  -4   2  152.71   61.71
  -3   4  -2  343.50   49.51
  -3   4  -2  320.59   48.40
   3  -4   3 2963.77  293.84
  -3   4  -3 2383.15  221.58
  -3   4  -3 2565.21  232.02
   3  -4   4   86.09   35.52
  -3   4  -4  -17.66   19.52
  -3   4  -4   43.19   18.25
  -3   4  -4   63.47   24.68
   3  -4   5 2763.07  379.57
  -3   4  -5 2419.32  290.44
  -3   4  -5 1631.72  199.45
   3  -4   6  924.65  140.53
  -3   4  -6  613.18   98.26
  -3   4  -6  830.06  111.14
   3  -4   7 1353.66  191.55
  -3   4  -7 1165.83  212.57
  -3   4  -7 1368.82  155.31
   3  -4   8 1897.72  288.42
  -3   4  -8 1981.22  183.56
  -3   4  -8 1347.78  175.24
   3  -4   9   -4.18   13.87
  -3   4  -9   12.38   12.62
  -3   4  -9    0.17   11.91
   3  -3  -9   30.47   35.71
   3  -3  -8  359.03   67.97
  -3   3   8  225.05   63.48
   3  -3  -7 1225.87  157.28
  -3   3   7  951.89  151.82
   3  -3  -6  705.27  113.40
  -3   3   6  495.57  157.75
   3  -3  -5   69.99   30.58
   3  -3  -5   53.67   38.43
  -3   3   5   67.90   55.80
   3  -3  -4   72.82   33.99
   3  -3  -4  160.60   40.66
  -3   3   4  179.81   39.59
  -3   3   4   58.06   31.24
   3  -3  -3  553.13   68.14
   3  -3  -3  562.35   74.92
  -3   3   3  575.15   77.84
  -3   3   3  503.63   56.10
  -3   3   3  448.05   65.97
   3  -3  -2    1.73   14.16
   3  -3  -2   13.90   13.15
   3  -3  -2   25.09   14.23
  -3   3   2   -7.54   11.92
  -3   3   2   -1.57   15.97
  -3   3   2    3.81   14.40
   3  -3  -1 2652.29  270.55
   3  -3  -1 2267.70  189.98
   3  -3  -1 2286.76  193.66
   3  -3  -1 2485.28  198.00
  -3   3   1 2322.92  186.04
  -3   3   1 2019.91  192.61
  -3   3   1 2876.09  233.05
   3  -3   0 1855.90  158.01
   3  -3   0 2401.15  233.63
   3  -3   0 2093.03  165.86
   3  -3   0 1912.16  156.53
  -3   3   0 2055.73  166.99
  -3   3   0 2120.22  176.30
  -3   3   0 1751.89  166.89
   3  -3   1 2820.28  225.15
   3  -3   1 3184.44  279.39
   3  -3   1 2474.46  208.93
   3  -3   1 2410.99  189.82
  -3   3  -1 2583.38  209.27
  -3   3  -1 2682.53  223.99
  -3   3  -1 2375.39  208.16
   3  -3   2  304.00   46.58
   3  -3   2  430.83   55.01
   3  -3   2  355.22   46.51
   3  -3   2  172.33   27.38
  -3   3  -2  192.98   29.33
  -3   3  -2  325.19   45.95
  -3   3  -2  260.09   32.01
  -3   3  -2  311.73   40.67
   3  -3   3  468.79   63.28
   3  -3   3  397.02   58.90
   3  -3   3  435.35   64.89
  -3   3  -3  301.74   42.67
  -3   3  -3  307.52   52.89
  -3   3  -3  266.88   44.45
  -3   3  -3  331.29   47.70
   3  -3   4 1273.68  131.88
   3  -3   4 1864.60  188.29
  -3   3  -4 1098.84  101.90
  -3   3  -4 1249.56  131.23
  -3   3  -4 1545.99  141.18
   3  -3   5  270.46  110.12
  -3   3  -5  277.71   56.33
  -3   3  -5  309.85   58.41
   3  -3   6  925.13  139.47
  -3   3  -6  752.50  115.99
  -3   3  -6  863.13  115.12
   3  -3   7  186.86   71.72
  -3   3  -7  185.81   57.38
  -3   3  -7  290.35   58.01
   3  -3   8   66.09   56.35
  -3   3  -8   51.32   31.27
  -3   3  -8   42.18   30.59
   3  -3   9  477.91   91.23
  -3   3  -9  697.79   80.37
  -3   3  -9  533.25   82.40
   3  -2  -9  426.28   97.98
   3  -2  -8  647.03   91.27
   3  -2  -8  443.35  113.81
  -3   2   8  228.46  129.18
   3  -2  -7  599.97   99.42
   3  -2  -7  785.16  112.77
  -3   2   7  545.12  104.09
   3  -2  -6   17.04   22.14
   3  -2  -6   22.09   24.64
  -3   2   6   -1.84   21.97
   3  -2  -5  151.60   42.46
   3  -2  -5  139.43   47.77
  -3   2   5  179.80   41.62
  -3   2   5   47.37   44.30
   3  -2  -4 2182.63  200.55
   3  -2  -4 2087.10  193.56
  -3   2   4 2050.44  186.79
  -3   2   4 1587.75  174.13
   3  -2  -3   44.10   23.97
   3  -2  -3   66.17   26.92
   3  -2  -3   92.47   25.13
   3  -2  -3   57.82   39.64
  -3   2   3   47.51   24.08
  -3   2   3   93.86   36.18
  -3   2   3   46.54   20.56
  -3   2   3   35.26   24.36
   3  -2  -2  765.83   81.78
   3  -2  -2  834.91   72.79
   3  -2  -2  780.23   80.97
  -3   2   2  741.58   74.85
  -3   2   2  785.65   73.45
  -3   2   2  623.40   82.65
   3  -2  -1 2690.45  188.48
   3  -2  -1 2582.09  210.62
   3  -2  -1 2816.77  300.32
   3  -2  -1 2494.07  199.22
  -3   2   1 2574.05  200.61
  -3   2   1 2316.37  217.67
  -3   2   1 2795.95  201.75
   3  -2   0  593.34   85.26
   3  -2   0  556.92   64.02
   3  -2   0  596.20   50.35
   3  -2   0  529.25   59.20
  -3   2   0  550.21   62.59
  -3   2   0  586.98   58.33
  -3   2   0  522.55   71.13
   3  -2   1 2124.83  168.98
   3  -2   1 2397.33  211.32
   3  -2   1 2370.75  160.98
   3  -2   1 2140.32  158.95
  -3   2  -1 2050.31  145.38
  -3   2  -1 2197.74  170.07
  -3   2  -1 1856.21  122.23
  -3   2  -1 2422.99  173.31
  -3   2  -1 2017.27  164.02
   3  -2   2 2653.26  216.83
   3  -2   2 2413.88  174.22
   3  -2   2 3212.74  232.80
   3  -2   2 3098.83  245.79
   3  -2   2 2897.45  219.73
  -3   2  -2 2409.27  184.96
  -3   2  -2 3004.34  287.37
  -3   2  -2 2887.57  202.41
  -3   2  -2 2615.33  190.80
  -3   2  -2 2532.44  196.61
   3  -2   3 3774.85  286.49
   3  -2   3 4815.09  384.44
   3  -2   3 4425.11  353.32
   3  -2   3 4660.01  393.99
  -3   2  -3 3686.42  317.43
  -3   2  -3 4564.02  354.54
  -3   2  -3 4405.53  369.55
  -3   2  -3 3714.46  283.55
  -3   2  -3 3702.12  287.84
   3  -2   4  573.27   72.20
   3  -2   4  538.73   78.35
  -3   2  -4  434.00   66.80
  -3   2  -4  475.87   65.28
  -3   2  -4  536.24   70.08
   3  -2   5 1149.78  142.50
  -3   2  -5 1068.61  182.86
  -3   2  -5 1101.77  119.58
   3  -2   6  132.91   58.57
  -3   2  -6  280.83   59.17
  -3   2  -6  213.70   81.16
   3  -2   7 1163.57  172.68
  -3   2  -7 1069.93  160.86
  -3   2  -7 1199.29  141.21
   3  -2   8  559.90  109.71
  -3   2  -8  661.99   91.67
  -3   2  -8  587.81  105.01
   3  -2   9   40.38   31.86
  -3   2  -9   74.26   44.21
  -3   2  -9   35.33   29.69
   3  -2  10  274.51   57.19
  -3   2 -10  407.23   45.87
  -3   2 -10  365.93   56.13
   3  -1  -9 1230.11  143.69
   3  -1  -9 1741.86  210.01
   3  -1  -8  247.38   56.34
   3  -1  -8  243.93   54.62
  -3   1   8  124.33   52.65
   3  -1  -7 1901.05  215.24
   3  -1  -7 1959.71  213.35
  -3   1   7 1514.78  204.45
   3  -1  -6 1176.44  144.47
   3  -1  -6 1145.28  144.80
  -3   1   6 1040.13  142.87
   3  -1  -5 2911.16  264.57
   3  -1  -5 2963.58  265.85
  -3   1   5 2826.72  255.96
  -3   1   5 1766.47  202.04
   3  -1  -4 1483.25  142.63
   3  -1  -4 1460.08  176.88
   3  -1  -4 1443.78  142.51
  -3   1   4 1457.47  126.23
  -3   1   4 1321.08  169.50
  -3   1   4 1477.77  129.75
  -3   1   4 1164.62  125.52
   3  -1  -3  149.12   31.84
   3  -1  -3  152.38   36.36
   3  -1  -3  136.89   27.83
   3  -1  -3  184.36   36.34
  -3   1   3  186.07   30.72
  -3   1   3  117.66   33.80
  -3   1   3  159.75   26.05
  -3   1   3  101.03   32.85
   3  -1  -2  404.67   80.45
   3  -1  -2  473.41   42.71
   3  -1  -2  467.76   60.95
   3  -1  -2  429.66   57.64
  -3   1   2  550.62   68.64
  -3   1   2  454.72   54.14
  -3   1   2  477.77   61.82
  -3   1   2  427.86   58.34
   3  -1  -1 1023.28   91.46
   3  -1  -1 1106.86   97.45
   3  -1  -1 1200.06  103.07
   3  -1  -1 1205.39   71.57
  -3   1   1 1034.77  110.33
  -3   1   1 1171.48   98.02
  -3   1   1  997.97   45.55
  -3   1   1 1293.59   78.67
  -3   1   1 1283.46  106.13
   3  -1   0   96.16   28.48
   3  -1   0   80.57   27.06
  -3   1   0  111.25   18.35
  -3   1   0  116.87   28.85
  -3   1   0  162.17   29.90
   3  -1   1 3230.44  220.72
   3  -1   1 3548.42  265.82
   3  -1   1 3464.91  333.85
   3  -1   1 3812.30  238.66
   3  -1   1 4425.99  361.37
  -3   1  -1 3566.14  237.79
  -3   1  -1 3455.31  265.55
  -3   1  -1 3553.00  266.65
  -3   1  -1 4010.08  258.69
  -3   1  -1 3566.49  281.33
   3  -1   2  804.98   79.60
   3  -1   2 1016.26   80.23
   3  -1   2  797.51   67.11
   3  -1   2  970.01   68.42
   3  -1   2  984.40   91.66
  -3   1  -2  801.70   91.15
  -3   1  -2  862.81  118.62
  -3   1  -2  876.97   74.92
  -3   1  -2  913.65   71.14
   3  -1   3 3363.71  258.42
   3  -1   3 2934.13  237.67
   3  -1   3 2908.06  212.56
   3  -1   3 3495.59  253.65
   3  -1   3 3152.50  229.30
  -3   1  -3 2758.75  221.80
  -3   1  -3 3338.56  260.51
  -3   1  -3 3304.98  254.03
  -3   1  -3 3309.83  239.51
  -3   1  -3 2726.25  191.38
   3  -1   4 3617.39  313.67
   3  -1   4 4270.98  395.14
   3  -1   4 3448.35  256.26
  -3   1  -4 3521.95  311.29
  -3   1  -4 4077.76  356.87
  -3   1  -4 4214.86  353.12
  -3   1  -4 3490.61  285.64
   3  -1   5   90.21   34.27
   3  -1   5  115.25   21.31
  -3   1  -5   65.53   40.61
  -3   1  -5  109.85   36.77
  -3   1  -5  129.93   31.50
   3  -1   6 2035.04  229.04
  -3   1  -6 2206.36  240.41
  -3   1  -6 2199.04  263.61
   3  -1   7 1797.89  295.37
  -3   1  -7 1815.60  185.28
  -3   1  -7 1784.61  303.94
   3  -1   8  142.19   58.70
  -3   1  -8  210.31   48.03
  -3   1  -8  185.85   61.05
   3  -1   9  157.81   66.75
  -3   1  -9  364.60   80.43
   3  -1  10  142.91   84.60
  -3   1 -10  547.58   92.04
   3   0  -9  452.69   74.56
   3   0  -8   -0.02   25.95
  -3   0   8   28.30   21.71
   3   0  -7 1295.62  150.54
   3   0  -7 1077.81  136.33
  -3   0   7  730.40  131.23
   3   0  -6 3364.01  332.06
   3   0  -6 3196.38  317.66
  -3   0   6 2703.78  302.58
   3   0  -5 1232.93  131.00
   3   0  -5 1204.41  121.72
  -3   0   5 1092.41  116.42
  -3   0   5  754.79  103.25
   3   0  -4 2317.43  181.08
   3   0  -4 2101.65  190.47
   3   0  -4 2755.67  229.06
   3   0  -4 2563.48  213.52
  -3   0   4 2512.77  206.11
  -3   0   4 2541.64  206.11
  -3   0   4 2157.41  187.51
  -3   0   4 2267.05  272.66
   3   0  -3 4453.42  347.25
   3   0  -3 5196.83  423.33
   3   0  -3 5203.79  398.90
   3   0  -3 4909.35  396.36
  -3   0   3 5164.86  373.42
  -3   0   3 4101.17  413.63
  -3   0   3 4327.42  299.59
  -3   0   3 4659.87  369.04
  -3   0   3 4424.55  400.87
   3   0  -2  947.24   86.18
   3   0  -2  882.50   78.76
   3   0  -2  842.90   54.02
   3   0  -2  893.95   82.92
  -3   0   2 1298.78  113.77
  -3   0   2  879.75   90.82
  -3   0   2  911.94   51.19
  -3   0   2  947.41  123.53
   3   0  -1   31.11   17.16
   3   0  -1   43.19   18.80
   3   0  -1   39.40   31.26
  -3   0   1   45.72   23.02
  -3   0   1   65.28   18.65
  -3   0   1   35.03   15.12
  -3   0   1   26.35   22.69
   3   0   0 2924.52  214.84
   3   0   0 2869.62  176.96
   3   0   0 2965.07  140.27
   3   0   0 2949.82  220.45
  -3   0   0 3196.30  226.99
  -3   0   0 3035.62  257.87
  -3   0   0 2832.05  171.21
  -3   0   0 3076.40  238.12
   3   0   1 1873.89  167.46
   3   0   1 2112.35  107.03
   3   0   1 1884.20  144.27
   3   0   1 1952.34  152.63
   3   0   1 1974.56   94.23
  -3   0  -1 2020.77  134.40
  -3   0  -1 1840.23  176.58
  -3   0  -1 1976.63  153.34
   3   0   2 3333.68  246.69
   3   0   2 3451.27  251.98
   3   0   2 3126.34  232.59
   3   0   2 3065.56  230.20
   3   0   2 3592.13  211.26
  -3   0  -2 3643.34  338.48
  -3   0  -2 3470.93  306.49
  -3   0  -2 3324.87  234.32
   3   0   3 1752.30  145.52
   3   0   3 1745.00  126.85
   3   0   3 1765.31  138.65
   3   0   3 1933.21  140.63
   3   0   3 1977.31  129.53
  -3   0  -3 2312.55  173.12
  -3   0  -3 1975.82  159.43
   3   0   4 1488.29  129.11
   3   0   4 1853.94  139.13
   3   0   4 1569.97  120.50
  -3   0  -4 1494.91  139.64
  -3   0  -4 1606.48  125.22
  -3   0  -4 2147.94  160.62
  -3   0  -4 1785.42  158.47
   3   0   5   32.57   19.80
   3   0   5   30.99   19.77
   3   0   5   30.89   15.92
  -3   0  -5   16.26   24.48
  -3   0  -5   38.39   18.22
  -3   0  -5   43.88   21.39
   3   0   6  161.16   33.15
   3   0   6   58.29   70.05
  -3   0  -6  226.05   52.43
  -3   0  -6  289.48   59.38
   3   0   7 2606.97  236.89
   3   0   7 2667.59  313.14
  -3   0  -7 3092.49  329.31
  -3   0  -7 2994.00  263.95
   3   0   8  383.95   87.11
  -3   0  -8  337.29   83.35
  -3   0  -8  386.38   63.05
   3   0   9  181.20   57.87
  -3   0  -9  184.19   55.51
  -3   0  -9  197.98   42.09
   3   0  10  365.99   70.84
  -3   0 -10  498.39   73.71
   3   1  -9  870.01  113.11
   3   1  -8  767.55  119.18
   3   1  -7   25.63   30.39
   3   1  -6  104.54   41.47
  -3  -1   6   54.54   48.98
   3   1  -5   44.96   30.71
   3   1  -5   72.08   48.59
   3   1  -5   47.03   24.02
  -3  -1   5   81.62   35.64
  -3  -1   5   47.21   32.71
   3   1  -4 2259.54  162.63
   3   1  -4 2436.31  206.21
   3   1  -4 1698.21  162.38
   3   1  -4 2326.86  186.19
   3   1  -4 2644.97  273.43
  -3  -1   4 1975.50  155.45
  -3  -1   4 2272.12  233.86
  -3  -1   4 2178.79  181.27
  -3  -1   4 2326.94  225.47
  -3  -1   4 2368.76  185.52
   3   1  -3 2565.23  174.06
   3   1  -3 1951.51  150.63
   3   1  -3 2550.31  192.19
   3   1  -3 3098.19  238.74
   3   1  -3 2919.01  222.76
  -3  -1   3 2741.36  183.13
  -3  -1   3 2518.69  203.14
  -3  -1   3 2650.82  197.28
  -3  -1   3 2736.81  245.72
   3   1  -2 1990.16  140.50
   3   1  -2 1642.37  100.68
   3   1  -2 2397.56  149.72
   3   1  -2 2301.26  166.32
   3   1  -2 2093.45  194.65
  -3  -1   2 1970.86  159.59
  -3  -1   2 2254.90  141.05
  -3  -1   2 2737.60  235.84
   3   1  -1   84.62   22.06
   3   1  -1   71.22   19.61
   3   1  -1  130.35   22.44
  -3  -1   1   82.76   24.44
  -3  -1   1   94.68   28.89
  -3  -1   1   60.24   31.54
   3   1   0 4543.28  366.39
   3   1   0 4585.72  342.43
   3   1   0 4414.42  359.72
  -3  -1   0 4517.57  310.69
  -3  -1   0 4686.30  366.58
   3   1   1 1322.89   91.18
   3   1   1 1188.12   98.66
   3   1   1 1339.60  101.89
  -3  -1  -1 1443.11  106.05
  -3  -1  -1 1368.87  109.59
  -3  -1  -1 1305.10  101.44
   3   1   2    8.66    6.13
   3   1   2   14.48   11.56
   3   1   2   20.76   20.52
   3   1   2   -1.10    6.15
   3   1   2    7.48    8.63
  -3  -1  -2   20.40   12.95
  -3  -1  -2   11.31   14.20
  -3  -1  -2   -6.72    9.35
   3   1   3 4183.34  341.00
   3   1   3 4675.95  303.83
   3   1   3 3778.34  296.11
   3   1   3 4065.54  372.05
  -3  -1  -3 4504.91  366.25
  -3  -1  -3 5341.08  408.28
   3   1   4 2721.42  237.64
   3   1   4 2503.77  236.89
   3   1   4 3393.91  243.52
   3   1   4 2868.33  220.95
  -3  -1  -4 2827.90  196.24
  -3  -1  -4 3074.26  336.48
  -3  -1  -4 3728.01  290.28
   3   1   5   84.32   25.24
   3   1   5   95.74   25.10
   3   1   5   54.43   25.36
  -3  -1  -5   73.15   31.21
  -3  -1  -5   89.53   20.80
  -3  -1  -5  115.57   33.48
   3   1   6  464.23   59.15
   3   1   6  369.55   68.53
  -3  -1  -6  440.56   75.14
  -3  -1  -6  396.58   50.44
   3   1   7   -2.39   17.08
   3   1   7    6.32   21.15
  -3  -1  -7   12.03   14.73
  -3  -1  -7   28.12   22.51
   3   1   8   -3.39   19.18
   3   1   8   62.37   26.92
  -3  -1  -8   25.03   42.46
   3   1   9 1661.78  160.01
   3   1   9 1749.62  291.91
  -3  -1  -9 2239.59  240.46
   3   1  10    5.80   18.37
  -3  -1 -10   20.88   17.79
   3   2  -9  335.71   65.29
   3   2  -8 4178.16  439.24
   3   2  -7  725.76  111.04
   3   2  -7  493.45  128.55
   3   2  -6 5636.40  637.46
   3   2  -6 6514.34  771.06
   3   2  -5    7.23   15.04
   3   2  -5   23.17   28.73
  -3  -2   5    4.06   19.25
   3   2  -4  506.15   47.26
   3   2  -4  737.09   69.58
   3   2  -4  702.75  107.21
   3   2  -4  518.23   58.74
  -3  -2   4  633.54   67.18
  -3  -2   4  603.11   91.37
  -3  -2   4  639.75   65.22
   3   2  -3  101.09   17.29
   3   2  -3  144.82   42.33
   3   2  -3  116.97   21.64
  -3  -2   3    1.70   38.03
  -3  -2   3  190.12   29.05
  -3  -2   3  111.13   38.73
   3   2  -2 1513.05  105.18
   3   2  -2 1870.72  164.23
   3   2  -2 1906.30  139.86
   3   2  -2 1832.65  131.16
   3   2  -2 1508.98  110.48
  -3  -2   2 1677.03  141.05
  -3  -2   2 1704.01  128.73
   3   2  -1 2228.92  181.00
   3   2  -1 2130.70  157.45
   3   2  -1 1756.57  131.24
   3   2  -1 1958.59  132.73
  -3  -2   1 1826.26  150.71
  -3  -2   1 2044.05  191.90
   3   2   0   38.71   19.30
   3   2   0   53.86   22.65
   3   2   0   28.91   15.29
   3   2   0   33.68   19.61
  -3  -2   0   66.72   18.76
   3   2   1  925.55   77.54
   3   2   1  853.12   53.50
   3   2   1  897.19   72.84
   3   2   1  895.83   85.39
  -3  -2  -1  930.58   81.39
   3   2   2 3391.07  209.21
   3   2   2 3054.97  157.54
   3   2   2 3811.16  270.96
   3   2   2 3922.52  297.49
   3   2   2 3402.17  171.35
  -3  -2  -2 4139.70  309.02
  -3  -2  -2 4416.89  317.62
  -3  -2  -2 3886.42  274.06
   3   2   3 1191.59  111.92
   3   2   3 1059.65   93.18
   3   2   3 1223.74  103.60
  -3  -2  -3 1353.32  121.57
  -3  -2  -3 1570.85  125.59
   3   2   4   54.54   24.59
   3   2   4   31.48   15.80
   3   2   4   62.65   21.25
  -3  -2  -4   39.19   11.07
  -3  -2  -4   89.89   26.53
   3   2   5 4031.09  368.59
   3   2   5 3643.81  335.33
   3   2   5 4128.04  341.76
   3   2   6  166.81   35.42
   3   2   6   74.76   35.60
  -3  -2  -6  108.76   41.41
   3   2   7  493.96   73.74
   3   2   7  304.78  117.41
  -3  -2  -7  520.89   87.34
   3   2   8  478.80   67.48
   3   2   8  355.38  124.99
  -3  -2  -8  456.88   86.59
   3   2   9  221.28   45.74
   3   2   9  200.29   54.51
  -3  -2  -9  223.98   51.66
   3   2  10   89.80   31.67
   3   3  -9   81.19   30.97
   3   3  -8   31.20   24.20
   3   3  -8    7.30   19.39
   3   3  -7   23.31   27.39
   3   3  -7   16.82   39.52
   3   3  -6  528.97  126.04
   3   3  -6  570.14  131.84
   3   3  -5 4772.95  524.29
   3   3  -5 4626.48  514.03
  -3  -3   5 4087.08  468.20
   3   3  -4  854.78  137.42
   3   3  -4  817.56   90.14
   3   3  -3 2723.17  265.61
   3   3  -3 2888.12  277.98
  -3  -3   3 2666.23  235.29
  -3  -3   3 3226.07  312.75
   3   3  -2 2035.99  133.33
   3   3  -2 1331.62   88.61
   3   3  -2 2104.38  173.62
   3   3  -2 2062.12  159.92
   3   3  -2 1283.00   89.58
  -3  -3   2 1761.68  145.28
  -3  -3   2 1861.83  142.40
   3   3  -1  157.18   20.04
   3   3  -1  175.11   35.81
   3   3  -1  142.59   36.88
   3   3  -1  106.85   18.55
  -3  -3   1  147.95   30.52
  -3  -3   1  184.60   31.78
   3   3   0 1169.11   82.55
   3   3   0 1315.73  117.27
   3   3   0 1115.99   80.21
  -3  -3   0 1263.51  107.71
   3   3   1  317.09   39.40
   3   3   1  264.58   48.03
   3   3   1  294.39   46.09
   3   3   1  213.76   23.16
  -3  -3  -1  323.47   44.62
   3   3   2  829.58   64.74
   3   3   2  788.13   86.65
   3   3   2  784.93   67.13
  -3  -3  -2  763.19   81.46
   3   3   3   28.87   11.09
   3   3   3   90.65   38.78
   3   3   3  121.46   21.33
   3   3   4   12.58   15.92
   3   3   4    0.34    9.04
   3   3   4   19.84   14.17
  -3  -3  -4    2.20   16.59
   3   3   5  547.74   85.42
   3   3   5  389.63   62.30
   3   3   5  250.40   47.75
   3   3   6    9.39   19.32
   3   3   6    6.73   17.38
  -3  -3  -6   26.02   21.10
   3   3   7  118.83   35.66
   3   3   7   57.54   35.97
  -3  -3  -7   95.32   39.32
   3   3   8 1332.85  174.78
   3   3   8  860.57  130.02
  -3  -3  -8 1042.31  136.38
   3   3   9  103.26   29.91
   3   3   9   51.41   30.75
  -3  -3  -9   49.71   26.99
   3   3  10  192.56   29.71
   3   3  10   24.36   39.72
   3   4  -8  130.59   40.04
   3   4  -8  128.38   39.59
   3   4  -7  780.08  109.60
   3   4  -7  751.37  114.81
   3   4  -6   64.13   79.45
   3   4  -6  799.94   97.02
  -3  -4   6   33.26   53.47
   3   4  -5   38.76   29.99
   3   4  -5   23.09   39.73
  -3  -4   5  -15.81   28.19
   3   4  -4 2414.36  275.71
   3   4  -4 2664.17  361.91
   3   4  -4 2453.03  275.50
   3   4  -3 8991.75  954.19
   3   4  -3 9188.10  924.12
   3   4  -3 8355.76  874.30
   3   4  -2 2753.68  248.52
   3   4  -2 2587.50  262.68
   3   4  -2 2395.32  181.36
   3   4  -1 6555.74  589.53
   3   4  -1 6577.33  593.46
  -3  -4   1 5753.40  514.29
  -3  -4   1 6134.31  541.69
   3   4   0   20.90   21.58
   3   4   0   14.65    9.07
   3   4   0   49.68   19.14
   3   4   1 9386.26  832.86
   3   4   1 8839.94  925.42
   3   4   1 7954.27  675.47
   3   4   2   15.00   12.09
   3   4   2    8.93   17.13
   3   4   2    7.82   11.81
   3   4   3  860.68   96.22
   3   4   3  886.92   83.66
   3   4   4   12.98   26.95
   3   4   4   18.23   19.55
   3   4   5  384.11   59.04
   3   4   5  355.38   66.75
   3   4   6  260.02   50.87
  -3  -4  -6  193.16   52.64
   3   4   7   52.55   26.97
  -3  -4  -7   18.10   27.19
   3   4   8   17.42   24.43
   3   4   8   -2.64   14.89
  -3  -4  -8   -8.14   14.18
   3   4   9    0.36   17.56
   3   4   9  -34.90   26.90
   3   4  10  494.77   55.67
   3   5  -8  372.46   48.86
   3   5  -8  397.78   60.23
   3   5  -7 2483.28  238.99
   3   5  -7 2882.70  300.20
   3   5  -6  363.22   76.18
   3   5  -6  347.85   59.09
  -3  -5   6  172.17   69.00
   3   5  -5 2620.14  282.59
   3   5  -5 2123.29  226.85
   3   5  -4  598.66  109.59
   3   5  -4  562.08  107.01
   3   5  -3 1634.20  197.97
   3   5  -3 1629.26  210.90
   3   5  -2   72.89   39.06
   3   5  -2   57.92   37.23
   3   5  -1   75.74   35.12
   3   5  -1   61.82   35.08
   3   5   0 2578.93  240.69
   3   5   0 2446.79  251.68
   3   5   1   24.57   20.56
   3   5   1   28.16   23.41
   3   5   2 1853.65  178.11
   3   5   2 2194.53  181.50
   3   5   2 2039.58  195.59
   3   5   3 1907.59  156.60
   3   5   3 2000.88  192.39
   3   5   4  517.12   63.30
   3   5   4  507.50   77.37
   3   5   5   22.68   21.97
   3   5   5   22.85   20.55
   3   5   6  369.79   54.65
  -3  -5  -6  163.41   53.20
   3   5   7  102.79   55.59
   3   5   8    5.33   17.36
   3   5   9  127.45   35.20
   3   6  -7  330.37   63.97
   3   6  -6  406.52   70.65
  -3  -6   6  135.81   61.61
   3   6  -5  477.77   75.86
  -3  -6   5   -9.63   75.77
   3   6  -4 1837.87  244.30
   3   6  -4 1947.56  248.44
   3   6  -3  161.78   58.74
   3   6  -3  112.61   55.41
   3   6  -2 1618.39  207.49
   3   6  -2 1737.03  220.99
   3   6  -1  376.08   83.63
   3   6  -1  368.59   81.09
   3   6   0  539.28   92.62
   3   6   0  553.55  141.53
   3   6   1 1117.66  132.81
   3   6   1 1069.77  135.35
   3   6   2   38.64   26.12
   3   6   2   63.93   29.58
   3   6   3 2496.00  207.51
   3   6   3 2872.56  340.86
   3   6   4  946.72  140.31
   3   6   4 1672.66  132.70
   3   6   5   56.95   26.33
   3   6   6  817.95  148.89
   3   6   7   17.95   21.66
   3   6   8   18.68   20.09
   3   7  -6  178.34   35.52
  -3  -7   6    9.11   27.29
   3   7  -5  383.48   72.34
  -3  -7   5  149.91   78.05
   3   7  -4   30.55   37.02
   3   7  -4   39.50   34.38
   3   7  -3  758.69  140.08
   3   7  -3  713.78  127.31
   3   7  -2 1983.68  255.89
   3   7  -2 1859.64  241.77
   3   7  -1 1787.60  322.05
   3   7  -1 1931.47  244.13
   3   7   0 3230.69  348.89
   3   7   0 2810.20  330.58
   3   7   1   19.04   27.23
   3   7   1   29.16   26.45
   3   7   2 1184.14  137.60
   3   7   2  919.81  130.56
   3   7   5    8.52   15.52
   3   7   6  209.35   41.99
   3   7   7  604.79   71.97
   3   7   8   -5.22   11.12
  -3  -8   5   18.29   22.64
   3   8  -4  341.32   76.07
   3   8  -4  315.06  104.22
   3   8  -3   -9.06   18.76
   3   8  -3   15.60   25.46
   3   8  -2   96.21   51.12
   3   8  -1 1182.65  160.89
   3   8  -1  845.58  133.38
   3   8   0    3.56   20.18
   3   8   0   20.63   25.63
   3   8   1 1939.99  227.33
   3   8   2   21.21   24.53
   3   9  -3 1098.04  108.14
   3   9  -3  494.97   60.37
   3   9  -2  101.90   40.90
   3   9  -2   57.52   27.01
   3   9  -1  279.11   70.46
   3   9   0   32.67   30.68
   3   9   1   17.99   23.73
   4  -8  -1   54.98   24.57
  -4   8   1   28.36   20.46
   4  -8   0    4.46   16.11
  -4   8   0  -11.92   13.73
   4  -8   1   59.94   23.95
  -4   8  -1   17.25   19.72
  -4   7   4    7.04   14.74
  -4   7   3    5.40   22.51
  -4   7   3   93.81   27.30
  -4   7   2   36.56   22.45
  -4   7   2   10.60   24.95
   4  -7  -1   42.65   43.60
  -4   7   1   97.23   34.45
   4  -7   0  578.19  102.43
  -4   7   0  390.18   77.24
   4  -7   1  511.24   92.72
  -4   7  -1  391.15   73.73
   4  -7   2   39.27   30.26
  -4   7  -2   25.66   38.20
   4  -7   3  151.70   42.15
  -4   7  -3   56.26   27.70
   4  -7   4   97.15   38.56
   4  -6  -5  572.19   75.72
  -4   6   5  444.46   76.65
   4  -6  -4  946.39  111.05
  -4   6   4  497.05   88.57
  -4   6   4 1236.90  130.42
   4  -6  -3   -5.55   21.16
  -4   6   3   38.71   22.44
  -4   6   3   48.50   26.86
  -4   6   2   25.25   26.09
  -4   6   2   34.12   28.29
  -4   6   1   12.46   19.26
  -4   6   1   -3.09   20.43
   4  -6   0  -47.97  101.89
  -4   6   0 1050.30  102.40
   4  -6   1   30.82   41.57
  -4   6  -1   77.83   34.29
   4  -6   2  407.21   69.90
  -4   6  -2  212.31   55.11
  -4   6  -2  191.03   45.06
   4  -6   3   51.52   35.32
  -4   6  -3   24.39   34.86
   4  -6   4  122.32   70.46
  -4   6  -4   51.81   24.72
  -4   6  -4   76.45   26.12
   4  -6   5    9.52   15.67
  -4   6  -5   -3.49   10.57
   4  -6   6  254.05   59.94
  -4   6  -6  343.02   42.62
   4  -5  -7 1243.83  131.17
   4  -5  -6   60.00   32.96
  -4   5   6   40.36   43.20
   4  -5  -5 1013.76  135.84
  -4   5   5  751.22  186.40
   4  -5  -4  314.64   64.82
  -4   5   4  185.34   48.03
  -4   5   4  277.16   96.35
   4  -5  -3 1885.51  217.60
  -4   5   3 2088.71  239.49
  -4   5   3 1440.42  277.00
   4  -5  -2   12.35   37.91
  -4   5   2  194.62   43.78
  -4   5   2  105.09   64.62
   4  -5  -1  882.81  128.22
  -4   5   1 1294.04  226.46
  -4   5   1 1748.24  175.99
  -4   5   0   66.10   44.21
  -4   5   0   -9.25   20.57
  -4   5   0   94.09   29.38
   4  -5   1  122.57   50.12
  -4   5  -1  122.02   44.16
  -4   5  -1  101.88   35.42
   4  -5   2  -19.92   22.89
  -4   5  -2  -10.29   19.24
  -4   5  -2    2.47   17.59
   4  -5   3  283.81   59.01
  -4   5  -3  111.19   41.13
  -4   5  -3  128.82   44.50
   4  -5   4  341.01   80.63
  -4   5  -4  108.52   67.56
  -4   5  -4  306.74   55.00
   4  -5   5   79.05   41.34
  -4   5  -5   63.50   31.75
   4  -5   6    1.60   21.06
  -4   5  -6   12.23   16.87
   4  -5   7   79.92   31.67
  -4   5  -7   70.30   27.62
   4  -4  -7 1872.75  210.32
   4  -4  -6   57.94   62.88
  -4   4   6   78.14   39.02
   4  -4  -5  906.26  163.09
  -4   4   5  867.65  117.64
  -4   4   5  370.68   75.07
   4  -4  -4  413.96  107.02
   4  -4  -4  122.12   83.40
  -4   4   4  355.01   72.19
  -4   4   4  219.46   58.20
   4  -4  -3   29.08   47.31
   4  -4  -3   22.30   37.71
  -4   4   3   44.34   43.99
  -4   4   3   23.05   26.03
   4  -4  -2 1041.19  126.59
   4  -4  -2 1211.09  142.22
  -4   4   2 1266.03  147.69
  -4   4   2  942.65  137.06
   4  -4  -1   54.79   25.51
   4  -4  -1   13.00   26.52
  -4   4   1   53.95   28.96
  -4   4   1   41.68   30.31
   4  -4   0  732.11  100.66
   4  -4   0  637.93   86.84
  -4   4   0  965.82  115.38
  -4   4   0  653.84  103.31
   4  -4   1  560.95   85.10
  -4   4  -1  511.62   87.29
  -4   4  -1  579.83   88.86
   4  -4   2   46.01   29.86
  -4   4  -2   60.80   39.39
  -4   4  -2   18.46   25.63
   4  -4   3  976.01  127.70
  -4   4  -3  613.05   92.20
  -4   4  -3  864.70  105.24
   4  -4   4  809.32  138.68
  -4   4  -4  726.49  102.88
   4  -4   5  254.27   69.39
  -4   4  -5  251.23   58.63
   4  -4   6   13.28   20.42
  -4   4  -6   -1.69   22.78
  -4   4  -6    2.19   18.47
   4  -4   7  247.55   59.23
  -4   4  -7  382.49   54.55
  -4   4  -7  111.58   45.95
   4  -4   8    3.10   15.81
  -4   4  -8    8.39   13.44
   4  -3  -8  643.90   90.51
   4  -3  -7   45.38   48.48
  -4   3   7   21.66   23.37
   4  -3  -6 1337.63  158.86
   4  -3  -6  969.87  133.83
  -4   3   6  850.11  140.22
   4  -3  -5  365.72   65.22
   4  -3  -5  276.18   56.29
  -4   3   5  205.06   58.05
  -4   3   5   76.55   45.07
   4  -3  -4 1380.04  170.71
   4  -3  -4 1401.83  160.79
  -4   3   4 1341.48  170.11
  -4   3   4 1031.59  143.80
   4  -3  -3 1257.87  153.43
   4  -3  -3 1343.96  152.19
  -4   3   3 1361.46  166.18
  -4   3   3 1000.07  144.82
   4  -3  -2 1574.80  160.92
   4  -3  -2 1572.89  231.92
  -4   3   2 1581.11  217.22
  -4   3   2 1224.61  155.81
   4  -3  -1  894.47  106.57
   4  -3  -1  956.45  153.66
  -4   3   1  924.40  105.40
  -4   3   1  781.73  109.13
   4  -3   0 4362.70  405.62
   4  -3   0 4743.59  408.50
   4  -3   0 4552.67  414.25
  -4   3   0 4742.16  435.04
  -4   3   0 3861.70  395.34
   4  -3   1 1031.43   99.59
   4  -3   1  899.78  105.83
  -4   3  -1  831.73   97.93
  -4   3  -1  809.36  101.42
   4  -3   2 1272.44  119.69
   4  -3   2 1041.31  116.02
   4  -3   2  745.81   84.14
  -4   3  -2 1008.81  107.18
   4  -3   3  279.97   54.66
  -4   3  -3  127.31   59.05
  -4   3  -3  229.77   50.25
   4  -3   4  346.39   67.12
  -4   3  -4  151.50   44.64
  -4   3  -4  253.99   55.08
   4  -3   5  210.94   76.06
  -4   3  -5  738.04   82.10
  -4   3  -5  262.96   71.69
   4  -3   6    4.30   21.42
  -4   3  -6    9.72   30.96
   4  -3   7  272.53   66.27
  -4   3  -7  267.04   61.47
  -4   3  -7  303.46   63.90
   4  -3   8   62.75   39.05
  -4   3  -8  117.10   37.74
  -4   3  -8  174.65   39.25
   4  -3   9   -0.60    9.46
  -4   3  -9   -5.16   19.11
  -4   3  -9   -2.75   11.30
   4  -2  -8  355.60   67.72
   4  -2  -7   -3.11   55.36
   4  -2  -7   65.19   31.91
   4  -2  -6  269.46   71.25
   4  -2  -6  251.26   65.85
   4  -2  -5 3492.91  334.01
   4  -2  -5 3458.04  328.21
  -4   2   5 1883.73  230.85
   4  -2  -4 7123.36  716.34
   4  -2  -4 7474.81  749.49
  -4   2   4 5916.07  639.99
  -4   2   4 5978.59  761.68
   4  -2  -3  155.43   42.20
   4  -2  -3   99.00   41.34
  -4   2   3  123.71   32.21
  -4   2   3   66.37   41.63
   4  -2  -2 4404.15  376.80
   4  -2  -2 4423.82  493.11
   4  -2  -2 4520.42  415.66
  -4   2   2 4354.50  380.93
  -4   2   2 4153.33  425.14
   4  -2  -1  834.33   96.56
   4  -2  -1  841.70   75.75
   4  -2  -1  755.44   94.24
  -4   2   1  789.26   93.15
  -4   2   1  721.26   96.89
  -4   2   1  713.49  103.85
   4  -2   0 4336.85  340.94
   4  -2   0 4284.74  380.20
   4  -2   0 4401.48  394.89
  -4   2   0 4520.83  467.65
  -4   2   0 4555.90  363.78
  -4   2   0 4266.56  499.05
   4  -2   1  182.29   45.40
   4  -2   1  238.55   41.67
   4  -2   1  232.65   31.51
   4  -2   1  134.05   57.93
  -4   2  -1  255.25   47.99
  -4   2  -1  240.08   42.73
   4  -2   2  361.10   46.04
   4  -2   2  390.25   54.94
   4  -2   2  370.50   43.19
   4  -2   2  295.77   40.81
   4  -2   2  346.28   61.36
  -4   2  -2  238.81   36.26
  -4   2  -2  206.89   36.45
  -4   2  -2  283.53   45.30
   4  -2   3  613.27   75.47
   4  -2   3  492.13   71.05
   4  -2   3  648.22   91.60
   4  -2   3  498.25   57.78
  -4   2  -3  478.91   87.37
  -4   2  -3  403.07   63.46
  -4   2  -3  423.25   55.61
   4  -2   4    4.13   24.18
  -4   2  -4    5.14   16.05
  -4   2  -4    4.85   15.57
   4  -2   5 1463.20  170.73
  -4   2  -5 1327.99  150.72
  -4   2  -5 1302.20  222.82
   4  -2   6   10.85   14.83
  -4   2  -6  -19.04   15.40
  -4   2  -6    7.80   14.84
   4  -2   7    3.81   27.97
  -4   2  -7  -20.61   19.11
  -4   2  -7   22.55   17.25
   4  -2   8   64.70   34.41
  -4   2  -8   50.03   37.18
  -4   2  -8  107.64   33.66
   4  -2   9   22.31   28.91
  -4   2  -9  133.60   31.84
  -4   2  -9   86.28   42.33
   4  -1  -8  652.09   95.23
   4  -1  -8  576.28   86.16
   4  -1  -7   22.78   41.72
   4  -1  -7    8.63   40.44
   4  -1  -6  931.75  139.40
   4  -1  -6  831.23  196.14
   4  -1  -5   -7.19   18.69
   4  -1  -5   17.34   19.58
  -4   1   5   -0.41   15.46
   4  -1  -4  855.94  113.38
   4  -1  -4  811.63  111.24
  -4   1   4  660.64  103.52
   4  -1  -3 2738.07  333.01
   4  -1  -3 2532.66  244.94
  -4   1   3 2350.22  241.59
   4  -1  -2  -10.32   20.17
   4  -1  -2   -2.02   22.75
   4  -1  -2   -2.59   14.32
  -4   1   2    3.34   14.77
  -4   1   2    0.00   12.73
  -4   1   2   -1.73   14.37
   4  -1  -1 5872.57  531.43
   4  -1  -1 6892.28  615.40
   4  -1  -1 6446.41  587.62
  -4   1   1 6549.15  612.11
  -4   1   1 6799.44  597.24
  -4   1   1 6526.07  612.97
   4  -1   0   47.35   23.36
   4  -1   0   27.86   21.77
  -4   1   0   22.01   21.62
  -4   1   0   43.68   23.49
   4  -1   1 1513.30  116.84
   4  -1   1 2146.16  140.11
   4  -1   1 2084.24  229.30
   4  -1   1 2297.04  185.53
   4  -1   1 2011.68  123.33
  -4   1  -1 1872.93  133.18
  -4   1  -1 2291.43  185.64
  -4   1  -1 2184.80  187.44
   4  -1   2  927.31   78.04
   4  -1   2  908.39   92.08
   4  -1   2  830.95   69.62
   4  -1   2  811.46   83.22
  -4   1  -2  940.33   93.02
  -4   1  -2  922.35   79.85
  -4   1  -2  970.98   95.99
  -4   1  -2  865.01  123.62
   4  -1   3    3.84   21.36
   4  -1   3   13.14   17.30
   4  -1   3   17.70   14.60
   4  -1   3    7.54   12.79
  -4   1  -3   17.13   14.74
  -4   1  -3   25.04   15.44
  -4   1  -3   19.81   14.17
  -4   1  -3    8.09   11.27
   4  -1   4   12.26   10.74
   4  -1   4   -4.65   10.23
   4  -1   4   -3.60   11.01
  -4   1  -4    0.80   12.20
  -4   1  -4    2.99   13.14
   4  -1   5   17.78   21.45
   4  -1   5   21.91   16.71
  -4   1  -5   43.37   23.50
  -4   1  -5   45.20   26.83
   4  -1   6  165.95   53.67
  -4   1  -6  251.16   53.48
  -4   1  -6  306.09   65.27
   4  -1   7  546.44  104.58
  -4   1  -7  880.51  178.69
  -4   1  -7  802.79   99.99
   4  -1   8   81.31   36.92
  -4   1  -8   77.87   40.76
  -4   1  -8   83.59   32.37
   4  -1   9    4.65   19.64
  -4   1  -9   47.70   22.99
  -4   1  -9    3.29   27.24
   4   0  -9   66.24   27.25
   4   0  -8  200.77   56.79
   4   0  -7 1579.94  184.36
   4   0  -7 1095.12  157.42
   4   0  -6   81.68   40.14
   4   0  -6   12.02   55.76
   4   0  -5 2336.30  246.17
   4   0  -5 2146.28  292.74
  -4   0   5 1671.46  206.78
   4   0  -4  531.16   86.61
   4   0  -4  457.56  108.97
  -4   0   4  413.83   71.63
   4   0  -3 1186.40  126.38
   4   0  -3 1177.23  174.85
  -4   0   3 1055.12  177.26
   4   0  -2 1450.43  135.02
   4   0  -2 1554.51  145.22
   4   0  -2 1538.51  144.72
  -4   0   2 1530.18  217.38
  -4   0   2 1572.19  192.78
  -4   0   2 1655.20  228.68
   4   0  -1 3249.53  266.67
   4   0  -1 3517.53  288.69
   4   0  -1 3517.05  292.38
   4   0  -1 3113.40  213.78
  -4   0   1 3371.99  254.95
  -4   0   1 3564.67  305.54
  -4   0   1 3589.60  286.71
  -4   0   1 3449.67  399.60
   4   0   0  752.63   80.41
   4   0   0  768.20   84.33
   4   0   0  752.51   77.88
  -4   0   0  677.12   53.35
  -4   0   0  665.32  117.84
   4   0   1 3812.09  289.11
   4   0   1 3966.78  407.57
   4   0   1 3762.49  311.35
  -4   0  -1 3942.48  329.44
  -4   0  -1 3719.08  319.10
  -4   0  -1 3650.71  306.40
   4   0   211738.15 1140.86
   4   0   211168.68 1099.67
   4   0   210967.18 1087.47
  -4   0  -212487.71 1222.77
  -4   0  -212462.04 1198.17
  -4   0  -211961.25 1161.91
   4   0   312129.21 1225.86
   4   0   311879.30 1204.03
   4   0   312387.47 1246.26
  -4   0  -313965.68 1388.70
  -4   0  -314021.50 1399.71
  -4   0  -310855.56 1133.58
   4   0   4    4.95   13.65
  -4   0  -4    8.23   12.80
  -4   0  -4   10.84   15.85
   4   0   5  526.55   63.76
  -4   0  -5  524.02   66.41
  -4   0  -5  581.56   82.95
   4   0   6   88.66   32.98
   4   0   6    3.35   47.51
  -4   0  -6  182.00   52.23
  -4   0  -6  170.07   45.39
   4   0   7   13.03   19.35
   4   0   7   30.05   23.77
  -4   0  -7   13.00   31.28
  -4   0  -7   34.05   21.22
   4   0   8   93.15   38.08
  -4   0  -8   99.69   44.22
  -4   0  -8   96.05   32.22
   4   0   9  -13.48   28.00
  -4   0  -9   27.19   21.82
  -4   0 -10   58.32   25.49
   4   1  -9   63.99   45.49
   4   1  -8   63.95   37.66
   4   1  -7   -7.52   24.41
   4   1  -6   36.62   33.00
   4   1  -5  771.82  101.12
   4   1  -5  525.75   85.12
  -4  -1   5  406.56  129.84
   4   1  -4  790.77  100.35
   4   1  -4  680.35   88.82
  -4  -1   4  716.56  118.49
   4   1  -3  718.94  103.34
   4   1  -3  866.37   94.80
   4   1  -3  788.36   85.39
   4   1  -3  810.95   70.42
  -4  -1   3  736.35   66.58
  -4  -1   3  761.79  116.82
   4   1  -2 2948.45  238.72
   4   1  -2 2578.14  209.74
   4   1  -2 2796.04  231.81
   4   1  -2 2769.55  199.21
  -4  -1   2 2656.81  238.57
  -4  -1   2 2943.76  280.53
  -4  -1   2 2616.55  181.94
   4   1  -1 3383.90  273.25
   4   1  -1 3919.31  365.03
   4   1  -1 3800.31  310.04
   4   1  -1 3620.91  267.35
  -4  -1   1 3374.90  290.11
  -4  -1   1 3820.54  349.11
  -4  -1   1 3912.22  316.88
   4   1   0  930.23   85.77
   4   1   0  982.44   99.22
   4   1   0  906.77   78.12
  -4  -1   0  945.76   75.16
  -4  -1   0  866.79  102.66
   4   1   1 1191.15   98.92
   4   1   1 1032.80  102.25
   4   1   1 1242.53  108.18
  -4  -1  -1 1307.05  122.20
  -4  -1  -1 1092.29  124.47
  -4  -1  -1 1101.66  109.44
   4   1   2  711.90   74.03
   4   1   2  594.48   60.08
   4   1   2  627.22   72.91
  -4  -1  -2  761.99   86.53
  -4  -1  -2  671.59   73.35
  -4  -1  -2  580.06   84.28
   4   1   3 1041.01  105.83
   4   1   3  907.21   84.91
   4   1   3  990.38  101.17
  -4  -1  -3 1331.57  170.41
  -4  -1  -3 1218.65  115.84
   4   1   4 1609.44  149.50
   4   1   4 1505.18  134.27
  -4  -1  -4 1339.65  108.76
   4   1   5   95.12   30.53
  -4  -1  -5   60.09   24.00
  -4  -1  -5  148.75   36.67
   4   1   6 2601.67  302.76
  -4  -1  -6 2272.57  256.62
  -4  -1  -6 2720.21  288.68
   4   1   7   -2.44   19.53
  -4  -1  -7   52.31   28.12
   4   1   8   69.18   28.80
  -4  -1  -8   95.92   63.52
  -4  -1  -9  103.39   40.07
  -4  -1 -10  174.26   38.47
   4   2  -8   18.69   24.53
   4   2  -7  203.94   60.62
   4   2  -6  494.50   80.77
  -4  -2   6  125.69  100.35
   4   2  -5  142.40   47.40
   4   2  -5  113.55   36.44
  -4  -2   5  103.65   49.79
   4   2  -4    2.24   15.09
   4   2  -4   -0.98   11.21
   4   2  -4   -4.36   12.31
  -4  -2   4   18.79   18.32
   4   2  -3   19.66   25.68
   4   2  -3   48.32   24.78
   4   2  -3   40.67   20.56
   4   2  -3   70.63   22.06
  -4  -2   3   56.28   29.60
  -4  -2   3   23.11   33.58
   4   2  -2 6090.62  533.28
   4   2  -2 6895.24  607.24
   4   2  -2 7559.42  639.01
   4   2  -2 7297.58  632.29
  -4  -2   2 6608.40  623.11
  -4  -2   2 7601.93  750.03
  -4  -2   2 6846.51  570.79
   4   2  -1    1.77    8.56
   4   2  -1    0.72    9.53
   4   2  -1   -3.02   16.66
  -4  -2   1    9.42   11.90
  -4  -2   1   -6.68   15.77
  -4  -2   1   -0.62   10.22
   4   2   0 9963.25  902.09
   4   2   0 9291.74  879.60
   4   2   010259.02  955.67
  -4  -2   011068.23 1010.30
  -4  -2   010546.44 1052.31
   4   2   1   63.15   16.87
   4   2   1   58.01   22.54
   4   2   1   71.62   25.57
  -4  -2  -1   54.37   23.60
  -4  -2  -1   31.10   23.82
   4   2   2 2909.96  244.97
   4   2   2 3443.82  281.49
   4   2   2 2724.16  200.95
  -4  -2  -2 3702.14  374.31
  -4  -2  -2 3570.62  358.79
  -4  -2  -2 3118.39  257.31
   4   2   3  299.09   53.70
   4   2   3  267.14   70.00
  -4  -2  -3  273.78   56.01
  -4  -2  -3  321.80   62.12
   4   2   4  287.71   54.06
   4   2   4  226.06   46.45
   4   2   5   -5.45   17.96
   4   2   5   -3.51   15.80
   4   2   6   43.72   43.94
  -4  -2  -6   54.04   34.04
   4   2   7  618.75   87.12
  -4  -2  -7  613.52  109.59
   4   2   8  789.97  102.63
  -4  -2  -8  922.03  131.87
   4   2   9  603.01   73.41
  -4  -2  -9  584.65   93.07
   4   3  -8   15.03   20.50
   4   3  -7  219.98   48.10
   4   3  -7   94.48   38.79
   4   3  -6  305.98   63.79
   4   3  -6  403.01   70.49
  -4  -3   6  156.03   71.92
   4   3  -5   52.37   31.01
   4   3  -5   54.02   30.56
  -4  -3   5   16.59   36.66
   4   3  -4  383.42   69.17
   4   3  -4  407.38   72.28
  -4  -3   4  429.42   95.14
   4   3  -3  232.70   44.53
   4   3  -3  254.33   51.20
  -4  -3   3  135.47   72.96
   4   3  -2   12.79   10.56
   4   3  -2   18.06   18.24
   4   3  -2    8.49   11.39
   4   3  -2   18.06   14.33
  -4  -3   2    9.29   26.24
   4   3  -1  446.50   47.68
   4   3  -1  538.63   72.71
   4   3  -1  468.24   52.89
  -4  -3   1  545.52   98.05
  -4  -3   1  638.97   69.31
   4   3   0 1095.16   82.23
   4   3   0 1050.58   94.57
   4   3   0 1205.38  168.62
  -4  -3   0 1314.81  114.01
   4   3   1 1165.69  107.54
   4   3   1 1303.28  112.33
   4   3   1 1553.52  147.33
  -4  -3  -1 1554.69  140.66
  -4  -3  -1 1527.75  146.80
   4   3   2 7316.56  670.43
   4   3   2 5992.29  607.25
  -4  -3  -2 7473.53  672.15
  -4  -3  -2 6756.81  626.75
   4   3   3 1406.89  201.77
   4   3   3 1328.38  125.16
   4   3   4 2358.06  238.92
   4   3   4 2247.63  206.50
   4   3   5 1526.42  179.01
   4   3   5 1464.35  158.23
   4   3   6  563.43   87.28
  -4  -3  -6  623.41   99.75
   4   3   7   15.47   19.80
  -4  -3  -7    2.08   23.26
   4   3   8   14.58   19.44
  -4  -3  -8   11.88   23.01
   4   3   9   77.22   27.52
  -4  -3  -9   61.23   28.99
   4   4  -8  996.10  100.14
   4   4  -7   76.03   32.10
   4   4  -7   64.90   31.36
   4   4  -6  834.40  105.54
   4   4  -6  853.66  114.02
  -4  -4   6  492.07  117.47
   4   4  -5   69.83   34.07
   4   4  -5   63.47   39.08
  -4  -4   5   71.88   44.37
   4   4  -4    7.99   17.45
   4   4  -4    0.93   23.09
  -4  -4   4  -70.19   30.50
   4   4  -3 1600.25  158.66
   4   4  -3 1977.89  205.89
   4   4  -2 1253.48  119.28
   4   4  -2 1699.21  203.50
   4   4  -2 1687.85  174.00
   4   4  -1  137.24   53.68
   4   4  -1  159.09   51.04
   4   4   0  210.89   55.61
   4   4   0  173.85   82.91
   4   4   0  217.02   43.06
   4   4   1 1043.43  106.76
   4   4   1  960.90  116.38
   4   4   1  727.97   72.30
   4   4   2  242.59   53.73
   4   4   2  220.32   38.53
   4   4   3  803.81  150.38
   4   4   3  682.00   80.31
   4   4   4   15.65   25.93
   4   4   4   26.74   21.20
   4   4   5 3426.10  329.53
   4   4   5 3601.90  376.84
   4   4   6  377.64   52.63
  -4  -4  -6   12.42   55.87
   4   4   7 1724.33  177.15
  -4  -4  -7 1533.86  193.14
   4   4   8   11.77   20.62
  -4  -4  -8   29.35   22.61
   4   4   9  104.38   31.07
   4   5  -7   78.77   25.51
   4   5  -7   96.33   32.70
   4   5  -6   15.51   18.69
   4   5  -6   34.48   25.86
  -4  -5   6    4.12   24.35
   4   5  -5  109.69   38.89
   4   5  -5  227.31   54.90
  -4  -5   5   97.44   59.19
   4   5  -4  103.49   46.26
  -4  -5   4   53.39   56.33
   4   5  -3 1357.92  207.01
   4   5  -3 1395.01  184.58
   4   5  -2  426.69   95.63
   4   5  -2  320.83   81.91
   4   5  -1 2715.41  317.89
   4   5  -1 2642.83  294.05
   4   5   0   18.53   29.84
   4   5   0   53.30   45.47
   4   5   1 3928.48  403.69
   4   5   1 4091.15  411.65
   4   5   2   17.24   18.16
   4   5   2   17.83   22.33
   4   5   2    5.89   13.92
   4   5   3  697.18  157.02
   4   5   3  676.96  113.57
   4   5   4   31.42   21.76
   4   5   4   19.71   28.01
   4   5   5   68.95   30.13
   4   5   5   70.11   37.02
   4   5   6  199.84   43.65
  -4  -5  -6  124.04   48.76
   4   5   7  247.97   45.81
  -4  -5  -7  115.61   47.36
   4   5   8  535.13   76.63
   4   5   9 1167.92  108.16
   4   6  -6   20.98   20.85
  -4  -6   6   -3.45   17.90
   4   6  -5    9.36   23.87
  -4  -6   5    6.89   25.71
   4   6  -4  827.60  138.14
  -4  -6   4  839.23  172.69
   4   6  -3  765.92  149.56
   4   6  -3  746.53  135.58
   4   6  -2  138.43   70.17
   4   6  -2  183.92   61.83
   4   6  -1 1142.84  179.18
   4   6  -1 1133.67  243.57
   4   6   0    5.35   25.18
   4   6   0    9.03   24.13
   4   6   1   36.70   33.18
   4   6   1   52.06   34.52
   4   6   2  352.91   71.22
   4   6   2  434.70   78.68
   4   6   3  865.19   89.93
   4   6   3 1035.20  193.13
   4   6   4 1459.07  136.81
   4   6   4 1319.54  173.85
   4   6   5 2549.21  203.97
   4   6   5 1399.45  193.41
   4   6   6   28.95   18.70
  -4  -6  -6    2.04   19.62
   4   6   7  -11.58   28.34
   4   6   8   13.80   16.37
   4   7  -5  871.79  112.96
  -4  -7   5  675.67  117.85
   4   7  -4  -11.95   23.70
  -4  -7   4   -0.93   28.89
   4   7  -3  -10.63   29.21
   4   7  -3   -9.55   26.23
   4   7  -2  110.44   55.68
   4   7  -2   72.35   80.79
   4   7  -1  132.96   69.20
   4   7  -1  186.53   59.55
   4   7   0   41.03   37.66
   4   7   0   31.24   33.64
   4   7   1   35.66   28.55
   4   7   1    5.72   27.22
   4   7   2   62.36   34.98
   4   7   2   75.90   38.40
   4   7   3   -3.70   17.94
   4   7   4   -2.30   15.21
   4   7   5    9.64   14.90
   4   7   6  796.41   86.82
   4   7   7   35.29   18.58
   4   8  -4 1598.94  172.25
  -4  -8   4 1705.02  209.18
   4   8  -3  337.54   64.71
  -4  -8   3  132.48   87.93
   4   8  -2  173.63   60.95
   4   8  -2  126.47   50.44
   4   8  -1   51.45   43.97
   4   8  -1   59.38   36.13
   4   8   0  142.44   57.09
   4   8   1  273.13   49.97
   4   8   1    4.09   43.29
   4   8   2    1.11   22.25
   4   9  -2  295.91   50.44
  -4  -9   2  550.40   85.61
   4   9  -1  235.54   38.11
  -4  -9   1   43.18   59.81
   4   9   0  605.01   71.27
  -4  -9   0  -24.25   62.59
  -5   7   2  717.13   78.77
   5  -7  -1  211.07   34.36
  -5   7   1  287.53   46.08
   5  -7   0  181.91   41.81
  -5   7   0  286.58   45.54
   5  -7   1  -25.21   16.54
  -5   7  -1    8.98   26.21
  -5   7  -2   29.03   17.55
  -5   6   4    5.80   10.87
   5  -6  -3    2.95   15.06
  -5   6   3   12.83   15.33
   5  -6  -2   18.03   21.43
  -5   6   2   18.07   21.10
   5  -6  -1   34.67   28.96
  -5   6   1   55.49   29.68
   5  -6   0  160.10   56.29
  -5   6   0  255.61   53.77
   5  -6   1  380.83   66.16
  -5   6  -1  417.06   63.74
  -5   6  -1  208.63   45.48
   5  -6   2 2539.08  272.57
  -5   6  -2 2552.42  231.85
  -5   6  -2 1509.08  190.25
   5  -6   3   29.61   28.22
  -5   6  -3   -1.25   20.72
  -5   6  -3    2.07   19.67
   5  -6   4   92.91   39.58
  -5   6  -4  173.47   28.84
   5  -5  -5   95.66   22.98
  -5   5   5    5.19   12.54
   5  -5  -4  349.01   47.12
  -5   5   4   26.86   38.12
   5  -5  -3  578.98   86.77
  -5   5   3  413.55  120.09
   5  -5  -2  240.09   50.70
  -5   5   2  249.87   84.83
  -5   5   2  133.55   46.95
   5  -5  -1   10.37   20.84
   5  -5  -1   15.05   17.24
  -5   5   1  -19.97   34.37
   5  -5   0  -26.35   23.10
  -5   5   0    6.29   22.47
  -5   5   0   39.22   18.09
   5  -5   1  434.12   86.42
  -5   5  -1  500.11   86.10
  -5   5  -1  495.00   75.41
   5  -5   2   52.38   25.92
  -5   5  -2    0.09   23.55
  -5   5  -2   29.58   23.46
   5  -5   3  391.41   79.84
  -5   5  -3  215.01   57.58
  -5   5  -3  445.41   63.41
   5  -5   4  675.96  121.30
  -5   5  -4  904.72  103.75
   5  -5   5  412.85   88.07
  -5   5  -5  852.36   84.07
   5  -5   6   28.59   25.22
  -5   5  -6  210.42   29.76
   5  -4  -6   94.13   37.97
   5  -4  -5  127.75   38.33
  -5   4   5    9.62   37.74
   5  -4  -4   37.06   22.03
   5  -4  -4   20.96   29.67
  -5   4   4   12.54   23.79
   5  -4  -3  642.61  100.56
   5  -4  -3  832.12  116.05
  -5   4   3  637.26  108.70
   5  -4  -2  387.09   72.52
   5  -4  -2  407.01   77.58
  -5   4   2  313.66   78.72
   5  -4  -1 1318.07  164.48
   5  -4  -1 1230.68  158.42
  -5   4   1 1185.37  166.80
   5  -4   0  431.87   71.46
   5  -4   0    3.10   93.51
  -5   4   0  393.14   74.94
   5  -4   1 1022.80  137.96
  -5   4  -1  975.42  140.41
  -5   4  -2  196.91   88.60
  -5   4  -2  310.75   61.95
   5  -4   3   69.33   38.83
  -5   4  -3   47.30   29.64
  -5   4  -3  100.51   36.18
   5  -4   4  299.14   80.03
  -5   4  -4  504.99   77.62
   5  -4   5   53.76   29.99
  -5   4  -5   52.52   31.12
   5  -4   6   -1.91   19.74
  -5   4  -6   48.12   21.97
   5  -4   7  169.00   40.82
  -5   4  -7  849.74   64.07
   5  -3  -7   32.96   24.76
   5  -3  -6  359.62   66.70
   5  -3  -6  199.49   51.28
   5  -3  -5  390.94   71.67
   5  -3  -5  544.26   85.26
  -5   3   5  206.27   59.95
   5  -3  -4  245.57   55.05
   5  -3  -4  214.28   64.02
  -5   3   4  105.39   51.64
   5  -3  -3  690.66  107.39
   5  -3  -3  750.98  115.36
  -5   3   3  510.89  104.24
   5  -3  -2   -1.86   17.99
   5  -3  -2   23.07   28.13
  -5   3   2   -4.40   17.51
   5  -3  -1   72.06   34.70
   5  -3  -1   60.07   34.96
  -5   3   1   45.64   37.58
   5  -3   0  900.89  121.00
   5  -3   0  757.92  111.41
  -5   3   0  798.19  119.84
   5  -3   1  814.21  105.95
   5  -3   1  589.01   82.04
  -5   3  -1  624.75  101.43
   5  -3   2   10.99   15.15
   5  -3   2   -0.29   11.03
  -5   3  -2   -6.83   13.59
  -5   3  -3 1064.98  184.44
  -5   3  -3 1772.01  179.93
  -5   3  -4  668.63  103.07
  -5   3  -5  729.43  108.95
  -5   3  -6  129.28   44.25
  -5   3  -6    0.76   22.67
  -5   3  -7  263.49   47.20
  -5   3  -7  115.27   39.26
  -5   3  -8  170.90   29.77
  -5   3  -8   52.32   24.43
   5  -2  -7  924.22  119.18
   5  -2  -7 1101.46  124.09
   5  -2  -6  344.24   71.81
   5  -2  -6  335.12   77.13
   5  -2  -5   79.80   39.18
   5  -2  -5  104.20   41.46
  -5   2   5   30.45   30.65
   5  -2  -4  234.11   68.44
   5  -2  -4  266.92   66.70
  -5   2   4   99.95   85.86
   5  -2  -3 1348.61  170.04
   5  -2  -3 1195.83  169.96
  -5   2   3 1283.21  249.73
   5  -2  -2  105.15   46.45
   5  -2  -2  108.90   46.25
  -5   2   2  129.48   78.55
   5  -2  -1   75.47   38.91
   5  -2  -1   71.36   38.20
  -5   2   1  124.12   68.45
   5  -2   0  159.28   50.00
   5  -2   0  200.81   77.20
  -5   2   0  159.88   78.83
   5  -2   1   83.48   35.64
   5  -2   1   47.81   45.53
  -5   2  -1   64.60   32.38
   5  -2   2 1801.84  186.62
   5  -2   2 1508.27  153.20
  -5   2  -2 1526.67  166.23
   5  -2   3  176.99   30.02
  -5   2  -3   -2.27   32.91
  -5   2  -3   53.38   27.36
  -5   2  -4  512.07   75.65
  -5   2  -4  276.13  101.70
  -5   2  -5 1310.82  150.41
  -5   2  -5 1027.95  205.83
  -5   2  -6 1390.97  146.19
  -5   2  -6 1029.11  145.38
  -5   2  -7  111.58   30.80
  -5   2  -7    1.47   31.68
  -5   2  -8  571.47   66.79
  -5   2  -8  339.86   71.16
   5  -1  -8  806.11   88.25
   5  -1  -7   16.55   25.03
   5  -1  -7   24.81   21.48
   5  -1  -6  758.88  118.83
   5  -1  -6  645.69  108.52
   5  -1  -5   -4.20   22.97
   5  -1  -5   11.95   21.44
  -5   1   5    4.70   19.05
   5  -1  -4 3708.62  400.14
   5  -1  -4 3983.46  422.72
  -5   1   4 3381.61  402.40
   5  -1  -3   33.49   30.96
   5  -1  -3   20.96   29.87
  -5   1   3   32.87   30.90
   5  -1  -2  226.21   58.40
   5  -1  -2  225.64   57.14
  -5   1   2  178.37   61.66
   5  -1  -1  550.00   93.43
   5  -1  -1  563.70   90.30
  -5   1   1  612.62   99.00
   5  -1   0  129.16   43.16
   5  -1   0  119.49   42.60
  -5   1   0  106.65   43.90
   5  -1   1 1107.00  124.33
   5  -1   1 1027.59  166.08
  -5   1  -1 1126.40  137.68
   5  -1   2   29.85   22.74
   5  -1   2   45.74   24.57
  -5   1  -2   13.45   26.67
  -5   1  -2   25.12   15.14
  -5   1  -2   50.10   32.12
   5  -1   3  689.79   87.02
   5  -1   3  682.96   79.99
  -5   1  -3  579.82   69.95
  -5   1  -3  377.61   65.47
   5  -1   4  676.95   83.97
  -5   1  -4  758.63   92.19
  -5   1  -4  695.32   96.80
   5  -1   5  949.89  110.57
  -5   1  -5 1226.30  137.28
  -5   1  -5 1397.13  162.22
  -5   1  -6   11.52   19.53
  -5   1  -6    4.28   23.28
  -5   1  -7  106.09   35.91
  -5   1  -7   89.52   42.12
  -5   1  -8 1321.26  129.30
  -5   1  -8 1313.19  165.66
  -5   1  -9  -11.12   16.61
   5   0  -8  891.35  104.78
   5   0  -7   46.49   29.23
   5   0  -7   18.02   20.80
   5   0  -6  871.59  157.31
   5   0  -6  640.17   87.77
  -5   0   6  272.42   76.29
   5   0  -5  324.45  113.06
   5   0  -5  262.60   61.75
  -5   0   5  182.34   62.77
   5   0  -4 1938.30  306.84
   5   0  -4 1651.84  198.38
  -5   0   4 1630.75  210.97
   5   0  -3  132.94   47.53
   5   0  -3  121.45   45.50
  -5   0   3  139.17   48.22
   5   0  -2 7471.20  750.33
   5   0  -2 7138.28  730.09
  -5   0   2 6936.03  744.30
   5   0  -1  642.16   91.46
   5   0  -1  602.89   91.09
  -5   0   1  585.19   91.12
   5   0   0    8.17   20.43
   5   0   0   29.11   21.76
  -5   0   0    4.21   19.87
   5   0   1 1622.51  151.13
   5   0   1 2063.97  237.83
   5   0   1 1990.51  180.28
  -5   0  -1 1676.61  140.44
  -5   0  -1 2120.55  199.34
   5   0   2  211.52   40.78
   5   0   2  282.11   48.49
   5   0   2  286.66   51.38
  -5   0  -2  173.08   61.41
  -5   0  -2  194.43   45.07
   5   0   3   85.08   30.31
   5   0   3  139.73   36.18
   5   0   3   71.35   33.09
   5   0   4 4596.51  427.56
  -5   0  -4 4378.01  400.48
  -5   0  -4 4684.30  447.56
   5   0   5    4.43   14.38
  -5   0  -5    6.51   17.53
  -5   0  -5   -1.12   14.33
   5   0   6    8.90   20.78
  -5   0  -6   30.61   31.08
  -5   0  -6   44.16   22.96
   5   0   7  400.79   64.57
  -5   0  -7  647.30  104.78
  -5   0  -7  518.98   72.16
  -5   0  -8  378.45   55.42
  -5   0  -8  477.95   81.64
  -5   0  -9  449.73   70.34
   5   1  -8 2061.41  203.58
   5   1  -7   20.85   44.72
   5   1  -6  696.00   93.01
  -5  -1   6  258.15   73.86
   5   1  -5  277.97   62.59
   5   1  -5  223.71   52.04
  -5  -1   5  121.46   56.33
   5   1  -4   24.30   28.30
   5   1  -4   13.97   24.48
  -5  -1   4   30.77   27.07
   5   1  -3   94.52   61.10
   5   1  -3   69.59   36.45
  -5  -1   3  140.06   72.31
   5   1  -2  551.85   85.26
   5   1  -2  603.54   87.10
  -5  -1   2  622.87  105.91
   5   1  -1   41.86   25.55
   5   1  -1   40.69   27.28
   5   1  -1   31.06   18.28
  -5  -1   1   45.20   31.44
  -5  -1   1   34.05   17.11
   5   1   0    4.79   20.05
   5   1   0   17.92   31.34
   5   1   0   14.16   17.55
  -5  -1   0   31.55   15.24
  -5  -1   0   15.35   37.08
   5   1   1  501.52  100.30
   5   1   1  575.80  100.95
   5   1   1  587.26   75.09
  -5  -1  -1  503.58   62.55
  -5  -1  -1  429.60   70.06
   5   1   2   56.30   26.90
   5   1   2   58.90   24.92
   5   1   2   60.26   29.45
  -5  -1  -2   62.25   23.67
   5   1   3   59.03   24.71
   5   1   3   22.04   20.81
   5   1   3   45.94   26.07
   5   1   4  879.07  110.60
   5   1   4  885.89   99.69
  -5  -1  -4  687.63   80.40
   5   1   5  109.16   33.62
  -5  -1  -5  112.48   38.11
  -5  -1  -5   43.71   26.15
   5   1   6 1383.27  155.26
  -5  -1  -6 1377.27  171.92
  -5  -1  -6  942.34  158.30
   5   1   7  348.83   65.65
  -5  -1  -7  507.70   92.99
   5   1   8   11.97   16.65
  -5  -1  -8   22.76   39.33
  -5  -1  -9   75.24   31.55
   5   2  -8   -4.27   14.64
   5   2  -7 2911.59  379.83
   5   2  -6   28.93   22.19
  -5  -2   6   -6.12   17.68
   5   2  -5 3988.21  404.64
  -5  -2   5 3156.20  490.16
   5   2  -4 1544.50  168.44
   5   2  -4 1110.21  147.44
  -5  -2   4 1548.69  214.27
   5   2  -3 2759.42  282.94
   5   2  -3 2754.37  313.68
   5   2  -3 3226.59  305.84
  -5  -2   3 3211.31  378.22
   5   2  -2  515.88  108.92
   5   2  -2  496.96  109.66
   5   2  -2  431.83   63.27
  -5  -2   2  521.77   98.07
   5   2  -1  727.20   84.86
   5   2  -1  642.54  120.84
   5   2  -1  678.15   82.67
  -5  -2   1  671.86  110.83
   5   2   0  239.71   44.71
   5   2   0  244.79   49.52
   5   2   0  314.08   52.64
  -5  -2   0  254.01   58.48
   5   2   1  543.09   76.96
   5   2   1  641.70   82.90
   5   2   1  554.97   95.75
  -5  -2  -1  558.46   84.71
   5   2   2  879.69  144.80
   5   2   2  681.61   72.64
   5   2   2  812.86   92.98
  -5  -2  -2  591.91  120.71
   5   2   3  436.72   64.71
   5   2   3  228.60   41.37
   5   2   3  437.70   88.44
   5   2   4  263.27   61.53
   5   2   4  246.54   56.46
   5   2   5   24.45   26.02
   5   2   5   12.99   23.44
   5   2   6 3045.73  400.70
  -5  -2  -6 3371.85  375.83
   5   2   7   19.01   19.73
  -5  -2  -7   -1.05   26.23
   5   2   8   37.77   26.65
  -5  -2  -8   89.99   37.70
   5   2   9  309.31   69.78
  -5  -2  -9  419.09   65.47
   5   3  -7  525.61  118.14
   5   3  -6    9.29   17.44
  -5  -3   6   -2.44   15.98
   5   3  -5  625.50   91.41
   5   3  -5  443.09   77.76
  -5  -3   5  518.49  116.15
   5   3  -4  485.59   83.01
   5   3  -4  465.50   78.38
  -5  -3   4  508.96  114.44
   5   3  -3 1840.45  198.52
   5   3  -3 1982.57  203.01
  -5  -3   3 2025.10  267.26
   5   3  -2   81.06   42.91
   5   3  -2   53.36   48.73
   5   3  -2   52.84   24.51
  -5  -3   2   92.43   45.35
   5   3  -1 4003.33  363.41
   5   3  -1 3630.29  344.57
   5   3  -1 4457.42  409.07
  -5  -3   1 4468.78  481.53
   5   3   0   54.28   19.44
   5   3   0   30.19   23.96
   5   3   0   64.19   30.62
  -5  -3   0   25.07   33.04
   5   3   1  117.00   41.72
   5   3   1  243.60   52.23
  -5  -3  -1  212.31   48.69
   5   3   2   21.79   22.03
   5   3   2   33.19   27.41
  -5  -3  -2   -3.35   17.08
   5   3   3   19.16   30.30
   5   3   3   52.18   25.30
   5   3   4  721.96  109.35
   5   3   4  603.81   94.12
   5   3   5 1062.77  147.85
   5   3   5  911.41  126.13
   5   3   6   92.91   54.72
  -5  -3  -6   56.11   41.60
   5   3   7  133.28   43.38
  -5  -3  -7  169.30   52.44
   5   3   8  214.74   44.37
  -5  -3  -8  174.04   56.17
   5   3   9   66.76   28.25
  -5  -3  -9  154.74   32.60
   5   4  -7  659.27  109.47
   5   4  -6   97.51   45.98
   5   4  -6   54.10   42.41
  -5  -4   6   14.45   54.64
   5   4  -5  277.05   58.99
   5   4  -5  337.13   63.55
  -5  -4   5  305.80   83.95
   5   4  -4  241.08   56.92
   5   4  -4  312.60   66.34
  -5  -4   4  339.76   88.96
   5   4  -3 1667.37  255.03
   5   4  -3 2374.72  242.01
  -5  -4   3 2213.00  304.68
   5   4  -2 4205.05  534.75
  -5  -4   2 3983.30  496.23
   5   4  -1  287.21   81.46
  -5  -4   1  886.70  129.11
   5   4   0 1948.68  262.92
   5   4   0 3198.28  308.78
  -5  -4   0 3075.68  333.53
   5   4   1   60.60   32.96
   5   4   1   24.15   21.14
  -5  -4  -1   53.96   30.66
   5   4   2 2737.85  262.79
   5   4   2 2002.53  196.80
  -5  -4  -2 1928.42  225.68
   5   4   3  631.17  141.80
   5   4   3  445.07   72.74
   5   4   4  167.55   63.81
   5   4   4  242.97   53.76
   5   4   5   19.04   27.00
   5   4   5    9.78   36.98
   5   4   6  156.24   50.09
  -5  -4  -6  227.40   59.23
   5   4   7  723.97   93.32
  -5  -4  -7  663.70  114.23
   5   4   8    5.47   17.34
  -5  -4  -8   22.72   20.26
   5   4   9   -9.89   13.10
   5   5  -6 1289.21  145.03
   5   5  -6 2403.20  228.76
  -5  -5   6 1398.26  250.84
   5   5  -5   66.64   46.89
  -5  -5   5   20.93   36.88
   5   5  -4 2278.40  258.86
   5   5  -3  260.39  110.99
   5   5  -2 6259.20  834.81
   5   5  -1    3.85   22.23
   5   5   0  297.54   77.46
   5   5   1  363.82   66.03
   5   5   1  122.68   37.04
  -5  -5  -1  306.11   74.23
   5   5   2  787.67  111.23
   5   5   2  484.78   72.47
   5   5   3  913.81  183.39
   5   5   3  703.53   93.98
   5   5   4  343.68  100.50
   5   5   4  455.97   91.76
   5   5   5  192.47   47.61
   5   5   5  169.65   59.40
   5   5   6   43.09   25.46
  -5  -5  -6   26.58   30.10
   5   5   7  623.27   76.34
  -5  -5  -7  450.62   88.23
   5   5   8    8.19   24.13
   5   6  -6   79.35   25.64
   5   6  -5  584.28  118.94
  -5  -6   5  349.58   84.87
   5   6  -4  472.80  132.19
  -5  -6   4  437.80  103.24
   5   6  -3  332.26  119.08
  -5  -6   3  312.10  100.42
   5   6  -2  564.08  113.06
  -5  -6   2  602.28  143.11
   5   6  -1   17.34   26.97
  -5  -6   1   -4.62   32.87
   5   6   0 1384.71  193.06
  -5  -6   0 1350.44  218.96
   5   6   1   36.66   38.34
  -5  -6  -1   57.27   39.64
   5   6   2  265.63   72.28
   5   6   3   37.90   21.66
   5   6   3   64.37   35.53
   5   6   4  388.38   60.35
   5   6   4  531.40   92.95
   5   6   5 2053.64  182.54
   5   6   5 1586.94  219.98
   5   6   6  214.38   40.66
  -5  -6  -6  150.89   48.26
   5   6   7  137.18   52.98
  -5  -7   5    1.45   13.98
   5   7  -4   30.08   20.07
  -5  -7   4  -26.43   24.66
   5   7  -3 1199.89  155.76
  -5  -7   3 1088.59  187.86
   5   7  -2  819.31  127.76
  -5  -7   2  748.54  158.43
   5   7  -1 1990.41  247.92
  -5  -7   1 2022.48  295.25
   5   7   0  298.37   82.82
  -5  -7   0  400.84   98.81
   5   7   1 3031.29  329.41
  -5  -7  -1 2646.69  353.03
   5   7   2  100.09   71.09
   5   7   3  450.90   90.24
   5   7   4    0.56   15.09
   5   7   5   62.81   28.78
  -5  -7  -5   17.07   22.66
   5   7   6  135.72   28.32
   5   8  -3  352.08   63.25
  -5  -8   3  353.50   78.34
   5   8  -2  564.97   86.96
  -5  -8   2  522.27  110.12
   5   8  -1  280.48   70.65
  -5  -8   1  412.55   88.09
   5   8   0  708.25   99.58
  -5  -8   0  571.97  118.41
   5   8   1  249.08   73.11
  -5  -8  -1  105.66   50.53
   5   8   2  232.86   54.36
   5   8   3  121.08   38.09
   5   8   4   55.24   21.05
  -6   6   1    5.71   13.80
  -6   6   0    2.90   12.79
  -6   6  -1  259.09   45.11
  -6   5   3   15.53   17.07
  -6   5   2  495.79   60.88
  -6   5   2  200.56   41.16
  -6   5   1  100.29   34.51
  -6   5   1   72.50   25.90
  -6   5   0  304.74   58.80
  -6   5   0  247.98   47.65
  -6   5  -1   79.25   36.02
  -6   5  -1  105.92   31.56
  -6   5  -2   -5.40   15.55
  -6   5  -2  -10.46   15.86
  -6   5  -3   48.99   24.52
  -6   5  -4    8.54   21.85
   6  -4  -5 1132.93  123.24
   6  -4  -4  762.29   94.39
  -6   4   4  425.82  103.32
   6  -4  -3   66.27   31.68
   6  -4  -3   99.14   37.34
  -6   4   3   91.74   35.54
   6  -4  -2  491.35   80.01
   6  -4  -2  534.63  129.97
  -6   4   2  535.98   91.63
   6  -4  -1  111.33   43.23
   6  -4  -1  104.77   56.91
  -6   4   1  142.86   47.47
   6  -4   0   41.11   22.19
   6  -4   0   41.08   27.62
  -6   4   0   11.90   29.99
  -6   4  -1   34.94   43.62
  -6   4  -1   35.89   27.50
  -6   4  -2  130.84   43.17
  -6   4  -3    1.89   13.96
  -6   4  -3   16.61   19.16
  -6   4  -4    6.05   17.54
  -6   4  -5  799.79  140.90
  -6   4  -6  416.07   55.37
   6  -3  -6  390.19   59.26
   6  -3  -5  420.62   58.75
   6  -3  -5  505.04   70.22
  -6   3   5  192.93   48.64
   6  -3  -4  135.01   38.70
   6  -3  -4  136.02   46.47
  -6   3   4   64.56   38.31
   6  -3  -3   14.31   27.05
   6  -3  -3   32.14   29.32
  -6   3   3   33.29   28.07
   6  -3  -2  707.57  114.86
   6  -3  -2  666.60  109.67
  -6   3   2  586.79  113.10
   6  -3  -1   53.54   32.05
   6  -3  -1   28.14   51.59
  -6   3   1   23.19   32.54
   6  -3   0   29.79   25.66
   6  -3   0   14.21   21.58
  -6   3   0    6.23   26.58
   6  -3   1 1273.17  157.30
   6  -3   1  946.96  124.89
  -6   3  -1 1119.15  153.12
   6  -3   2   26.21   17.11
  -6   3  -2    9.28   21.18
  -6   3  -2  -12.72   18.80
  -6   3  -3  384.85   77.03
  -6   3  -3 1066.61  107.56
  -6   3  -4   11.67   21.60
  -6   3  -5  540.03   82.26
  -6   3  -6    5.29   25.41
  -6   3  -7   13.79   15.26
   6  -2  -6  492.67  108.02
   6  -2  -6  533.12   77.00
   6  -2  -5  395.97   64.96
   6  -2  -5  399.51   68.15
  -6   2   5  145.09   53.42
   6  -2  -4  372.52   74.85
   6  -2  -4  320.28   76.06
  -6   2   4  244.25   67.20
   6  -2  -3 8590.96  957.45
   6  -2  -3 8287.88  933.78
  -6   2   3 7304.18  886.60
   6  -2  -2   50.01   55.75
   6  -2  -2   19.88   34.04
  -6   2   2   41.49   32.92
   6  -2  -1 2173.65  263.96
   6  -2  -1 2107.12  246.90
  -6   2   1 2023.59  262.61
   6  -2   0 1136.41  152.67
   6  -2   0 1040.88  197.70
  -6   2   0  978.92  150.83
   6  -2   1 1225.57  163.48
   6  -2   1 1171.24  149.01
  -6   2  -1 1068.51  158.24
   6  -2   2  664.32   98.22
   6  -2   2  535.31   84.66
  -6   2  -2  393.46   83.04
   6  -2   3   -4.87   19.34
  -6   2  -3    2.48   14.10
  -6   2  -4  190.37   51.38
  -6   2  -5   24.32   24.49
  -6   2  -6   52.74   36.50
  -6   2  -6   16.93   19.42
  -6   2  -7   58.45   22.03
  -6   2  -7   18.51   19.04
   6  -1  -6   78.21   27.16
   6  -1  -6   47.23   24.04
  -6   1   6    3.44   16.54
   6  -1  -5  264.12   60.27
   6  -1  -5  254.88   55.25
  -6   1   5  102.07   46.92
   6  -1  -4  828.83  133.70
   6  -1  -4  781.50  123.65
  -6   1   4  688.40  189.17
   6  -1  -3 1252.74  170.10
   6  -1  -3 1117.51  165.24
  -6   1   3 1167.17  185.36
   6  -1  -2   -4.68   20.07
   6  -1  -2    1.27   20.93
  -6   1   2   10.64   22.05
   6  -1  -1  959.45  147.75
   6  -1  -1  994.49  145.98
  -6   1   1  920.92  157.28
   6  -1   0 1091.30  148.16
   6  -1   0 1019.30  200.15
  -6   1   0 1096.87  169.97
   6  -1   1  388.71   77.37
   6  -1   1  350.07   74.44
  -6   1  -1  371.12  109.98
   6  -1   2  525.46   87.91
   6  -1   2  549.81   84.60
  -6   1  -2  365.25   76.56
   6  -1   3  336.88   72.41
   6  -1   3  376.45   68.87
   6  -1   4    4.29   15.07
  -6   1  -4  -14.52   16.89
  -6   1  -4   -2.75   15.69
   6  -1   5  226.25   50.35
  -6   1  -5  403.00   60.57
  -6   1  -5  244.50   63.81
  -6   1  -6    0.17   12.47
  -6   1  -6   -0.57   21.11
  -6   1  -7   92.80   31.42
  -6   1  -7   99.34   34.65
  -6   1  -8  111.41   31.46
   6   0  -7   38.03   24.27
   6   0  -6  965.45  119.27
   6   0  -6  681.36   95.34
   6   0  -5  601.03   96.24
   6   0  -5  506.91   84.69
  -6   0   5  291.82   85.73
   6   0  -4 1961.41  229.27
   6   0  -4 1881.73  219.08
  -6   0   4 1475.64  230.03
   6   0  -3  106.09   50.47
   6   0  -3   94.55   47.62
  -6   0   3   99.16   49.10
   6   0  -2   68.33   42.22
   6   0  -2   70.24   42.97
  -6   0   2   64.23   43.52
   6   0  -1 1197.17  166.54
   6   0  -1 1387.75  248.65
  -6   0   1 1147.43  175.05
   6   0   0  625.65  143.64
   6   0   0  541.16   92.44
  -6   0   0  479.95   97.71
   6   0   1    7.05   25.03
   6   0   1   16.97   23.63
  -6   0  -1   25.90   24.77
   6   0   2 1589.35  179.63
   6   0   2 1658.98  189.38
  -6   0  -2 1328.39  236.95
   6   0   3   68.87   44.79
   6   0   3  196.53   49.00
  -6   0  -3  162.16   37.28
   6   0   4 6573.37  653.17
  -6   0  -4 5915.75  582.14
  -6   0  -4 5777.41  604.94
   6   0   5  483.45   77.10
  -6   0  -5  489.22   73.23
  -6   0  -5  436.97   86.41
   6   0   6  713.02  127.13
  -6   0  -6  686.88  130.94
  -6   0  -6  813.10  126.18
   6   0   7   36.86   21.92
  -6   0  -7   74.97   23.54
  -6   0  -7   77.10   55.09
  -6   0  -8    6.59   15.93
   6   1  -7   33.19   23.89
   6   1  -6    9.96   17.78
  -6  -1   6   -2.37   13.37
   6   1  -5  151.71   46.11
   6   1  -5   77.73   56.17
  -6  -1   5   61.03   41.63
   6   1  -4 1177.83  162.02
   6   1  -4 1389.28  176.08
  -6  -1   4 1237.98  179.91
   6   1  -3   99.14   43.49
   6   1  -3   56.38   40.34
  -6  -1   3   91.42   45.01
   6   1  -2 3645.14  387.52
   6   1  -2 3725.04  504.56
  -6  -1   2 3330.64  392.58
   6   1  -1  423.03   76.44
   6   1  -1  260.74  110.50
  -6  -1   1  320.69   79.55
   6   1   0 2791.41  305.17
   6   1   0 2906.33  298.19
  -6  -1   0 2713.80  309.50
   6   1   1  843.30  122.31
   6   1   1 1291.61  138.22
   6   1   1 1331.65  152.60
  -6  -1  -1 1126.27  148.79
   6   1   2  315.67   56.04
   6   1   2  275.39   56.69
   6   1   2  311.62   66.54
  -6  -1  -2  216.05   56.43
   6   1   3   12.09   14.31
   6   1   3   -8.47   13.58
   6   1   3  -19.33   26.41
   6   1   4   62.74   33.30
  -6  -1  -4   53.58   25.38
  -6  -1  -4   67.82   32.93
   6   1   5   70.94   31.79
  -6  -1  -5   37.37   24.74
  -6  -1  -5   72.64   35.12
   6   1   6   67.87   33.13
  -6  -1  -6   93.94   42.16
   6   1   7  131.52   36.71
  -6  -1  -7  176.21   54.31
  -6  -1  -8  104.60   61.48
   6   2  -7   33.93   21.89
   6   2  -6  331.02   46.47
  -6  -2   6   19.41   37.46
   6   2  -5  145.55   46.86
  -6  -2   5   86.14   42.71
   6   2  -4  505.30   72.93
   6   2  -4  116.06   52.86
  -6  -2   4  425.41   76.63
   6   2  -3  346.62   59.02
   6   2  -3   76.40   47.18
  -6  -2   3  208.49   98.93
   6   2  -2   21.29   19.73
   6   2  -2   -2.72   18.04
  -6  -2   2  -16.91   39.64
   6   2  -1 1100.11  137.79
   6   2  -1 1043.42  138.20
   6   2  -1 1048.55  136.05
  -6  -2   1 1107.93  243.66
   6   2   0 1152.35  147.78
   6   2   0 1197.32  139.51
   6   2   0 1172.44  145.83
  -6  -2   0 1135.57  215.25
   6   2   1 2261.30  309.63
   6   2   1 2056.59  206.92
   6   2   1 2383.19  244.97
  -6  -2  -1 1987.29  231.86
   6   2   2  568.95   84.72
   6   2   2  409.44   66.07
   6   2   2  607.94   86.74
  -6  -2  -2  364.14   70.98
   6   2   3 1605.18  190.84
   6   2   3 1623.60  181.05
   6   2   4  329.93   76.83
   6   2   4  359.85   72.85
   6   2   5  474.05   82.22
  -6  -2  -5  411.26   88.90
   6   2   6   65.74   42.71
  -6  -2  -6   13.88   32.26
   6   2   7   32.11   20.67
  -6  -2  -7   -3.36   27.90
   6   2   8  149.82   32.53
  -6  -2  -8  147.18   72.54
   6   3  -6   -1.13   14.34
  -6  -3   6    5.43   12.36
   6   3  -5  485.84   80.94
  -6  -3   5  439.88   82.95
   6   3  -4  241.66   58.94
   6   3  -3 1096.95  134.99
   6   3  -3 1214.91  146.15
   6   3  -2   -0.59   15.89
   6   3  -2   -3.10   14.59
   6   3  -2   13.79   16.76
   6   3  -1   10.94   18.42
   6   3  -1   -3.54   19.07
   6   3  -1   29.39   22.81
   6   3   0  376.24   75.13
   6   3   0  500.70   86.54
   6   3   1  581.39   89.29
   6   3   1  704.01  103.45
  -6  -3  -1  372.85   98.86
   6   3   2   16.51   25.12
   6   3   2    6.95   33.45
  -6  -3  -2   14.49   29.36
   6   3   3 2929.73  323.71
   6   3   3 2716.94  283.30
   6   3   4  450.54   92.13
   6   3   4  424.87   82.89
   6   3   5 1961.81  244.00
   6   3   5 1882.44  218.87
   6   3   6   38.38   41.22
  -6  -3  -6   25.61   31.25
   6   3   7  756.21   97.34
  -6  -3  -7  832.56  126.39
   6   3   8   33.70   20.34
  -6  -3  -8   51.23   28.03
   6   4  -6   47.88   16.34
  -6  -4   6    6.76   16.98
   6   4  -5  429.03   65.61
  -6  -4   5  450.07  119.98
   6   4  -4    5.26   16.17
   6   4  -4    5.54   17.12
  -6  -4   4    9.41   25.91
   6   4  -3  155.96   48.52
  -6  -4   3  146.63   67.40
   6   4  -2  120.79   42.20
  -6  -4   2   23.20   54.94
   6   4  -1 4368.26  467.94
  -6  -4   1 3799.47  498.10
   6   4   0   -2.79   31.27
   6   4   0   50.00   31.21
  -6  -4   0   30.70   33.63
   6   4   1  126.87   44.48
   6   4   1  358.79   65.22
  -6  -4  -1  174.12   58.69
   6   4   2  472.65  135.75
   6   4   2  370.29   67.41
   6   4   3   30.48   35.18
   6   4   3   43.07   28.78
   6   4   4 1222.03  130.30
   6   4   4  286.29   86.79
   6   4   5   97.67   42.42
   6   4   5   38.61   58.19
   6   4   6  504.97   79.41
  -6  -4  -6  523.97   97.61
   6   4   7  334.11   56.76
  -6  -4  -7  352.18   72.75
   6   4   8  263.53   39.65
  -6  -4  -8  208.15   50.50
  -6  -5   5   -2.26   24.17
   6   5  -4   11.66   20.06
  -6  -5   4   11.25   27.04
   6   5  -3  312.44   66.31
  -6  -5   3  226.27   85.35
   6   5  -2  958.68  140.69
  -6  -5   2  792.19  162.72
   6   5  -1  284.52   76.48
  -6  -5   1  244.30   88.06
   6   5   0  799.99  126.59
  -6  -5   0  612.60  129.59
   6   5   1  116.70   44.14
   6   5   1  415.42   74.85
  -6  -5  -1  324.80   67.96
   6   5   2 1504.33  250.19
   6   5   2  987.98  124.03
   6   5   3  531.39  103.46
   6   5   3  412.71   72.23
   6   5   4  837.95  157.59
   6   5   4 1032.38  151.00
   6   5   5   64.71   31.39
   6   5   5   89.18   40.68
   6   5   6  403.17   63.72
  -6  -5  -6  488.65   82.86
   6   5   7   39.02   21.79
  -6  -5  -7   56.50   26.57
   6   6  -4   89.65   31.14
  -6  -6   4   22.90   40.62
   6   6  -3  742.64  104.84
  -6  -6   3  502.00  122.14
   6   6  -2  -38.34   28.92
  -6  -6   2   11.42   32.81
   6   6  -1  153.52   50.79
  -6  -6   1   49.21   56.96
   6   6   0  272.80   73.26
  -6  -6   0  251.73   75.43
   6   6   1   30.58   26.49
  -6  -6  -1   -3.29   24.46
   6   6   2   11.14   40.57
   6   6   3   -8.51   15.90
   6   6   3   78.62   26.80
   6   6   4  303.69   50.40
   6   6   4  450.96   83.21
   6   6   5    7.09   13.20
   6   6   5    2.35   18.23
   6   6   6 1626.40  138.25
  -6  -6  -6 1525.87  179.38
   6   7  -3    9.37   13.34
  -6  -7   3  -12.81   15.93
   6   7  -2   12.11   23.05
  -6  -7   2   17.30   27.15
   6   7  -1   57.83   33.28
  -6  -7   1   23.31   37.75
   6   7   0  353.06   72.36
  -6  -7   0  262.69   73.24
   6   7   1   13.58   30.58
  -6  -7  -1   -0.28   16.60
   6   7   2    5.91   20.63
   6   7   3   20.65   24.86
   6   7   4   17.83   21.44
  -6  -7  -5   67.42   26.16
   6   8  -1   24.46   19.62
  -6  -8   1   10.07   20.89
   6   8   0   22.46   35.58
   6   8   1   43.88   25.93
   6   8   2  186.48   45.11
   6   8   3   34.55   20.74
  -7   4   2   68.18   30.60
  -7   4   2    9.88   13.81
  -7   4   1   52.91   36.98
  -7   4   1   26.70   19.40
  -7   4   0    3.05   17.64
  -7   4   0   19.37   16.25
  -7   4  -1  634.55   90.82
  -7   4  -1  988.16  100.41
  -7   4  -2  496.75   70.09
  -7   4  -3  487.40   66.66
  -7   4  -4   29.20   28.60
   7  -3  -4   98.20   27.71
  -7   3   4   30.51   36.87
   7  -3  -3   18.75   16.88
   7  -3  -3   -7.21   16.87
  -7   3   3   17.90   17.43
   7  -3  -2   62.00   28.38
   7  -3  -2   33.16   27.29
  -7   3   2   44.96   29.66
   7  -3  -1    7.08   20.19
   7  -3  -1    4.72   18.26
  -7   3   1   17.44   20.63
   7  -3   0   28.99   26.49
   7  -3   0   25.31   23.26
  -7   3   0   33.22   26.22
   7  -3   1   30.29   20.93
  -7   3  -1  -10.72   23.96
  -7   3  -1   51.77   23.68
  -7   3  -2   24.65   26.78
  -7   3  -2  166.02   36.37
  -7   3  -3  352.52   65.16
  -7   3  -4  391.08   63.00
  -7   3  -5   -0.53   17.25
   7  -2  -4    8.48   15.24
   7  -2  -4   -8.20   23.58
  -7   2   4  -12.44   14.30
   7  -2  -3   57.80   29.96
   7  -2  -3   54.43   45.59
  -7   2   3   26.75   30.86
   7  -2  -2  339.62   69.74
   7  -2  -2  291.67   66.78
  -7   2   2  284.33   70.71
   7  -2  -1  456.11   88.21
   7  -2  -1  423.26   81.67
  -7   2   1  398.56   86.12
   7  -2   0  417.29   81.99
   7  -2   0  518.45   88.38
  -7   2   0  380.58   82.83
   7  -2   1  -11.96   18.93
   7  -2   1   -1.28   16.43
  -7   2  -1    3.74   16.59
   7  -2   2   10.58   17.73
  -7   2  -2   22.82   18.71
  -7   2  -2   -5.90   16.39
   7  -2   3  375.29   70.36
  -7   2  -3  748.92   86.05
  -7   2  -4   11.81   19.18
  -7   2  -5  390.57   62.52
  -7   2  -6  501.02   60.53
   7  -1  -5   26.47   28.14
   7  -1  -5   16.96   15.54
  -7   1   5    3.17   14.37
   7  -1  -4    2.74   30.35
   7  -1  -4   12.87   25.59
  -7   1   4  -13.68   16.56
   7  -1  -3  238.71   95.00
   7  -1  -3  250.28   91.46
  -7   1   3  238.36   62.80
   7  -1  -2  320.82   78.88
   7  -1  -2  468.53   82.93
  -7   1   2  307.20  124.89
   7  -1  -1  322.24   72.31
   7  -1  -1  313.69   69.32
  -7   1   1  211.94   72.58
   7  -1   0   66.09   38.02
   7  -1   0   53.59   39.09
  -7   1   0   62.45   37.47
   7  -1   1   15.95   31.61
   7  -1   1   76.36   32.05
  -7   1  -1   25.94   29.00
   7  -1   2 1377.84  148.11
   7  -1   2 1233.38  145.51
  -7   1  -2  585.05  120.53
   7  -1   3   -5.20   23.45
  -7   1  -3    4.92   14.84
   7  -1   4   17.33   15.35
  -7   1  -4   -7.94   16.61
   7  -1   5   88.95   34.64
  -7   1  -5  289.12   42.53
  -7   1  -6    1.67   19.49
  -7   1  -6   -5.38    9.57
   7   0  -5  133.05   32.50
   7   0  -5   27.49   24.43
  -7   0   5   50.01   24.97
   7   0  -4   16.67   21.68
   7   0  -4    0.62   17.04
  -7   0   4   14.62   34.10
   7   0  -3 1184.81  157.81
   7   0  -3 1092.88  144.68
  -7   0   3 1116.04  174.00
   7   0  -2  -14.12   39.25
   7   0  -2  -12.05   21.96
  -7   0   2   50.94   26.38
   7   0  -1  512.62  142.06
   7   0  -1  479.33   95.07
  -7   0   1  483.33  105.98
   7   0   0 1075.47  149.87
   7   0   0 1034.22  156.54
  -7   0   0 1110.97  170.05
   7   0   1   48.54   32.32
   7   0   1   56.02   34.92
  -7   0  -1   10.26   54.75
   7   0   2  649.34   87.93
  -7   0  -2  264.97   70.20
   7   0   3   23.42   41.99
  -7   0  -3   33.41   23.14
   7   0   4  -20.71   19.74
  -7   0  -4   -3.25   17.49
   7   0   5 1116.10  118.36
  -7   0  -5 1098.86  110.19
  -7   0  -5  700.24  117.09
   7   0   6   52.19   33.08
  -7   0  -6   62.28   43.46
  -7   0  -7    6.36   12.70
   7   1  -5  735.07   91.61
  -7  -1   5  413.29  122.38
   7   1  -4    9.36   18.21
   7   1  -4    0.46   13.80
  -7  -1   4   -1.14   18.97
   7   1  -3  116.34   45.95
   7   1  -3   86.35   39.20
  -7  -1   3   85.84   49.08
   7   1  -2    1.72   20.30
   7   1  -2  -19.61   18.66
  -7  -1   2   11.84   21.98
   7   1  -1   83.41   41.63
  -7  -1   1   79.31   45.51
   7   1   0  339.45   70.61
   7   1   0  355.05   77.80
  -7  -1   0  304.46   80.27
   7   1   1  377.23   70.16
   7   1   1  338.91   77.41
  -7  -1  -1  239.37   73.36
   7   1   2    6.85   18.87
   7   1   2   14.05   23.57
  -7  -1  -2   10.27   31.49
   7   1   3   40.77   23.00
  -7  -1  -3    6.03   16.80
  -7  -1  -3    2.00   18.43
   7   1   4  192.42   39.09
  -7  -1  -4   89.28   28.68
  -7  -1  -4    3.10   34.60
   7   1   5   -2.91   14.14
  -7  -1  -5    4.09   14.01
   7   1   6  281.58   72.91
  -7  -1  -6  244.36   60.54
  -7  -1  -7  393.55   99.78
   7   2  -5  527.20   69.41
  -7  -2   5  317.87   67.03
   7   2  -4 1154.13  133.23
  -7  -2   4  842.30  138.49
   7   2  -3 1280.96  150.57
   7   2  -3  886.27  125.95
  -7  -2   3 1215.57  164.52
   7   2  -2    4.37   27.60
   7   2  -2   38.64   24.90
  -7  -2   2   26.29   29.86
   7   2  -1   31.86   53.32
   7   2  -1   57.74   35.29
  -7  -2   1   73.18   38.76
   7   2   0   49.41   30.06
   7   2   0   70.89   35.21
  -7  -2   0   45.12   36.48
   7   2   1   11.66   20.06
   7   2   1   34.85   20.05
   7   2   1   15.55   24.82
  -7  -2  -1   -4.55   23.56
   7   2   2  390.53   75.07
   7   2   2  705.37  131.00
   7   2   3  350.97   79.29
   7   2   3  639.73   87.48
   7   2   4  143.27   44.86
  -7  -2  -4   99.82   44.02
   7   2   5   27.56   21.49
  -7  -2  -5   -2.16   21.93
   7   2   6    9.00   23.99
  -7  -2  -6  -10.97   17.83
   7   2   7  244.01   41.46
  -7  -2  -7  242.40   55.92
   7   3  -5   22.14   16.41
  -7  -3   5   15.38   18.42
   7   3  -4  364.76   63.82
  -7  -3   4  402.23   74.52
   7   3  -3   -9.80   16.25
  -7  -3   3    4.15   20.18
   7   3  -2 1429.69  174.94
   7   3  -2 1165.90  149.38
  -7  -3   2 1920.57  207.05
   7   3  -1   -9.86   22.91
   7   3  -1    5.86   14.08
  -7  -3   1   -0.17   17.01
   7   3   0  278.07   66.78
   7   3   0  329.67   64.97
  -7  -3   0  297.48   69.99
   7   3   1  430.59   81.73
   7   3   1  534.19  113.10
  -7  -3  -1  333.49   75.12
   7   3   2   61.65   31.21
   7   3   2   36.59   31.07
   7   3   3   99.74   48.60
   7   3   3  171.81   47.55
   7   3   4   16.11   21.84
   7   3   4    3.21   21.94
   7   3   5   85.50   35.67
  -7  -3  -5   58.51   38.45
   7   3   6   83.68   32.66
  -7  -3  -6  111.78   40.20
   7   3   7   39.95   20.10
  -7  -3  -7   38.73   26.28
  -7  -4   4  455.42   75.99
  -7  -4   3   25.10   26.93
   7   4  -2   32.29   27.67
  -7  -4   2   43.80   51.57
   7   4  -1 1185.05  153.40
  -7  -4   1 1124.51  231.09
   7   4   0  364.11   94.62
   7   4   0  188.01   45.14
  -7  -4   0  215.04   95.44
   7   4   1 1654.82  186.02
   7   4   1 1348.67  144.73
  -7  -4  -1  924.47  146.87
   7   4   2   11.88   19.09
   7   4   2   -3.61   15.96
   7   4   3  155.62   58.73
   7   4   3  210.78   50.38
   7   4   4  122.43   56.85
   7   4   4  224.00   49.74
   7   4   5  230.89   81.04
  -7  -4  -5  259.99   63.22
   7   4   6   46.27   25.68
  -7  -4  -6   73.64   33.02
   7   4   7   11.81   13.93
  -7  -4  -7   19.37   18.96
  -7  -5   4  386.25   61.60
  -7  -5   3  617.21  143.98
   7   5  -2   86.74   37.68
  -7  -5   2   97.38   72.15
   7   5  -1 1414.00  171.28
  -7  -5   1 1151.22  255.73
   7   5   0  878.09  166.93
  -7  -5   0  451.17  160.32
   7   5   1   65.04   32.40
   7   5   1   22.81   20.10
  -7  -5  -1   37.82   38.16
   7   5   2   25.95   26.01
   7   5   2   10.54   18.01
   7   5   3  999.01  141.19
   7   5   3  762.02  148.52
   7   5   4  100.22   33.62
   7   5   4  121.11   44.74
   7   5   5  304.47   52.56
  -7  -5  -5  384.52   69.00
   7   5   6  190.53   33.09
  -7  -5  -6  158.52   45.20
  -7  -6   3  694.86  129.77
   7   6  -2   13.01   17.54
  -7  -6   2  -11.36   32.50
   7   6  -1 1486.23  225.95
  -7  -6   1 1085.91  221.88
   7   6   0    3.80   28.93
  -7  -6   0    4.58   27.12
   7   6   1  179.20   54.54
   7   6   2  114.65   46.13
   7   6   3   28.41   14.57
   7   6   3   43.26   28.48
   7   6   4   16.99   10.34
   7   6   4  -25.24   18.01
   7   6   5   21.67   14.37
  -7  -6  -5   85.75   24.60
   7   7  -1   21.56   30.72
   7   7   0  583.39   83.81
   7   7   1   55.93   30.03
   7   7   2 1586.81  166.55
   7   7   3   29.27   22.23
   8  -2  -2 1189.69  119.68
   8  -2  -2 1315.71  124.17
  -8   2   2  962.77  121.51
   8  -2  -1  660.07   88.58
   8  -2  -1  790.41   89.51
  -8   2   1  557.27   86.64
   8  -2   0  274.61   54.86
   8  -2   0  336.31   52.03
  -8   2   0  218.38   50.03
   8  -2   1  441.90   96.91
  -8   2  -1  649.89   70.40
  -8   2  -1  308.01   89.29
  -8   2  -2  242.45   43.90
  -8   2  -3  282.68   46.20
   8  -1  -3  571.47   74.42
   8  -1  -3  635.12   73.16
  -8   1   3  451.92   73.70
   8  -1  -2  880.06  106.78
   8  -1  -2  937.58  109.69
  -8   1   2  744.76  108.16
   8  -1  -1   19.81   21.82
   8  -1  -1    8.88   21.77
  -8   1   1   23.45   22.06
   8  -1   0   30.20   25.24
   8  -1   0   49.47   26.17
  -8   1   0   19.54   24.84
   8  -1   1   24.88   16.67
   8  -1   1    3.77   16.20
  -8   1  -1   -9.39   14.21
   8  -1   2  335.73   57.24
  -8   1  -2  338.04   54.79
   8  -1   3   19.53   14.72
  -8   1  -3    0.46   15.49
  -8   1  -4   54.26   21.16
   8   0  -3    8.50   15.39
   8   0  -3    5.08   14.84
  -8   0   3    5.11   16.32
   8   0  -2  612.70   83.04
   8   0  -2  573.54   86.57
  -8   0   2  500.17   88.85
   8   0  -1   29.16   26.56
   8   0  -1   48.03   28.69
  -8   0   1   28.28   27.26
   8   0   0  785.85  109.52
   8   0   0  946.47  121.37
  -8   0   0  733.70  113.47
   8   0   1   11.92   20.53
   8   0   1   26.75   23.36
  -8   0  -1   13.08   19.55
   8   0   2    8.99   27.97
  -8   0  -2    7.19   15.07
   8   0   3  261.66   43.97
  -8   0  -3  112.47   36.66
   8   0   4    5.84   14.01
   8   1  -3  724.36   82.98
   8   1  -3  540.67   73.98
  -8  -1   3  610.03  125.40
   8   1  -2   24.37   20.16
   8   1  -2   13.57   20.20
  -8  -1   2   -1.66   39.83
   8   1  -1  272.18   63.03
   8   1  -1  407.67   69.16
  -8  -1   1  381.84  115.35
   8   1   0  118.04   38.39
   8   1   0  164.90   44.32
  -8  -1   0   -7.71   71.73
   8   1   1  711.97   91.82
   8   1   1 1156.79  167.69
  -8  -1  -1  604.34   95.54
   8   1   2  919.27  108.03
  -8  -1  -2  584.76   77.94
   8   1   3   86.29   35.28
   8   1   4  112.41   35.45
   8   1   5  120.07   40.16
  -8  -1  -5   47.94   26.68
   8   2  -3   11.29   13.41
   8   2  -3    1.90   16.79
  -8  -2   3    7.64   18.61
   8   2  -2  261.10   41.73
   8   2  -2  103.55   42.20
  -8  -2   2  252.84   56.64
   8   2  -1  158.85   44.74
   8   2  -1  275.91   50.58
  -8  -2   1  259.69   60.47
   8   2   0  180.69   44.03
   8   2   0  366.52   84.79
  -8  -2   0  243.71   60.13
   8   2   1  402.56   91.21
  -8  -2  -1  177.61   89.26
   8   2   2    6.94   18.02
   8   2   3  590.61   67.28
  -8  -2  -3  180.30   49.05
   8   2   4   94.91   31.63
  -8  -2  -4   52.98   24.40
   8   2   5   75.13   41.09
  -8  -2  -5   56.30   22.96
  -8  -3   3   23.23   21.67
   8   3  -2    7.85    7.95
   8   3  -2    0.71    9.26
  -8  -3   2    3.68   17.63
   8   3  -1   46.64   22.27
  -8  -3   1   57.69   31.19
   8   3   0    6.43   14.05
  -8  -3   0    3.05   16.88
   8   3   1  326.60   49.33
  -8  -3  -1   95.49   46.05
   8   3   2   30.98   31.90
   8   3   2  217.97   38.30
   8   3   3   23.40   19.99
  -8  -3  -3    5.38   17.80
   8   3   4  934.08  103.56
  -8  -3  -4  704.21   95.87
   8   3   5  523.61   88.99
  -8  -3  -5  350.12   60.64
  -8  -4   2  298.92   55.65
  -8  -4   1   54.47   27.93
   8   4   0  447.71   64.00
  -8  -4   0  626.67   81.47
   8   4   1  353.55   61.98
   8   4   1  491.35   64.93
   8   4   2   29.20   25.58
   8   4   2   63.15   25.68
   8   4   3  227.36   54.94
   8   4   3  381.31   55.99
   8   4   4   11.75   18.72
  -8  -4  -4   -7.58   12.99
   8   4   5   12.94   15.55
  -8  -4  -5   25.29   17.54
  -8  -5   1  213.12   42.46
   8   5   0    0.51   10.29
   8   5   1  173.49   39.94
   8   5   2   31.23   20.08
   8   5   2    9.92   19.75
   8   5   3   18.45   14.50
   8   5   3   42.32   20.84
   8   5   4  219.30   34.84
  -8  -5  -4  307.50   48.34
;
_shelx_hkl_checksum              52168
loop_
_space_group_symop_id
_space_group_symop_operation_xyz
1 +X,+Y,+Z
2 -X,-Y,-Z
loop_
_atom_site_label
_atom_site_type_symbol
_atom_site_fract_x
_atom_site_fract_y
_atom_site_fract_z
_atom_site_U_iso_or_equiv
_atom_site_adp_type
_atom_site_occupancy
_atom_site_site_symmetry_order
_atom_site_calc_flag
_atom_site_refinement_flags_posn
_atom_site_refinement_flags_adp
Cl1 Cl 0.06818(14) 0.55776(12) 0.28887(11) 0.0365(3) Uani 1 1 d . .
Cl2 Cl 0.42971(14) 0.37081(14) -0.23743(11) 0.0410(3) Uani 1 1 d . .
Cl3 Cl 0.15570(14) -0.06993(12) 0.14908(11) 0.0367(3) Uani 1 1 d . .
O1 O 0.0865(4) 0.1852(4) 0.4678(3) 0.0354(7) Uani 1 1 d . .
N1 N -0.1694(4) 0.2065(4) 0.3463(3) 0.0267(8) Uani 1 1 d . .
N2 N -0.2444(4) 0.2143(4) 0.2124(4) 0.0323(8) Uani 1 1 d . .
N3 N -0.4177(4) 0.2033(4) 0.2451(4) 0.0371(9) Uani 1 1 d . .
C1 C -0.4542(5) 0.1876(5) 0.3974(5) 0.0382(11) Uani 1 1 d . .
H1 H -0.5709 0.1778 0.4490 0.046 Uiso 1 1 calc R U
C2 C -0.2999(5) 0.1883(5) 0.4619(5) 0.0356(10) Uani 1 1 d . .
H2 H -0.2848 0.1783 0.5655 0.043 Uiso 1 1 calc R U
C3 C 0.0201(5) 0.2093(5) 0.3505(4) 0.0280(9) Uani 1 1 d . .
C4 C 0.1224(5) 0.2488(5) 0.2030(4) 0.0249(9) Uani 1 1 d . .
C5 C 0.1545(5) 0.4059(5) 0.1639(4) 0.0285(9) Uani 1 1 d . .
C6 C 0.2487(5) 0.4476(5) 0.0301(4) 0.0301(9) Uani 1 1 d . .
H3 H 0.2682 0.5565 0.0052 0.036 Uiso 1 1 calc R U
C7 C 0.3138(5) 0.3235(5) -0.0660(4) 0.0331(10) Uani 1 1 d . .
C8 C 0.2896(5) 0.1630(5) -0.0326(4) 0.0310(9) Uani 1 1 d . .
H4 H 0.3380 0.0798 -0.0997 0.037 Uiso 1 1 calc R U
C9 C 0.1923(5) 0.1286(5) 0.1022(4) 0.0270(9) Uani 1 1 d . .
loop_
_atom_site_aniso_label
_atom_site_aniso_U_11
_atom_site_aniso_U_22
_atom_site_aniso_U_33
_atom_site_aniso_U_23
_atom_site_aniso_U_13
_atom_site_aniso_U_12
Cl1 0.0423(6) 0.0317(6) 0.0335(5) -0.0055(4) 0.0087(4) -0.0065(5)
Cl2 0.0430(6) 0.0473(7) 0.0291(6) 0.0009(5) 0.0129(5) -0.0082(5)
Cl3 0.0490(6) 0.0281(6) 0.0323(6) 0.0002(4) 0.0005(5) -0.0081(5)
O1 0.0317(15) 0.048(2) 0.0271(15) 0.0032(13) -0.0050(12) -0.0096(13)
N1 0.0251(16) 0.035(2) 0.0197(16) 0.0010(14) 0.0007(13) -0.0053(14)
N2 0.0321(19) 0.036(2) 0.0294(18) -0.0011(15) -0.0015(15) -0.0090(16)
N3 0.0295(18) 0.047(2) 0.036(2) -0.0021(17) -0.0033(16) -0.0074(17)
C1 0.025(2) 0.047(3) 0.039(3) 0.003(2) 0.0069(19) -0.0049(19)
C2 0.031(2) 0.046(3) 0.027(2) 0.0062(19) 0.0065(18) -0.009(2)
C3 0.025(2) 0.030(2) 0.028(2) 0.0005(17) 0.0041(17) -0.0039(17)
C4 0.0210(19) 0.028(2) 0.025(2) 0.0011(17) 0.0018(15) -0.0060(16)
C5 0.026(2) 0.026(2) 0.030(2) -0.0010(17) 0.0055(17) 0.0012(17)
C6 0.028(2) 0.033(2) 0.029(2) 0.0020(18) 0.0038(17) -0.0076(18)
C7 0.028(2) 0.040(3) 0.028(2) 0.0035(19) 0.0065(17) -0.0039(19)
C8 0.030(2) 0.035(3) 0.026(2) -0.0036(18) 0.0015(17) 0.0004(18)
C9 0.029(2) 0.023(2) 0.029(2) -0.0015(17) -0.0020(17) -0.0057(17)
loop_
_atom_type_symbol
_atom_type_description
_atom_type_scat_dispersion_real
_atom_type_scat_dispersion_imag
_atom_type_scat_source
C C 0.0181 0.0091
;
International Tables for Crystallography
(Vol. C, Tables 4.2.6.8 and 6.1.1.4)
;
H H 0.0000 0.0000
;
International Tables for Crystallography
(Vol. C, Table 6.1.1.4)
;
O O 0.0492 0.0322
;
International Tables for Crystallography
(Vol. C, Tables 4.2.6.8 and 6.1.1.4)
;
N N 0.0311 0.0180
;
International Tables for Crystallography
(Vol. C, Tables 4.2.6.8 and 6.1.1.4)
;
Cl Cl 0.3639 0.7018
;
International Tables for Crystallography
(Vol. C, Tables 4.2.6.8 and 6.1.1.4)
;
loop_
_geom_angle_atom_site_label_1
_geom_angle_atom_site_label_2
_geom_angle_atom_site_label_3
_geom_angle
C2 N1 N2 110.3(3)
C2 N1 C3 128.7(3)
N2 N1 C3 120.9(3)
N3 N2 N1 106.3(3)
N2 N3 C1 109.1(3)
C2 C1 N3 109.5(4)
C2 C1 H1 125.2
N3 C1 H1 125.2
C1 C2 N1 104.8(4)
C1 C2 H2 127.6
N1 C2 H2 127.6
O1 C3 N1 119.8(3)
O1 C3 C4 125.2(3)
N1 C3 C4 115.0(3)
C5 C4 C9 117.5(3)
C5 C4 C3 120.9(4)
C9 C4 C3 121.5(3)
C6 C5 C4 122.9(4)
C6 C5 Cl1 119.0(3)
C4 C5 Cl1 118.1(3)
C5 C6 C7 117.1(4)
C5 C6 H3 121.5
C7 C6 H3 121.5
C6 C7 C8 123.0(4)
C6 C7 Cl2 118.7(3)
C8 C7 Cl2 118.2(3)
C9 C8 C7 117.4(4)
C9 C8 H4 121.3
C7 C8 H4 121.3
C8 C9 C4 122.1(4)
C8 C9 Cl3 119.4(3)
C4 C9 Cl3 118.5(3)
loop_
_geom_bond_atom_site_label_1
_geom_bond_atom_site_label_2
_geom_bond_distance
Cl1 C5 1.747(4)
Cl2 C7 1.740(4)
Cl3 C9 1.736(4)
O1 C3 1.206(4)
N1 C2 1.362(5)
N1 N2 1.378(4)
N1 C3 1.413(5)
N2 N3 1.303(4)
N3 C1 1.374(5)
C1 C2 1.339(6)
C1 H1 0.9500
C2 H2 0.9500
C3 C4 1.504(5)
C4 C5 1.383(5)
C4 C9 1.396(5)
C5 C6 1.381(5)
C6 C7 1.385(5)
C6 H3 0.9500
C7 C8 1.386(5)
C8 C9 1.383(5)
C8 H4 0.9500
loop_
_geom_torsion_atom_site_label_1
_geom_torsion_atom_site_label_2
_geom_torsion_atom_site_label_3
_geom_torsion_atom_site_label_4
_geom_torsion
C2 N1 N2 N3 0.8(4)
C3 N1 N2 N3 177.7(3)
N1 N2 N3 C1 -0.4(4)
N2 N3 C1 C2 -0.2(5)
N3 C1 C2 N1 0.7(5)
N2 N1 C2 C1 -0.9(5)
C3 N1 C2 C1 -177.5(4)
C2 N1 C3 O1 4.0(7)
N2 N1 C3 O1 -172.2(4)
C2 N1 C3 C4 -174.0(4)
N2 N1 C3 C4 9.7(5)
O1 C3 C4 C5 -81.2(5)
N1 C3 C4 C5 96.7(4)
O1 C3 C4 C9 97.1(5)
N1 C3 C4 C9 -85.0(4)
C9 C4 C5 C6 1.1(6)
C3 C4 C5 C6 179.5(3)
C9 C4 C5 Cl1 -179.9(3)
C3 C4 C5 Cl1 -1.5(5)
C4 C5 C6 C7 -0.6(6)
Cl1 C5 C6 C7 -179.6(3)
C5 C6 C7 C8 -0.7(6)
C5 C6 C7 Cl2 178.8(3)
C6 C7 C8 C9 1.4(6)
Cl2 C7 C8 C9 -178.1(3)
C7 C8 C9 C4 -0.9(6)
C7 C8 C9 Cl3 179.3(3)
C5 C4 C9 C8 -0.4(6)
C3 C4 C9 C8 -178.7(3)
C5 C4 C9 Cl3 179.5(3)
C3 C4 C9 Cl3 1.1(5)
