#------------------------------------------------------------------------------
#$Date: 2017-03-08 02:35:04 +0200 (Wed, 08 Mar 2017) $
#$Revision: 194064 $
#$URL: file:///home/coder/svn-repositories/cod/cif/4/03/23/4032362.cif $
#------------------------------------------------------------------------------
#
# This file is available in the Crystallography Open Database (COD),
# http://www.crystallography.net/
#
# All data on this site have been placed in the public domain by the
# contributors.
#
data_4032362
loop_
_publ_author_name
'Korb, Marcus'
'Lehrich, Steve W.'
'Lang, Heinrich'
_publ_section_title
;
 Reactivity of Ferrocenyl Phosphates Bearing (Hetero-)Aromatics and
 [3]Ferrocenophanes toward Anionic Phospho-Fries Rearrangements
;
_journal_name_full               'The Journal of Organic Chemistry'
_journal_paper_doi               10.1021/acs.joc.7b00030
_journal_year                    2017
_chemical_formula_moiety         'C30 H24 Fe3 O8 P2'
_chemical_formula_sum            'C30 H24 Fe3 O8 P2'
_chemical_formula_weight         741.98
_chemical_name_systematic
;
 ?
;
_space_group_crystal_system      triclinic
_space_group_IT_number           2
_space_group_name_Hall           '-P 1'
_space_group_name_H-M_alt        'P -1'
_symmetry_space_group_name_Hall  '-P 1'
_symmetry_space_group_name_H-M   'P -1'
_atom_sites_solution_hydrogens   geom
_audit_creation_method           SHELXL-2013
_cell_angle_alpha                95.156(6)
_cell_angle_beta                 91.298(5)
_cell_angle_gamma                97.059(6)
_cell_formula_units_Z            1
_cell_length_a                   6.2344(4)
_cell_length_b                   7.6337(6)
_cell_length_c                   13.7942(9)
_cell_measurement_reflns_used    2339
_cell_measurement_temperature    120.00(10)
_cell_measurement_theta_max      27.7350
_cell_measurement_theta_min      4.3860
_cell_volume                     648.50(8)
_computing_cell_refinement
;
CrysAlisPro, Agilent Technologies,
Version 1.171.37.35 (release 13-08-2014 CrysAlis171 .NET)
(compiled Aug 13 2014,18:06:01)
;
_computing_data_collection
;
CrysAlisPro, Agilent Technologies,
Version 1.171.37.35 (release 13-08-2014 CrysAlis171 .NET)
(compiled Aug 13 2014,18:06:01)
;
_computing_data_reduction
;
CrysAlisPro, Agilent Technologies,
Version 1.171.37.35 (release 13-08-2014 CrysAlis171 .NET)
(compiled Aug 13 2014,18:06:01)
;
_computing_structure_refinement  'SHELXL-2013 (Sheldrick, 2013)'
_computing_structure_solution    'SHELXS-2013 (Sheldrick, 2013)'
_diffrn_ambient_temperature      120.00(10)
_diffrn_measured_fraction_theta_full 0.999
_diffrn_measured_fraction_theta_max 0.999
_diffrn_measurement_device_type  'oxford gemini s'
_diffrn_measurement_method       '\w scans'
_diffrn_radiation_type           MoK\a
_diffrn_radiation_wavelength     0.71073
_diffrn_reflns_av_R_equivalents  0.0241
_diffrn_reflns_av_unetI/netI     0.0369
_diffrn_reflns_Laue_measured_fraction_full 0.999
_diffrn_reflns_Laue_measured_fraction_max 0.999
_diffrn_reflns_limit_h_max       7
_diffrn_reflns_limit_h_min       -7
_diffrn_reflns_limit_k_max       8
_diffrn_reflns_limit_k_min       -9
_diffrn_reflns_limit_l_max       16
_diffrn_reflns_limit_l_min       -15
_diffrn_reflns_number            4195
_diffrn_reflns_point_group_measured_fraction_full 0.999
_diffrn_reflns_point_group_measured_fraction_max 0.999
_diffrn_reflns_theta_full        25.000
_diffrn_reflns_theta_max         24.996
_diffrn_reflns_theta_min         2.957
_diffrn_source                   'Enhance (Mo) X-ray Source'
_diffrn_standards_decay_%        0
_diffrn_standards_interval_count 50
_diffrn_standards_interval_time  10
_diffrn_standards_number         2
_exptl_absorpt_coefficient_mu    1.837
_exptl_absorpt_correction_T_max  1.00000
_exptl_absorpt_correction_T_min  0.92994
_exptl_absorpt_correction_type   multi-scan
_exptl_absorpt_process_details
;
CrysAlisPro, Agilent Technologies,
Version 1.171.37.35 (release 13-08-2014 CrysAlis171 .NET)
(compiled Aug 13 2014,18:06:01)
Empirical absorption correction using spherical harmonics,
 implemented in SCALE3 ABSPACK scaling algorithm.
;
_exptl_crystal_colour            yellow
_exptl_crystal_density_diffrn    1.900
_exptl_crystal_description       plate
_exptl_crystal_F_000             376
_exptl_crystal_size_max          0.4
_exptl_crystal_size_mid          0.1
_exptl_crystal_size_min          0.01
_refine_diff_density_max         0.827
_refine_diff_density_min         -0.401
_refine_diff_density_rms         0.098
_refine_ls_extinction_method     none
_refine_ls_goodness_of_fit_ref   1.070
_refine_ls_hydrogen_treatment    constr
_refine_ls_matrix_type           full
_refine_ls_number_parameters     196
_refine_ls_number_reflns         2277
_refine_ls_number_restraints     0
_refine_ls_restrained_S_all      1.070
_refine_ls_R_factor_all          0.0380
_refine_ls_R_factor_gt           0.0339
_refine_ls_shift/su_max          0.000
_refine_ls_shift/su_mean         0.000
_refine_ls_structure_factor_coef Fsqd
_refine_ls_weighting_details
'w=1/[\s^2^(Fo^2^)+(0.0471P)^2^+0.6335P] where P=(Fo^2^+2Fc^2^)/3'
_refine_ls_weighting_scheme      calc
_refine_ls_wR_factor_gt          0.0873
_refine_ls_wR_factor_ref         0.0896
_reflns_Friedel_coverage         0.000
_reflns_number_gt                2069
_reflns_number_total             2277
_reflns_threshold_expression     'I > 2\s(I)'
_cod_data_source_file            jo7b00030_si_001.cif
_cod_data_source_block           MK-445-F3
_cod_database_code               4032362
_shelx_space_group_comment
;
The symmetry employed for this shelxl refinement is uniquely defined
by the following loop, which should always be used as a source of
symmetry information in preference to the above space-group names.
They are only intended as comments.
;
_shelxl_version_number           2013-4
_shelx_res_file
;
TITL MK-445-F3 in P-1
CELL  0.71073   6.2344   7.6337  13.7942   95.156   91.298   97.059
ZERR     1.00   0.0004   0.0006   0.0009    0.006    0.005    0.006
LATT   1
SFAC  C    H    O    P    FE
UNIT  30   24   8    2    3
MERG   2
OMIT     0.00  50.00
OMIT     0   5   1
FMAP   2
PLAN   20
ACTA    50.00
BOND
CONF
L.S.  14
WGHT    0.047100    0.633500
FVAR       7.41831
C1    1    0.057443    0.152175    0.081811    11.00000    0.01412    0.01169 =
         0.00889   -0.00100    0.00041   -0.00026
C2    1    0.268344    0.104587    0.092604    11.00000    0.02141    0.01124 =
         0.00991   -0.00109   -0.00191    0.00394
AFIX  43
H2    2    0.310246    0.017767    0.129579    11.00000   -1.20000
AFIX   0
C3    1    0.403430    0.215744    0.035749    11.00000    0.01411    0.01730 =
         0.01297   -0.00448    0.00098    0.00426
AFIX  43
H3    2    0.551557    0.215058    0.029533    11.00000   -1.20000
AFIX   0
C4    1    0.274700    0.328482   -0.010198    11.00000    0.01910    0.01234 =
         0.00972    0.00046    0.00116   -0.00140
AFIX  43
H4    2    0.324471    0.413600   -0.051319    11.00000   -1.20000
AFIX   0
C5    1    0.057143    0.288575    0.017580    11.00000    0.01537    0.01335 =
         0.01161   -0.00173   -0.00215    0.00154
AFIX  43
H5    2   -0.061583    0.340920   -0.002173    11.00000   -1.20000
AFIX   0
C6    1    0.100220    0.394142    0.264400    11.00000    0.01529    0.01312 =
         0.00902   -0.00190    0.00126    0.00037
C7    1    0.315414    0.360199    0.284720    11.00000    0.01905    0.01562 =
         0.00845   -0.00215   -0.00249    0.00455
AFIX  43
H7    2    0.356662    0.265714    0.315693    11.00000   -1.20000
AFIX   0
C8    1    0.454744    0.499061    0.248374    11.00000    0.01324    0.01864 =
         0.01538   -0.00574   -0.00049   -0.00022
AFIX  43
H8    2    0.605071    0.510871    0.251052    11.00000   -1.20000
AFIX   0
C9    1    0.326763    0.616606    0.207364    11.00000    0.02188    0.01170 =
         0.01578   -0.00401    0.00225   -0.00045
AFIX  43
H9    2    0.379070    0.718542    0.178859    11.00000   -1.20000
AFIX   0
C10   1    0.104905    0.552605    0.217090    11.00000    0.01786    0.01385 =
         0.01143   -0.00427    0.00124    0.00675
AFIX  43
H10   2   -0.013755    0.604213    0.196556    11.00000   -1.20000
AFIX   0
C11   1    0.031834   -0.098133    0.359587    11.00000    0.02105    0.01207 =
         0.00804   -0.00033    0.00090    0.00578
C12   1    0.227723   -0.102406    0.412474    11.00000    0.01738    0.01555 =
         0.01362   -0.00059    0.00344    0.00616
AFIX  43
H12   2    0.363185   -0.045507    0.399449    11.00000   -1.20000
AFIX   0
C13   1    0.177029   -0.210717    0.489454    11.00000    0.02713    0.01633 =
         0.01234    0.00115    0.00126    0.01273
AFIX  43
H13   2    0.274244   -0.236936    0.536556    11.00000   -1.20000
AFIX   0
C14   1    0.048828    0.272284    0.518025    11.00000    0.02968    0.01127 =
         0.01461    0.00140    0.00619    0.00418
AFIX  43
H14   2    0.123667    0.346690    0.477015    11.00000   -1.20000
AFIX   0
C15   1    0.139984    0.200674    0.598714    11.00000    0.01984    0.01271 =
         0.01174   -0.00312    0.00138    0.00161
AFIX  43
H15   2    0.284356    0.217925    0.619898    11.00000   -1.20000
AFIX   0
O1    3   -0.131076    0.084027    0.126496    11.00000    0.01367    0.01481 =
         0.01176    0.00302   -0.00012   -0.00146
O2    3   -0.092082    0.290935    0.285060    11.00000    0.01554    0.01554 =
         0.01288    0.00044    0.00273    0.00159
O3    3    0.026599   -0.018643    0.271641    11.00000    0.01746    0.01377 =
         0.01003    0.00494    0.00269    0.00454
O4    3   -0.376985    0.027776    0.265756    11.00000    0.01476    0.02208 =
         0.01802    0.00408    0.00094    0.00003
P3    4   -0.158460    0.091331    0.240365    11.00000    0.01369    0.01276 =
         0.01088    0.00235    0.00076    0.00164
FE1   5    0.250944    0.362892    0.139715    11.00000    0.01240    0.01015 =
         0.01002   -0.00014    0.00048    0.00154
FE2   5    0.000000    0.000000    0.500000    10.50000    0.01600    0.01060 =
         0.00982    0.00041    0.00130    0.00356
HKLF    4

REM  MK-445-F3 in P-1
REM R1 =  0.0339 for    2069 Fo > 4sig(Fo)  and  0.0380 for all    2277 data
REM    196 parameters refined using      0 restraints

END

WGHT      0.0474      0.5850

REM Highest difference peak  0.827,  deepest hole -0.401,  1-sigma level  0.098
Q1    1   0.1707  0.0144  0.5058  11.00000  0.05    0.83
Q2    1   0.0740  0.3539  0.1388  11.00000  0.05    0.79
Q3    1   0.4354  0.3646  0.1381  11.00000  0.05    0.79
Q4    1   0.3433  0.0048  0.5021  11.00000  0.05    0.64
Q5    1   0.5255  0.3644  0.1379  11.00000  0.05    0.62
Q6    1  -0.0779  0.3701  0.1379  11.00000  0.05    0.51
Q7    1  -0.3413  0.1011  0.2431  11.00000  0.05    0.46
Q8    1  -0.5160  0.0732  0.2578  11.00000  0.05    0.42
Q9    1  -0.2658  0.0010  0.2622  11.00000  0.05    0.41
Q10   1   0.1440  0.0808  0.2458  11.00000  0.05    0.40
Q11   1   0.0264  0.3351  0.2788  11.00000  0.05    0.37
Q12   1   0.0013  0.0716  0.2611  11.00000  0.05    0.34
Q13   1   0.1546  0.3037  0.0007  11.00000  0.05    0.34
Q14   1   0.1921  0.3446  0.2282  11.00000  0.05    0.32
Q15   1   0.3424  0.3301  0.0584  11.00000  0.05    0.32
Q16   1   0.2308  0.1729  0.1176  11.00000  0.05    0.31
Q17   1   0.3011  0.0445  0.2442  11.00000  0.05    0.31
Q18   1   0.0993  0.4874  0.2566  11.00000  0.05    0.30
Q19   1  -0.0344  0.1287  0.1025  11.00000  0.05    0.29
Q20   1  -0.0514  0.2317  0.5118  11.00000  0.05    0.29
;
_shelx_res_checksum              82449
_shelx_hkl_file
;
   0   0   2 71085.8 1411.30   6
   0   0   3 131261. 2783.08   1
   0   0   3 138568. 2601.53   6
   0   0  -4 251908. 4682.13   6
   0   0   4 259265. 4924.46   1
   0   0   4 252928. 4659.36   6
   0   0   5 118544. 2836.96   1
   0   0  -5 121572. 2595.98   6
   0   0   5 122972. 2598.45   6
   0   0  -5 122722. 2572.45   2
   0   0   6 4483.69 402.396   6
   0   0  -6 4458.54 489.800   1
   0   0   6 5748.98 528.746   1
   0   0  -6 4944.04 402.722   6
   0   0  -6 4603.31 393.149   2
   0   0  -7 52541.4 1559.23   2
   0   0   7 52243.5 1813.53   1
   0   0   7 52004.7 1550.79   6
   0   0  -7 54533.5 1616.53   6
   0   0  -8 474537. 8964.84   6
   0   0  -8 489460. 8907.42   2
   0   0   8 488056. 9457.84   1
   0   0  -9 41902.7 1474.60   2
   0   0  -9 42975.6 1536.03   6
   0   0   9 39553.6 1737.85   1
   0   0 -10 1837.86 335.246   2
   0   0 -10 1407.66 281.533   6
   0   0  10 1503.86 429.389   1
   0   0 -11 63796.7 2067.26   2
   0   0  11 57490.9 2380.90   1
   0   0 -12 6670.27 625.215   2
   0   0  12 7909.54 882.050   1
   0   0 -13 5993.03 607.745   2
   0   0  13 5134.90 741.773   1
   0   0  14 58989.1 2714.33   1
   0   0  15 2179.73 564.959   1
   0   0  16 1131.37 515.299   1
   0   0  17 13472.8 1432.49   1
   0  -1  17 5588.21 901.736   1
   0  -1  16 29866.4 2016.17   1
   0  -1  15 22756.5 1696.87   1
   0  -1  14 220.788 308.404   1
   0   1 -13 72648.2 2481.36   2
   0  -1  13 75903.3 2953.87   1
   0  -1  12 35916.1 1871.02   1
   0   1 -12 38061.9 1637.40   2
   0  -1  12 38539.0 1712.47   6
   0  -1  11 5447.22 695.242   1
   0   1 -11 5587.25 578.918   2
   0  -1  11 6020.40 621.603   6
   0  -1  10 48725.9 2024.57   1
   0  -1  10 53276.6 1888.48   6
   0   1  -9 7259.53 647.838   6
   0  -1   9 7868.75 638.020   6
   0  -1   9 8697.52 767.449   1
   0   1  -8 171308. 3952.89   6
   0  -1   8 170863. 3927.49   6
   0  -1   8 173283. 4159.93   1
   0  -1   7 142012. 3397.41   6
   0  -1   7 151330. 3632.56   1
   0   1  -7 156837. 3523.28   6
   0   1  -7 154919. 3605.41   1
   0   1  -6 332761. 6199.50   6
   0  -1   6 323738. 6151.21   6
   0  -1   6 300994. 6173.53   1
   0   1  -6 304305. 6188.18   1
   0  -1   5 72355.0 1967.43   1
   0   1  -5 78879.2 1998.34   1
   0   1  -5 80210.5 2014.03   6
   0  -1   5 77260.6 2005.19   6
   0   1  -4 251343. 4726.46   1
   0  -1   4 253336. 4825.95   6
   0  -1   4 240790. 4753.38   1
   0  -1   3 576.925 153.415   1
   0  -1   3 1053.13 202.279   6
   0   1  -3 720.799 154.182   1
   0  -1   2 581712. 9928.66   1
   0  -1   2 594158. 10168.5   6
   0   1  -1 8348.43 302.748   3
   0   1   1 817084. 13992.8   3
   0   1   1 856221. 14067.2   1
   0   1   2 110729. 2341.95   1
   0   1   3 9464.01 436.101   2
   0   1   3 9717.01 553.354   1
   0   1   4 21823.0 959.487   1
   0   1   4 22852.2 779.400   2
   0   1   5 57044.5 1510.35   2
   0  -1  -5 61392.0 1539.14   2
   0   1   5 58692.1 1836.60   1
   0   1   6 26319.6 1188.92   1
   0  -1  -6 24932.2 912.921   6
   0  -1  -6 27276.1 968.132   2
   0  -1  -7 30631.3 1094.77   2
   0   1   7 28653.4 1334.87   1
   0  -1  -7 27766.2 1050.64   6
   0  -1  -8 2696.35 325.314   6
   0  -1  -8 3198.73 357.346   2
   0   1   8 2519.12 443.868   1
   0  -1  -9 136219. 3133.74   2
   0  -1  -9 125618. 3067.74   6
   0   1   9 125285. 3631.35   1
   0   1  10-358.206 268.750   1
   0  -1 -10 330.808 206.321   2
   0  -1 -10-120.684 146.698   6
   0  -1 -11 10314.7 735.924   2
   0   1  11 8351.54 893.951   1
   0  -1 -12 70319.7 2264.13   2
   0   1  12 72785.1 2892.67   1
   0   1  13 1213.23 519.969   1
   0   1  14 17936.0 1502.03   1
   0   1  15 34352.9 2217.59   1
   0   1  16 973.820 519.908   1
   0  -2  17 3399.52 716.097   1
   0  -2  16 1123.65 496.141   1
   0  -2  15 37080.1 2118.73   1
   0   2 -14 26814.4 1526.48   2
   0  -2  14 24143.4 1666.46   1
   0  -2  14 27189.7 1565.31   6
   0  -2  13 7232.85 841.382   1
   0  -2  13 8159.05 832.865   6
   0  -2  12 44351.6 1960.16   6
   0  -2  12 43901.5 2083.83   1
   0  -2  11 1543.77 369.205   6
   0  -2  11 2261.90 478.244   1
   0  -2  10 249.705 179.636   1
   0  -2  10 34.0546 172.596   6
   0  -2   9 41439.2 1718.56   1
   0  -2   9 39268.3 1660.15   6
   0  -2   8 39079.3 1597.47   6
   0  -2   8 37496.6 1515.61   1
   0   2  -7 45066.2 1593.13   1
   0   2  -7 42221.6 1657.94   6
   0  -2   7 44435.2 1701.34   6
   0  -2   7 46798.0 1622.70   1
   0  -2   6 14629.1 787.162   1
   0  -2   6 15501.6 899.102   6
   0   2  -6 14588.1 891.884   6
   0   2  -6 15427.2 834.453   1
   0   2  -5 65026.6 1752.10   1
   0   2  -5 65972.8 2002.90   6
   0  -2   5 60748.0 1725.46   1
   0  -2   5 61855.6 1931.30   6
   0  -2   4 71286.7 1780.52   1
   0  -2   4 74130.8 2075.01   6
   0  -2   3 175556. 3368.05   3
   0  -2   3 164096. 3349.68   1
   0   2  -3 163714. 3439.13   4
   0  -2   2 66091.7 1520.01   3
   0   2  -2 67138.1 1528.68   3
   0  -2   2 65672.7 1873.03   6
   0   2  -1 88377.0 1820.38   3
   0  -2   1 82883.2 1809.34   3
   0  -2   1 89557.0 2196.64   6
   0  -2   1 85917.1 2061.32   4
   0  -2   0 25417.3 957.199   4
   0   2   0 26057.7 776.997   3
   0   2   1 2563.01 271.529   3
   0   2   2 398976. 7258.86   3
   0   2   3 1709.01 298.716   1
   0   2   4 23536.4 1089.89   1
   0   2   5 254859. 5571.81   1
   0   2   5 272046. 5219.31   2
   0   2   6 280382. 6035.04   1
   0   2   6 283259. 5546.41   2
   0   2   7 15379.0 1019.23   1
   0   2   7 14761.2 777.594   2
   0   2   8 315462. 6354.77   2
   0  -2  -8 316595. 6274.99   6
   0  -2  -9 10035.9 658.327   6
   0   2   9 12518.5 1014.75   1
   0   2  10 6090.77 780.868   1
   0  -2 -10 6312.70 546.561   6
   0   2  11 2381.19 520.017   1
   0   2  12 4536.12 767.604   1
   0   2  13 89502.7 3524.04   1
   0   2  14 15023.1 1432.41   1
   0   2  15 5003.63 889.367   1
   0  -3  17 1336.14 526.895   1
   0  -3  16 4089.37 730.331   1
   0  -3  15 2991.65 629.873   1
   0  -3  15 1887.59 496.327   6
   0  -3  14 57662.5 2539.57   6
   0  -3  14 55529.2 2535.61   1
   0  -3  13 596.741 338.314   1
   0  -3  13 1138.98 436.899   6
   0  -3  12 56895.9 2330.22   1
   0  -3  12 50577.1 2253.99   6
   0  -3  11 42209.3 1917.09   1
   0  -3  11 38513.9 1889.15   6
   0  -3  10 2047.57 501.904   6
   0  -3  10 1982.17 411.348   1
   0  -3   9 3462.38 491.227   1
   0  -3   9 4195.95 604.416   6
   0  -3   8 73581.7 2270.93   1
   0  -3   8 68783.7 2515.14   6
   0  -3   7 8893.30 687.977   1
   0  -3   7 8984.26 820.264   6
   0  -3   6 500.090 205.268   3
   0  -3   6 96.9207 229.774   6
   0  -3   6 558.459 190.642   1
   0   3  -6 244.307 159.715   4
   0  -3   5 114992. 3165.29   6
   0  -3   5 114843. 2715.41   3
   0  -3   5 111690. 2672.31   1
   0   3  -5 114178. 2802.94   4
   0   3  -4 8059.73 312.787   5
   0  -3   4 9326.55 745.042   6
   0  -3   4 9999.21 593.656   1
   0   3  -4 9616.86 641.618   4
   0  -3   4 9841.90 561.899   3
   0  -3   3 38885.9 1200.18   3
   0   3  -3 38705.1 1390.10   4
   0  -3   3 39863.2 1579.33   6
   0   3  -2 47019.8 1614.17   4
   0  -3   2 47014.2 1131.97   5
   0  -3   2 50237.8 1607.22   4
   0  -3   2 51774.5 1807.75   6
   0   3  -2 51742.6 1364.23   3
   0  -3   2 49419.1 1343.51   3
   0  -3   1 90502.1 2074.43   3
   0   3  -1 92016.8 2090.11   3
   0  -3   1 92628.1 2583.18   6
   0  -3   1 90232.8 2434.47   4
   0  -3   0 298528. 6054.62   6
   0   3   0 296951. 5523.29   3
   0  -3   0 301935. 6041.76   4
   0  -3   0 289424. 5521.22   3
   0  -3  -1 43364.1 1607.38   4
   0  -3  -1 43035.0 1438.23   1
   0  -3  -1 43416.3 1315.16   3
   0   3   1 41915.1 1298.90   3
   0  -3  -2 144887. 3371.64   1
   0   3   2 145158. 3223.89   3
   0   3   3 56555.7 1742.24   3
   0   3   4 46149.5 1647.43   3
   0   3   5 58655.9 2073.98   1
   0   3   5 55005.7 1927.06   3
   0   3   6 359225. 7556.13   1
   0   3   6 354646. 7038.03   2
   0   3   7 277045. 5805.98   2
   0   3   7 287295. 6438.77   1
   0   3   8 80071.1 2853.26   1
   0   3   8 72605.8 2244.98   2
   0   3   9 159573. 4542.66   1
   0   3  10 682.981 382.514   1
   0   3  11 2268.00 602.126   1
   0   3  12 14332.0 1321.51   1
   0   3  13 18989.4 1619.84   1
   0   3  14 65498.2 3200.38   1
   0  -4  15 15652.5 1335.52   1
   0  -4  15 15251.9 1388.11   6
   0  -4  14 4052.98 648.932   1
   0  -4  14 3216.64 614.683   6
   0  -4  13 52547.1 2519.02   6
   0  -4  13 54790.2 2387.89   1
   0  -4  12 31.0616 227.730   1
   0  -4  12-45.0380 235.719   6
   0   4 -11 8475.93 745.938   4
   0  -4  11 8563.87 952.064   6
   0  -4  11 8697.24 826.530   1
   0   4 -10 105133. 2989.45   4
   0  -4  10 102536. 3504.26   6
   0  -4  10 104947. 3156.78   1
   0  -4   9 15824.9 1021.53   1
   0  -4   9 15427.9 1226.15   6
   0   4  -9 17162.8 1018.53   4
   0  -4   8 166.116 193.751   1
   0   4  -8 613.408 251.792   4
   0  -4   8 47.7874 246.156   6
   0   4  -7 129417. 3342.62   4
   0  -4   7 130360. 3274.78   1
   0  -4   7 126016. 3809.47   6
   0   4  -6 234.336 159.772   4
   0  -4   6 839.395 358.873   6
   0  -4   6 184.566 130.691   1
   0  -4   6 621.105 224.808   3
   0   4  -6 182.071 49.3646   5
   0  -4   5 10483.1 662.472   3
   0  -4   5 10189.1 694.148   1
   0  -4   5 10611.3 912.375   6
   0   4  -5 10032.0 745.160   4
   0  -4   4 200586. 4254.11   3
   0   4  -4 207232. 4661.69   4
   0  -4   4 206398. 5041.58   6
   0   4  -3 512.384 235.204   4
   0   4  -3-66.7376 149.433   3
   0  -4   3-176.508 277.695   6
   0  -4   3 95.5390 132.614   3
   0  -4   2 132057. 2903.73   3
   0  -4   2 134570. 3655.93   6
   0  -4   2 125019. 2654.71   5
   0   4  -2 128006. 2895.32   3
   0  -4   1 8481.20 781.697   6
   0   4  -1 8035.11 532.485   3
   0  -4   1 8264.05 536.883   3
   0   4   0 37872.9 1284.53   3
   0  -4   0 40574.1 1725.70   6
   0  -4   0 36176.8 1282.40   3
   0  -4  -1 483228. 8816.49   3
   0  -4  -1 464094. 9025.77   1
   0   4   1 471328. 8774.65   3
   0   4   2 9967.60 684.597   3
   0   4   3 55894.5 1884.01   3
   0   4   4 316783. 6607.90   3
   0   4   5 12243.2 886.085   3
   0   4   6 33297.4 1594.55   3
   0   4   7 6286.68 732.947   3
   0   4   8 1877.83 437.267   3
   0   4   9 85914.6 3200.95   1
   0   4   9 81355.5 3037.29   3
   0   4  10 11858.3 1137.32   3
   0   4  10 12174.5 1179.64   1
   0   4  11 2409.49 606.310   3
   0   4  11 3031.27 674.427   1
   0   4  12 46899.0 2572.47   1
   0   4  12 47217.7 2509.16   3
   0   4  13 18686.4 1654.86   1
   0   4  13 19246.0 1625.62   3
   0   4  14 6970.71 1076.18   3
   0  -5  16 7191.09 1028.89   6
   0  -5  15 1281.32 462.163   6
   0  -5  14 25069.8 1849.88   6
   0  -5  13 362.663 308.383   6
   0  -5  12 12544.2 1284.39   6
   0  -5  12 14899.4 1147.37   1
   0  -5  11 8167.91 1027.47   6
   0  -5  11 5645.93 731.246   1
   0  -5  10 9144.09 838.936   1
   0   5 -10 8508.02 796.287   4
   0  -5  10 8848.02 1034.27   6
   0  -5   9 110899. 3872.34   6
   0   5  -9 110326. 3267.92   4
   0  -5   9 115638. 3263.79   1
   0  -5   8 1024.66 391.683   6
   0   5  -8 1353.45 347.980   4
   0  -5   8 1393.30 343.812   1
   0  -5   7 274.610 255.521   6
   0   5  -7 198.037 217.478   4
   0  -5   7 108.711 181.210   1
   0  -5   6 137711. 4172.98   6
   0  -5   6 132881. 3386.00   1
   0   5  -6 133261. 3669.40   4
   0  -5   5 870.295 384.878   6
   0  -5   5 669.235 214.342   3
   0   5  -5 557.910 263.953   4
   0   5  -4 10437.9 902.888   4
   0  -5   4 10674.7 1012.16   6
   0  -5   4 10521.3 682.145   3
   0  -5   3 105253. 2665.66   3
   0   5  -3 105514. 2694.09   3
   0  -5   3 106731. 3494.76   6
   0   5  -2 3102.65 376.325   3
   0  -5   2 3083.64 367.653   3
   0  -5   2 3417.09 327.970   5
   0  -5   2 2504.29 515.557   6
   0  -5   1 86899.0 2370.47   3
   0  -5   1 87615.2 2320.04   5
   0  -5   1 89510.0 3082.02   6
   0   5  -1 91678.2 2403.40   3
   0  -5   0 2033.09 465.909   6
   0   5   0 1961.83 315.803   3
   0  -5   0 2367.28 351.642   3
   0  -5  -1 11763.8 1021.92   6
   0   5   1 10053.3 719.114   3
   0  -5  -2 89409.3 3012.85   6
   0   5   2 90615.4 2592.39   3
   0   5   3 5451.27 581.372   3
   0   5   4 1130.49 297.398   3
   0   5   5 86753.9 2811.55   3
   0   5   6 10.9810 215.297   3
   0   5   7 1227.25 360.631   3
   0   5   8 5425.53 770.621   3
   0   5   9 18239.3 1376.11   3
   0   5  10 5326.28 798.703   3
   0   5  11 16045.7 1424.24   3
   0   5  12 25042.7 1854.55   3
   0   5  13 60038.0 3049.82   3
   0  -6  15 6850.28 1050.07   6
   0  -6  14 5003.52 915.213   6
   0  -6  13 36532.0 2353.86   6
   0  -6  12 2180.02 598.728   6
   0  -6  11 3598.65 726.863   6
   0  -6  10 27303.4 1938.06   6
   0  -6   9-132.786 368.781   6
   0   6  -9 513.945 299.293   4
   0  -6   9 109.287 181.563   1
   0   6  -8 28466.5 1606.13   4
   0  -6   8 30457.1 1967.09   6
   0  -6   8 30562.6 1495.11   1
   0   6  -7 10139.9 965.476   4
   0  -6   7 9198.20 1075.24   6
   0  -6   7 11093.1 837.515   1
   0   6  -6 1428.86 387.061   4
   0  -6   6 1636.26 511.477   6
   0  -6   6 1816.02 387.521   1
   0  -6   5 94159.5 3536.79   6
   0  -6   4 2189.09 563.426   6
   0   6  -3-106.555 160.234   3
   0  -6   3 93.7007 286.303   6
   0   6  -2 76656.4 2261.53   3
   0  -6   2 75117.3 3017.58   6
   0  -6   2 70718.5 1990.28   5
   0   6  -1 7116.54 614.554   3
   0  -6   1 4991.09 766.092   6
   0  -6   1 6367.13 571.535   5
   0   6   0 8404.79 702.375   3
   0  -6   0 8863.68 980.733   6
   0  -6  -1 14674.3 1256.60   6
   0   6   1 15340.4 958.233   3
   0   6   2 337.560 234.354   3
   0  -6  -2-122.069 251.557   6
   0  -6  -3 20471.4 1452.95   6
   0   6   3 21647.9 1233.50   3
   0  -6  -4 9278.55 981.684   6
   0   6   4 8352.00 815.035   3
   0   6   5 492.177 264.582   3
   0   6   6 79401.5 2882.50   3
   0   6   7 3244.04 600.960   3
   0   6   8 3732.03 641.580   3
   0   6   9 98064.6 3628.84   3
   0   6  10 40.5811 322.920   3
   0   6  11 318.436 272.423   3
   0   6  12 16260.9 1533.91   3
   0  -7  12 18633.9 1762.23   6
   0  -7  11 34986.5 2404.95   6
   0  -7  10 20905.3 1833.25   6
   0  -7   9 33451.3 2279.19   6
   0  -7   8 18703.1 1674.97   6
   0  -7   7 9567.14 1174.89   6
   0  -7   6 7549.18 1033.68   6
   0  -7   5 15942.2 1471.08   6
   0  -7   4 54649.6 2756.65   6
   0  -7   3 18441.6 1562.54   6
   0   7  -3 18033.8 1055.31   3
   0   7  -2 946.708 298.526   3
   0  -7   2 1145.99 440.691   6
   0  -7   1 75346.5 2362.60   5
   0   7  -1 78628.9 2490.56   3
   0  -7   1 74334.8 3230.80   6
   0   7   0 25863.5 1343.25   3
   0  -7   0 24931.1 1791.44   6
   0  -7   0 24113.6 1316.67   5
   0  -7  -1 4310.94 769.708   6
   0   7   1 4319.35 563.268   3
   0  -7  -2 50483.1 2572.58   6
   0   7   2 52021.4 2067.02   3
   0   7   3 1992.41 416.427   3
   0  -7  -3 2312.51 600.177   6
   0   7   4 44924.3 2024.21   3
   0  -7  -4 42309.6 2325.31   6
   0  -7  -5 1678.69 514.913   6
   0   7   5 1882.90 458.048   3
   0  -7  -6-187.885 261.266   6
   0   7   6-269.213 273.449   3
   0   7   7 74874.3 3020.70   3
   0  -7  -7 71687.5 3099.57   6
   0   7   8 8917.49 1045.95   3
   0   7   9 474.413 338.047   3
   0   7  10 64640.7 3069.34   3
   0  -8   9 57223.1 3223.60   6
   0  -8   8 21152.8 1923.42   6
   0  -8   7 5238.48 971.496   6
   0  -8   6 24126.5 1972.94   6
   0  -8   5 16074.9 1589.12   6
   0  -8   4 2874.15 728.900   6
   0  -8   3 18024.3 1660.98   6
   0  -8   2 27437.7 2027.96   6
   0  -8   1 12772.2 1402.76   6
   0  -8   0 40907.9 2481.39   6
   0   8   1 6470.87 729.900   3
   0  -8  -1 6934.16 1017.05   6
   0   8   2 26048.1 1508.64   3
   0  -8  -2 21962.4 1790.01   6
   0   8   3 42483.9 1999.49   3
   0  -8  -3 36743.3 2350.20   6
   0   8   4 3347.31 579.178   3
   0  -8  -4 4478.48 863.080   6
   0   8   5 26248.5 1652.14   3
   0  -8  -5 26277.2 1942.67   6
   0   8   6-228.388 258.155   3
   0  -8  -6 72.7931 402.675   6
   0   8   7 497.485 350.550   3
   0   8   8 11894.7 1250.91   3
   0   8   9 632.306 357.942   3
   0  -9   3 9886.47 1350.59   6
   0  -9   2 20419.2 1882.88   6
   0  -9   1 2048.23 724.823   6
   0  -9   0 6579.84 1081.80   6
   0  -9  -1 11004.1 1385.01   6
   0  -9  -2 809.740 491.624   6
   0  -9  -3 26042.5 2097.15   6
   0  -9  -4 5039.68 941.537   6
   0  -9  -5 19012.9 1770.75   6
  -1   9   6 398.254 323.751   3
   1  -9  -6 740.563 492.315   6
   1  -9  -5 1255.99 593.545   6
  -1   9   5 1249.53 444.900   3
  -1   9   4-554.981 303.468   3
   1  -9  -4-81.4828 388.380   6
   1  -9  -3 53617.8 3114.44   6
   1  -9  -2 6471.30 1117.14   6
   1  -9  -1 435.664 549.360   6
   1  -9   0 52641.4 3086.40   6
   1  -9   1 5854.56 1068.05   6
   1  -9   2 5393.36 997.690   6
   1  -9   3 27930.1 2234.41   6
  -1   8   8 15114.8 1435.65   3
  -1   8   7 61475.2 2898.96   3
  -1   8   6 15189.0 1354.27   3
  -1   8   5 11038.7 1109.39   3
   1  -8  -5 13076.4 1398.50   6
   1  -8  -4 6523.28 1017.91   6
  -1   8   4 4809.05 722.847   3
  -1   8   3 4875.57 724.652   3
   1  -8  -3 5051.07 906.055   6
   1  -8  -2 39398.5 2485.82   6
  -1   8   2 46473.2 2190.01   3
  -1   8   1 106.409 238.641   3
   1  -8  -1-60.3341 386.549   6
  -1   8   0-214.972 305.346   3
   1  -8   0 556.175 474.146   6
  -1   8  -1 103529. 3349.72   3
   1  -8   1 97071.5 4107.56   6
  -1   8  -2 2511.09 563.790   3
   1  -8   2 2351.77 778.252   6
  -1   8  -3 950.878 332.751   3
   1  -8   3 1111.38 599.456   6
  -1   8  -4 57567.6 2342.35   3
   1  -8   4 55554.1 3035.59   6
   1  -8   5-476.340 299.597   6
   1  -8   6 22118.6 1873.11   6
   1  -8   7 6516.11 1073.98   6
   1  -8   8 600.760 563.121   6
   1  -8   9 27717.6 2185.05   6
  -1   7  10 11233.2 1264.87   3
  -1   7   9 13579.6 1347.77   3
  -1   7   8 1564.64 468.154   3
  -1   7   7 37543.9 2129.33   3
  -1   7   6 32685.2 1911.92   3
  -1   7   5 43463.9 2155.83   3
  -1   7   4 39865.8 1996.47   3
  -1   7   3 29601.4 1648.80   3
  -1   7   2 201.429 294.996   3
   1  -7  -1 3273.99 653.550   6
  -1   7   1 4432.67 609.638   3
   1  -7   0 29088.9 1963.80   6
  -1   7   0 32386.7 1650.02   3
  -1   7  -1 3595.24 518.589   3
   1  -7   1 5042.04 852.827   6
  -1   7  -2 32272.4 1600.22   3
   1  -7   2 31336.6 2050.12   6
   1  -7   3 27792.7 1972.58   6
  -1   7  -3 33085.9 1611.83   3
   1  -7   4 43805.7 2456.04   6
  -1   7  -4 44120.9 1914.42   3
   1  -7   5 40733.4 2401.73   6
   1  -7   6 11923.8 1286.21   6
   1  -7   7 2716.45 676.156   6
   1  -7   7 1976.73 463.167   1
   1  -7   8 19545.8 1342.19   1
   1  -7   8 19780.4 1669.35   6
   1  -7   9 433.045 401.549   6
   1  -7   9 325.334 263.490   1
   1  -7  10 7371.39 1052.41   6
   1  -7  10 8282.27 907.285   1
   1  -7  11 318.993 369.430   6
   1  -7  12 275.835 515.834   6
   1  -7  13 30637.2 2257.75   6
  -1   6  11 41761.7 2471.41   3
  -1   6  10 2960.35 673.359   3
  -1   6   9-121.394 333.284   3
  -1   6   8 28842.8 1809.92   3
  -1   6   7 3304.26 632.555   3
  -1   6   6 170.086 259.508   3
  -1   6   5 4787.26 671.212   3
  -1   6   4 6959.56 775.698   3
  -1   6   3 37144.4 1751.25   3
  -1   6   2 35016.7 1659.02   3
  -1   6   1 37156.0 1666.83   3
  -1   6   0 30460.7 1488.17   3
   1  -6   1 32277.7 1907.61   6
  -1   6  -1 33628.9 1538.93   3
  -1   6  -2 1597.26 381.106   3
   1  -6   2 1744.75 539.399   6
   1  -6   3 7801.07 942.076   6
  -1   6  -3 6873.31 685.100   3
   1  -6   4 32028.5 1912.81   6
  -1   6  -4 30927.2 1474.39   3
   1  -6   5 23302.8 1633.34   6
   1  -6   6 63713.0 2850.83   6
   1  -6   7 47761.2 2030.66   1
   1  -6   7 45896.0 2382.09   6
   1  -6   8 3277.94 689.177   6
   1  -6   8 2558.75 518.558   1
   1  -6   9 89561.4 3042.67   1
   1  -6   9 87474.8 3494.41   6
   1  -6  10 1383.75 532.627   6
   1  -6  10 1197.62 390.331   1
   1  -6  11 17654.3 1342.52   1
   1  -6  11 16764.4 1519.11   6
   1  -6  12 2469.02 639.258   6
   1  -6  12 2212.89 550.491   1
   1  -6  13 455.788 322.756   6
   1  -6  14 15320.5 1500.47   6
   1  -6  15 5153.33 905.455   6
  -1   5  13 32625.1 2221.42   3
  -1   5  12 8289.82 1057.93   3
  -1   5  11 4390.50 824.105   3
  -1   5  10 46422.6 2408.03   3
  -1   5   9 1529.76 480.468   3
  -1   5   8 18877.6 1390.48   3
  -1   5   7 68758.3 2702.71   3
  -1   5   6 3916.49 610.820   3
  -1   5   5 3096.16 515.818   3
  -1   5   4 25988.4 1406.24   3
  -1   5   3 15728.2 1107.33   3
  -1   5   2 119394. 3278.19   3
  -1   5   1 5190.20 561.716   3
  -1   5   0 130147. 3369.45   3
  -1   5  -1 302357. 6314.33   3
  -1   5  -2 1532.26 312.894   3
   1  -5   2 1782.17 477.043   6
  -1   5  -3 28177.8 1301.63   3
   1  -5   3 28404.3 1652.66   6
  -1   5  -4 42398.0 1671.95   3
   1  -5   4 41694.4 2038.59   6
   1  -5   5 9412.20 959.268   6
   1  -5   6 8093.23 901.633   6
   1  -5   6 7678.64 742.964   1
   1  -5   7 67522.5 2726.53   6
   1  -5   7 67784.2 2375.71   1
   1  -5   8 12576.6 1128.36   6
   1  -5   8 13061.0 986.626   1
   1  -5   9 92625.9 3032.16   1
   1  -5   9 92635.0 3362.78   6
   1  -5  10 36272.8 1826.51   1
   1  -5  10 34298.7 1987.53   6
   1  -5  11 4822.25 718.678   1
   1  -5  11 3971.13 714.869   6
   1  -5  12 55411.5 2483.16   1
   1  -5  12 51947.4 2571.46   6
   1  -5  13 6530.15 904.590   6
   1  -5  13 7706.85 935.189   1
   1  -5  14 3800.65 768.013   1
   1  -5  14 4444.39 769.809   6
   1  -5  15 12515.4 1293.77   1
  -1   4  14 61905.5 3148.30   3
  -1   4  13 8146.93 1080.87   3
  -1   4  12 8965.53 1078.64   3
  -1   4  11 14254.5 1308.02   3
  -1   4  10 12474.1 1152.95   3
  -1   4   9 28195.4 1710.14   3
  -1   4   8 25357.4 1549.68   3
  -1   4   7-171.111 248.932   3
  -1   4   6 305188. 6809.50   3
  -1   4   5 934.077 344.442   3
  -1   4   4 42151.2 1726.78   3
  -1   4   3 125988. 3328.33   3
  -1   4   2 13628.3 868.513   3
  -1   4   1 183695. 4163.97   3
  -1   4   0 78.3531 192.027   3
   1  -4   0 234.727 181.415   3
   1  -4   1 37867.4 1529.73   4
  -1   4  -1 40529.4 1460.81   3
   1  -4   1 36789.1 1404.00   3
   1  -4   2 297985. 6143.65   4
  -1   4  -2 301122. 6040.54   3
   1  -4   2 296309. 6024.40   3
   1  -4   3 7190.50 605.678   4
  -1   4  -3 7673.80 602.361   3
   1  -4   3 7401.57 596.238   3
   1  -4   3 7582.05 767.978   6
   1  -4   4 933.153 291.937   4
   1  -4   4 438.385 328.274   6
   1  -4   5 106881. 3279.23   6
   1  -4   6 55575.4 2244.43   6
   1  -4   6 54845.3 1971.97   1
   1  -4   7 5038.56 593.971   1
  -1   4  -7 6102.67 492.284   4
   1  -4   7 5436.27 667.408   6
   1  -4   8 40753.6 1896.77   6
  -1   4  -8 41174.3 1361.33   4
   1  -4   8 42965.1 1788.12   1
  -1   4  -8 37611.4 963.466   5
  -1   4  -9 962.332 209.489   4
  -1   4  -9 966.450 174.306   5
   1  -4   9 1498.63 412.830   6
   1  -4   9 879.341 324.496   1
   1  -4  10 137681. 3965.60   1
   1  -4  10 135823. 4081.23   6
   1  -4  11 138.399 284.631   6
   1  -4  11 526.940 308.770   1
   1  -4  12 16487.7 1294.29   1
   1  -4  12 15485.8 1238.76   6
   1  -4  13 37420.1 2001.89   6
   1  -4  13 38735.3 2080.35   1
   1  -4  14 33849.9 2011.71   1
   1  -4  14 27810.7 1747.15   6
   1  -4  15 14215.7 1342.38   1
   1  -4  16 12127.2 1304.49   1
   1  -4  17 11297.8 1302.28   1
  -1   3  14 15525.6 1481.23   3
  -1   3  13 100234. 3879.36   3
  -1   3  12 2055.59 592.219   3
  -1   3  11 834.938 413.815   3
  -1   3  10 6232.97 808.460   3
  -1   3   9 24421.8 1517.30   3
  -1   3   8 88256.3 2975.69   3
  -1   3   7 12782.6 981.441   3
  -1   3   6 20287.1 1190.10   3
  -1   3   5 508267. 9848.69   3
  -1   3   4 1770.55 346.477   3
  -1   3   3 16328.7 905.110   3
  -1   3   2 75571.4 2142.28   3
  -1   3   1 20987.0 948.480   3
  -1   3   0 16402.3 815.353   3
   1  -3   1 49242.1 1532.97   3
  -1   3  -1 52699.8 1582.79   3
   1  -3   2 12130.6 682.718   3
  -1   3  -2 11228.0 682.708   3
   1  -3   2 11105.5 635.344   4
   1  -3   3 27478.2 1000.91   4
   1  -3   3 27694.4 1296.02   6
   1  -3   3 28002.9 1115.77   3
  -1   3  -3 28003.9 1142.55   3
   1  -3   4 36220.4 1358.45   3
   1  -3   4 39086.4 1574.40   6
   1  -3   5 9467.33 710.199   1
   1  -3   5 9681.72 781.843   6
   1  -3   6 193065. 4513.33   6
  -1   3  -6 185438. 3527.69   5
  -1   3  -6 186238. 3698.46   4
   1  -3   6 189034. 4319.53   1
   1  -3   7 14875.1 952.514   1
   1  -3   7 16084.3 1022.54   6
  -1   3  -7 14807.9 646.333   4
  -1   3  -8 5745.16 394.604   4
   1  -3   8 4551.18 552.709   6
   1  -3   8 6357.20 657.965   1
  -1   3  -9 94421.4 2193.35   4
   1  -3   9 96216.2 2964.78   6
   1  -3   9 91543.6 2950.50   1
   1  -3  10 337.337 253.558   6
  -1   3 -10 85.2755 113.927   4
   1  -3  10-265.576 258.133   1
   1  -3  11 137.354 280.640   6
   1  -3  11 1349.05 450.733   1
   1  -3  12 2610.80 470.869   6
   1  -3  12 2222.17 526.916   1
   1  -3  13 10045.6 1050.90   1
   1  -3  13 12310.7 1024.98   6
   1  -3  14 26926.5 1789.56   1
   1  -3  14 27496.8 1583.97   6
   1  -3  15 10974.9 1195.62   1
   1  -3  16 9032.82 1130.90   1
   1  -3  17 19327.4 1688.06   1
  -1   2  16 1257.29 566.279   1
  -1   2  15 11913.1 1311.37   1
  -1   2  14 7263.22 980.800   1
  -1   2  13 24683.5 1712.80   1
  -1   2  12 21726.7 1537.82   1
  -1   2  11 37648.2 1975.72   1
  -1   2  10 27720.0 1594.19   1
  -1   2   9 19826.6 1284.09   1
  -1   2   8 24554.7 1397.13   1
  -1   2   7 183881. 4505.93   1
  -1   2   6 12349.6 782.310   2
  -1   2   6 11993.3 847.210   3
  -1   2   5 354.071 252.077   3
  -1   2   5 498.009 224.933   2
  -1   2   4 27450.1 1136.45   2
  -1   2   4 27230.1 1176.57   3
  -1   2   3 9710.90 641.284   3
  -1   2   2 20769.1 883.619   3
  -1   2   1 34473.4 1134.66   3
  -1   2   0 262535. 5023.74   3
  -1   2  -1 24864.3 917.873   3
   1  -2   2 273616. 5002.48   4
  -1   2  -2 281285. 5285.96   3
   1  -2   2 273479. 4787.26   5
   1  -2   3 1853.96 171.639   4
  -1   2  -4 12038.2 485.231   5
   1  -2   4 13015.7 733.107   6
   1  -2   4 11586.0 701.284   1
   1  -2   5 963.089 271.296   6
  -1   2  -5 579.458 103.457   4
   1  -2   5 711.876 258.195   1
   1  -2   6 4023.14 443.195   6
  -1   2  -6 3579.45 240.668   4
   1  -2   6 4697.02 532.930   1
   1  -2   7 326245. 6482.65   6
   1  -2   7 318351. 6700.46   1
   1  -2   8 140627. 3707.17   1
   1  -2   8 140862. 3469.35   6
   1  -2   9 4234.88 491.627   6
   1  -2   9 5067.63 664.882   1
   1  -2  10 145370. 4077.45   1
   1  -2  10 146179. 3681.80   6
   1  -2  11 1222.73 354.094   6
   1  -2  11 936.628 396.834   1
   1  -2  12 9121.41 978.617   1
   1  -2  12 8998.50 765.572   6
   1  -2  13 17753.7 1122.16   6
   1  -2  13 18100.0 1405.66   1
   1  -2  14 1167.87 559.787   1
   1  -2  15 50704.9 2605.09   1
   1  -2  16 3115.71 696.627   1
   1  -2  17 357.698 418.761   1
  -1   1  16 2742.49 649.440   1
  -1   1  15 1491.78 547.987   1
  -1   1  14 16202.8 1380.63   1
   1  -1 -14 13734.0 1100.81   2
   1  -1 -13 14647.1 1085.80   2
  -1   1  13 14729.9 1278.70   1
  -1   1  12 27551.9 1657.80   1
   1  -1 -12 25713.6 1412.29   2
   1  -1 -11 4497.59 580.332   2
  -1   1  11 3959.08 594.140   1
   1  -1 -10 32607.3 1497.31   2
  -1   1  10 31494.3 1634.20   1
   1  -1  -9 121605. 3278.86   2
  -1   1   9 125090. 3529.04   1
  -1   1   8 42179.3 1726.00   1
   1  -1  -8 42287.8 1609.15   2
  -1   1   7 103794. 2874.44   1
   1  -1  -7 101899. 2737.22   2
   1  -1  -7 100755. 2707.02   6
  -1   1   6 162190. 3639.57   2
  -1   1   6 158175. 3735.10   1
   1  -1  -6 159689. 3641.41   6
   1  -1  -6 160222. 3748.60   1
   1  -1  -6 153954. 3608.28   2
   1  -1  -5 54125.8 1701.95   1
  -1   1   5 55103.2 1670.45   2
  -1   1   5 54053.8 1712.84   1
   1  -1  -5 53760.6 1673.55   2
   1  -1  -4 8972.38 599.236   2
  -1   1   4 9411.97 618.164   3
  -1   1   4 10425.7 617.353   2
   1  -1  -3 58559.5 1641.14   2
  -1   1   3 60966.4 1642.40   3
   1  -1  -2 40722.8 1239.30   2
  -1   1   2 42830.4 1227.73   3
  -1   1   1 185937. 3590.23   3
  -1   1   0 461510. 8070.42   3
  -1   1  -1 557324. 9684.36   3
  -1   1  -2 427855. 7384.85   5
   1  -1   2 425704. 7610.18   1
   1  -1   2 437980. 7396.90   5
  -1   1  -2 420949. 7574.10   3
  -1   1  -3 299599. 5464.58   5
   1  -1   3 300236. 5690.68   1
   1  -1   4 52327.8 1379.28   6
   1  -1   4 52401.6 1584.27   1
   1  -1   5 61543.8 1568.76   6
   1  -1   5 59662.2 1850.42   1
   1  -1   6 1492.05 239.930   6
   1  -1   6 1790.69 360.112   1
   1  -1   7 15769.3 741.173   6
   1  -1   7 15488.7 965.412   1
  -1   1  -7 14380.1 736.525   6
   1  -1   8 162156. 3512.41   6
  -1   1  -8 159382. 3583.80   6
   1  -1   8 163557. 4115.56   1
   1  -1   9 14770.8 794.238   6
   1  -1   9 17257.2 1167.94   1
  -1   1  -9 15467.5 848.936   6
  -1   1 -10 13717.5 828.404   6
   1  -1  10 14619.5 813.360   6
   1  -1  10 14705.1 1118.26   1
   1  -1  11 57793.5 2424.37   1
  -1   1 -11 61463.9 1833.96   2
   1  -1  11 59742.7 1889.92   6
  -1   1 -12 1655.04 310.212   2
   1  -1  12 1793.32 345.232   6
   1  -1  12 1254.02 470.801   1
   1  -1  13 13079.0 1198.52   1
   1  -1  14 31692.0 1969.27   1
   1  -1  15 815.840 452.458   1
   1  -1  16 34501.8 2231.76   1
  -1   0  17 160.245 375.725   1
  -1   0  16 33369.7 2124.20   1
  -1   0  15 13696.5 1287.74   1
  -1   0  14 4004.64 711.429   1
   1   0 -14 3294.80 542.055   2
  -1   0  13 58481.2 2525.48   1
   1   0 -13 56482.5 2290.86   2
   1   0 -12 562.112 282.892   2
  -1   0  12 473.696 376.889   1
  -1   0  11 904.279 373.448   1
   1   0 -11 1826.26 390.798   2
  -1   0  10 36931.4 1699.98   1
   1   0 -10 38920.6 1652.13   2
  -1   0   9 5358.33 599.973   1
   1   0  -9 6788.18 645.465   2
  -1   0   8 142650. 3567.19   1
   1   0  -8 141484. 3516.60   2
  -1   0   7 1693.60 316.912   1
   1   0  -7 2308.70 369.930   2
   1   0  -7 2783.60 394.980   6
   1   0  -7 1896.66 331.198   1
  -1   0   6 7175.51 559.726   1
   1   0  -6 7285.92 575.319   6
   1   0  -6 6704.14 569.814   2
   1   0  -6 7413.76 562.617   1
   1   0  -5 303492. 5762.57   1
   1   0  -5 295289. 5859.57   2
  -1   0   5 299130. 5752.53   1
  -1   0   4 18102.8 820.056   6
   1   0  -4 16346.7 687.585   1
   1   0  -4 15894.0 778.771   2
  -1   0   4 15975.8 695.487   1
   1   0  -3 10874.0 582.164   2
   1   0  -3 11103.9 497.670   1
  -1   0   3 12423.5 623.543   6
  -1   0   3 12019.1 509.350   1
   1   0  -2 268227. 5044.83   2
  -1   0   2 273934. 4886.01   3
   1   0  -1 567.622 160.699   2
   1   0   0 538731. 9181.57   2
  -1   0  -1 348671. 6219.23   5
   1   0   1 329550. 6085.86   1
   1   0   1 341282. 5920.52   2
  -1   0  -2 65078.7 1635.28   5
   1   0   2 61868.8 1352.15   4
   1   0   2 67330.4 1599.06   1
  -1   0  -3 241026. 4527.95   4
   1   0   3 255180. 4909.54   1
   1   0   4 111636. 2676.99   1
   1   0   5 893.403 114.807   6
   1   0   5 1477.55 327.459   1
  -1   0  -5 1003.74 103.631   2
  -1   0  -5 1027.73 123.578   6
  -1   0  -6 62061.6 1432.59   6
  -1   0  -6 62776.0 1351.60   2
   1   0   6 66982.1 2088.89   1
   1   0   6 64280.2 1399.66   6
   1   0   7 51062.0 1872.81   1
  -1   0  -7 46358.1 1236.69   6
  -1   0  -7 47545.9 1170.47   2
   1   0   7 48983.7 1223.49   6
  -1   0  -8 21409.9 809.228   6
  -1   0  -8 23167.1 775.519   2
   1   0   8 22583.4 1276.89   1
   1   0   9 28906.9 1512.36   1
  -1   0  -9 25408.2 957.157   6
  -1   0  -9 27977.0 929.526   2
  -1   0 -10 5644.09 430.566   2
  -1   0 -10 5682.33 455.012   6
   1   0  10 6508.34 778.932   1
  -1   0 -11 8482.97 538.993   2
   1   0  11 10119.8 1003.50   1
   1   0  12 37851.0 2006.01   1
   1   0  13 12617.6 1207.21   1
   1   0  14 44378.0 2401.56   1
   1   0  15 55860.4 2834.49   1
   1   0  16 9556.79 1179.57   1
  -1  -1  17 1876.26 575.498   1
  -1  -1  16 11360.0 1172.47   1
   1   1 -15 32697.6 1823.07   2
  -1  -1  15 33315.9 1963.00   1
   1   1 -14 5529.00 722.646   2
  -1  -1  14 4247.44 684.821   1
   1   1 -13 506.034 327.558   2
  -1  -1  13 974.583 376.329   1
  -1  -1  12 109966. 3433.72   1
   1   1 -12 112547. 3421.73   2
  -1  -1  11 710.033 312.366   1
   1   1 -11 720.694 307.265   2
  -1  -1  11 929.774 324.653   6
  -1  -1  10-126.156 199.415   6
  -1  -1  10-62.3915 163.993   1
  -1  -1   9 119429. 3296.30   6
  -1  -1   9 116554. 3134.09   1
  -1  -1   8 5440.28 521.978   1
  -1  -1   8 4973.02 545.677   6
   1   1  -8 5386.11 530.869   1
  -1  -1   7 111567. 2940.14   6
   1   1  -7 111788. 2727.26   1
   1   1  -6 453.794 217.091   6
   1   1  -6 238.618 138.624   1
  -1  -1   6 338.632 185.782   1
  -1  -1   6 515.009 190.361   6
  -1  -1   5 2147.11 248.710   1
   1   1  -5 1785.28 232.909   1
  -1  -1   5 2075.96 347.322   6
  -1  -1   4 347261. 6246.44   1
   1   1  -4 349144. 6273.17   1
  -1  -1   4 362008. 6790.24   6
   1   1  -3 1506.11 159.806   1
  -1  -1   3 1558.87 142.631   1
  -1  -1   2 61393.3 1653.41   6
  -1  -1   1 766754. 13192.4   6
   1   1   0 22875.3 608.949   1
  -1  -1   0 24687.9 860.430   5
  -1  -1   0 22873.6 767.176   6
   1   1   1 14792.1 560.588   1
  -1  -1  -1 15328.2 672.359   4
   1   1   1 14858.3 525.480   6
  -1  -1  -1 15262.9 535.866   6
  -1  -1  -1 15050.6 706.540   5
   1   1   2 516.988 167.534   1
   1   1   2 517.244 155.037   4
  -1  -1  -2 214.801 157.148   4
  -1  -1  -2 365.828 98.0509   6
   1   1   2 531.345 104.173   6
   1   1   3 89307.3 2204.00   1
  -1  -1  -3 87846.7 2183.82   4
  -1  -1  -4 23931.7 973.189   4
   1   1   4 23279.7 1026.40   1
   1   1   4 22198.5 568.342   2
   1   1   5 50418.5 1708.01   1
   1   1   5 47766.7 1038.21   2
   1   1   6 40005.1 1539.67   1
  -1  -1  -6 32007.8 751.314   6
   1   1   7 194734. 4461.59   1
  -1  -1  -7 174725. 3254.59   6
  -1  -1  -8 26332.9 780.572   6
   1   1   8 28806.1 1453.74   1
   1   1   9 50443.6 2115.40   1
  -1  -1  -9 47726.0 1242.01   6
   1   1  10 40364.8 1927.46   1
  -1  -1 -10 36225.6 1092.37   6
   1   1  11 4987.94 713.289   1
   1   1  12-442.901 363.403   1
   1   1  13 46823.2 2403.66   1
   1   1  14 13993.4 1348.37   1
   1   1  15 36963.6 2290.05   1
  -1  -2  16 14855.2 1323.29   1
  -1  -2  15 91.7770 256.522   1
   1   2 -15 323.296 363.448   2
   1   2 -14 54616.0 2423.84   2
  -1  -2  14 54047.1 2376.65   1
  -1  -2  14 53523.1 2469.07   6
  -1  -2  13 408.740 239.512   1
  -1  -2  13 221.252 223.418   6
  -1  -2  12 2409.39 493.287   6
  -1  -2  12 3628.84 553.544   1
  -1  -2  11 100651. 3258.14   6
  -1  -2  11 98364.6 2999.59   1
  -1  -2  10 31085.9 1619.09   6
  -1  -2  10 31771.0 1442.65   1
  -1  -2   9 37023.9 1713.67   6
  -1  -2   9 36554.4 1467.63   1
  -1  -2   8 94143.1 2501.49   1
   1   2  -8 94369.9 2474.60   1
  -1  -2   8 94189.0 2905.91   6
   1   2  -7 27119.6 1049.61   1
  -1  -2   7 26055.1 1334.82   6
  -1  -2   7 25644.1 1037.12   1
  -1  -2   6 47149.6 1404.90   1
  -1  -2   6 51798.8 1881.15   6
   1   2  -6 50891.4 1408.91   1
  -1  -2   5 25927.4 851.604   1
   1   2  -5 26062.2 839.136   1
  -1  -2   5 27472.4 1267.91   6
  -1  -2   4 16236.3 926.432   6
  -1  -2   4 16655.7 555.924   1
  -1  -2   3 89927.6 2392.14   6
  -1  -2   3 84528.2 1626.97   1
  -1  -2   2 1488.35 388.105   6
   1   2  -2 832.082 224.505   5
  -1  -2   1 450.002 87.7793   1
   1   2  -1 748.028 241.152   5
  -1  -2   1 435.787 233.986   6
  -1  -2   0 391186. 7164.51   5
   1   2   0 377435. 6563.39   3
  -1  -2   0 368263. 6760.56   1
  -1  -2   0 389465. 7331.83   4
   1   2   0 396353. 7207.33   6
   1   2   0 385686. 6774.16   1
  -1  -2   0 371615. 7120.61   6
   1   2   1 22001.8 853.249   6
   1   2   1 20778.5 770.684   1
  -1  -2  -1 20190.8 768.682   1
  -1  -2  -1 21398.4 941.191   5
  -1  -2  -1 19483.7 814.753   6
  -1  -2  -1 20541.8 961.146   4
  -1  -2  -2 10189.6 690.291   4
  -1  -2  -2 10408.3 541.989   6
   1   2   2 9571.71 558.653   1
  -1  -2  -2 10340.8 596.101   1
   1   2   3 152029. 3347.20   1
  -1  -2  -3 156762. 3427.03   1
  -1  -2  -3 152715. 3550.66   4
  -1  -2  -4 4096.93 556.618   4
   1   2   4 3194.12 441.753   1
  -1  -2  -4 3344.53 342.579   6
   1   2   5 21352.5 1103.10   1
  -1  -2  -5 23396.6 1178.59   4
   1   2   6 30724.8 1413.52   1
   1   2   6 30731.8 962.100   2
   1   2   7 70634.8 1679.90   2
   1   2   7 73174.8 2439.03   1
  -1  -2  -7 64317.4 1520.17   6
   1   2   8 247588. 4613.12   2
   1   2   8 253241. 5779.67   1
   1   2   9 6488.08 749.925   1
  -1  -2  -9 4959.41 323.537   6
   1   2  10 45948.0 2189.31   1
   1   2  11 94381.8 3403.77   1
   1   2  12 5446.13 787.034   1
   1   2  13 1272.45 508.780   1
   1   2  14 15757.3 1495.44   1
   1   2  15 1148.11 513.946   1
  -1  -3  16 21194.8 1655.52   6
  -1  -3  15 21715.6 1639.46   6
  -1  -3  14 18419.9 1308.37   1
  -1  -3  14 18737.6 1472.46   6
  -1  -3  13 33283.6 1919.01   6
  -1  -3  13 31570.8 1662.70   1
  -1  -3  12 16699.3 1110.59   1
  -1  -3  12 15407.6 1272.52   6
  -1  -3  11 25508.9 1319.75   1
  -1  -3  11 25785.3 1600.23   6
  -1  -3  10 51372.3 1855.31   1
  -1  -3  10 50161.2 2228.60   6
  -1  -3   9 32173.0 1339.02   1
  -1  -3   9 33589.9 1721.85   6
   1   3  -9 29471.5 1263.12   1
  -1  -3   8 61265.4 1855.86   1
  -1  -3   8 62134.8 2376.39   6
  -1  -3   7 46393.4 1460.00   1
  -1  -3   7 46897.8 1987.95   6
  -1  -3   6 34396.1 1122.01   1
  -1  -3   6 37223.8 1685.14   6
  -1  -3   5 8891.11 464.952   1
  -1  -3   5 9114.63 502.927   3
  -1  -3   5 9555.92 815.838   6
  -1  -3   4 58814.6 2073.40   6
   1   3  -4 55261.3 1919.13   4
  -1  -3   4 56196.9 1331.64   1
  -1  -3   4 56558.2 1376.42   3
  -1  -3   3 29508.9 798.692   3
   1   3  -3 29846.8 1058.13   5
  -1  -3   3 28994.4 1383.11   6
   1   3  -2 93756.5 2237.68   5
  -1  -3   2 87168.3 1750.37   3
  -1  -3   2 92478.2 2603.74   6
   1   3  -1 283.568 78.9712   3
  -1  -3   1 797.320 347.761   6
   1   3  -1 371.335 242.544   6
  -1  -3   1 419.431 212.390   5
  -1  -3   1 225.381 135.161   1
  -1  -3   0 63310.1 2004.64   6
  -1  -3   0 71256.9 2190.75   4
  -1  -3   0 66284.6 1701.46   1
   1   3   0 67059.6 1503.37   3
   1   3   0 69060.1 2079.52   6
  -1  -3   0 67181.7 1952.64   5
  -1  -3  -1 139787. 3112.63   1
  -1  -3  -1 138998. 3565.19   4
   1   3   1 143374. 2886.06   3
  -1  -3  -1 137222. 3348.50   6
   1   3   2 74831.4 1891.60   3
  -1  -3  -2 75846.2 2083.20   1
  -1  -3  -2 69444.9 2061.30   6
   1   3   2 78153.7 2098.20   1
  -1  -3  -3 11254.3 697.062   6
  -1  -3  -3 9684.06 700.014   1
   1   3   3 10772.8 734.134   1
  -1  -3  -4 354767. 6942.87   6
   1   3   4 376507. 7350.97   1
  -1  -3  -5 57341.8 1709.71   6
   1   3   5 59915.3 2088.17   1
   1   3   6 19638.0 1172.93   1
   1   3   7 2603.98 328.593   2
   1   3   7 2677.44 482.568   1
   1   3   8 5501.71 469.093   2
   1   3   8 5792.90 711.339   1
   1   3   9 48787.1 2244.13   1
   1   3  10 7169.41 876.533   1
   1   3  11 2635.09 604.213   1
   1   3  12 104572. 3897.75   1
   1   3  13 3269.19 723.170   1
   1   3  14 414.235 360.280   1
  -1  -4  16 19543.7 1666.96   6
  -1  -4  15 36031.9 2245.25   6
  -1  -4  14 19424.5 1611.61   6
  -1  -4  13 2081.19 555.638   6
  -1  -4  12 4145.39 722.341   6
  -1  -4  12 4367.28 562.204   1
  -1  -4  11 1216.22 283.940   1
  -1  -4  11 685.056 371.603   6
  -1  -4  10 76164.8 2337.27   1
  -1  -4  10 73941.4 2978.58   6
  -1  -4   9 32681.2 1822.92   6
  -1  -4   9 31168.5 1314.91   1
  -1  -4   8 6027.59 831.312   6
  -1  -4   8 6829.27 568.902   1
  -1  -4   7 271.990 131.859   3
  -1  -4   7 216.108 236.117   6
   1   4  -7 565.011 257.934   4
  -1  -4   7 267.733 141.726   1
  -1  -4   6 67844.5 2612.26   6
   1   4  -6 64183.6 1822.31   5
  -1  -4   6 64629.9 1791.31   3
  -1  -4   6 67453.5 1759.21   1
   1   4  -6 66233.5 2343.57   4
   1   4  -5 9814.21 816.904   4
   1   4  -5 8765.47 557.587   5
  -1  -4   5 9079.77 514.069   3
  -1  -4   5 8898.29 868.949   6
  -1  -4   5 9113.22 503.116   1
   1   4  -4 39961.5 1302.58   5
   1   4  -4 36024.1 1674.67   4
  -1  -4   4 39149.9 1109.79   3
  -1  -4   4 40306.1 1830.22   6
   1   4  -3 38933.8 1703.65   4
  -1  -4   3 37207.2 1032.12   3
  -1  -4   3 39892.7 1762.17   6
  -1  -4   2 4351.82 302.821   3
   1   4  -2 4586.70 306.271   3
  -1  -4   1 180672. 4056.66   5
  -1  -4   1 175524. 4459.90   6
   1   4  -1 188855. 3554.92   3
  -1  -4   1 179465. 3816.52   1
  -1  -4   0 10021.4 823.025   6
  -1  -4   0 10475.3 647.254   1
   1   4   0 10732.3 535.094   3
  -1  -4   0 9793.49 726.816   5
  -1  -4  -1 6321.12 661.290   6
  -1  -4  -1 6739.75 625.787   5
  -1  -4  -1 6423.27 538.202   1
   1   4   1 7596.15 494.377   3
   1   4   2 22736.8 968.213   3
  -1  -4  -2 23178.4 1211.26   6
  -1  -4  -3 9523.91 762.474   6
   1   4   3 9857.46 666.340   3
   1   4   4 26952.1 1224.19   3
  -1  -4  -4 24729.7 1229.06   6
   1   4   4 25645.9 1317.49   1
  -1  -4  -5 105634. 2874.90   6
   1   4   5 101967. 3104.52   1
   1   4   5 102077. 2915.69   3
   1   4   6 57640.3 2265.91   1
  -1  -4  -6 56020.4 1917.95   6
   1   4   7 10328.5 957.627   1
  -1  -4  -7 8530.95 682.415   6
  -1  -4  -8 21588.0 1073.22   6
   1   4   8 21453.3 1469.75   1
   1   4   9 19181.7 1420.02   1
   1   4  10 1614.97 538.127   1
   1   4  11 13928.4 1312.23   1
   1   4  12 656.387 367.918   1
   1   4  13 68338.9 3289.89   1
  -1  -5  15 1817.89 532.329   6
  -1  -5  14 37638.3 2385.57   6
  -1  -5  13 10762.0 1245.55   6
  -1  -5  12 794.032 435.467   6
   1   5 -11 24060.8 1528.82   4
  -1  -5  11 22660.7 1714.00   6
   1   5 -10 17592.6 1271.16   4
  -1  -5  10 14345.3 1333.30   6
   1   5  -9 1658.22 440.769   4
  -1  -5   9 2037.43 532.543   6
  -1  -5   9 2221.65 334.292   1
   1   5  -8 61248.2 2479.57   4
  -1  -5   8 64572.0 1938.39   1
  -1  -5   8 64121.9 2804.15   6
   1   5  -7 9394.94 936.828   4
  -1  -5   7 10050.9 654.750   1
  -1  -5   7 10698.2 1098.33   6
  -1  -5   6 257.476 137.553   3
   1   5  -6 158.937 272.762   4
  -1  -5   6 101.799 120.211   1
  -1  -5   5 70450.2 1880.55   1
   1   5  -5 68580.8 2607.70   4
  -1  -5   5 70045.1 2792.32   6
  -1  -5   5 66199.7 1781.93   3
  -1  -5   4 4291.78 343.636   3
   1   5  -4 4608.08 639.362   4
  -1  -5   4 4754.43 674.595   6
   1   5  -3 153861. 4294.56   4
  -1  -5   3 154879. 4373.34   6
  -1  -5   3 152544. 3169.03   3
  -1  -5   2 18071.0 1251.10   6
   1   5  -2 18072.3 728.897   3
  -1  -5   2 16036.6 834.458   1
   1   5  -2 17767.9 1265.94   4
  -1  -5   2 15560.1 687.395   3
   1   5  -1 14737.0 696.249   3
  -1  -5   1 14710.6 905.485   5
   1   5  -1 15371.1 1209.08   4
  -1  -5   1 15376.6 876.253   1
  -1  -5   1 16029.0 1211.36   6
  -1  -5   0 82103.1 2875.06   6
  -1  -5   0 81197.5 2406.76   1
  -1  -5   0 90397.6 2665.46   5
   1   5   0 88802.0 2172.73   3
  -1  -5  -1 16792.6 1175.55   6
  -1  -5  -1 18434.7 1130.82   5
   1   5   1 17708.8 848.017   3
  -1  -5  -2 18916.0 1226.21   6
   1   5   2 18979.5 944.214   3
   1   5   3 22413.4 1111.56   3
  -1  -5  -3 21741.3 1327.10   6
   1   5   4 323.049 164.607   3
  -1  -5  -4 20.5575 234.914   6
   1   5   5 19830.3 1165.27   3
  -1  -5  -5 20277.8 1232.72   6
  -1  -5  -6 29661.8 1493.40   6
   1   5   6 28127.9 1503.47   3
  -1  -5  -7 18055.7 1159.31   6
   1   5   7 18430.3 1252.19   3
   1   5   8 22671.7 1463.24   3
   1   5   9 85119.8 3172.16   3
   1   5   9 83033.9 3320.47   1
   1   5  10 12056.5 1183.62   3
   1   5  10 13824.8 1321.91   1
   1   5  11 15432.1 1388.19   3
   1   5  11 15120.2 1452.56   1
   1   5  12 20475.8 1739.11   1
   1   5  12 20474.7 1662.06   3
   1   5  13 4717.92 868.251   3
  -1  -6  13 37705.9 2468.25   6
  -1  -6  12 1500.72 609.947   6
   1   6 -11 3562.44 650.500   4
  -1  -6  11 3604.29 772.532   6
   1   6 -10 106145. 3676.20   4
  -1  -6  10 106851. 4176.64   6
   1   6  -9 1574.71 461.205   4
  -1  -6   9 1813.79 612.130   6
   1   6  -8 57237.3 2549.67   4
  -1  -6   8 59002.6 2883.12   6
  -1  -6   7 90769.8 3620.64   6
   1   6  -7 87356.5 3233.88   4
  -1  -6   6 1004.00 431.421   6
  -1  -6   6 1007.63 281.696   1
   1   6  -6 1185.45 412.580   4
   1   6  -5 37925.6 2007.16   4
  -1  -6   5 36288.7 2105.01   6
   1   6  -4 4616.77 709.591   4
  -1  -6   4 3755.97 695.975   6
   1   6  -3-34.1506 298.686   4
  -1  -6   3 655.547 405.554   6
  -1  -6   2 130458. 4280.20   6
   1   6  -2 146333. 3181.51   3
  -1  -6   1 5917.67 802.077   6
  -1  -6   1 6222.29 645.512   5
   1   6  -1 5542.00 460.231   3
  -1  -6   0 41766.4 2145.35   6
   1   6   0 47020.9 1553.95   3
  -1  -6   0 43465.1 1851.65   5
  -1  -6  -1 36513.2 1932.01   6
  -1  -6  -1 36530.5 1752.94   5
   1   6   1 36265.5 1398.49   3
  -1  -6  -2 19172.4 1310.69   5
  -1  -6  -2 17927.0 1352.83   6
   1   6   2 19335.8 1031.23   3
  -1  -6  -3 3459.15 592.499   6
   1   6   3 3948.68 489.883   3
  -1  -6  -4 70405.2 2755.84   6
   1   6   4 74854.8 2481.88   3
  -1  -6  -5 457.299 284.931   6
   1   6   5 113.653 214.524   3
  -1  -6  -6 16269.7 1224.52   6
   1   6   6 16891.1 1209.93   3
   1   6   7 35745.5 1853.51   3
   1   6   8 820.704 445.492   3
   1   6   9 28840.0 1799.40   3
   1   6  10 27143.4 1818.25   3
   1   6  11 34237.1 2158.07   3
   1   6  12 51085.5 2761.93   3
  -1  -7  11 964.752 554.257   6
  -1  -7  10 2744.82 702.433   6
   1   7 -10 2574.01 591.118   4
  -1  -7   9 81723.3 3699.36   6
   1   7  -9 70160.9 3075.36   4
   1   7  -8 15212.3 1366.68   4
  -1  -7   8 17979.5 1671.17   6
  -1  -7   7 848.751 493.814   6
   1   7  -7 1292.67 500.036   4
   1   7  -6 65324.6 2945.47   4
  -1  -7   6 71362.4 3305.85   6
   1   7  -5 23028.8 1671.48   4
  -1  -7   5 21932.4 1743.25   6
  -1  -7   4 19969.9 1630.91   6
  -1  -7   3 97.9850 350.401   6
  -1  -7   2 2468.58 608.457   6
  -1  -7   1 31277.6 1997.28   6
  -1  -7   1 35100.7 1636.62   5
  -1  -7   0 13607.0 1312.35   6
  -1  -7   0 15796.6 1136.99   5
  -1  -7  -1 25423.9 1751.79   6
  -1  -7  -1 24162.5 1506.09   5
   1   7   1 27204.6 1260.35   3
  -1  -7  -2 39227.6 2182.43   6
   1   7   2 43157.8 1719.08   3
  -1  -7  -2 41136.2 2091.75   5
  -1  -7  -3 10351.3 1079.04   5
  -1  -7  -3 9173.22 1054.72   6
   1   7   3 8348.74 794.776   3
   1   7   4 3324.65 518.316   3
  -1  -7  -4 4347.31 742.386   6
  -1  -7  -5 56384.5 2644.96   6
   1   7   5 68473.4 2536.45   3
   1   7   6 5128.25 705.087   3
   1   7   7 1206.23 387.997   3
   1   7   8 23298.8 1623.56   3
   1   7   9 234.665 302.813   3
   1   7  10 7290.37 1001.63   3
   1   7  11 474.262 414.000   3
  -1  -8   8 19414.7 1856.06   6
  -1  -8   7 3866.82 869.370   6
  -1  -8   6 11273.2 1426.69   6
  -1  -8   5 51841.2 2926.76   6
  -1  -8   4 135.963 390.794   6
  -1  -8   3 5119.23 930.232   6
  -1  -8   2 38275.4 2405.55   6
  -1  -8   1 17004.6 1591.42   6
  -1  -8   0 881.130 435.541   6
  -1  -8  -1 17249.6 1538.77   6
  -1  -8  -2 482.006 376.049   6
  -1  -8  -2 745.441 372.707   5
  -1  -8  -3 23309.7 1776.29   6
  -1  -8  -3 25074.9 1756.00   5
  -1  -8  -4 3664.94 720.355   5
  -1  -8  -4 3905.12 759.539   6
  -1  -8  -5 1124.29 468.260   5
  -1  -9   2 561.671 405.796   6
  -1  -9   1 48870.1 2920.24   6
  -1  -9   0 9592.83 1256.25   6
  -1  -9  -1 2473.13 786.297   6
  -1  -9  -2 5637.54 966.107   6
  -1  -9  -3 6397.88 1056.32   6
  -2   9   5 27228.4 1942.04   3
  -2   9   4 516.840 430.905   3
  -2   9   3 3998.94 739.680   3
   2  -9  -2 1198.68 496.725   6
  -2   9   2 1733.68 512.193   3
  -2   9   1 2770.18 627.131   3
   2  -9  -1 3085.36 844.080   6
   2  -9   0 4489.96 969.516   6
  -2   9   0 7207.78 937.653   3
  -2   9  -1 14883.5 1302.40   3
   2  -9   1 18321.5 1832.32   6
   2  -9   2 11064.2 1451.95   6
  -2   9  -2 9105.89 1024.37   3
  -2   9  -3 16584.1 1374.69   3
  -2   9  -4 16202.0 1350.87   3
  -2   8   7 33918.7 2181.77   3
  -2   8   6 733.602 444.578   3
  -2   8   5 117.885 320.109   3
  -2   8   4 82384.4 3313.21   3
  -2   8   3 41.7638 282.410   3
  -2   8   2 6619.30 879.755   3
  -2   8   1 41346.0 2164.26   3
   2  -8   0 25145.2 1979.46   6
  -2   8   0 25913.7 1658.51   3
  -2   8  -1 32.9426 259.210   3
   2  -8   1-16.3735 373.037   6
   2  -8   2 31478.0 2240.05   6
  -2   8  -2 31343.5 1812.72   3
  -2   8  -3 169.576 264.402   3
   2  -8   3 1012.81 589.372   6
   2  -8   4 83361.0 3833.55   6
  -2   8  -4 81790.1 3112.12   3
  -2   8  -5 10280.8 1042.03   3
   2  -8   5 10764.2 1338.55   6
   2  -8   6 1341.58 529.523   6
   2  -8   7 43163.1 2700.06   6
   2  -8   7 42109.8 2274.39   1
   2  -8   8 7098.02 1123.24   6
   2  -8   8 6174.17 858.132   1
   2  -8   9 685.541 512.005   6
   2  -8   9-42.9972 324.427   1
   2  -8  10 8004.81 989.733   1
  -2   7   9 11458.0 1288.70   3
  -2   7   8 67962.6 3126.72   3
  -2   7   7-57.7124 301.030   3
  -2   7   6 17173.2 1420.62   3
  -2   7   5 2082.99 542.449   3
  -2   7   4 1314.17 414.566   3
  -2   7   3 67048.2 2741.90   3
  -2   7   2 626.245 353.358   3
  -2   7   1 6999.94 839.527   3
  -2   7   0 158887. 4544.54   3
  -2   7  -1 3311.62 581.141   3
   2  -7   2 763.719 468.361   6
  -2   7  -2-42.5654 290.239   3
   2  -7   3 14848.7 1446.53   6
  -2   7  -3 15657.3 1187.19   3
  -2   7  -4 257.267 313.535   3
   2  -7   4 739.057 410.064   6
   2  -7   5 63779.0 3105.60   6
  -2   7  -5 64955.6 2596.13   3
   2  -7   6 204.069 439.633   6
   2  -7   7 21162.6 1746.42   6
   2  -7   7 20364.0 1475.84   1
   2  -7   8 38035.5 2367.42   6
   2  -7   8 35451.3 2001.57   1
   2  -7   9 2445.98 685.495   6
   2  -7   9 1786.16 489.701   1
   2  -7  10 6614.09 1022.42   6
   2  -7  10 7600.68 952.698   1
   2  -7  11 28667.3 1890.45   1
   2  -7  11 29944.0 2136.76   6
   2  -7  12 5329.35 853.790   1
   2  -7  12 3897.56 802.649   6
   2  -7  13-542.951 533.704   6
  -2   6  11 6284.01 974.491   3
  -2   6  10 41147.9 2416.61   3
  -2   6   9 11313.5 1210.28   3
  -2   6   8 31193.7 1952.79   3
  -2   6   7 49332.1 2438.90   3
  -2   6   6 134808. 4264.56   3
  -2   6   5 10824.1 1036.63   3
  -2   6   4 29911.3 1702.63   3
  -2   6   3 1955.18 477.931   3
  -2   6   2 3717.13 573.190   3
  -2   6   1 3906.77 592.577   3
  -2   6   0 25455.5 1458.60   3
  -2   6  -1 148474. 4114.05   3
  -2   6  -2 118030. 3524.07   3
  -2   6  -3 3568.80 576.217   3
   2  -6   4 39283.7 2221.94   6
  -2   6  -4 45029.4 1975.09   3
   2  -6   5 379.264 403.208   6
  -2   6  -5 412.123 219.633   3
   2  -6   6 786.499 428.975   6
   2  -6   7 3080.66 613.684   6
   2  -6   7 2357.21 515.925   1
   2  -6   8 7456.09 970.022   6
   2  -6   8 8302.86 922.941   1
   2  -6   9 47808.0 2482.07   6
   2  -6   9 52236.5 2391.64   1
   2  -6  10 863.791 432.875   6
   2  -6  10 639.139 384.012   1
   2  -6  11 633.523 365.601   6
   2  -6  11 1499.02 490.324   1
   2  -6  12 49398.8 2544.68   1
   2  -6  12 48971.0 2633.95   6
   2  -6  13 202.579 365.063   6
   2  -6  13-329.602 310.281   1
   2  -6  14 1902.29 637.135   1
  -2   5  12 51493.6 2785.31   3
  -2   5  11 856.162 442.570   3
  -2   5  10 212.676 327.843   3
  -2   5   9 15464.3 1346.27   3
  -2   5   8 21294.8 1535.49   3
  -2   5   7 27152.5 1672.11   3
  -2   5   6-18.9368 300.201   3
  -2   5   5 52867.1 2275.74   3
  -2   5   4 59865.9 2353.79   3
  -2   5   3 65086.6 2417.21   3
  -2   5   2 507.200 314.978   3
  -2   5   1 3733.97 521.186   3
  -2   5   0 1106.77 317.466   3
  -2   5  -1 44486.2 1838.85   3
  -2   5  -2 62649.4 2246.93   3
  -2   5  -3 93156.8 2902.79   3
   2  -5   4 9263.36 711.597   4
  -2   5  -4 10936.0 890.095   3
  -2   5  -5 157658. 4098.72   3
   2  -5   5 152710. 4474.17   6
   2  -5   6 1671.70 506.903   6
   2  -5   6 1725.65 421.357   1
   2  -5   7 7380.67 926.449   6
   2  -5   7 10366.3 942.578   1
   2  -5   8 41085.0 2091.85   6
   2  -5   8 40797.1 1974.53   1
   2  -5   9 5832.33 773.917   6
   2  -5   9 7768.52 847.280   1
   2  -5  10 55017.9 2476.93   1
   2  -5  10 55390.2 2506.21   6
   2  -5  11 8100.11 944.070   1
   2  -5  11 5938.26 833.162   6
   2  -5  12 5642.58 846.313   1
   2  -5  12 6761.62 889.908   6
   2  -5  13 58613.4 2713.53   6
   2  -5  13 55520.5 2767.66   1
   2  -5  14 1486.46 508.686   1
   2  -5  15 197.149 387.955   1
  -2   4  13 11307.0 1275.98   3
  -2   4  12 4196.46 744.690   3
  -2   4  11 64526.3 2938.05   3
  -2   4  10 1127.14 487.751   3
  -2   4   9-200.881 260.867   3
  -2   4   8 16179.9 1255.07   3
  -2   4   7 1633.31 427.486   3
  -2   4   6 25685.8 1498.99   3
  -2   4   5 16399.9 1136.65   3
  -2   4   4 5174.49 630.729   3
  -2   4   3 161958. 4125.30   3
  -2   4   2 77165.3 2474.42   3
  -2   4   1 73856.9 2369.71   3
  -2   4   0 178978. 4305.75   3
  -2   4  -1 42191.5 1676.61   3
  -2   4  -2 54.9974 195.867   3
   2  -4   3 39110.0 1405.72   4
  -2   4  -3 39097.3 1619.42   3
   2  -4   3 37486.0 1073.09   5
   2  -4   4 26302.0 1048.65   4
  -2   4  -4 24797.2 1298.88   3
   2  -4   5 30197.0 1563.87   6
   2  -4   5 25821.7 963.573   4
   2  -4   6 93719.0 3064.57   6
   2  -4   6 90261.3 2913.60   1
   2  -4   7 46635.6 2045.11   6
   2  -4   7 46521.7 1978.94   1
   2  -4   8 66771.3 2535.89   6
   2  -4   8 66751.0 2514.87   1
   2  -4   9 66167.0 2541.65   6
   2  -4   9 67033.0 2599.76   1
   2  -4  10 587.457 325.895   1
   2  -4  10 66.5921 262.186   6
   2  -4  11 23852.0 1596.52   1
   2  -4  11 24118.2 1498.57   6
   2  -4  12 7159.03 834.386   6
   2  -4  12 7205.95 916.276   1
   2  -4  13 2074.45 528.777   1
   2  -4  13 1544.04 428.085   6
   2  -4  14 28293.8 1958.36   1
   2  -4  15 2301.70 613.453   1
  -2   3  14 1680.90 604.092   3
  -2   3  13 49817.4 2651.45   3
  -2   3  12 8873.09 1069.39   3
  -2   3  11 3867.46 682.702   3
  -2   3  10 109456. 3726.22   3
  -2   3   9-248.702 299.152   3
  -2   3   8 105.451 254.191   3
  -2   3   7 97154.5 3145.21   3
  -2   3   6 802.187 342.316   3
  -2   3   5 41257.8 1762.30   3
  -2   3   4 197969. 4676.41   3
  -2   3   3 14094.1 915.397   3
  -2   3   2 102459. 2808.05   3
  -2   3   1 27136.7 1229.61   3
  -2   3   0 49836.5 1740.24   3
  -2   3  -1 440798. 8492.83   3
  -2   3  -2 4474.56 502.028   3
   2  -3   3 19699.3 767.382   5
  -2   3  -3 20441.2 1071.78   3
  -2   3  -4 99557.6 2731.66   3
   2  -3   4 90364.5 2016.34   4
   2  -3   5 33285.8 1498.03   1
   2  -3   6 11643.1 872.477   1
   2  -3   6 12894.1 901.890   6
   2  -3   7 5340.98 597.561   6
   2  -3   7 5086.47 632.360   1
  -2   3  -7 5180.93 448.941   5
   2  -3   8 69986.5 2386.25   6
  -2   3  -8 76519.9 2124.35   5
   2  -3   8 71593.9 2587.92   1
   2  -3   9 268330. 6533.87   1
   2  -3   9 283748. 6183.30   6
  -2   3  -9 283189. 5854.24   5
   2  -3  10 31579.7 1526.59   6
   2  -3  10 30412.3 1748.13   1
  -2   3 -10 32997.1 1447.36   5
  -2   3 -11 46313.9 1878.14   5
   2  -3  11 45971.4 2272.96   1
   2  -3  11 50965.4 2005.73   6
  -2   3 -12 8226.53 797.617   5
   2  -3  12 8150.19 978.925   1
   2  -3  12 7836.43 769.841   6
   2  -3  13 66767.3 2976.19   1
   2  -3  14 3443.86 693.168   1
   2  -3  15 4327.75 850.519   1
   2  -3  16 5895.85 971.037   1
  -2   2  15 259.679 383.870   3
  -2   2  14 34420.4 2183.05   3
  -2   2  13 1095.96 528.698   3
   2  -2 -12 70117.1 2777.28   2
  -2   2  12 66025.2 2891.18   3
  -2   2  11 6648.31 842.778   3
   2  -2 -11 6037.80 772.120   2
  -2   2  10 930.696 397.662   3
   2  -2 -10 622.105 316.107   2
   2  -2  -9 122292. 3629.09   2
  -2   2   9 123936. 3749.61   3
  -2   2   8 2455.37 482.380   3
   2  -2  -8 1519.12 398.656   2
  -2   2   7 345.057 276.329   3
   2  -2  -7-309.996 241.423   2
  -2   2   6 124871. 3383.22   3
   2  -2  -6 122768. 3407.58   2
   2  -2  -5 22131.2 1195.53   2
  -2   2   5 22524.7 1177.39   3
  -2   2   4 82778.5 2420.90   3
  -2   2   3 115773. 2941.97   3
  -2   2   2 81407.5 2247.37   3
  -2   2   1 38191.4 1365.29   3
  -2   2   0 1669.68 307.600   3
  -2   2  -1 65057.8 1908.08   3
  -2   2  -2 172072. 3837.91   3
   2  -2   3 95078.8 2278.61   5
  -2   2  -3 96119.1 2550.72   3
   2  -2   4 16722.3 954.433   1
   2  -2   5 256351. 5551.90   1
  -2   2  -5 254400. 5118.70   5
   2  -2   6 6218.80 542.830   6
  -2   2  -6 7401.42 564.942   5
   2  -2   6 7247.86 665.027   1
   2  -2   7 297.384 143.966   6
  -2   2  -7 669.539 257.330   5
   2  -2   7 746.876 268.234   1
  -2   2  -8 10116.4 760.570   5
   2  -2   8 10149.2 699.154   6
   2  -2   8 10652.2 915.247   1
   2  -2   9 4568.54 655.671   1
   2  -2   9 5476.84 526.099   6
   2  -2  10 102019. 3410.72   1
   2  -2  10 101099. 2747.73   6
   2  -2  11 3311.10 427.280   6
   2  -2  11 2149.19 564.363   1
   2  -2  12 38463.8 2112.73   1
   2  -2  12 37674.4 1507.44   6
   2  -2  13 26555.0 1831.08   1
   2  -2  14 19756.9 1613.24   1
   2  -2  15 4072.82 822.128   1
   2  -2  16 7568.23 1088.32   1
  -2   1  16 10874.5 1294.37   3
   2  -1 -15 36197.7 2063.83   2
  -2   1  15 39456.2 2368.31   3
   2  -1 -14 15693.6 1290.86   2
  -2   1  14 16004.2 1432.12   3
   2  -1 -13 48204.1 2255.10   2
  -2   1  13 43081.4 2310.49   3
  -2   1  12 2614.89 541.643   3
   2  -1 -12 1993.60 472.228   2
   2  -1 -11 10728.3 965.422   2
  -2   1  11 9862.00 994.816   3
  -2   1  10 3857.08 637.499   3
   2  -1 -10 2857.73 494.716   2
  -2   1   9 5072.51 643.849   3
   2  -1  -9 6391.24 700.601   2
   2  -1  -8 37250.3 1671.96   2
  -2   1   8 35205.6 1625.20   3
  -2   1   7 1122.08 338.713   3
   2  -1  -7 604.283 321.433   2
  -2   1   6 410.243 253.197   3
   2  -1  -6 525.963 262.744   2
   2  -1  -5 133473. 3186.60   1
   2  -1  -5 129415. 3329.53   2
  -2   1   5 127897. 3225.18   3
   2  -1  -4 18928.4 1007.25   2
   2  -1  -4 21037.0 952.424   1
  -2   1   4 20508.2 970.302   3
   2  -1  -3 63680.2 1930.55   2
  -2   1   3 63534.0 1825.25   3
   2  -1  -3 62160.8 1807.10   3
   2  -1  -2 82464.6 2247.99   2
  -2   1   2 81575.1 2128.12   3
   2  -1  -2 88607.9 2171.92   3
   2  -1  -1 8245.86 559.952   2
  -2   1   1 8424.49 532.919   3
   2  -1   0 22326.7 921.910   2
  -2   1   0 21772.8 893.043   3
  -2   1  -1 41942.9 1269.50   2
  -2   1  -1 39154.0 1295.36   3
   2  -1   2 23046.2 992.352   1
  -2   1  -2 23038.2 847.444   2
  -2   1  -2 22579.7 962.741   3
   2  -1   2 23198.1 961.289   5
   2  -1   3 46652.8 1567.26   1
  -2   1  -3 51745.9 1566.61   5
  -2   1  -3 46563.0 1293.56   2
   2  -1   3 48799.7 1534.13   5
  -2   1  -4 17665.5 884.904   5
   2  -1   4 14244.4 447.926   4
   2  -1   4 16060.9 907.100   1
  -2   1  -5 13223.3 822.658   5
   2  -1   5 15494.4 936.929   1
   2  -1   6 355044. 6394.50   6
  -2   1  -6 336040. 6972.09   5
   2  -1   6 337169. 7147.62   1
   2  -1   7 470.104 145.136   6
   2  -1   7 156.424 236.589   1
  -2   1  -8 754.220 113.693   4
   2  -1   8 952.035 332.537   1
   2  -1   8 1048.04 190.831   6
   2  -1   9 65507.9 1668.41   6
   2  -1   9 67717.8 2525.91   1
   2  -1  10 24453.8 1529.02   1
   2  -1  10 26219.1 967.962   6
   2  -1  11 163.700 128.450   6
   2  -1  11-184.411 281.697   1
   2  -1  12 2189.91 545.834   1
   2  -1  13 9577.42 1089.34   1
   2  -1  14 81589.5 3457.62   1
   2  -1  15 3017.83 732.882   1
  -2   0  16 16602.1 1438.77   1
   2   0 -15 4095.02 714.555   2
  -2   0  15 4506.03 735.139   1
   2   0 -14 6668.60 832.293   2
  -2   0  14 5859.08 799.000   1
   2   0 -13 33046.8 1856.97   2
  -2   0  13 34461.8 1863.39   1
   2   0 -12 42823.9 2086.64   2
  -2   0  12 42721.2 1992.03   1
   2   0 -11 18444.5 1273.83   2
  -2   0  11 17776.1 1185.15   1
  -2   0  10 2358.87 456.978   1
   2   0 -10 2098.68 474.815   2
   2   0  -9 43529.9 1899.79   2
  -2   0   9 44164.5 1756.65   1
   2   0  -8 2143.72 393.638   2
   2   0  -7 74706.4 2432.96   2
   2   0  -7 75206.3 2170.90   1
  -2   0   7 72827.2 2288.19   3
  -2   0   6 2895.18 396.649   3
   2   0  -6 2782.28 425.342   2
   2   0  -6 3209.41 374.999   1
  -2   0   5 15798.3 829.533   3
   2   0  -5 14231.4 908.149   2
   2   0  -5 15502.0 744.617   1
   2   0  -4 302283. 6166.68   2
   2   0  -4 306912. 5714.38   1
  -2   0   4 299924. 5843.59   3
   2   0  -3 54603.2 1746.56   2
  -2   0   3 57358.9 1553.26   3
   2   0  -3 55702.1 1524.88   3
   2   0  -2 1751.06 231.150   3
   2   0  -2 1354.47 279.635   2
  -2   0   2 1935.91 252.825   3
   2   0  -1 304662. 5752.74   2
  -2   0   1 294684. 5515.36   3
   2   0  -1 300547. 5498.02   3
  -2   0   0 13147.5 591.016   3
   2   0   0 13256.1 588.363   3
   2   0   0 12645.0 641.254   6
   2   0   0 11695.6 607.875   2
   2   0   1 23516.3 877.638   1
   2   0   1 22675.9 811.707   2
  -2   0  -1 21747.2 834.679   3
   2   0   1 22971.1 849.600   3
  -2   0  -2 32237.8 1279.89   5
   2   0   2 34245.3 958.716   2
   2   0   2 33589.6 1165.46   1
   2   0   2 31799.3 1105.50   3
   2   0   3 42596.0 1227.32   4
   2   0   3 42529.7 1398.39   3
  -2   0  -3 44579.1 1561.96   5
   2   0   3 44193.8 1470.20   1
  -2   0  -4 189501. 4328.99   5
   2   0   4 187638. 3738.96   4
   2   0   4 192965. 4240.13   1
   2   0   5 18576.0 518.475   6
  -2   0  -5 20417.1 1102.18   5
   2   0   5 21702.8 1113.70   1
  -2   0  -6 217.974 126.610   4
   2   0   6 555.089 289.756   1
  -2   0  -7 159880. 3429.39   4
   2   0   7 164481. 4197.73   1
   2   0   8 299.898 197.238   1
  -2   0  -8 365.306 140.238   4
  -2   0  -9 15402.7 819.128   4
   2   0   9 18625.1 1267.27   1
   2   0  10 71146.8 2720.30   1
  -2   0 -10 56360.6 1831.31   4
   2   0  11 38023.3 2036.94   1
   2   0  12 9.90772 300.697   1
   2   0  13 27955.1 1875.20   1
   2   0  14 483.208 330.489   1
   2   0  15 44365.5 2576.20   1
   2   1 -16 7680.73 977.209   2
  -2  -1  15 157.303 332.436   1
   2   1 -15-347.414 300.993   2
  -2  -1  14 43933.8 2136.84   1
   2   1 -14 43918.1 2255.67   2
  -2  -1  13-65.1068 233.749   1
   2   1 -13 36.4781 306.202   2
   2   1 -12 19537.0 1410.74   2
  -2  -1  12 16662.3 1172.81   1
  -2  -1  11 3461.03 505.600   1
   2   1 -11 3638.02 579.081   2
  -2  -1  10 54030.6 2256.75   6
  -2  -1  10 52717.8 1953.73   1
   2   1 -10 54604.6 2246.47   2
   2   1  -9 182160. 4667.52   2
  -2  -1   9 177266. 4181.30   1
  -2  -1   9 184160. 4735.63   6
  -2  -1   8 82965.3 2795.89   6
   2   1  -8 87456.4 2366.03   1
  -2  -1   8 83517.3 2336.75   1
   2   1  -7 59689.7 1750.74   1
  -2  -1   7 58956.2 1734.14   1
  -2  -1   7 61875.8 2206.91   6
   2   1  -6 203663. 4114.94   1
  -2  -1   6 205915. 4862.33   6
  -2  -1   5 8121.38 697.516   6
  -2  -1   5 7949.14 516.662   3
   2   1  -5 8056.08 442.424   1
   2   1  -4 61470.9 1415.70   1
  -2  -1   4 65250.3 2052.48   6
  -2  -1   4 62629.1 1602.61   3
  -2  -1   3 46489.7 1194.56   3
   2   1  -3 45723.8 1046.11   1
  -2  -1   3 45484.2 1625.20   6
   2   1  -2 123586. 2428.44   3
  -2  -1   2 124061. 2423.45   3
  -2  -1   2 125753. 2996.10   6
  -2  -1   1 38195.9 951.801   3
   2   1  -1 37872.0 947.471   3
  -2  -1   1 37874.5 1323.29   6
   2   1  -1 41711.3 1359.17   6
   2   1  -1 38205.2 952.769   1
   2   1   0 205637. 3836.97   3
   2   1   0 208208. 3916.62   1
  -2  -1   0 206001. 4183.80   6
   2   1   0 209944. 4229.99   6
  -2  -1  -1 63869.2 1641.17   1
  -2  -1  -1 67968.1 2028.68   5
   2   1   1 63450.4 1551.46   3
   2   1   1 66026.6 1666.77   1
  -2  -1  -1 65679.1 1664.95   6
   2   1   1 65779.9 1675.41   6
  -2  -1  -2 101977. 2755.71   5
   2   1   2 101656. 2550.31   4
   2   1   2 103539. 2467.78   1
  -2  -1  -2 103834. 2428.66   1
  -2  -1  -2 99797.8 2183.59   6
   2   1   2 101716. 2205.91   6
   2   1   3 4629.53 283.178   6
   2   1   3 4222.92 432.703   4
   2   1   3 5157.54 472.863   1
  -2  -1  -3 4473.73 453.996   1
  -2  -1  -3 4787.76 560.378   5
  -2  -1  -4 18363.6 1083.37   5
  -2  -1  -4 19041.0 902.109   4
   2   1   4 19495.9 990.490   1
   2   1   4 18537.9 895.523   4
   2   1   4 15994.2 487.006   2
  -2  -1  -4 18918.9 976.275   1
   2   1   5 276680. 5896.09   1
  -2  -1  -5 273117. 5563.74   4
   2   1   6 18861.0 1121.18   1
  -2  -1  -6 16452.0 898.863   4
   2   1   7 1939.23 428.448   1
  -2  -1  -7 1529.19 300.952   4
  -2  -1  -8 24827.8 1215.55   4
   2   1   8 25983.5 1477.56   1
   2   1   9 13211.0 1094.78   1
   2   1  10 19770.3 1395.21   1
   2   1  11 52671.6 2456.17   1
   2   1  12 82880.9 3309.77   1
   2   1  13 26826.8 1865.97   1
   2   1  14 64593.3 3120.06   1
   2   1  15 5049.58 897.862   1
   2   2 -16 72356.1 3191.29   2
   2   2 -15 6054.62 866.909   2
   2   2 -14 16381.0 1411.73   2
  -2  -2  13 82436.4 3256.75   6
   2   2 -13 83158.5 3217.71   2
  -2  -2  13 81655.8 2806.24   1
  -2  -2  12 1971.37 515.914   6
  -2  -2  12 1228.00 338.845   1
  -2  -2  11 13249.8 1144.41   6
  -2  -2  11 15187.1 980.716   1
  -2  -2  10 4941.39 683.101   6
  -2  -2  10 4665.68 497.440   1
  -2  -2   9 95.5151 267.762   6
   2   2  -9-67.1734 152.812   1
  -2  -2   9 380.961 196.195   1
  -2  -2   8 390297. 8157.21   6
   2   2  -8 368610. 7013.39   1
  -2  -2   8 369620. 7047.12   1
  -2  -2   7 8027.29 480.838   1
   2   2  -7 7794.62 473.209   1
  -2  -2   7 8304.81 804.970   6
   2   2  -6 39887.4 1071.37   1
  -2  -2   6 40855.7 1766.27   6
  -2  -2   5 68552.5 2269.75   6
   2   2  -5 59468.3 1266.65   1
  -2  -2   4 17740.1 1050.19   6
  -2  -2   4 16342.6 581.181   3
  -2  -2   3 25256.0 1206.47   6
  -2  -2   3 23693.4 603.961   3
  -2  -2   2 593.845 242.083   6
   2   2  -2 1231.44 318.776   6
   2   2  -2 988.424 314.772   5
   2   2  -1 12477.1 435.789   1
  -2  -2   1 12392.5 433.842   1
   2   2  -1 13962.4 832.353   5
  -2  -2   1 12949.9 776.857   6
   2   2  -1 14549.5 823.739   6
   2   2   0 134646. 2708.62   1
  -2  -2   0 134458. 3128.95   6
   2   2   0 131122. 2498.56   3
  -2  -2   0 135247. 2713.20   1
   2   2   0 139726. 3181.37   6
   2   2   1 144467. 3222.07   6
   2   2   1 139463. 3033.95   1
   2   2   1 147201. 3565.86   4
  -2  -2  -1 148052. 3630.73   5
  -2  -2  -1 147707. 3080.90   1
  -2  -2  -1 139265. 3175.74   6
   2   2   2 25860.4 1028.28   1
   2   2   2 26823.4 1238.40   4
  -2  -2  -2 24939.9 1266.22   5
   2   2   2 25705.3 977.180   6
  -2  -2  -2 26215.1 1040.79   1
  -2  -2  -2 25483.3 953.926   6
   2   2   3 136072. 2917.67   6
   2   2   3 136470. 3253.64   1
  -2  -2  -3 139161. 3669.88   5
  -2  -2  -3 139448. 3480.16   4
   2   2   3 140758. 3489.40   4
  -2  -2  -3 142364. 3315.43   1
  -2  -2  -3 135212. 2860.88   6
  -2  -2  -4 64017.5 2290.61   5
   2   2   4 59904.5 1960.71   1
  -2  -2  -4 59692.5 1437.14   6
   2   2   5 5264.50 557.405   1
  -2  -2  -5 3865.14 231.771   6
   2   2   6 103483. 3050.10   1
   2   2   7 18496.4 1195.89   1
   2   2   8 65.5495 238.131   1
   2   2   9 7625.35 859.716   1
   2   2  10 3258.84 597.993   1
   2   2  11 21549.3 1581.99   1
   2   2  12 59274.1 2801.38   1
   2   2  13 7385.34 1003.03   1
   2   2  14 29300.7 2064.40   1
  -2  -3  16 3914.67 803.811   6
   2   3 -16 4789.50 850.146   2
   2   3 -15 74048.8 3260.61   2
  -2  -3  15 67992.8 3209.05   6
  -2  -3  14 23071.5 1749.50   6
  -2  -3  13 3029.79 651.252   6
  -2  -3  12 52775.9 2560.75   6
  -2  -3  11 6557.60 585.623   1
  -2  -3  11 6308.09 827.024   6
  -2  -3  10 14737.0 829.121   1
  -2  -3  10 14015.4 1230.90   6
  -2  -3   9 7097.15 844.842   6
   2   3  -9 7377.13 519.650   1
  -2  -3   9 6876.87 502.282   1
  -2  -3   8 17678.5 1281.96   6
  -2  -3   8 15513.6 684.415   1
  -2  -3   7 64726.6 1523.18   1
  -2  -3   7 70927.8 2611.17   6
  -2  -3   6 1374.52 386.479   6
  -2  -3   5 15772.9 1103.89   6
   2   3  -4 54554.9 1844.31   5
  -2  -3   4 50473.3 2020.87   6
   2   3  -3 7745.19 642.292   5
  -2  -3   3 8922.42 768.050   6
  -2  -3   2 3727.05 527.454   6
   2   3  -2 3639.91 450.511   5
   2   3  -1 263136. 5543.99   5
  -2  -3   1 250299. 4634.58   1
  -2  -3   1 258786. 5580.73   6
   2   3   0 3700.12 462.374   6
  -2  -3   0 2860.57 449.753   5
  -2  -3   0 3020.52 444.044   6
  -2  -3   0 2431.25 261.630   1
   2   3   0 3032.08 294.393   1
   2   3   0 2474.44 178.627   3
  -2  -3  -1 11832.7 873.226   5
   2   3   1 11180.8 753.465   6
  -2  -3  -1 9661.45 593.762   1
   2   3   1 10592.2 609.171   1
  -2  -3  -1 10773.6 731.682   6
   2   3   2 82785.1 2315.58   6
  -2  -3  -2 80579.4 2663.59   5
   2   3   2 86254.1 2716.74   4
  -2  -3  -2 81630.8 2259.30   1
  -2  -3  -2 82489.6 2287.20   6
   2   3   2 83132.1 2244.60   1
  -2  -3  -3 301.616 184.111   6
  -2  -3  -3 292.619 231.250   5
  -2  -3  -3 153.178 217.629   1
   2   3   3 380.779 293.701   4
   2   3   3 99.2424 203.020   1
   2   3   4 84378.8 2494.84   1
  -2  -3  -4 82080.8 2865.90   5
  -2  -3  -4 81026.6 2129.52   6
   2   3   5 29651.4 1444.97   1
  -2  -3  -5 28322.3 1013.18   6
   2   3   6 27058.7 1421.77   1
  -2  -3  -6 25895.0 883.743   6
   2   3   7 58265.1 2290.24   1
  -2  -3  -7 52461.1 1265.60   6
   2   3   8 5040.94 679.943   1
   2   3   9 3163.63 569.449   1
   2   3  10 34042.3 1967.71   1
   2   3  11 283.315 355.590   1
   2   3  12 8552.84 1083.17   1
   2   3  13 45775.2 2626.11   1
  -2  -4  16 3316.12 773.752   6
  -2  -4  15 130.100 300.656   6
  -2  -4  14 25621.4 1919.02   6
  -2  -4  13 867.995 447.446   6
  -2  -4  12 9729.74 1132.23   6
  -2  -4  11 31646.9 1979.54   6
  -2  -4  10 1299.13 449.662   6
  -2  -4   9 11928.1 1174.93   6
  -2  -4   8 98551.4 3501.19   6
  -2  -4   7 38538.7 1968.95   6
  -2  -4   7 29445.9 748.524   1
  -2  -4   6 2054.03 207.146   3
  -2  -4   6 2478.23 530.858   6
   2   4  -5 15479.5 1144.03   4
  -2  -4   5 11775.3 393.508   3
  -2  -4   5 15925.2 1189.31   6
  -2  -4   4 609.263 328.626   6
   2   4  -4 1081.22 397.600   4
   2   4  -3 153980. 4010.90   4
  -2  -4   3 154112. 3994.14   6
  -2  -4   2 20694.4 692.603   1
  -2  -4   2 20045.5 1255.65   6
  -2  -4   1 483.168 130.058   1
  -2  -4   1 918.232 312.819   6
  -2  -4   0 355444. 6926.63   1
   2   4   0 370466. 6423.93   3
  -2  -4   0 366184. 7730.10   6
  -2  -4  -1 7567.88 577.389   1
  -2  -4  -1 7910.65 758.156   5
   2   4   1 8413.90 844.841   4
   2   4   1 8023.47 452.011   3
  -2  -4  -1 7749.47 717.047   6
  -2  -4  -2 13149.1 1033.81   5
   2   4   2 11552.3 1013.06   4
   2   4   2 11216.5 758.221   1
   2   4   2 11951.6 645.135   3
  -2  -4  -2 11508.5 835.381   6
   2   4   3 13154.2 869.609   1
  -2  -4  -3 13796.8 1102.89   5
  -2  -4  -3 12960.8 861.181   6
  -2  -4  -4 2978.71 386.094   6
  -2  -4  -4 3557.57 597.244   5
   2   4   4 2226.81 408.051   1
   2   4   5 56255.7 2150.45   1
  -2  -4  -5 50677.9 1735.26   6
  -2  -4  -6 3427.07 387.411   6
   2   4   6 3879.00 562.275   1
   2   4   7 32905.8 1784.36   1
   2   4   8 86896.9 3176.53   1
   2   4   9 867.949 423.646   1
   2   4  10 9562.02 1079.56   1
   2   4  11 60266.0 2888.11   1
   2   4  12 608.868 431.597   1
   2   4  13 108.334 326.723   1
  -2  -5  14 2477.10 695.204   6
  -2  -5  13 22158.6 1850.01   6
  -2  -5  12 456.734 396.140   6
   2   5 -11 23965.8 1674.18   4
  -2  -5  11 25269.1 1872.12   6
   2   5 -10 25309.2 1696.23   4
  -2  -5  10 24276.6 1803.15   6
   2   5  -9 50186.4 2413.34   4
  -2  -5   9 49721.1 2559.77   6
   2   5  -8 18144.8 1378.44   4
  -2  -5   8 18235.2 1493.63   6
   2   5  -7 85344.0 3213.56   4
  -2  -5   7 88412.4 3417.54   6
   2   5  -6 115458. 3826.87   4
  -2  -5   6 121729. 4053.13   6
   2   5  -5 14860.6 1216.51   4
  -2  -5   5 13760.5 1222.27   6
  -2  -5   4 16490.7 533.273   1
   2   5  -4 16829.0 1337.95   4
  -2  -5   4 18792.5 1378.44   6
  -2  -5   3 20925.5 743.520   1
   2   5  -3 24508.1 1570.89   4
  -2  -5   3 24628.0 1562.61   6
  -2  -5   2 51464.4 1479.27   1
   2   5  -2 58742.2 2502.28   4
  -2  -5   2 58449.8 2431.98   6
  -2  -5   1 44262.8 1449.89   1
   2   5  -1 45073.1 2195.12   4
   2   5  -1 45024.1 984.735   3
  -2  -5   1 49324.8 2177.21   6
   2   5   0 11306.8 1086.14   4
  -2  -5   0 10670.9 905.726   5
  -2  -5   0 8924.90 649.778   1
   2   5   0 11984.3 507.917   3
  -2  -5   0 11746.2 998.630   6
  -2  -5  -1 88305.3 3014.89   5
   2   5   1 88951.3 3281.03   4
   2   5   1 93220.5 2166.62   3
  -2  -5  -1 86664.9 2950.39   6
  -2  -5  -2 18579.2 1317.79   5
   2   5   2 18259.0 868.164   3
  -2  -5  -2 18694.6 1203.50   6
  -2  -5  -3 742.726 341.225   5
  -2  -5  -3 1343.35 355.903   6
   2   5   3 712.398 227.387   3
  -2  -5  -4 27276.9 1708.30   5
   2   5   4 28965.3 1305.05   3
  -2  -5  -4 24807.5 1354.19   6
  -2  -5  -5 793.564 282.145   6
   2   5   5 1160.62 311.122   3
  -2  -5  -5 1655.15 499.506   5
   2   5   5 483.506 259.400   1
  -2  -5  -6 22862.3 1215.24   6
   2   5   6 27138.8 1590.01   1
   2   5   6 27422.6 1438.69   3
   2   5   7 890.320 344.511   3
   2   5   7 688.507 352.646   1
   2   5   8 4722.24 700.481   1
   2   5   9 47772.5 2456.59   1
   2   5  10 1753.82 534.384   1
   2   5  11 660.149 475.040   1
   2   5  12 42258.7 2577.39   1
   2   6 -12 23213.0 1756.56   4
  -2  -6  12 26676.2 2086.25   6
  -2  -6  11 2450.12 693.198   6
   2   6 -11 723.229 418.658   4
  -2  -6  10 5521.87 930.905   6
   2   6 -10 3690.40 730.510   4
  -2  -6   9 8425.05 1150.04   6
   2   6  -9 8235.66 1041.43   4
   2   6  -8 36810.7 2164.86   4
  -2  -6   8 37646.9 2319.31   6
   2   6  -7 39826.0 2246.68   4
  -2  -6   7 43991.5 2471.47   6
   2   6  -6 23964.6 1674.77   4
  -2  -6   6 22917.4 1733.16   6
  -2  -6   5 4149.64 729.540   6
   2   6  -5 4962.81 782.468   4
   2   6  -4 24028.2 1690.88   4
  -2  -6   4 24207.7 1711.00   6
   2   6  -3 19669.9 1516.85   4
  -2  -6   3 19264.6 1529.41   6
   2   6  -2 12560.8 1213.80   4
  -2  -6   2 13277.7 1226.04   6
   2   6  -1 10095.2 1114.66   4
  -2  -6   1 11659.0 1115.75   6
  -2  -6   0 102.085 313.211   6
  -2  -6   0 183.523 247.627   5
  -2  -6  -1 2935.04 589.762   6
  -2  -6  -1 2742.54 519.130   5
  -2  -6  -2 46283.1 2240.44   5
   2   6   2 47846.9 1581.79   3
  -2  -6  -2 44608.4 2141.35   6
  -2  -6  -3 1078.71 392.400   6
   2   6   3 1987.16 335.947   3
  -2  -6  -3 1942.49 538.245   5
  -2  -6  -4 14045.4 1325.91   5
   2   6   4 15672.1 980.438   3
  -2  -6  -4 11545.8 1018.94   6
  -2  -6  -5 73880.2 3237.87   5
  -2  -6  -5 66262.1 2591.55   6
  -2  -6  -6 14989.7 1474.29   5
   2   6   6 15812.3 1117.02   3
   2   6   7 11208.8 1004.59   3
   2   6   8 39432.5 2026.79   3
   2   6   9 1254.61 434.090   3
   2   6  10 7665.90 969.737   3
   2   6  11 711.767 373.277   3
   2   6  12 8574.58 1110.27   3
   2   7 -11 18054.1 1631.96   4
   2   7 -10 23941.9 1866.67   4
  -2  -7   9-313.559 373.491   6
   2   7  -9 52.1331 371.851   4
  -2  -7   8 6996.88 1057.62   6
   2   7  -8 8381.59 1069.00   4
  -2  -7   7 382.716 441.489   6
   2   7  -7 408.598 421.615   4
   2   7  -6 45923.5 2544.13   4
  -2  -7   6 48484.3 2731.08   6
  -2  -7   5 8969.78 1143.17   6
   2   7  -5 9455.96 1134.95   4
  -2  -7   4 1335.82 474.066   6
   2   7  -4 979.021 501.894   4
   2   7  -3 31910.8 2110.32   4
  -2  -7   3 29157.4 2004.61   6
   2   7  -2 30977.5 2088.65   4
  -2  -7   2 33771.5 2123.55   6
  -2  -7   1 25997.7 1827.60   6
  -2  -7   0 60935.3 2569.09   5
  -2  -7   0 60433.2 2842.69   6
  -2  -7  -1 18194.5 1388.56   5
  -2  -7  -1 15935.8 1408.17   6
  -2  -7  -2 1890.15 526.029   6
  -2  -7  -2 1343.86 498.695   5
  -2  -7  -3 38711.9 2237.01   5
  -2  -7  -3 40433.4 2163.54   6
  -2  -7  -4 176.708 259.928   6
  -2  -7  -4-21.8785 362.995   5
  -2  -7  -5 23954.5 1864.23   5
  -2  -7  -6 17014.9 1623.60   5
  -2  -7  -7 18019.4 1735.44   5
  -2  -7  -8 14492.4 1598.83   5
   2   8  -9 1004.43 479.035   4
   2   8  -8 1021.13 499.739   4
   2   8  -7 33561.6 2313.22   4
  -2  -8   6 553.205 561.604   6
   2   8  -6-166.578 446.005   4
  -2  -8   5 8752.47 1260.17   6
   2   8  -5 8505.40 1153.88   4
  -2  -8   4 12304.4 1385.76   6
  -2  -8   3 7416.15 1087.93   6
  -2  -8   2 36650.5 2394.19   6
  -2  -8   1 2714.74 655.818   6
  -2  -8   0 34685.0 2275.90   6
  -2  -8  -1 69335.1 3278.30   6
  -2  -8  -2 1645.36 545.093   6
  -2  -8  -2 1459.34 554.409   5
  -2  -8  -3 328.245 335.162   6
  -2  -8  -3 1075.66 489.559   5
  -2  -8  -4 1138.08 493.880   5
  -2  -8  -5 1286.65 571.549   5
  -2  -8  -6 9234.44 1267.74   5
  -2  -9   0 7013.99 1062.46   6
  -2  -9  -1 6.75089 341.116   6
  -3   9   3 11194.5 1276.17   3
  -3   9   2 1838.91 590.468   3
  -3   9   1 23995.4 1824.36   3
  -3   9   0 7799.90 1035.17   3
  -3   9  -1 1013.73 503.112   3
  -3   9  -2 7387.04 996.034   3
  -3   9  -3 1343.29 488.528   3
  -3   9  -4 12778.1 1283.28   3
  -3   9  -5 238.468 267.319   3
  -3   8   6 10774.7 1254.79   3
  -3   8   5 735.240 422.999   3
  -3   8   4 5426.21 948.240   3
  -3   8   3 41700.2 2379.23   3
  -3   8   2 9609.42 1112.85   3
  -3   8   1 11469.2 1214.29   3
  -3   8   0 62687.8 2867.47   3
  -3   8  -1 15734.9 1385.08   3
  -3   8  -2 37778.8 2151.28   3
   3  -8   3 19137.4 1801.87   6
  -3   8  -3 20633.2 1566.65   3
  -3   8  -4 1943.42 516.669   3
   3  -8   4 2926.18 815.658   6
   3  -8   5 31740.3 2331.77   6
  -3   8  -5 27697.8 1856.19   3
   3  -8   6 9031.85 1247.24   6
   3  -8   7 11334.7 1437.76   6
   3  -8   7 10734.9 1229.90   1
   3  -8   8 20901.7 1912.10   6
   3  -8   8 20584.1 1690.03   1
   3  -8   9 19319.3 1855.65   6
   3  -8   9 22923.0 1799.66   1
   3  -8  10 30807.2 2133.66   1
  -3   7   8 74295.3 3392.39   3
  -3   7   7 13794.8 1399.65   3
  -3   7   6 11211.0 1202.22   3
  -3   7   5 92917.7 3635.27   3
  -3   7   4 435.169 321.702   3
  -3   7   3 793.640 461.474   3
  -3   7   2 64535.2 2827.10   3
  -3   7   1 407.053 315.580   3
  -3   7   0 32321.1 1896.11   3
  -3   7  -1 4109.56 683.755   3
  -3   7  -2 4304.51 693.066   3
  -3   7  -3 96562.3 3500.00   3
  -3   7  -4 2542.69 566.806   3
   3  -7   4 1540.51 573.548   6
  -3   7  -5 1423.65 484.331   3
   3  -7   5 3372.13 724.583   6
   3  -7   6 29630.8 2112.51   6
   3  -7   7 12805.2 1362.84   6
   3  -7   7 12562.7 1227.31   1
   3  -7   8 2262.95 650.884   6
   3  -7   8 3036.57 706.705   1
   3  -7   9 2211.31 654.296   6
   3  -7   9 2023.02 538.382   1
   3  -7  10 3215.98 734.800   6
   3  -7  10 4203.58 777.998   1
   3  -7  11 13366.1 1447.05   6
   3  -7  11 15863.5 1486.39   1
   3  -7  12 27363.5 2017.53   1
   3  -7  12 26464.1 2030.63   6
  -3   6  10 15786.7 1529.18   3
  -3   6   9 24325.7 1840.67   3
  -3   6   8 1369.37 486.487   3
  -3   6   7 39747.5 2249.65   3
  -3   6   6 4412.87 853.328   3
  -3   6   5 1101.03 434.395   3
  -3   6   4 103768. 3645.52   3
  -3   6   3 2526.68 546.389   3
  -3   6   2-190.910 255.254   3
  -3   6   1 30366.6 1750.83   3
  -3   6   0 9660.67 964.327   3
  -3   6  -1 4972.99 720.832   3
  -3   6  -2 3782.21 636.150   3
  -3   6  -3 65.3619 289.510   3
  -3   6  -4 82144.0 3038.32   3
  -3   6  -5 14884.3 1219.59   3
   3  -6   6 26834.0 1848.02   6
   3  -6   7 30311.6 1961.58   6
   3  -6   7 31428.8 1902.91   1
   3  -6   8 13732.2 1344.13   6
   3  -6   8 13813.0 1269.05   1
   3  -6   9 7402.10 940.870   1
   3  -6   9 7465.40 992.469   6
   3  -6  10 10675.4 1172.60   6
   3  -6  10 10357.0 1146.26   1
   3  -6  11 308.232 274.914   6
   3  -6  11 146.687 332.660   1
   3  -6  12 1060.32 505.397   6
   3  -6  12 439.948 320.962   1
   3  -6  13 16743.6 1575.95   1
  -3   5  11 46775.0 2648.59   3
  -3   5  10 34167.7 2160.91   3
  -3   5   9 13422.4 1340.80   3
  -3   5   8 53418.3 2599.62   3
  -3   5   7 2149.80 540.667   3
  -3   5   6 1159.22 398.215   3
  -3   5   5 1089.48 362.975   3
  -3   5   4 25642.5 1571.73   3
  -3   5   3 72859.8 2751.55   3
  -3   5   2 9928.13 947.048   3
  -3   5   1 20045.1 1329.14   3
  -3   5   0 121626. 3673.45   3
  -3   5  -1 288.720 242.624   3
  -3   5  -2 238.739 284.705   3
  -3   5  -3 44538.5 2010.95   3
  -3   5  -4 1303.44 390.860   3
   3  -5   4 1027.30 220.126   5
   3  -5   4 368.146 221.420   4
  -3   5  -5 49933.7 2230.22   3
   3  -5   6 27245.6 1701.44   6
   3  -5   6 26302.3 1621.77   1
   3  -5   7 38134.4 2035.88   6
   3  -5   7 34395.9 1897.31   1
   3  -5   8 60824.4 2651.32   1
   3  -5   8 62207.9 2720.00   6
   3  -5   9 2008.65 530.462   6
   3  -5   9 2113.19 536.845   1
   3  -5  10 1318.13 450.581   6
   3  -5  10 1344.22 469.016   1
   3  -5  11 55109.6 2718.86   1
   3  -5  11 54648.4 2536.06   6
   3  -5  12 177.992 289.338   6
   3  -5  12 290.576 376.465   1
   3  -5  13 979.587 457.534   1
   3  -5  14 14187.0 1494.63   1
  -3   4  13 10840.1 1293.78   3
  -3   4  12 3380.64 774.193   3
  -3   4  11 23713.9 1787.32   3
  -3   4  10 57935.5 2775.61   3
  -3   4   9 38258.0 2137.11   3
  -3   4   8 25007.0 1666.83   3
  -3   4   7 65712.9 2707.66   3
  -3   4   6 2548.84 563.796   3
  -3   4   5 13702.8 1100.68   3
  -3   4   4 7903.90 821.976   3
  -3   4   3 746.991 438.142   3
  -3   4   2 117796. 3458.33   3
  -3   4   1 9864.19 934.676   3
  -3   4   0 4818.43 667.891   3
  -3   4  -1 243133. 5670.86   3
  -3   4  -2 22682.2 1306.34   3
   3  -4   3 49470.7 1637.46   5
  -3   4  -3 53057.0 2109.22   3
   3  -4   4 112966. 2814.54   5
  -3   4  -4 123331. 3529.44   3
   3  -4   5 10368.9 939.804   1
   3  -4   5 10561.8 549.196   4
   3  -4   6 17232.0 1238.78   1
   3  -4   7 663.054 270.745   6
   3  -4   7 1152.11 412.507   1
   3  -4   8 328.370 276.386   6
   3  -4   8 883.912 394.294   1
   3  -4   9 60975.9 2450.25   6
   3  -4   9 57877.0 2563.50   1
   3  -4  10 24837.7 1487.17   6
   3  -4  10 24485.5 1679.72   1
   3  -4  11 7166.05 965.757   1
   3  -4  11 7565.70 823.482   6
   3  -4  12 93361.6 3703.82   1
   3  -4  13 226.020 429.586   1
   3  -4  14 1476.76 637.497   1
  -3   3  14 7523.80 1065.98   3
  -3   3  13 3366.17 733.530   3
  -3   3  12 52744.4 2700.54   3
  -3   3  11 2516.46 634.193   3
  -3   3  10 48244.4 2409.54   3
  -3   3   9 37562.7 1999.64   3
  -3   3   8 7382.46 841.114   3
  -3   3   7 18742.4 1362.91   3
  -3   3   6 39834.8 1860.86   3
  -3   3   5 16364.6 1124.16   3
  -3   3   4 108959. 3246.17   3
  -3   3   3 5447.59 635.355   3
  -3   3   2 45179.9 1811.29   3
  -3   3   1 140304. 3698.07   3
  -3   3   0 6941.54 671.597   3
  -3   3  -1 59657.2 2133.07   3
  -3   3  -2 22673.0 1233.07   3
   3  -3   3 14139.2 831.425   5
  -3   3  -3 15767.5 1026.40   3
   3  -3   4 128355. 3206.48   5
  -3   3  -4 137465. 3672.30   3
   3  -3   5 55221.8 2157.10   1
   3  -3   5 49098.7 1140.12   4
   3  -3   6 66997.0 2500.06   1
   3  -3   7 143.943 234.918   6
   3  -3   7 643.003 319.121   1
   3  -3   8 23617.7 1294.75   6
   3  -3   8 23455.7 1485.01   1
   3  -3   9 32042.6 1513.04   6
  -3   3  -9 31115.5 1473.78   5
   3  -3   9 31076.6 1810.65   1
  -3   3 -10 17875.1 1139.71   5
   3  -3  10 19314.7 1451.53   1
   3  -3  10 18969.6 1137.47   6
   3  -3  11 602.890 283.015   6
   3  -3  11 1079.26 483.215   1
  -3   3 -11 726.864 352.318   5
   3  -3  12 2484.49 624.174   1
   3  -3  13 86228.1 3645.05   1
   3  -3  14 895.734 487.444   1
   3  -2 -14 67932.1 3125.20   2
  -3   2  14 73694.1 3326.17   3
   3  -2 -13 14275.9 1345.53   2
  -3   2  13 13297.9 1311.42   3
  -3   2  12 6697.28 888.823   3
   3  -2 -12 7297.52 954.199   2
   3  -2 -11 61004.4 2713.83   2
  -3   2  11 65402.7 2808.03   3
  -3   2  10 3275.51 599.147   3
   3  -2 -10 3233.55 625.267   2
  -3   2   9 6151.99 776.581   3
   3  -2  -9 6862.52 820.922   2
   3  -2  -8 9297.88 935.969   2
  -3   2   8 9917.14 929.979   3
  -3   2   7 844.938 341.419   3
   3  -2  -7 608.837 315.592   2
   3  -2  -6 12264.4 1127.18   2
  -3   2   6 12027.6 1033.75   3
   3  -2  -5 27882.8 1475.95   2
  -3   2   5 26821.8 1367.00   3
   3  -2  -4 13832.6 1009.32   2
  -3   2   4 13779.9 926.502   3
   3  -2  -3 219347. 5169.53   2
  -3   2   3 223625. 5012.91   3
  -3   2   2 5502.29 582.492   3
  -3   2   1 17954.7 1004.19   3
  -3   2   0 132312. 3358.99   3
  -3   2  -1 84022.6 2430.37   2
  -3   2  -1 83653.2 2482.31   3
   3  -2   2 34338.7 1393.34   5
  -3   2  -2 31533.2 1401.00   3
  -3   2  -2 34208.6 1366.30   2
  -3   2  -3 312.087 245.953   3
   3  -2   3 246.432 188.286   5
  -3   2  -3 311.698 158.888   2
   3  -2   4 6394.01 673.960   1
   3  -2   4 6171.36 577.606   5
  -3   2  -4 6400.43 547.158   2
   3  -2   5 26581.5 1378.11   1
   3  -2   5 19684.5 554.970   4
   3  -2   6 92224.8 2964.31   1
   3  -2   7 87915.8 2459.99   6
  -3   2  -7 83556.5 2668.03   5
   3  -2   7 85352.1 2918.99   1
   3  -2   8 20424.8 1024.23   6
  -3   2  -8 20426.4 1235.02   5
   3  -2   8 20886.2 1386.59   1
  -3   2  -9 123343. 3593.04   5
   3  -2   9 123325. 3055.48   6
   3  -2   9 117991. 3871.32   1
  -3   2 -10 2398.69 488.552   5
   3  -2  10 3218.29 406.139   6
   3  -2  10 3188.25 600.319   1
  -3   2 -11 18716.9 1328.51   5
   3  -2  11 19907.1 1516.21   1
  -3   2 -12 6462.79 816.646   5
   3  -2  12 6764.78 945.224   1
   3  -2  13 1523.66 558.172   1
  -3   2 -13 1162.76 431.822   5
   3  -2  14 53447.5 2870.73   1
   3  -1 -16 81.1128 309.979   2
  -3   1  15 5306.90 895.950   3
   3  -1 -15 5221.57 852.590   2
  -3   1  14 2266.51 579.163   3
   3  -1 -14 2323.83 603.009   2
   3  -1 -13 109238. 3929.16   2
  -3   1  13 106263. 3891.67   3
  -3   1  12 5651.00 807.010   3
   3  -1 -12 3630.34 694.149   2
  -3   1  11 2600.31 534.740   3
   3  -1 -11 4069.14 689.988   2
   3  -1 -10 37954.1 1984.59   2
  -3   1  10 38342.7 1938.61   3
  -3   1   9 1257.16 374.167   3
   3  -1  -9 1087.43 365.204   2
  -3   1   8 2961.60 521.245   3
   3  -1  -8 4282.59 660.156   2
   3  -1  -7 56647.1 2266.59   2
  -3   1   7 59005.4 2169.08   3
  -3   1   6 4604.27 572.179   3
   3  -1  -6 4474.38 610.345   2
   3  -1  -5 92148.1 2892.53   2
  -3   1   5 91047.3 2652.22   3
   3  -1  -4 60431.6 2164.60   2
  -3   1   4 62976.2 2008.60   3
   3  -1  -3 13176.3 894.422   2
  -3   1   3 12382.5 803.776   3
   3  -1  -3 11324.9 752.413   3
   3  -1  -2 214122. 4846.31   2
   3  -1  -2 215439. 4629.58   3
  -3   1   2 215487. 4628.62   3
   3  -1  -1 69751.4 2149.90   2
  -3   1   1 71185.7 2177.05   2
  -3   1   1 70025.8 2071.10   3
   3  -1  -1 71183.6 2051.31   3
   3  -1   0 13174.6 828.818   2
  -3   1   0 14042.7 820.469   2
  -3   1   0 12902.1 769.631   3
   3  -1   0 12715.6 758.421   3
   3  -1   1 157438. 3614.46   2
  -3   1  -1 160420. 3615.61   2
  -3   1  -1 155749. 3646.20   3
   3  -1   1 159357. 3676.81   3
   3  -1   2 25188.3 1218.82   5
   3  -1   2 25668.2 1190.98   1
  -3   1  -2 25013.3 1042.09   2
  -3   1  -2 23939.8 1129.60   3
   3  -1   3 14032.9 882.802   1
  -3   1  -3 12936.5 693.259   2
  -3   1  -4 113401. 2572.18   2
   3  -1   4 109563. 3092.56   1
  -3   1  -5 18416.0 1103.27   5
   3  -1   5 16348.1 643.744   4
  -3   1  -5 15537.2 684.284   2
   3  -1   5 15338.0 1020.30   1
  -3   1  -6 9129.51 812.971   5
  -3   1  -6 7803.08 435.935   2
   3  -1   6 9809.83 873.009   1
   3  -1   7 106421. 2378.28   6
  -3   1  -7 101320. 3134.00   5
   3  -1   7 107328. 3273.56   1
  -3   1  -8 7339.74 801.468   5
  -3   1  -8 5038.95 250.236   2
   3  -1   8 6439.78 781.794   1
   3  -1   8 7349.87 449.224   6
  -3   1  -9 119717. 3733.20   5
   3  -1   9 122513. 3872.91   1
   3  -1   9 117044. 2506.72   6
  -3   1 -10 13897.9 1174.63   5
   3  -1  10 15682.2 1294.59   1
  -3   1 -11 25791.9 1683.14   5
   3  -1  11 27322.1 1787.39   1
  -3   1 -12 53142.7 2571.09   5
   3  -1  12 56920.2 2768.66   1
   3  -1  13 1058.19 391.418   1
  -3   1 -13 810.063 331.699   5
   3  -1  14 4175.58 856.858   1
  -3   1 -14 3735.47 752.084   5
  -3   1 -15 5890.51 953.490   5
  -3   0  16 3635.05 734.212   3
   3   0 -16 3632.68 763.244   2
  -3   0  15 3055.63 667.931   3
   3   0 -15 3631.96 798.370   2
   3   0 -14 67271.1 3044.73   2
  -3   0  14 62389.0 2886.86   3
  -3   0  13-148.679 305.926   3
   3   0 -13 160.941 320.197   2
   3   0 -12 29125.4 1836.74   2
  -3   0  12 29831.3 1772.62   3
   3   0 -11 16828.8 1335.52   2
  -3   0  11 13966.1 1128.80   3
  -3   0  10 7246.28 781.096   3
   3   0 -10 6113.40 816.138   2
   3   0  -9 72333.6 2777.72   2
  -3   0   9 72184.7 2541.41   3
   3   0  -8 31358.5 1675.60   2
  -3   0   8 30430.1 1465.03   3
   3   0  -7 2719.78 386.775   1
   3   0  -7 4283.81 641.485   2
  -3   0   7 4888.30 609.034   3
  -3   0   6 355453. 7061.25   3
   3   0  -6 341920. 7471.19   2
   3   0  -6 346835. 6787.72   1
   3   0  -5 10283.7 848.817   2
   3   0  -5 9102.69 600.930   1
  -3   0   5 10865.8 725.844   3
   3   0  -4 63166.2 2202.52   2
  -3   0   4 65964.7 1929.11   3
   3   0  -4 65014.5 1913.67   3
   3   0  -3 11656.9 838.979   2
  -3   0   3 11312.0 669.506   3
   3   0  -3 11983.0 687.549   3
  -3   0   2 2398.31 317.694   3
   3   0  -2 2150.76 307.970   3
   3   0  -2 2060.52 382.478   2
   3   0  -1 91406.2 2534.57   2
  -3   0   1 90360.4 2297.03   3
   3   0  -1 91506.0 2275.73   3
   3   0  -1 94444.5 2577.76   6
   3   0   0 25321.5 1096.17   2
  -3   0   0 23555.1 988.610   3
   3   0   0 24996.1 1006.69   3
   3   0   0 26483.7 1138.77   6
   3   0   1 34539.5 1286.19   1
   3   0   1 36363.0 1291.85   2
  -3   0  -1 32809.6 1241.78   3
   3   0   1 37279.1 1326.88   6
   3   0   1 36163.1 1285.83   3
   3   0   2 133474. 2957.30   2
   3   0   2 131751. 3130.53   3
   3   0   2 130613. 2995.84   6
   3   0   2 128817. 3181.98   1
   3   0   3 35688.1 1130.29   2
   3   0   3 34103.4 1262.37   4
   3   0   3 35041.6 1376.87   3
   3   0   3 33207.7 1397.04   1
   3   0   3 35208.1 1166.41   6
   3   0   4 502.959 306.471   1
   3   0   4 354.594 110.097   6
  -3   0  -4 658.391 334.670   5
   3   0   4 587.300 178.643   4
  -3   0  -5 183738. 4634.82   5
   3   0   5 183859. 3876.33   4
   3   0   5 183191. 4463.48   1
   3   0   5 177460. 3488.87   6
  -3   0  -6 21634.6 1320.75   5
   3   0   6 19858.6 1219.19   1
   3   0   6 18229.4 582.246   6
  -3   0  -7 25018.1 1505.65   5
   3   0   7 23006.3 1394.21   1
  -3   0  -8 14562.2 1165.64   5
   3   0   8 15154.4 1165.37   1
   3   0   9 4756.72 695.686   1
  -3   0  -9 3673.88 666.302   5
  -3   0 -10 42556.2 2238.88   5
   3   0  10 47657.6 2319.09   1
   3   0  11 9596.70 1090.46   1
  -3   0 -11 8431.62 1008.94   5
   3   0  12 36614.4 2174.11   1
  -3   0 -12 31165.0 2045.95   5
   3   0  13 65718.9 3102.67   1
  -3   0 -13 62269.3 3051.68   5
  -3   0 -14 4571.65 880.304   5
   3   0  14 3519.20 757.545   1
  -3   0 -15 1189.74 545.387   5
  -3   0 -16 1.02191 478.004   5
   3   1 -16 11374.9 1315.00   2
  -3  -1  16 10480.9 1202.51   3
   3   1 -15 18617.3 1630.94   2
  -3  -1  15 16573.5 1426.14   3
   3   1 -14 44087.6 2431.44   2
  -3  -1  14 37924.1 2133.50   3
   3   1 -13 35499.4 2113.20   2
  -3  -1  13 31825.8 1849.36   3
   3   1 -12 11168.1 1142.94   2
  -3  -1  12 10236.2 981.413   3
  -3  -1  11 777.452 338.881   3
   3   1 -11 902.500 407.899   2
  -3  -1  10 3626.71 531.570   3
   3   1 -10 2585.91 639.860   2
   3   1  -9 24851.6 1186.77   1
   3   1  -9 27116.4 1621.52   2
  -3  -1   9 27661.2 1386.18   3
   3   1  -8 111097. 2820.61   1
   3   1  -8 112785. 3603.78   2
  -3  -1   8 119788. 3153.66   3
   3   1  -7 57733.6 1719.92   1
   3   1  -7 64306.5 2440.57   2
  -3  -1   7 63244.0 2001.26   3
   3   1  -6 3287.99 535.910   2
   3   1  -6 2447.53 283.331   1
  -3  -1   6 3736.98 582.378   6
  -3  -1   6 2847.07 414.902   3
  -3  -1   5 275738. 5397.51   3
  -3  -1   5 278190. 6209.18   6
   3   1  -5 265659. 5080.96   1
  -3  -1   4 556.218 173.363   3
  -3  -1   4 785.341 331.152   6
   3   1  -4 830.258 149.794   1
  -3  -1   3 6483.13 434.657   3
  -3  -1   3 6291.30 661.240   6
   3   1  -3 6578.91 435.244   3
   3   1  -2 2092.00 237.246   1
  -3  -1   2 1979.90 243.735   3
   3   1  -2 2338.43 257.204   3
  -3  -1   2 2310.24 406.960   6
   3   1  -1 8240.63 481.654   1
  -3  -1   1 8095.77 477.709   3
   3   1  -1 7589.07 456.229   3
   3   1  -1 7912.46 645.323   6
   3   1   0 68279.5 1742.40   3
   3   1   0 66434.7 1782.47   1
   3   1   0 68603.3 2058.27   6
   3   1   1 5176.23 468.321   6
   3   1   1 5089.96 473.264   2
   3   1   1 4739.63 402.306   3
   3   1   1 4932.78 444.255   1
  -3  -1  -2 25544.9 1083.40   1
   3   1   2 21917.4 1114.10   4
   3   1   2 22998.9 945.031   2
   3   1   2 22454.8 973.110   3
   3   1   2 23082.2 1051.22   1
   3   1   2 20944.2 925.680   6
  -3  -1  -3 131587. 3698.39   5
   3   1   3 136588. 3366.14   4
   3   1   3 134202. 2871.64   2
   3   1   3 133058. 3345.75   1
   3   1   3 126337. 3140.10   3
   3   1   3 132553. 2914.63   6
  -3  -1  -4 15187.1 1099.06   5
   3   1   4 15406.4 915.111   4
   3   1   4 15409.0 621.199   2
   3   1   4 13178.9 902.528   1
   3   1   4 13857.3 609.712   6
   3   1   5 4091.34 242.205   2
  -3  -1  -5 4160.13 636.396   5
   3   1   5 4159.28 551.786   1
   3   1   5 4971.75 528.201   4
   3   1   5 3880.06 248.510   6
  -3  -1  -6 97537.8 3306.55   5
   3   1   6 100552. 3094.59   1
   3   1   7 361.714 240.083   1
  -3  -1  -7 170.817 299.448   5
   3   1   8 1172.42 420.269   1
  -3  -1  -8 374.441 379.966   5
   3   1   9 16451.4 1302.80   1
  -3  -1  -9 16800.8 1384.24   5
   3   1  10-235.666 308.755   1
  -3  -1 -10 552.672 440.432   5
  -3  -1 -11 2186.41 623.112   5
   3   1  11 1712.68 524.086   1
   3   1  12 2152.77 598.356   1
   3   1  13 3640.30 758.588   1
   3   1  14 54721.8 2935.63   1
   3   2 -16 9931.62 1264.63   2
   3   2 -15 1138.87 505.776   2
   3   2 -14 22871.5 1754.36   2
  -3  -2  14 23895.8 1598.26   3
   3   2 -13 65297.6 2987.25   2
  -3  -2  13 57426.5 2480.38   3
  -3  -2  12 5926.10 703.280   3
   3   2 -12 7005.64 927.323   2
  -3  -2  12 7914.35 978.292   6
   3   2 -11 49184.9 2420.92   2
  -3  -2  11 51671.3 2541.15   6
  -3  -2  11 46315.5 1993.14   3
  -3  -2  10 3827.37 702.443   6
  -3  -2  10 3992.16 530.170   3
  -3  -2   9 93834.0 3388.36   6
  -3  -2   9 89261.5 2650.88   3
  -3  -2   8 1346.19 449.250   6
  -3  -2   8 1187.46 266.698   3
   3   2  -8 1250.72 209.779   1
  -3  -2   7 44897.2 1494.30   3
   3   2  -7 41954.2 1153.27   1
  -3  -2   7 45358.6 2073.49   6
   3   2  -6 6088.86 298.314   1
  -3  -2   6 6554.07 480.481   3
  -3  -2   6 7896.27 809.778   6
  -3  -2   5 36114.5 1109.40   3
  -3  -2   5 34891.8 1706.08   6
  -3  -2   4 40548.8 1096.60   3
  -3  -2   4 41880.9 1822.96   6
  -3  -2   3 7493.97 357.120   3
  -3  -2   3 7645.79 724.148   6
  -3  -2   2 350.367 226.672   6
   3   2  -2 250.657 80.8300   1
   3   2  -2 138.885 66.0141   3
   3   2  -1 135157. 2703.26   1
   3   2  -1 128934. 2558.48   3
  -3  -2   1 128963. 3388.49   6
   3   2   0 14826.7 688.967   1
   3   2   0 13206.9 567.745   3
  -3  -2   0 14759.5 875.986   6
   3   2   0 16304.3 945.655   6
  -3  -2  -1 100161. 2441.26   1
   3   2   1 97028.1 2448.19   1
   3   2   1 103406. 2998.94   4
   3   2   1 95868.1 2253.81   3
  -3  -2  -1 97881.9 2612.87   6
   3   2   1 100983. 2682.57   6
  -3  -2  -2 16629.3 880.670   1
  -3  -2  -2 17523.0 1199.14   5
   3   2   2 16438.8 896.874   1
   3   2   2 17221.7 1119.65   4
   3   2   2 16475.3 787.445   3
  -3  -2  -2 16487.3 850.027   6
   3   2   2 16702.7 862.779   6
  -3  -2  -3 1879.28 276.865   6
   3   2   3 1732.18 332.572   1
   3   2   3 1681.67 256.768   6
  -3  -2  -3 1549.54 412.773   5
   3   2   3 2244.60 466.832   4
   3   2   4 99353.1 2357.05   6
  -3  -2  -4 100376. 3362.01   5
   3   2   4 105538. 2946.60   1
   3   2   4 104956. 3052.68   4
   3   2   5 12448.5 927.639   1
  -3  -2  -5 11450.3 1073.21   5
   3   2   5 12061.5 921.697   4
   3   2   6 912.349 334.598   1
  -3  -2  -6 538.529 402.878   5
   3   2   6 577.146 94.8095   2
   3   2   7 91185.3 3068.05   1
  -3  -2  -7 91382.4 3421.73   5
  -3  -2  -8 733.658 470.416   5
   3   2   8-5.39149 284.263   1
  -3  -2  -9 261.847 311.785   5
   3   2   9 886.932 391.099   1
   3   2  10 71326.1 2970.43   1
  -3  -2 -10 60939.8 3024.60   5
   3   2  11 8736.76 1054.24   1
   3   2  12 21058.9 1694.88   1
   3   2  13 24715.3 1902.21   1
   3   3 -15 785.154 450.241   2
   3   3 -14 12929.4 1346.68   2
  -3  -3  14 14726.2 1470.21   6
  -3  -3  13 1918.90 547.114   6
  -3  -3  12 32162.4 2085.49   6
  -3  -3  11 8832.68 1071.98   6
  -3  -3  10 7157.26 926.335   6
  -3  -3  10 8545.83 712.125   3
  -3  -3   9 100281. 3626.20   6
  -3  -3   9 95971.3 2631.96   3
  -3  -3   8 73121.5 2939.27   6
  -3  -3   8 70752.2 1994.75   3
  -3  -3   7 16559.6 748.033   3
  -3  -3   7 18772.4 1391.87   6
  -3  -3   6 51348.8 2282.76   6
  -3  -3   6 49543.5 1281.16   3
  -3  -3   5 3461.16 575.564   6
  -3  -3   5 2753.49 175.048   3
  -3  -3   4 39016.6 1853.05   6
  -3  -3   3 27745.4 1486.07   6
  -3  -3   2 31325.6 1546.72   6
   3   3  -1 139736. 3974.46   4
   3   3  -1 136626. 2735.06   1
  -3  -3   1 133976. 3646.39   6
  -3  -3   0 270885. 5104.64   1
   3   3   0 278470. 6296.37   4
   3   3   0 257724. 4708.28   3
  -3  -3   0 266757. 5839.74   6
   3   3   0 270078. 5108.86   1
   3   3   1 129958. 2997.64   1
  -3  -3  -1 129689. 3776.27   5
   3   3   1 130161. 3794.63   4
   3   3   1 124253. 2665.55   3
  -3  -3  -1 129224. 2994.56   1
  -3  -3  -1 132192. 3360.10   6
   3   3   2 66172.9 2138.65   6
   3   3   2 66914.9 2038.57   1
  -3  -3  -2 63353.8 2530.38   5
   3   3   2 72846.2 2616.60   4
  -3  -3  -2 65198.0 2019.82   1
  -3  -3  -2 71212.9 2149.06   6
   3   3   3 61602.2 1993.23   6
   3   3   3 64993.7 2131.90   1
  -3  -3  -3 66429.8 2647.60   5
   3   3   3 70494.5 2573.02   4
  -3  -3  -3 69223.9 2021.95   6
  -3  -3  -4 5712.15 787.274   5
   3   3   4 5750.45 710.070   4
   3   3   4 4811.10 565.938   1
  -3  -3  -4 5326.48 471.147   6
   3   3   5 27454.1 1439.64   1
  -3  -3  -5 28169.2 1749.41   5
  -3  -3  -5 27171.7 994.844   6
  -3  -3  -6 2350.91 569.699   5
   3   3   6 1362.11 353.453   1
  -3  -3  -6 1426.96 180.750   6
   3   3   7 11092.1 1004.75   1
  -3  -3  -7 10735.5 1153.66   5
   3   3   8 82107.0 3068.76   1
  -3  -3  -8 80074.9 3413.49   5
   3   3   9 25013.0 1677.92   1
  -3  -3  -9 23329.0 1828.94   5
   3   3  10 15883.5 1377.70   1
  -3  -3 -10 14589.9 1509.47   5
   3   3  11 54137.6 2730.42   1
   3   3  12 15974.7 1524.54   1
   3   3  13 23467.8 1898.85   1
  -3  -4  14 291.290 374.493   6
  -3  -4  13 37674.0 2433.27   6
  -3  -4  12 1992.68 586.833   6
  -3  -4  11 9392.75 1178.27   6
  -3  -4  10 5846.89 879.115   6
  -3  -4   9 3836.81 753.289   6
  -3  -4   8 154790. 4882.96   6
  -3  -4   7 14074.9 1255.17   6
  -3  -4   6 17803.0 1406.64   6
  -3  -4   5 146038. 4415.95   6
  -3  -4   4 6384.09 801.430   6
   3   4  -4 7339.37 856.872   4
  -3  -4   3 1413.44 406.672   6
   3   4  -3 2270.94 517.067   4
   3   4  -2 35843.6 1898.69   4
  -3  -4   2 31535.8 1698.00   6
  -3  -4   1 1166.58 364.924   6
   3   4  -1 1968.40 490.014   4
  -3  -4   1 1130.15 169.982   1
   3   4   0 112598. 3704.18   4
  -3  -4   0 109763. 2588.23   1
  -3  -4   0 109743. 3305.47   6
  -3  -4  -1 2713.11 354.653   1
  -3  -4  -1 3382.04 500.219   6
  -3  -4  -1 1914.99 473.604   5
   3   4   1 2879.62 373.999   1
   3   4   1 2849.49 567.846   4
   3   4   1 2946.33 257.219   3
   3   4   1 2904.75 249.566   3
  -3  -4  -2 47771.3 2235.49   5
   3   4   2 45919.0 2223.27   4
   3   4   2 49279.9 1727.75   1
  -3  -4  -2 47077.1 1857.98   6
  -3  -4  -3 45532.1 2252.26   5
   3   4   3 42609.5 2167.51   4
  -3  -4  -3 45577.3 1750.72   6
   3   4   3 45409.7 1761.28   1
  -3  -4  -4 27265.0 1779.81   5
  -3  -4  -4 29961.3 1301.74   6
   3   4   4 28110.6 1427.03   1
  -3  -4  -5 428.851 429.118   5
   3   4   5 329.101 226.196   1
  -3  -4  -5 354.899 196.124   6
  -3  -4  -6 13484.7 1316.82   5
   3   4   6 12342.2 1039.19   1
  -3  -4  -7 703.065 441.599   5
   3   4   7 891.134 313.212   1
  -3  -4  -8 2649.44 683.084   5
   3   4   8 4583.43 718.267   1
  -3  -4  -9 21002.0 1817.99   5
   3   4   9 25084.0 1709.87   1
  -3  -4 -10 24143.4 2040.66   5
   3   4  10 28477.7 1900.71   1
  -3  -4 -11 3585.64 886.218   5
   3   4  11 6311.96 957.213   1
   3   4  12 14985.4 1493.24   1
  -3  -5  12 25292.6 2023.45   6
  -3  -5  11 2862.11 737.681   6
  -3  -5  10 1772.17 614.396   6
   3   5  -9 13973.0 1369.35   4
  -3  -5   9 14470.4 1410.08   6
  -3  -5   8 611.317 422.827   6
   3   5  -8 1054.57 468.492   4
   3   5  -7 39896.0 2263.25   4
  -3  -5   7 39590.3 2292.73   6
   3   5  -6 34072.5 2039.23   4
  -3  -5   6 32047.9 1994.61   6
  -3  -5   5 1636.04 440.359   6
   3   5  -5 930.864 438.957   4
   3   5  -4 104814. 3786.18   4
  -3  -5   4 103231. 3676.53   6
  -3  -5   3 1431.34 457.440   6
   3   5  -3 996.982 450.518   4
   3   5  -2 49479.2 2469.35   4
  -3  -5   2 45977.5 2222.17   6
   3   5  -1 25138.4 1715.48   4
  -3  -5   1 22830.5 1493.64   6
  -3  -5   0 6316.57 788.196   6
   3   5   0 6095.32 863.132   4
  -3  -5  -1 10392.5 1037.35   5
   3   5   1 8727.01 1004.71   4
  -3  -5  -1 8772.18 856.585   6
   3   5   2 14057.8 1299.17   4
  -3  -5  -2 13116.1 1037.37   6
  -3  -5  -3 2.61770 230.343   6
   3   5   3 299.101 188.468   3
  -3  -5  -3 26.9456 307.673   5
   3   5   3 571.820 271.834   1
  -3  -5  -4 69939.5 3068.32   5
   3   5   4 71464.8 2534.28   1
  -3  -5  -4 66289.5 2370.08   6
   3   5   4 70865.5 2193.38   3
  -3  -5  -5 17329.7 1524.19   5
   3   5   5 16442.8 1227.59   1
  -3  -5  -6 45124.2 2590.28   5
   3   5   6 48540.2 2224.77   1
  -3  -5  -7 42863.5 2564.19   5
   3   5   7 40988.8 2140.47   1
  -3  -5  -8 2332.42 721.166   5
   3   5   8 2187.08 561.776   1
  -3  -5  -9 4339.19 914.408   5
   3   5   9 5467.41 865.715   1
  -3  -5 -10 7990.30 1252.39   5
   3   5  10 5093.27 875.984   1
   3   5  11 149.620 354.155   1
   3   6 -13 12177.7 1405.22   4
   3   6 -12 4484.60 861.570   4
   3   6 -11 23344.0 1887.90   4
   3   6 -10 10002.3 1250.31   4
  -3  -6  10 12675.6 1441.34   6
  -3  -6   9 3371.48 758.704   6
   3   6  -9 3776.82 816.580   4
   3   6  -8 36001.3 2291.63   4
  -3  -6   8 41261.5 2524.16   6
  -3  -6   7 5587.22 902.930   6
   3   6  -7 4015.40 804.068   4
  -3  -6   6 3137.05 727.017   6
   3   6  -6 2281.77 641.779   4
  -3  -6   5 1679.65 569.463   6
   3   6  -5 955.132 414.981   4
  -3  -6   4 3276.38 693.802   6
   3   6  -4 4436.47 841.190   4
   3   6  -3 41091.7 2378.09   4
  -3  -6   3 37936.6 2201.98   6
  -3  -6   2 6248.47 898.772   6
   3   6  -2 5914.54 912.086   4
  -3  -6   1 1772.72 511.936   6
   3   6  -1 1684.51 532.708   4
  -3  -6   0 70802.1 2971.87   6
   3   6   0 78064.0 3409.39   4
  -3  -6  -1 1259.08 449.449   6
  -3  -6  -1 1190.31 455.433   5
   3   6   1 2052.09 590.277   4
  -3  -6  -2 3687.43 629.364   6
  -3  -6  -2 3671.49 712.305   5
  -3  -6  -3 36003.8 2167.40   5
  -3  -6  -3 37080.6 1904.81   6
  -3  -6  -4 305.637 319.960   5
  -3  -6  -5 40558.3 2473.08   5
  -3  -6  -6 4912.32 927.865   5
  -3  -6  -7 20528.3 1851.90   5
  -3  -6  -8 52852.1 3130.69   5
   3   6   9 271.407 309.824   1
   3   6  10 44.7408 303.748   1
   3   7 -10 24292.7 2028.34   4
   3   7  -9 2350.22 690.650   4
   3   7  -8 18275.2 1710.00   4
  -3  -7   8 19297.6 1800.68   6
   3   7  -7 18742.0 1749.46   4
  -3  -7   7 23424.9 1963.50   6
  -3  -7   6 4566.17 921.503   6
   3   7  -6 4657.19 911.849   4
   3   7  -5 13422.1 1462.64   4
  -3  -7   5 14113.1 1460.45   6
   3   7  -4 19230.6 1741.21   4
  -3  -7   4 17268.5 1622.43   6
  -3  -7   3 497.015 345.981   6
   3   7  -3 179.171 428.724   4
   3   7  -2 34377.9 2340.68   4
  -3  -7   2 33247.2 2170.01   6
  -3  -7   1 6238.55 903.615   6
   3   7  -1 8323.98 1161.44   4
  -3  -7   0 24144.1 1759.65   6
  -3  -7  -1 81521.0 3344.12   6
  -3  -7  -2 17790.0 1551.90   5
  -3  -7  -2 15547.5 1359.56   6
  -3  -7  -3 5908.01 952.612   5
  -3  -7  -4 84507.8 3762.68   5
  -3  -7  -5 2120.98 684.453   5
  -3  -7  -6 1553.75 715.860   5
  -3  -8   4 30237.5 2288.00   6
  -3  -8   3 10607.0 1319.67   6
  -3  -8   2 3188.73 765.296   6
  -3  -8   1 21757.0 1835.61   6
  -3  -8   0 326.398 431.273   6
  -3  -8  -1 16458.7 1546.73   6
  -3  -8  -3 9244.52 1231.19   5
  -3  -8  -4 2649.31 739.480   5
  -4   8   3 17877.1 1636.33   3
  -4   8   2 24678.4 1890.82   3
  -4   8   1 4380.93 808.650   3
  -4   8   0 28987.5 2001.63   3
  -4   8  -1 2407.34 620.176   3
  -4   8  -2 2755.35 631.001   3
  -4   8  -3 13988.0 1371.02   3
  -4   8  -4 16923.0 1522.69   3
  -4   8  -5 466.574 370.584   3
   4  -8   5 461.422 534.692   6
   4  -8   6 57197.5 3305.00   6
  -4   7   6 582.523 343.977   3
  -4   7   5 766.843 424.814   3
  -4   7   4 39285.5 2326.39   3
  -4   7   3 12578.9 1309.91   3
  -4   7   2 64093.7 3010.03   3
  -4   7   1 28263.4 1899.98   3
  -4   7   0 5884.81 863.164   3
  -4   7  -1 2999.30 659.734   3
  -4   7  -2 5333.26 831.221   3
  -4   7  -3 950.039 411.511   3
  -4   7  -4 5306.00 822.435   3
  -4   7  -5 524.154 340.759   3
   4  -7   6 6290.21 1024.84   6
   4  -7   7 62894.0 3231.37   6
   4  -7   7 67365.3 3171.94   1
   4  -7   8 5748.09 980.303   1
   4  -7   8 3024.77 791.764   6
   4  -7   9 481.965 329.401   6
   4  -7   9 926.107 516.462   1
   4  -7  10 25749.7 2008.58   6
   4  -7  11 2557.56 714.433   6
  -4   6   8 21164.6 1725.21   3
  -4   6   7 10181.3 1181.87   3
  -4   6   6 17300.0 1498.06   3
  -4   6   5 316.024 286.326   3
  -4   6   4 44460.4 2362.42   3
  -4   6   3 25769.8 1756.36   3
  -4   6   2 23945.6 1679.71   3
  -4   6   1 32049.7 1927.92   3
  -4   6   0 34235.5 1978.44   3
  -4   6  -1 15118.9 1287.41   3
  -4   6  -2 650.438 350.051   3
  -4   6  -3 16222.5 1366.56   3
  -4   6  -4 445.564 304.693   3
  -4   6  -5 77133.5 3158.81   3
   4  -6   6 2773.57 666.746   1
   4  -6   7 2927.89 704.012   6
   4  -6   7 1097.19 479.633   1
   4  -6   8 39862.2 2373.20   6
   4  -6   8 44776.9 2475.06   1
   4  -6   9 14280.3 1490.57   1
   4  -6   9 10645.3 1227.58   6
   4  -6  10 9816.46 1149.76   6
   4  -6  10 12493.8 1338.20   1
   4  -6  11 30504.3 2175.17   1
  -4   5  10 2715.29 685.509   3
  -4   5   9 3721.66 786.516   3
  -4   5   8 108859. 4026.19   3
  -4   5   7 9928.79 1110.98   3
  -4   5   6 8609.24 1025.76   3
  -4   5   5 51728.7 2500.97   3
  -4   5   4 2048.96 544.471   3
  -4   5   3 42996.3 2165.23   3
  -4   5   2 13677.0 1195.07   3
  -4   5   1 18123.2 1360.36   3
  -4   5   0 6102.56 791.568   3
  -4   5  -1 57247.4 2480.34   3
  -4   5  -2 14570.9 1213.69   3
  -4   5  -3 64735.0 2686.11   3
  -4   5  -4 7940.79 916.365   3
  -4   5  -5 13.8782 311.650   3
   4  -5   6 127905. 4262.04   1
   4  -5   7 456.210 362.587   1
   4  -5   8 255.674 302.533   6
   4  -5   8 47.4061 332.254   1
   4  -5   9 5345.03 788.588   6
   4  -5   9 6132.09 983.047   1
   4  -5  10 1032.51 449.029   6
   4  -5  10 1165.25 506.860   1
   4  -5  11 30045.7 2088.91   1
   4  -5  12 7376.48 1089.07   1
  -4   4  12 24528.1 1918.09   3
  -4   4  11-73.6063 319.864   3
  -4   4  10 19283.4 1598.27   3
  -4   4   9 485.674 292.042   3
  -4   4   8 14268.8 1289.66   3
  -4   4   7 61625.9 2711.74   3
  -4   4   6-29.8452 253.650   3
  -4   4   5 4567.78 690.774   3
  -4   4   4 117335. 3737.94   3
  -4   4   3 568.119 356.248   3
  -4   4   2 5370.39 720.475   3
  -4   4   1 27447.4 1580.68   3
  -4   4   0 832.414 337.981   3
  -4   4  -1 14986.5 1158.43   3
  -4   4  -2 16379.2 1229.17   3
  -4   4  -3 943.289 325.601   3
  -4   4  -4 151874. 4391.70   3
   4  -4   5 142.611 311.664   1
   4  -4   6 7785.78 911.712   1
   4  -4   7 33656.7 1948.24   1
   4  -4   8 909.143 370.411   6
   4  -4   8 339.095 357.341   1
   4  -4   9 4083.86 626.198   6
   4  -4   9 4577.94 760.738   1
   4  -4  10 3906.82 626.086   6
   4  -4  10 2879.04 627.731   1
   4  -4  11 3963.46 789.094   1
   4  -4  12 8322.45 1110.28   1
  -4   3  13 11768.7 1352.31   3
  -4   3  12 13393.3 1345.27   3
  -4   3  11 74029.4 3242.10   3
  -4   3  10 5124.87 775.354   3
  -4   3   9-104.407 258.380   3
  -4   3   8 61419.0 2657.05   3
  -4   3   7 236.417 259.086   3
  -4   3   6 6550.59 796.742   3
  -4   3   5 3211.88 562.711   3
  -4   3   4 670.088 318.046   3
  -4   3   3 120309. 3592.77   3
  -4   3   2 21209.2 1309.34   3
  -4   3   1 22366.6 1331.66   3
  -4   3   0 116209. 3449.76   3
  -4   3  -1 579.245 227.974   3
  -4   3  -2 22112.0 1355.16   3
  -4   3  -3 2990.92 500.790   3
   4  -3   4 177.657 328.403   1
  -4   3  -4-141.490 220.799   3
   4  -3   5 63378.7 2547.96   1
   4  -3   6 530.268 347.672   1
   4  -3   7 46204.7 2233.80   1
   4  -3   8 31846.4 1580.35   6
   4  -3   8 30891.6 1866.34   1
   4  -3   9 17178.2 1132.22   6
   4  -3   9 15862.6 1376.65   1
   4  -3  10 2660.79 635.557   1
   4  -3  11 36466.6 2254.31   1
   4  -3  12 775.954 368.782   1
   4  -3  13 3058.69 713.152   1
  -4   2  14 3060.05 689.977   3
   4  -2 -14 2394.42 673.674   2
   4  -2 -13 33319.8 2222.81   2
  -4   2  13 37309.7 2266.78   3
  -4   2  12 3084.81 605.136   3
   4  -2 -12 3667.83 754.900   2
   4  -2 -11 16682.9 1497.65   2
  -4   2  11 18150.4 1455.39   3
   4  -2 -10 63238.3 2882.39   2
  -4   2  10 63424.4 2754.49   3
   4  -2  -9 30189.9 1917.92   2
  -4   2   9 32900.0 1854.28   3
  -4   2   8 5791.07 761.316   3
   4  -2  -8 4642.28 714.951   2
   4  -2  -7 57855.7 2578.07   2
  -4   2   7 63182.9 2477.94   3
   4  -2  -6 33525.3 1827.43   2
  -4   2   6 33546.2 1698.06   3
   4  -2  -5 39774.8 1985.94   2
  -4   2   5 39516.7 1799.90   3
  -4   2   4 471.456 252.496   3
   4  -2  -4 127.927 253.142   2
   4  -2  -3 15729.7 1154.52   2
  -4   2   3 17676.1 1117.13   3
  -4   2   2 84670.1 2711.76   3
  -4   2   1 39807.1 1715.78   3
  -4   2   0 20856.1 1206.48   3
  -4   2  -1 241417. 5577.26   3
  -4   2  -2 15684.0 1041.72   3
   4  -2   3 8875.37 845.596   1
  -4   2  -3 8505.71 790.672   3
   4  -2   4 58448.7 2287.07   1
   4  -2   5 577.724 321.403   1
  -4   2  -5 351.500 143.429   2
  -4   2  -6 13966.6 830.208   2
   4  -2   6 13995.7 547.216   4
   4  -2   6 15243.7 1170.45   1
   4  -2   7 11204.7 1068.45   1
   4  -2   8 3450.44 636.541   1
   4  -2   8 3137.52 434.658   6
  -4   2  -9 129100. 3987.07   5
   4  -2   9 126922. 4256.73   1
  -4   2 -10 253.941 244.590   5
   4  -2  10 1259.69 497.431   1
  -4   2 -11 1906.05 498.374   5
   4  -2  11 3238.97 701.947   1
  -4   2 -12 71527.4 3049.41   5
   4  -2  12 79400.9 3491.67   1
  -4   2 -13 10638.2 1149.08   5
   4  -2  13 11132.3 1303.88   1
  -4   1  15 33028.0 2214.81   3
   4  -1 -14 12734.3 1378.59   2
  -4   1  14 10379.5 1180.62   3
  -4   1  13 2657.65 628.179   3
   4  -1 -13 1371.00 603.922   2
   4  -1 -12 75953.6 3300.54   2
  -4   1  12 67796.9 2962.49   3
  -4   1  11-35.2428 276.512   3
   4  -1 -11-223.565 306.998   2
  -4   1  10 27193.4 1654.94   3
   4  -1 -10 28284.7 1825.12   2
  -4   1   9 1973.67 448.524   3
   4  -1  -9 2152.43 470.100   2
   4  -1  -8 5822.98 807.272   2
  -4   1   8 6814.17 754.261   3
   4  -1  -7 111031. 3707.77   2
  -4   1   7 115577. 3434.58   3
   4  -1  -6 12197.3 1080.03   2
  -4   1   6 12536.4 955.207   3
   4  -1  -5 25059.7 1514.06   2
  -4   1   5 25031.1 1311.63   3
   4  -1  -4 176507. 4645.15   2
  -4   1   4 173825. 4271.13   3
   4  -1  -3 32940.2 1628.54   2
  -4   1   3 32446.0 1457.09   3
   4  -1  -2 4653.69 603.160   2
  -4   1   2 5323.81 575.377   3
   4  -1  -1 19526.3 1153.80   2
  -4   1   1 21281.2 1136.00   3
  -4   1   0 4423.80 531.438   3
   4  -1   0 4813.56 568.223   2
   4  -1   1 90239.4 2641.73   2
  -4   1  -1 86927.6 2646.62   3
   4  -1   2 135311. 3624.80   1
  -4   1  -2 132441. 3530.07   3
   4  -1   3 42152.3 1803.80   1
  -4   1  -3 43032.3 1564.37   2
  -4   1  -4 13926.1 792.546   2
   4  -1   4 13545.1 1018.88   1
   4  -1   5 134981. 3052.09   4
  -4   1  -5 125834. 3004.20   2
   4  -1   5 131646. 3799.31   1
   4  -1   6 3636.29 619.736   1
   4  -1   6 3184.68 331.690   4
  -4   1  -7 22624.9 1499.83   5
   4  -1   7 21181.1 1450.52   1
   4  -1   8 4125.44 374.159   6
  -4   1  -8 4069.82 671.030   5
   4  -1   8 3906.77 646.429   1
  -4   1  -9 17256.7 1380.05   5
   4  -1   9 18488.8 1462.89   1
  -4   1 -10 74625.5 3105.15   5
   4  -1  10 77281.2 3236.87   1
  -4   1 -11 18523.4 1509.79   5
   4  -1  11 19843.0 1620.85   1
   4  -1  12 5991.21 961.101   1
  -4   1 -12 4433.54 788.897   5
  -4   1 -13 42909.0 2499.50   5
   4  -1  13 45481.9 2689.68   1
  -4   1 -14 270.424 305.976   5
  -4   1 -15 1416.96 684.952   5
  -4   0  15 1150.38 450.482   3
   4   0 -14 73470.4 3405.63   2
  -4   0  14 65251.2 3012.47   3
  -4   0  13 774.065 329.623   3
   4   0 -13 871.231 484.944   2
  -4   0  12 5943.76 806.013   3
   4   0 -12 5272.64 874.938   2
   4   0 -11 28202.9 1882.54   2
  -4   0  11 24848.2 1580.08   3
  -4   0  10 1060.00 372.220   3
   4   0 -10 1255.03 464.336   2
  -4   0   9 4073.11 597.722   3
   4   0  -9 4690.39 770.535   2
   4   0  -8 7709.55 895.789   2
  -4   0   8 7636.30 766.796   3
  -4   0   7 2202.90 411.360   3
   4   0  -7 2173.93 513.749   2
   4   0  -6 115525. 3651.77   2
  -4   0   6 118155. 3165.87   3
   4   0  -6 107106. 2877.18   1
   4   0  -5 11192.2 1008.58   2
  -4   0   5 10302.3 764.415   3
   4   0  -4 27978.8 1551.39   2
  -4   0   4 31050.2 1329.66   3
   4   0  -3 101107. 3143.73   2
  -4   0   3 102974. 2772.80   3
   4   0  -2 100278. 3031.69   2
  -4   0   2 101069. 2697.82   3
   4   0  -2 97996.0 2645.72   3
   4   0  -1 34937.6 1573.95   2
  -4   0   1 34941.3 1379.50   3
   4   0  -1 33201.4 1333.83   3
   4   0   0 20188.6 1037.79   1
   4   0   0 20096.6 1102.99   2
  -4   0   0 19560.5 1012.35   3
   4   0   1 25143.4 1224.41   1
   4   0   1 27711.5 1263.65   2
  -4   0  -1 24709.3 1184.19   3
   4   0   2 32513.0 1331.36   2
   4   0   2 31371.8 1342.79   6
   4   0   2 32589.3 1444.72   1
   4   0   3 19649.3 952.422   2
   4   0   3 18839.9 1116.91   1
   4   0   3 18577.3 960.126   6
   4   0   4 51005.5 1778.27   4
   4   0   4 50740.1 2000.45   1
   4   0   4 44636.5 1532.26   6
   4   0   5 39088.8 1512.33   4
   4   0   5 38472.6 1823.50   1
   4   0   5 38800.2 1299.35   6
  -4   0  -6 49752.8 2304.58   5
   4   0   6 51356.3 1735.62   4
   4   0   6 52043.4 2201.73   1
   4   0   6 46292.4 1357.48   6
  -4   0  -7 32974.0 1891.01   5
   4   0   7 35292.6 1866.58   1
  -4   0  -8 28242.3 1801.57   5
   4   0   8 28318.1 1725.66   1
  -4   0  -9 4604.38 773.728   5
   4   0   9 6556.17 888.105   1
   4   0  10-189.230 350.373   1
  -4   0 -10 723.990 431.572   5
   4   0  11 3915.52 764.925   1
  -4   0 -11 4394.19 835.123   5
   4   0  12 517.457 369.237   1
  -4   0 -12 974.579 507.083   5
   4   0  13-332.526 484.051   1
  -4   0 -13 968.140 574.402   5
  -4   0 -14 16194.1 1641.21   5
  -4  -1  14 6573.61 868.708   3
   4   1 -14 6323.54 1039.12   2
   4   1 -13 37135.0 2318.07   2
  -4  -1  13 31903.9 1873.49   3
   4   1 -12 20986.4 1720.16   2
  -4  -1  12 20432.2 1402.59   3
  -4  -1  11-34.7621 201.246   3
   4   1 -11 23.6522 328.396   2
   4   1 -10 56664.5 2690.99   2
  -4  -1  10 55816.3 2225.85   3
  -4  -1   9 61.0189 173.597   3
   4   1  -9 390.261 401.457   2
   4   1  -8 30103.3 1821.17   2
  -4  -1   8 32031.3 1471.31   3
   4   1  -7 97428.3 3427.23   2
  -4  -1   7 100190. 2801.61   3
  -4  -1   6 1538.46 295.535   3
   4   1  -6 1222.51 222.096   1
   4   1  -6 1066.72 359.162   2
   4   1  -5 22827.8 1427.27   2
  -4  -1   5 23663.1 1062.95   3
   4   1  -5 21309.2 882.401   1
  -4  -1   4 1159.78 252.601   3
   4   1  -4 735.969 375.563   2
   4   1  -3 33905.2 1674.55   2
  -4  -1   3 31697.1 1191.98   3
   4   1  -3 30145.8 1154.31   3
   4   1  -2 65759.3 1803.04   1
   4   1  -2 64035.5 2314.83   2
  -4  -1   2 63221.3 1818.63   3
   4   1  -2 60055.5 1780.15   3
   4   1  -1 18182.7 1114.47   2
  -4  -1   1 18891.6 880.126   3
   4   1  -1 17555.2 843.847   3
   4   1  -1 17531.9 860.791   1
   4   1   0 37507.0 1587.06   2
   4   1   0 36777.9 1320.35   3
   4   1   0 36553.1 1362.43   1
   4   1   1 132383. 3396.00   2
   4   1   1 131459. 3205.42   3
   4   1   1 136182. 3324.96   1
   4   1   2 8948.88 798.804   4
   4   1   2 9978.15 707.075   2
   4   1   2 10344.1 766.960   1
   4   1   2 8548.72 667.286   6
   4   1   3 325.120 199.569   6
   4   1   3 308.530 247.867   4
   4   1   3 519.716 207.939   2
   4   1   3 336.371 213.627   1
   4   1   4 22710.2 939.360   2
   4   1   4 22219.8 1239.15   4
   4   1   4 20003.3 1212.84   1
   4   1   4 18690.0 899.763   6
  -4  -1  -5 11895.1 1110.72   5
   4   1   5 12216.1 603.255   2
   4   1   5 12637.2 929.656   4
   4   1   5 12475.4 996.368   1
   4   1   5 10700.2 592.084   6
  -4  -1  -6 16639.0 1358.38   5
   4   1   6 18114.5 1274.85   1
   4   1   6 18455.0 1117.28   4
  -4  -1  -7 11496.6 1165.52   5
   4   1   7 11608.7 1053.32   1
  -4  -1  -8 25457.6 1794.73   5
   4   1   8 27070.6 1687.26   1
  -4  -1  -9 41129.4 2377.08   5
   4   1   9 42980.5 2272.39   1
  -4  -1 -10 21559.5 1758.65   5
   4   1  10 22566.5 1674.42   1
   4   1  11 28207.0 1961.82   1
  -4  -1 -11 26954.5 2025.57   5
   4   1  12 8445.19 1111.05   1
  -4  -1 -12 10365.3 1296.64   5
   4   1  13 18441.7 1719.31   1
  -4  -1 -13 14900.8 1569.69   5
   4   2 -14 4073.54 875.417   2
   4   2 -13 414.826 404.207   2
   4   2 -12 21052.1 1738.56   2
   4   2 -11 15481.5 1435.91   2
   4   2 -10 8766.22 1081.15   2
   4   2  -9 145988. 4682.78   2
  -4  -2   9 142877. 3661.28   3
   4   2  -8 7047.50 908.517   2
  -4  -2   8 7873.48 644.821   3
  -4  -2   8 8014.72 981.501   6
  -4  -2   7 8417.22 614.290   3
  -4  -2   7 9668.94 1022.82   6
   4   2  -6 54751.2 1215.55   1
  -4  -2   6 58145.6 2570.17   6
   4   2  -5 7322.26 299.069   1
  -4  -2   5 10249.7 578.108   3
   4   2  -5 7748.13 303.510   1
  -4  -2   5 10025.8 980.793   6
  -4  -2   4 32169.6 1031.16   3
   4   2  -4 29201.6 775.981   1
  -4  -2   4 29625.1 1653.48   6
   4   2  -4 28335.6 770.984   1
  -4  -2   3 527.976 142.202   3
  -4  -2   3 1186.59 385.009   6
   4   2  -3 567.931 121.259   1
  -4  -2   2 1313.87 388.344   6
   4   2  -2 922.805 176.864   3
   4   2  -2 1293.14 195.727   1
   4   2  -1 116983. 2639.97   1
   4   2  -1 107701. 2481.72   3
  -4  -2   1 117841. 3369.12   6
   4   2   0 132.605 96.6693   3
   4   2   0 691.449 215.330   1
   4   2   1 619.521 166.395   3
   4   2   1 110.914 165.813   1
   4   2   1 221.889 214.790   4
   4   2   2 171289. 4521.22   4
   4   2   2 167267. 3969.28   1
   4   2   2 157203. 3683.94   3
   4   2   3 31410.9 1448.83   1
   4   2   3 30992.7 1626.27   4
   4   2   3 30283.3 1275.58   2
   4   2   3 26951.1 1226.08   6
   4   2   4 4846.60 465.341   6
   4   2   4 5005.84 627.822   1
  -4  -2  -4 5170.25 807.738   5
   4   2   4 6012.28 708.965   4
   4   2   4 5706.48 501.015   2
  -4  -2  -5 74627.9 3136.58   5
   4   2   5 78436.7 2750.23   1
   4   2   5 81465.9 2817.55   4
   4   2   5 81092.0 2045.81   2
  -4  -2  -6 11581.5 1180.10   5
   4   2   6 10265.0 961.435   1
   4   2   7 3218.13 613.026   1
  -4  -2  -7 3555.83 732.262   5
   4   2   8 8063.57 944.830   1
  -4  -2  -8 8875.34 1099.77   5
  -4  -2  -9 250.840 424.571   5
   4   2   9 31.3150 384.391   1
   4   2  10 81750.8 3345.16   1
  -4  -2 -10 75166.0 3568.27   5
  -4  -2 -11 3537.98 808.851   5
   4   2  11 3181.60 698.387   1
   4   2  12 14611.5 1468.62   1
  -4  -2 -12 13463.0 1548.58   5
   4   3 -13 18213.4 1693.59   2
   4   3 -12 1357.33 576.831   2
  -4  -3  12 877.176 424.951   6
  -4  -3  11 12490.6 1338.45   6
  -4  -3  10 4423.47 772.513   6
  -4  -3   9 855.593 504.579   6
  -4  -3   8 54970.1 2693.79   6
  -4  -3   7 14593.4 1322.94   6
  -4  -3   6 71990.7 2957.03   6
  -4  -3   5 17259.2 1334.95   6
  -4  -3   4 4703.63 694.333   6
  -4  -3   3 41560.0 2010.23   6
  -4  -3   2 99690.7 3241.11   6
   4   3  -2 96485.5 1930.13   1
  -4  -3   1 120.018 289.721   6
   4   3  -1 610.829 334.960   4
   4   3  -1 501.415 151.323   1
   4   3   0 31190.2 1143.42   1
   4   3   0 29865.2 1740.59   4
   4   3   0 30702.9 930.602   3
  -4  -3   0 32211.9 1584.94   6
   4   3   1 27.2522 90.1914   3
  -4  -3  -1 422.919 259.974   6
   4   3   1 216.813 345.272   4
   4   3   1 141.736 201.754   1
   4   3   2 9676.48 727.333   1
   4   3   2 11237.4 1039.47   4
  -4  -3  -2 11541.1 859.701   6
   4   3   3 61374.2 2141.09   1
  -4  -3  -3 60430.4 2729.20   5
   4   3   3 58385.1 2541.91   4
  -4  -3  -3 61081.3 2038.47   6
  -4  -3  -4 4303.38 776.880   5
   4   3   4 3701.32 618.009   4
   4   3   4 3435.81 514.102   1
  -4  -3  -5 1815.94 572.699   5
   4   3   5 1369.26 425.710   4
   4   3   5 1823.26 458.732   1
   4   3   6 129537. 3922.98   1
  -4  -3  -6 134212. 4633.05   5
   4   3   7 8497.15 923.124   1
  -4  -3  -7 8738.13 1141.46   5
  -4  -3  -8 4373.76 852.982   5
   4   3   8 5560.01 811.939   1
  -4  -3  -9 5032.95 957.335   5
   4   3   9 4472.34 741.977   1
  -4  -3 -10 554.187 442.721   5
   4   3  10-318.224 355.288   1
   4   3  11 48470.4 2644.98   1
  -4  -3 -11 45357.3 2909.61   5
   4   3  12 1388.25 546.413   1
  -4  -4  12 11578.0 1399.45   6
  -4  -4  11 6841.92 1031.58   6
  -4  -4  10 20911.2 1752.91   6
  -4  -4   9 21688.2 1761.77   6
  -4  -4   8 3648.41 733.759   6
  -4  -4   7 9944.89 1111.13   6
  -4  -4   6 1168.12 470.416   6
  -4  -4   5 83417.9 3311.00   6
   4   4  -4 45832.3 2397.83   4
  -4  -4   4 45082.6 2282.70   6
   4   4  -3 23073.7 1657.73   4
  -4  -4   3 22422.3 1530.63   6
   4   4  -2 7082.72 930.001   4
  -4  -4   2 8081.68 901.620   6
   4   4  -1 188225. 5456.97   4
  -4  -4   1 187128. 5052.55   6
   4   4   0 19980.4 1528.08   4
   4   4   0 21933.2 924.791   1
  -4  -4   0 21876.3 1386.10   6
  -4  -4  -1 225.951 242.225   6
   4   4   1 450.232 196.062   1
   4   4   1-82.9199 290.880   4
  -4  -4  -2 324.020 216.679   6
   4   4   2 522.255 355.693   4
   4   4   2 116.591 227.180   1
  -4  -4  -3 13176.8 1289.08   5
   4   4   3 13062.1 1239.55   4
  -4  -4  -3 13994.9 969.705   6
   4   4   3 15633.3 1022.00   1
   4   4   4 42298.6 1866.18   1
  -4  -4  -4 46772.3 2535.13   5
   4   4   4 42771.0 2297.94   4
  -4  -4  -5 182.349 359.399   5
   4   4   5 2004.36 446.419   1
  -4  -4  -6 826.447 492.712   5
   4   4   6 636.379 377.691   1
   4   4   7 90709.6 3330.82   1
  -4  -4  -7 95844.6 4052.42   5
   4   4   8 9569.79 1035.13   1
  -4  -4  -8 10291.8 1323.78   5
  -4  -4  -9 4586.18 924.963   5
   4   4   9 2992.91 684.256   1
   4   4  10 6163.06 949.941   1
   4   4  11 5041.63 862.171   1
  -4  -5  10 14690.0 1557.98   6
  -4  -5   9 72678.5 3478.86   6
  -4  -5   8 2598.61 701.611   6
   4   5  -8 2524.45 709.700   4
  -4  -5   7 6403.24 965.708   6
   4   5  -7 7541.02 1094.94   4
   4   5  -6 19204.5 1635.45   4
  -4  -5   6 17973.5 1569.72   6
  -4  -5   5 4056.78 731.941   6
   4   5  -5 3325.90 696.014   4
  -4  -5   4 1525.25 510.815   6
   4   5  -4 879.329 402.232   4
   4   5  -3 35895.1 2212.41   4
  -4  -5   3 31206.7 1956.99   6
   4   5  -2 46458.4 2547.94   4
  -4  -5   2 42368.0 2222.77   6
   4   5  -1 12841.1 1302.84   4
  -4  -5   1 13778.8 1202.41   6
   4   5   0 16919.7 1505.64   4
  -4  -5   0 15621.2 1243.64   6
   4   5   1 23177.7 1759.37   4
  -4  -5  -1 21038.9 1404.56   6
   4   5   2 17315.2 1527.49   4
  -4  -5  -2 16569.4 1200.06   6
  -4  -5  -3 2157.57 635.591   5
   4   5   3 1983.14 584.169   4
  -4  -5  -4 662.961 452.522   5
   4   5   4 847.767 305.427   1
  -4  -5  -5 54723.1 2979.19   5
   4   5   5 58834.0 2428.75   1
  -4  -5  -6 423.311 466.593   5
   4   5   6 856.203 437.291   1
  -4  -5  -7 656.854 470.192   5
   4   5   7 487.520 351.190   1
  -4  -5  -8 14458.5 1615.32   5
   4   5   8 11962.4 1214.74   1
   4   5   9 17585.5 1527.32   1
   4   5  10 5215.26 892.523   1
   4   6  -9 485.502 403.951   4
   4   6  -8 72596.8 3570.45   4
  -4  -6   8 77408.1 3712.88   6
  -4  -6   7 1095.11 603.247   6
   4   6  -7 927.867 418.460   4
  -4  -6   6 9222.73 1194.17   6
   4   6  -6 8709.02 1197.98   4
   4   6  -5 36292.4 2385.78   4
  -4  -6   5 27867.1 2031.93   6
  -4  -6   4 772.249 523.929   6
   4   6  -4 1658.28 579.800   4
  -4  -6   3 2143.59 580.710   6
   4   6  -3 1227.88 504.981   4
  -4  -6   2 6551.61 918.340   6
   4   6  -2 8337.64 1155.24   4
  -4  -6   1 7675.33 967.880   6
   4   6  -1 6738.50 1028.80   4
   4   6   0 54148.8 2919.55   4
  -4  -6   0 50191.7 2480.69   6
  -4  -6  -1 3754.47 680.726   6
   4   6   1 3468.20 817.560   4
   4   6   2 251.608 387.984   4
  -4  -6  -3 69893.1 3366.02   5
  -4  -6  -4 17701.8 1684.67   5
  -4  -6  -5 22387.7 1935.38   5
  -4  -6  -6 26272.0 2150.81   5
  -4  -7   5 224.415 344.043   6
  -4  -7   4 33477.8 2305.17   6
  -4  -7   3 886.374 542.670   6
  -4  -7   2 251.110 325.614   6
  -4  -7   1 19222.0 1633.55   6
  -4  -7   0 1190.51 420.205   6
  -4  -7  -4 34183.0 2437.04   5
  -4  -8   1 1786.54 622.433   6
  -5   7   3 2922.10 695.912   3
  -5   7   2-22.0344 460.518   3
  -5   7   1 61918.0 3088.79   3
  -5   7   0 2007.18 571.292   3
  -5   7  -1 6168.62 961.082   3
  -5   7  -2 38650.7 2357.11   3
  -5   7  -3 3563.51 763.099   3
  -5   7  -4 6801.27 992.489   3
  -5   7  -5 18679.5 1660.65   3
   5  -7   7 10662.5 1357.82   6
   5  -7   8 2474.42 700.484   6
   5  -7   9 6590.18 1077.60   6
  -5   6   6 1451.15 541.554   3
  -5   6   5 35062.9 2248.60   3
  -5   6   4 8721.86 1136.43   3
  -5   6   3 44540.9 2500.38   3
  -5   6   2 2620.70 655.239   3
  -5   6   1 9.01690 292.962   3
  -5   6   0 17348.0 1505.60   3
  -5   6  -1 262.833 283.367   3
  -5   6  -2 2180.85 571.965   3
  -5   6  -3 40918.0 2358.76   3
  -5   6  -4 1406.06 499.624   3
  -5   6  -5 7284.48 1007.27   3
   5  -6   6 51280.7 2785.39   1
   5  -6   7 197.121 390.950   1
   5  -6   8 5249.27 870.539   6
   5  -6   8 5479.30 935.495   1
   5  -6   9 8334.26 1110.74   6
  -5   5   8 16247.6 1514.81   3
  -5   5   7 3253.93 657.739   3
  -5   5   6 4388.58 749.561   3
  -5   5   5 52392.9 2649.60   3
  -5   5   4 64646.1 2946.85   3
  -5   5   3 16098.2 1415.87   3
  -5   5   2 15209.6 1355.32   3
  -5   5   1 59427.9 2735.89   3
  -5   5   0 36.0924 299.988   3
  -5   5  -1 1758.66 502.065   3
  -5   5  -2 11930.0 1176.07   3
  -5   5  -3 2081.93 503.143   3
  -5   5  -4 66045.0 2935.64   3
  -5   5  -5 833.144 409.058   3
   5  -5   5 888.777 509.956   1
   5  -5   6 19376.4 1613.91   1
   5  -5   7 42572.2 2463.49   1
   5  -5   8 5903.22 958.018   1
   5  -5   8 5417.42 851.436   6
   5  -5   9 5187.75 916.771   1
  -5   4  10 1092.43 557.002   3
  -5   4   9 43936.2 2479.51   3
  -5   4   8 51069.3 2643.51   3
  -5   4   7 7780.44 1007.80   3
  -5   4   6 24788.1 1724.95   3
  -5   4   5 930.479 399.435   3
  -5   4   4 42540.8 2241.46   3
  -5   4   3 53267.2 2504.03   3
  -5   4   2 16469.1 1339.43   3
  -5   4   1 2783.75 608.860   3
  -5   4   0 77142.3 3013.66   3
  -5   4  -1 15769.4 1295.22   3
  -5   4  -2 35691.6 1980.39   3
  -5   4  -3 262.321 270.964   3
  -5   4  -4 2519.25 608.583   3
   5  -4   4 2559.21 618.004   1
   5  -4   5 49594.0 2482.11   1
   5  -4   6 4905.98 810.151   1
   5  -4   7 1109.07 475.722   1
   5  -4   8 28356.7 1958.49   1
   5  -4   9 11103.3 1248.38   1
   5  -4  10 7563.69 1086.84   1
  -5   3  12 4139.63 814.083   3
  -5   3  11 28361.6 1983.25   3
  -5   3  10 49.9088 348.708   3
  -5   3   9 24790.9 1752.76   3
  -5   3   8 100374. 3712.77   3
  -5   3   7 1962.75 487.964   3
  -5   3   6 48941.3 2344.93   3
  -5   3   5 70982.6 2846.23   3
  -5   3   4 406.481 328.147   3
  -5   3   3 13502.9 1147.91   3
  -5   3   2 181.889 248.919   3
  -5   3   1 8440.33 906.912   3
  -5   3   0 42178.1 2043.79   3
  -5   3  -1 90.5593 243.304   3
  -5   3  -2 56316.0 2423.63   3
   5  -3   3 122795. 3938.65   1
  -5   3  -3 121132. 3860.90   3
   5  -3   4 156.061 271.977   1
   5  -3   5 5422.44 799.726   1
   5  -3   6 8130.85 959.902   1
   5  -3   7 2645.93 633.850   1
   5  -3   8 671.212 437.857   1
   5  -3   9 22319.6 1737.93   1
   5  -3  10 10525.5 1255.33   1
   5  -3  11 17926.7 1697.59   1
  -5   2  13-490.741 425.638   3
   5  -2 -12 27209.2 2108.66   2
  -5   2  12 27052.4 1922.22   3
   5  -2 -11 10950.9 1304.13   2
  -5   2  11 10758.6 1152.95   3
   5  -2 -10 9635.57 1193.64   2
  -5   2  10 10457.5 1093.67   3
  -5   2   9 3493.53 662.451   3
   5  -2  -9 1907.85 567.098   2
  -5   2   8 4626.28 728.525   3
   5  -2  -8 5773.59 893.546   2
   5  -2  -7 44107.1 2377.40   2
  -5   2   7 44567.2 2173.97   3
   5  -2  -6 26220.5 1761.66   2
  -5   2   6 23710.3 1506.60   3
   5  -2  -5 13458.5 1240.24   2
  -5   2   5 12482.5 1064.85   3
   5  -2  -4 84954.4 3229.22   2
  -5   2   4 86259.5 3004.92   3
  -5   2   3 3334.89 576.776   3
   5  -2  -3 3150.66 619.323   2
  -5   2   2 2343.16 476.549   3
  -5   2   1 8821.71 857.493   3
  -5   2   0 1569.40 431.303   3
  -5   2  -1 56995.1 2324.50   3
  -5   2  -2 2612.28 501.623   3
   5  -2   2 2618.60 534.100   1
   5  -2   3 9478.69 935.462   1
  -5   2  -3 10679.3 985.617   3
   5  -2   4 110446. 3639.68   1
   5  -2   5 37551.8 1990.85   1
   5  -2   6 25041.9 1639.54   1
   5  -2   7 16588.6 1400.30   1
   5  -2   8 20455.6 1604.12   1
   5  -2   9 12026.4 1273.65   1
   5  -2  10 14399.7 1451.76   1
   5  -2  11 10797.8 1301.97   1
  -5   1  14 15597.2 1513.92   3
  -5   1  13 1047.00 412.707   3
   5  -1 -12 24889.5 1946.11   2
  -5   1  12 21528.8 1650.18   3
   5  -1 -11 17179.0 1600.88   2
  -5   1  11 15351.5 1332.01   3
   5  -1 -10 24519.1 1849.95   2
  -5   1  10 22674.6 1575.51   3
   5  -1  -9 14997.2 1431.66   2
  -5   1   9 15396.0 1223.87   3
   5  -1  -8 42478.9 2354.28   2
  -5   1   8 42584.9 2047.40   3
   5  -1  -7 11370.5 1182.74   2
  -5   1   7 13109.8 1075.47   3
  -5   1   6 3359.79 541.585   3
   5  -1  -6 2806.25 607.884   2
  -5   1   5 2310.76 436.992   3
   5  -1  -5 2190.26 580.859   2
   5  -1  -4 73203.3 2911.92   2
  -5   1   4 79016.1 2694.92   3
   5  -1  -3 106944. 3553.81   2
  -5   1   3 108666. 3250.70   3
   5  -1  -2 24091.8 1475.76   2
  -5   1   2 22372.3 1295.66   3
   5  -1  -1 37180.3 1853.37   2
  -5   1   1 38459.1 1735.75   3
   5  -1   0 236642. 5726.02   2
  -5   1   0 240061. 5609.66   3
   5  -1   1 9451.97 857.168   1
   5  -1   1 8802.65 815.789   2
  -5   1  -1 7740.67 762.982   3
   5  -1   2 7414.64 770.497   1
   5  -1   3 8467.15 851.685   1
   5  -1   4 11863.7 1033.78   1
   5  -1   5 76631.4 2341.63   4
   5  -1   5 73132.6 2862.41   1
   5  -1   6 11387.4 767.660   4
   5  -1   6 12218.5 1127.05   1
   5  -1   7 16865.1 1376.42   1
   5  -1   8 99799.2 3706.02   1
   5  -1   9 752.989 400.830   1
   5  -1  10 3037.54 695.830   1
  -5   1 -11 18031.6 1625.23   5
   5  -1  11 19290.9 1694.57   1
  -5   1 -12 622.400 410.111   5
   5  -1  12 793.575 557.465   1
  -5   1 -13 3831.26 832.182   5
  -5   1 -14 14842.9 1584.50   5
  -5   0  12 309.181 303.710   3
   5   0 -12 1079.25 530.520   2
   5   0 -11 58490.9 2985.16   2
  -5   0  11 51024.8 2401.54   3
   5   0 -10 12453.4 1361.98   2
  -5   0  10 12215.4 1067.73   3
   5   0  -9 13389.3 1330.89   2
  -5   0   9 13019.7 1077.90   3
   5   0  -8 34220.7 2109.56   2
  -5   0   8 36710.8 1771.46   3
   5   0  -7 111915. 3999.55   2
  -5   0   7 115010. 3415.49   3
  -5   0   6 1243.06 341.491   3
   5   0  -6 595.713 379.798   2
   5   0  -5 11793.6 1121.58   2
  -5   0   5 9149.18 800.399   3
  -5   0   4 5140.03 580.386   3
   5   0  -4 4807.55 735.450   2
  -5   0   3 680.746 256.436   3
   5   0  -3 804.477 405.673   2
   5   0  -2 103825. 3395.87   2
  -5   0   2 106184. 3017.76   3
   5   0  -1 34509.1 1527.08   1
   5   0  -1 35886.7 1766.39   2
  -5   0   1 36130.0 1562.99   3
  -5   0   0 1541.55 366.373   3
   5   0   0 650.819 311.652   1
   5   0   0 1285.63 327.843   2
   5   0   1 228899. 5384.94   2
   5   0   1 227477. 5327.55   1
   5   0   2 6514.84 648.792   2
   5   0   2 5903.96 664.008   1
   5   0   3 16963.2 1026.37   2
   5   0   3 17188.0 1205.66   1
   5   0   4 16961.6 1105.55   4
   5   0   4 15526.5 1174.15   1
   5   0   5 657.257 307.636   4
   5   0   5 335.488 281.315   1
   5   0   6 29715.1 1443.75   4
   5   0   6 32217.5 1828.96   1
   5   0   7 9731.67 1046.38   1
   5   0   8 255.875 366.547   1
  -5   0  -9 94664.8 3862.70   5
   5   0   9 91887.8 3667.27   1
  -5   0 -10 16656.2 1579.54   5
   5   0  10 16228.4 1509.78   1
   5   0  11 1106.21 555.855   1
  -5   0 -11 1527.93 635.465   5
  -5   0 -12 37001.0 2498.60   5
  -5   0 -13 3378.10 818.740   5
   5   1 -12 10070.7 1278.10   2
   5   1 -11 2767.03 705.413   2
   5   1 -10 23376.0 1855.06   2
   5   1  -9 31898.5 2095.54   2
   5   1  -8 19338.0 1557.34   2
  -5  -1   8 20278.4 1203.97   3
   5   1  -7 26406.2 1801.38   2
  -5  -1   7 26127.7 1310.76   3
   5   1  -6 17350.0 1419.20   2
  -5  -1   6 19989.5 1111.38   3
   5   1  -5 34323.0 1935.93   2
  -5  -1   5 35061.6 1462.72   3
   5   1  -4 60647.9 1835.61   1
   5   1  -4 60203.7 2572.95   2
  -5  -1   4 57778.6 1951.48   3
  -5  -1   3 1169.36 256.197   3
   5   1  -3 1347.32 269.902   1
   5   1  -3 1513.64 451.823   2
   5   1  -2 8001.17 862.476   2
  -5  -1   2 9333.93 687.399   3
   5   1  -2 9473.99 681.974   1
   5   1  -1 55256.5 2288.92   2
   5   1  -1 58618.1 1929.96   1
   5   1   0 310.812 190.511   1
   5   1   0 276.749 271.293   2
   5   1   1 97326.8 3047.65   2
   5   1   1 101888. 2959.94   1
   5   1   2 2106.83 475.608   4
   5   1   2 1838.52 380.987   2
   5   1   2 1111.50 381.852   1
   5   1   3 39603.0 1945.40   4
   5   1   3 43620.0 1690.87   2
   5   1   3 43904.0 1920.64   1
   5   1   4 43095.6 1607.28   2
   5   1   4 42124.1 1959.34   4
   5   1   4 45514.5 2030.47   1
   5   1   5 32375.1 1671.31   4
   5   1   5 30801.3 1744.61   1
   5   1   6 45379.9 2010.36   4
   5   1   6 45849.5 2217.11   1
   5   1   7 2157.62 522.559   1
   5   1   8 2781.16 597.640   1
  -5  -1  -8 2881.63 695.051   5
  -5  -1  -9 9770.31 1248.72   5
   5   1   9 13141.1 1316.34   1
  -5  -1 -10 6495.82 1030.84   5
   5   1  10 9155.17 1169.72   1
   5   1  11 4567.11 875.215   1
  -5  -1 -11 2622.42 730.643   5
   5   2 -11 20205.1 1754.47   2
   5   2 -10 3840.85 765.736   2
   5   2  -9 2733.47 681.672   2
   5   2  -8 26734.4 1884.32   2
   5   2  -7 10933.8 1192.75   2
   5   2  -6 17351.8 1441.17   2
   5   2  -5 7733.73 994.724   2
   5   2  -4 732.759 327.371   2
   5   2  -3 84057.7 3132.41   2
   5   2  -2-73.1308 136.015   1
   5   2  -2 161.494 279.034   2
   5   2  -1 3958.96 431.214   1
   5   2  -1 3569.14 584.597   2
   5   2   0 44209.7 1640.39   1
   5   2   0 42559.4 1954.55   2
   5   2   1 32735.5 1853.97   4
   5   2   1 31497.1 1425.73   1
   5   2   1 29393.5 1540.27   2
   5   2   2 15886.8 1261.00   4
   5   2   2 14226.6 986.682   1
   5   2   2 14928.4 1032.64   2
   5   2   3 7973.45 766.444   1
   5   2   3 8278.64 748.677   2
   5   2   3 5654.85 788.008   4
   5   2   4 17165.0 1226.66   1
   5   2   4 17840.0 1338.55   4
   5   2   4 20078.2 1066.56   2
   5   2   5 36812.0 1883.00   1
   5   2   5 34993.3 1913.72   4
   5   2   6 79765.1 3073.27   1
   5   2   6 82902.4 3080.48   4
  -5  -2  -7 54475.5 2925.07   5
   5   2   7 51166.6 2452.56   1
   5   2   8 6951.33 916.139   1
  -5  -2  -8 5579.10 948.084   5
  -5  -2  -9 41977.3 2677.28   5
   5   2   9 44958.2 2464.70   1
  -5  -2 -10 7768.20 1196.28   5
   5   2  10 8887.01 1103.85   1
   5   2  11 2117.55 578.198   1
   5   3 -10 33115.9 2272.28   2
   5   3  -9 179.784 337.742   2
   5   3  -8 737.832 439.447   2
  -5  -3   7 13632.3 1359.43   6
  -5  -3   6 56.9491 291.423   6
  -5  -3   5 27516.6 1845.88   6
  -5  -3   4 785.538 312.658   6
  -5  -3   3 1002.70 334.679   6
  -5  -3   2 85966.5 3199.91   6
   5   3  -1 16670.5 1421.95   4
   5   3   0 15951.3 1394.69   4
   5   3   1 62635.6 2051.29   1
   5   3   1 59334.7 2741.64   4
   5   3   2 4253.42 581.397   2
   5   3   2 4835.66 556.719   1
   5   3   3 4570.00 765.886   4
   5   3   3 5684.05 643.371   2
   5   3   3 4419.31 583.187   1
   5   3   4 24594.0 1441.05   1
   5   3   4 19324.3 1501.33   4
   5   3   5 3874.93 704.578   4
   5   3   5 3265.21 563.862   1
   5   3   6 38028.7 1997.85   1
  -5  -3  -6 38539.2 2491.55   5
   5   3   7 26358.0 1717.74   1
  -5  -3  -7 26336.4 2089.22   5
  -5  -3  -8 9254.52 1290.93   5
   5   3   8 8449.60 1018.67   1
   5   3   9 38720.9 2293.01   1
  -5  -3  -9 42584.7 2810.40   5
   5   3  10 3237.51 737.604   1
  -5  -4   9 55600.2 3083.30   6
  -5  -4   8 2914.48 744.370   6
  -5  -4   7 3050.04 732.352   6
  -5  -4   6 31559.0 2128.54   6
  -5  -4   5 264.418 359.687   6
   5   4  -4 18793.4 1653.86   4
  -5  -4   4 19733.1 1560.49   6
   5   4  -3 24386.3 1864.34   4
  -5  -4   3 24069.8 1692.86   6
  -5  -4   2 5655.34 814.138   6
   5   4  -2 6492.84 974.516   4
   5   4  -1 68256.8 3185.06   4
  -5  -4   1 63361.9 2744.98   6
  -5  -4   0 62.3734 222.678   6
   5   4   0 716.767 494.285   4
  -5  -4  -1 4547.75 667.528   6
   5   4   1 4516.36 789.451   4
   5   4   2 51161.8 2678.01   4
   5   4   3 13384.7 1334.54   4
   5   4   4 1143.23 466.575   4
   5   4   5 65249.8 2602.48   1
   5   4   5 65928.9 3102.51   4
  -5  -4  -6 1149.94 564.912   5
   5   4   6 1376.62 424.186   1
   5   4   7 14450.8 1277.13   1
  -5  -4  -7 14941.4 1637.67   5
   5   4   8 77.9309 301.058   1
   5   4   9 554.653 408.815   1
   5   4  10 29468.9 2074.03   1
   5   5  -7 15363.4 1642.40   4
  -5  -5   7 16645.5 1619.94   6
  -5  -5   6 4535.19 853.243   6
   5   5  -6 3678.74 838.045   4
   5   5  -5 40085.4 2579.13   4
  -5  -5   5 37008.0 2349.48   6
  -5  -5   4 2060.86 565.162   6
   5   5  -4 2568.25 709.402   4
  -5  -5   3 5431.40 855.148   6
   5   5  -3 4956.44 920.038   4
   5   5  -2 9277.59 1247.65   4
  -5  -5   2 9522.44 1092.98   6
  -5  -5   1 2346.65 571.294   6
   5   5  -1 2649.51 743.789   4
   5   5   0 32173.2 2253.13   4
  -5  -5   0 30961.5 1879.31   6
   5   5   1 13412.6 1432.09   4
   5   5   2 7989.36 1155.69   4
   5   5   3 22343.7 1864.96   4
   5   5   4 5042.29 902.931   4
  -5  -6   5 9179.23 1212.59   6
  -5  -6   4 24383.2 1921.77   6
  -5  -6   3 7770.03 1090.49   6
  -5  -6   2 8670.48 1101.10   6
  -5  -6   1 8085.44 1036.45   6
  -5  -7   2 12360.5 1408.74   6
  -6   6   2 66636.1 3271.90   3
  -6   6   1 274.253 322.698   3
  -6   6   0 11397.2 1300.56   3
  -6   6  -1 29114.5 2069.38   3
  -6   6  -2 803.830 465.299   3
  -6   6  -3 1841.36 632.300   3
  -6   5   6 27204.7 2029.41   3
  -6   5   5 4707.80 883.476   3
  -6   5   4 27632.3 1987.73   3
  -6   5   3 3235.15 658.251   3
  -6   5   2 303.686 287.824   3
  -6   5   1 62643.1 3013.68   3
  -6   5   0 1878.67 604.725   3
  -6   5  -1 814.981 481.815   3
  -6   5  -2 86726.5 3616.87   3
  -6   5  -3-145.020 368.113   3
   6  -5   4-70.2755 336.253   1
  -6   5  -4 106.905 351.351   3
   6  -5   5 25487.7 1970.28   1
   6  -5   6 4654.76 883.084   1
  -6   4   8 48907.5 2715.78   3
  -6   4   7 21593.7 1751.30   3
  -6   4   6 3918.48 759.002   3
  -6   4   5 60764.7 2940.45   3
  -6   4   4 8009.81 1030.10   3
  -6   4   3 35439.1 2147.51   3
  -6   4   2 26465.1 1823.93   3
  -6   4   1 3362.07 681.722   3
  -6   4   0 16453.8 1406.59   3
  -6   4  -1 770.375 359.380   3
  -6   4  -2 8438.12 1037.85   3
   6  -4   3 61861.4 2927.95   1
  -6   4  -3 53131.0 2691.23   3
   6  -4   4 26773.9 1902.06   1
   6  -4   5 1827.88 592.399   1
   6  -4   6 44503.3 2564.61   1
   6  -4   7-8.54512 346.785   1
   6  -4   8 5782.17 970.709   1
  -6   3  10 16041.4 1532.18   3
  -6   3   9 655.048 448.862   3
  -6   3   8 1773.27 552.720   3
  -6   3   7 29282.5 1938.61   3
  -6   3   6 9316.92 1081.31   3
  -6   3   5 23419.9 1686.81   3
  -6   3   4 15533.7 1344.93   3
  -6   3   3 208.530 254.238   3
  -6   3   2 19280.2 1468.35   3
  -6   3   1 15537.7 1310.86   3
  -6   3   0 6746.64 884.445   3
  -6   3  -1 3821.50 692.180   3
  -6   3  -2 2085.21 563.316   3
   6  -3   2 2344.18 621.674   1
  -6   3  -3 7101.50 915.413   3
   6  -3   3 8173.09 999.434   1
   6  -3   4 15589.6 1398.65   1
   6  -3   5 16748.4 1465.98   1
   6  -3   6 925.835 424.789   1
   6  -3   7 59492.3 2971.28   1
   6  -3   8 4698.26 879.641   1
   6  -3   9 1075.93 570.144   1
  -6   2  11-583.509 424.743   3
  -6   2  10 19426.8 1580.52   3
   6  -2  -9 38691.4 2509.73   2
  -6   2   9 41994.2 2319.24   3
  -6   2   8-129.816 316.396   3
   6  -2  -8-202.751 333.022   2
   6  -2  -7 11523.2 1295.10   2
  -6   2   7 10355.9 1087.29   3
   6  -2  -6 13339.3 1368.52   2
  -6   2   6 11018.0 1110.64   3
   6  -2  -5 10927.1 1215.82   2
  -6   2   5 10369.9 1058.35   3
   6  -2  -4 43868.4 2408.93   2
  -6   2   4 45441.3 2228.37   3
  -6   2   3 936.474 385.773   3
  -6   2   2 13445.2 1155.01   3
  -6   2   1 24277.5 1566.77   3
  -6   2   0 26053.0 1617.96   3
   6  -2   1 74356.8 2936.15   1
  -6   2  -1 72028.2 2876.82   3
   6  -2   2 26328.4 1687.75   1
  -6   2  -2 25765.2 1636.36   3
   6  -2   3 10133.2 1062.52   1
   6  -2   4 1134.96 380.064   1
   6  -2   5 14674.5 1321.78   1
   6  -2   6 888.055 455.870   1
   6  -2   7 5423.45 904.790   1
   6  -2   8 52575.2 2793.79   1
   6  -2   9 15078.7 1501.92   1
  -6   1  11 19896.0 1575.68   3
  -6   1  10 3046.19 603.383   3
  -6   1   9 6559.51 862.150   3
   6  -1  -9 8383.23 1159.05   2
   6  -1  -8 81829.2 3656.99   2
  -6   1   8 84669.8 3192.38   3
  -6   1   7 1937.73 484.689   3
   6  -1  -7 2526.99 645.391   2
  -6   1   6-224.032 291.811   3
   6  -1  -6-50.2166 343.291   2
   6  -1  -5 30552.2 1981.56   2
  -6   1   5 28784.4 1669.27   3
   6  -1  -4 8673.83 1045.77   2
  -6   1   4 9211.99 925.741   3
   6  -1  -3 8816.42 1040.91   2
  -6   1   3 9324.65 918.641   3
  -6   1   2 6682.71 777.859   3
   6  -1  -2 6977.21 902.297   2
   6  -1  -1 50529.1 2195.33   1
   6  -1  -1 48844.2 2339.65   2
  -6   1   1 50595.7 2199.04   3
   6  -1   0 67918.4 2629.00   1
   6  -1   0 67187.8 2750.93   2
  -6   1   0 66191.7 2588.43   3
   6  -1   1 25482.8 1543.99   1
  -6   1  -1 24140.6 1499.56   3
   6  -1   2 21847.5 1463.60   1
   6  -1   3 59447.7 2568.82   1
   6  -1   4 13857.5 1237.09   1
   6  -1   5 120.166 260.890   1
   6  -1   6 23224.1 1711.44   1
   6  -1   7 113.979 276.033   1
   6  -1   8 17625.3 1549.82   1
   6  -1   9 11610.0 1345.59   1
   6  -1  10 10589.2 1311.81   1
   6   0  -9 1215.23 623.741   2
   6   0  -8 6423.22 1048.13   2
   6   0  -7 62434.2 3069.25   2
  -6   0   7 61836.4 2486.08   3
  -6   0   6 173.746 237.692   3
   6   0  -6-14.6972 316.591   2
  -6   0   5 793.105 312.079   3
   6   0  -5 1337.26 491.878   2
   6   0  -4 63079.7 2884.30   2
  -6   0   4 64971.4 2419.91   3
   6   0  -3 9218.10 808.765   1
  -6   0   3 8390.70 799.683   3
   6   0  -3 6346.46 861.950   2
  -6   0   2-128.211 301.379   3
   6   0  -2 424.781 188.519   1
   6   0  -2 324.320 311.266   2
   6   0  -1 38130.6 1756.48   1
   6   0  -1 36667.6 1955.37   2
  -6   0   1 37087.8 1750.24   3
   6   0   0 2882.65 565.600   2
   6   0   0 3208.14 553.555   1
   6   0   1 53680.4 2303.18   2
   6   0   1 54981.0 2270.97   1
   6   0   2 7.25468 222.248   1
   6   0   2 12.4517 215.477   2
   6   0   3 9620.90 949.853   4
   6   0   3 9505.06 961.214   1
   6   0   4 45131.1 2087.33   4
   6   0   4 45466.7 2236.03   1
   6   0   5 80.2884 315.033   1
   6   0   6 4694.52 745.652   1
   6   0   7 54731.7 2738.54   1
   6   0   8 100.036 305.758   1
   6   0   9 1872.94 542.060   1
   6   0  10 2231.99 710.426   1
   6   1  -9 8834.84 1203.24   2
   6   1  -8 13060.4 1415.30   2
   6   1  -7 318.320 386.605   2
   6   1  -6 19493.8 1637.37   2
   6   1  -5 4488.37 779.471   2
   6   1  -4 518.342 391.899   2
   6   1  -3 54576.9 2617.65   2
   6   1  -2 23824.6 1655.09   2
   6   1  -1 2367.59 417.127   1
   6   1  -1 1413.72 427.747   2
   6   1   0 53096.3 2373.47   2
   6   1   0 58428.1 2178.63   1
   6   1   1 4654.71 642.021   2
   6   1   1 5403.94 658.923   1
   6   1   2 4090.21 716.484   4
   6   1   2 3893.51 594.757   2
   6   1   2 4433.92 647.539   1
   6   1   3 248.292 243.526   4
   6   1   3-18.7416 220.150   1
   6   1   4 3647.17 624.331   4
   6   1   4 4069.98 674.793   1
   6   1   5 29840.4 1766.02   4
   6   1   5 27335.7 1745.98   1
   6   1   6 380.299 345.635   1
   6   1   7 13257.8 1298.09   1
   6   1   8 84897.9 3576.70   1
   6   1   9 703.726 420.061   1
   6   1  10 3143.81 784.356   1
   6   2  -8 12812.7 1427.17   2
   6   2  -7 10658.9 1281.31   2
   6   2  -6 3353.10 756.288   2
   6   2  -5 23451.1 1765.69   2
   6   2  -4 1307.47 509.637   2
   6   2  -3 1124.11 505.049   2
   6   2  -2 30152.9 1862.95   2
   6   2  -1 4127.29 688.388   2
   6   2   0 15114.5 1405.80   4
   6   2   0 18112.5 1344.63   2
   6   2   1 45996.6 2453.72   4
   6   2   1 47165.7 2162.68   2
   6   2   2 6425.72 873.979   4
   6   2   2 6032.18 746.861   2
   6   2   3 253.493 332.623   1
   6   2   3 57.0682 252.836   4
   6   2   4 33998.4 1861.78   1
   6   2   4 34743.3 2064.29   4
   6   2   5 6846.16 864.093   1
   6   2   5 6250.06 875.669   4
   6   2   6 33314.0 1985.36   1
   6   2   7 646.024 455.503   1
   6   2   8 93.9544 298.768   1
   6   2   9 36089.0 2320.58   1
   6   3  -7 30172.8 2186.81   2
   6   3  -6 6603.61 1039.43   2
   6   3  -5 9893.20 1198.23   2
   6   3  -4 29850.9 2020.39   2
   6   3  -3 1476.47 505.848   2
   6   3  -2-179.080 384.774   4
   6   3  -2 1048.79 427.479   2
   6   3  -1 14355.9 1453.75   4
   6   3  -1 15430.0 1343.50   2
   6   3   0 24.6460 284.495   4
   6   3   0 615.981 413.500   2
   6   3   1 16796.4 1544.70   4
   6   3   1 18130.8 1364.83   2
   6   3   2 19852.3 1648.38   4
   6   3   3 35862.8 2258.85   4
   6   3   4 19670.6 1631.19   4
   6   3   5 30222.0 2052.05   4
   6   3   6 6667.94 932.199   4
   6   3   8 2210.20 573.560   1
   6   3   9 9336.30 1170.61   1
   6   4  -6 20440.0 1778.63   2
   6   4  -5 1009.97 530.257   2
   6   4  -4 11122.8 1400.87   4
   6   4  -4 8356.48 1109.15   2
   6   4  -3 22267.6 1934.21   4
   6   4  -3 20371.8 1674.55   2
   6   4  -2 3221.37 787.949   4
   6   4  -2 4653.00 826.625   2
   6   4  -1 927.188 515.762   4
   6   4  -1 528.301 301.531   2
   6   4   0 13254.6 1434.34   4
   6   4   0 12348.7 1212.17   2
   6   4   1 1415.28 537.523   4
   6   4   2 13178.2 1423.05   4
   6   4   3 8203.83 1125.09   4
   6   4   4 10081.6 1239.36   4
   6   4   5 29042.3 2130.70   4
  -6  -5   4 1643.30 617.486   6
  -6  -5   3 2690.72 685.768   6
  -6  -5   2 47068.6 2622.13   6
  -7   4   4 3528.58 749.272   3
  -7   4   3 678.769 396.344   3
  -7   4   2 48536.1 2681.76   3
  -7   4   1-232.831 465.007   3
  -7   4   0-183.211 379.475   3
  -7   4  -1 46696.1 2622.27   3
  -7   4  -2 2037.01 577.404   3
   7  -4   2 2354.98 657.402   1
   7  -4   3 81.6272 345.177   1
  -7   4  -3-168.111 364.383   3
   7  -4   4 2407.10 603.597   1
  -7   3   7 495.539 314.722   3
  -7   3   6 18699.6 1620.33   3
  -7   3   5 3081.12 698.324   3
  -7   3   4 15660.1 1451.08   3
  -7   3   3 9997.20 1164.64   3
  -7   3   2 1779.01 527.241   3
  -7   3   1 29242.3 1958.10   3
  -7   3   0 5649.33 838.387   3
  -7   3  -1 190.392 361.099   3
   7  -3   1 886.924 529.351   1
   7  -3   2 71903.3 3256.35   1
  -7   3  -2 73070.7 3235.49   3
   7  -3   3 3116.89 696.812   1
   7  -3   4 1179.65 467.668   1
   7  -3   5 14853.3 1472.37   1
   7  -3   6-90.2604 444.515   1
  -7   2   9 1487.06 503.382   3
  -7   2   8 20115.3 1651.10   3
  -7   2   7 10796.0 1174.00   3
  -7   2   6 5000.35 822.782   3
  -7   2   5 32927.9 2030.51   3
  -7   2   4 3162.40 628.016   3
  -7   2   3 23061.3 1661.12   3
  -7   2   2 536.596 328.144   3
  -7   2   1-342.542 340.515   3
   7  -2  -1 761.871 384.584   1
   7  -2   0 23551.1 1680.44   1
  -7   2   0 23007.8 1654.55   3
  -7   2  -1 5577.83 828.643   3
   7  -2   1 6286.94 884.980   1
   7  -2   2 1533.22 505.517   1
   7  -2   3 52349.4 2670.99   1
   7  -2   4 5178.49 870.431   1
   7  -2   5 2606.76 683.104   1
   7  -2   6 20843.5 1793.09   1
   7  -2   7 1616.66 463.796   1
   7  -1  -6 10669.1 1296.59   2
   7  -1  -5 29218.8 2137.81   2
   7  -1  -4 27683.8 2021.60   2
  -7   1   4 28613.1 1759.77   3
  -7   1   3 5283.22 744.392   3
   7  -1  -3 6433.65 944.760   2
  -7   1   2 5549.12 769.716   3
   7  -1  -2 5092.87 715.073   1
   7  -1  -2 5071.96 892.362   2
  -7   1   1 4569.42 707.845   3
   7  -1  -1 4004.36 652.925   1
   7  -1   0-240.398 236.560   1
  -7   1   0-503.133 291.674   3
   7  -1   1 21343.5 1530.05   1
   7  -1   2-131.682 350.663   1
   7  -1   3 3618.24 706.395   1
   7  -1   4 11828.7 1230.38   1
   7  -1   5 1804.02 535.288   1
   7  -1   6 4840.77 879.823   1
   7  -1   7 14282.3 1448.34   1
   7   0  -6 4021.47 807.801   2
   7   0  -5 3310.31 761.929   2
   7   0  -4 23318.4 1848.40   2
   7   0  -3 18212.2 1567.44   2
   7   0  -2 14658.4 1407.97   2
   7   0  -1 6422.97 913.100   2
   7   0   0 12361.0 1205.64   2
   7   0   1 1745.44 490.174   1
   7   0   1 921.503 377.149   2
   7   0   2 24813.3 1658.06   1
   7   0   3-157.150 278.376   1
   7   0   4 590.549 342.127   1
   7   0   5 13120.4 1292.77   1
   7   0   6 997.116 446.669   1
   7   0   7 6442.93 986.956   1
   7   1  -6 1383.02 572.450   2
   7   1  -5 20417.6 1790.09   2
   7   1  -4 243.581 371.247   2
   7   1  -3 17073.5 1532.62   2
   7   1  -2 6021.13 901.307   2
   7   1  -1 9930.26 1115.84   2
   7   1   0 46201.3 2368.32   2
   7   1   1 2069.43 560.382   4
   7   1   2 9399.09 1120.25   4
   7   1   3 31612.5 2015.19   4
   7   1   6 23516.9 1777.58   1
   7   1   7 858.158 364.628   1
   7   2  -5 918.520 459.458   2
   7   2  -4 50055.7 2802.65   2
   7   2  -3 941.729 505.399   2
   7   2  -2 1849.44 588.230   2
   7   2  -1 3355.61 752.490   4
   7   2  -1 2531.10 541.379   2
   7   2   0 875.463 415.186   4
   7   2   1 32232.9 2209.33   4
   7   2   2 562.125 423.135   4
   7   2   3 3936.16 775.579   4
   7   3  -4 3779.63 854.538   2
   7   3  -3 31320.6 2166.75   2
   7   3  -2 4349.06 833.799   2
   7   3  -1 1595.48 543.329   4
   7   3  -1 3201.68 679.928   2
   7   3   0 16021.2 1611.24   4
   7   3   1 3259.88 783.703   4
   7   3   2 5112.29 939.204   4
   7   3   3 382.561 460.974   4
   7   4  -2 14802.4 1492.76   2
   8  -3  -2 735.651 394.216   1
   8  -3  -1-20.8637 402.678   1
   8  -3   0 2355.83 643.773   1
  -8   2   1 649.820 384.537   3
   8  -2   1 5218.94 854.987   1
   8  -2   2 3258.78 714.374   1
   8  -2   3 12949.8 1384.81   1
   8   0  -2 141.123 404.530   2
   8   1  -2 3088.72 741.778   2
   0   0   0    0.00    0.00   0
TITL MK-445-F3 in P-1
REM P-1 (#2 in standard setting)
CELL 0.71073   6.234359   7.633680  13.794179  95.1557  91.2981  97.0591
ZERR    1.00   0.000371   0.000593   0.000944   0.0060   0.0052   0.0056
LATT  1
SFAC C H O P Fe
UNIT 30.00 30.00 8.00 2.00 3.00
TREF
HKLF 4
END
;
_shelx_hkl_checksum              57173
loop_
_space_group_symop_operation_xyz
'x, y, z'
'-x, -y, -z'
loop_
_atom_site_label
_atom_site_type_symbol
_atom_site_fract_x
_atom_site_fract_y
_atom_site_fract_z
_atom_site_U_iso_or_equiv
_atom_site_adp_type
_atom_site_occupancy
_atom_site_site_symmetry_order
_atom_site_calc_flag
_atom_site_refinement_flags_posn
_atom_site_refinement_flags_adp
_atom_site_refinement_flags_occupancy
C1 C 0.0574(5) 0.1522(4) 0.0818(2) 0.0118(6) Uani 1 1 d . . .
C2 C 0.2683(5) 0.1046(4) 0.0926(2) 0.0142(7) Uani 1 1 d . . .
H2 H 0.3102 0.0178 0.1296 0.017 Uiso 1 1 calc R U .
C3 C 0.4034(5) 0.2157(4) 0.0357(2) 0.0150(7) Uani 1 1 d . . .
H3 H 0.5516 0.2151 0.0295 0.018 Uiso 1 1 calc R U .
C4 C 0.2747(5) 0.3285(4) -0.0102(2) 0.0140(7) Uani 1 1 d . . .
H4 H 0.3245 0.4136 -0.0513 0.017 Uiso 1 1 calc R U .
C5 C 0.0571(5) 0.2886(4) 0.0176(2) 0.0137(6) Uani 1 1 d . . .
H5 H -0.0616 0.3409 -0.0022 0.016 Uiso 1 1 calc R U .
C6 C 0.1002(5) 0.3941(4) 0.2644(2) 0.0128(6) Uani 1 1 d . . .
C7 C 0.3154(5) 0.3602(4) 0.2847(2) 0.0144(6) Uani 1 1 d . . .
H7 H 0.3567 0.2657 0.3157 0.017 Uiso 1 1 calc R U .
C8 C 0.4547(5) 0.4991(4) 0.2484(2) 0.0164(7) Uani 1 1 d . . .
H8 H 0.6051 0.5109 0.2511 0.020 Uiso 1 1 calc R U .
C9 C 0.3268(5) 0.6166(4) 0.2074(2) 0.0170(7) Uani 1 1 d . . .
H9 H 0.3791 0.7185 0.1789 0.020 Uiso 1 1 calc R U .
C10 C 0.1049(5) 0.5526(4) 0.2171(2) 0.0143(6) Uani 1 1 d . . .
H10 H -0.0138 0.6042 0.1966 0.017 Uiso 1 1 calc R U .
C11 C 0.0318(5) -0.0981(4) 0.3596(2) 0.0135(6) Uani 1 1 d . . .
C12 C 0.2277(5) -0.1024(4) 0.4125(2) 0.0153(7) Uani 1 1 d . . .
H12 H 0.3632 -0.0455 0.3994 0.018 Uiso 1 1 calc R U .
C13 C 0.1770(5) -0.2107(4) 0.4895(2) 0.0178(7) Uani 1 1 d . . .
H13 H 0.2742 -0.2369 0.5366 0.021 Uiso 1 1 calc R U .
C14 C 0.0488(5) 0.2723(4) 0.5180(2) 0.0183(7) Uani 1 1 d . . .
H14 H 0.1237 0.3467 0.4770 0.022 Uiso 1 1 calc R U .
C15 C 0.1400(5) 0.2007(4) 0.5987(2) 0.0150(7) Uani 1 1 d . . .
H15 H 0.2844 0.2179 0.6199 0.018 Uiso 1 1 calc R U .
O1 O -0.1311(3) 0.0840(3) 0.12650(15) 0.0136(5) Uani 1 1 d . . .
O2 O -0.0921(3) 0.2909(3) 0.28506(15) 0.0147(5) Uani 1 1 d . . .
O3 O 0.0266(3) -0.0186(3) 0.27164(14) 0.0133(5) Uani 1 1 d . . .
O4 O -0.3770(3) 0.0278(3) 0.26576(16) 0.0183(5) Uani 1 1 d . . .
P3 P -0.15846(12) 0.09133(10) 0.24037(6) 0.0124(2) Uani 1 1 d . . .
Fe1 Fe 0.25094(7) 0.36289(5) 0.13971(3) 0.01091(15) Uani 1 1 d . . .
Fe2 Fe 0.0000 0.0000 0.5000 0.01200(17) Uani 1 2 d S . P
loop_
_atom_site_aniso_label
_atom_site_aniso_U_11
_atom_site_aniso_U_22
_atom_site_aniso_U_33
_atom_site_aniso_U_23
_atom_site_aniso_U_13
_atom_site_aniso_U_12
C1 0.0141(15) 0.0117(15) 0.0089(14) -0.0010(12) 0.0004(12) -0.0003(12)
C2 0.0214(17) 0.0112(15) 0.0099(15) -0.0011(12) -0.0019(13) 0.0039(13)
C3 0.0141(15) 0.0173(16) 0.0130(16) -0.0045(13) 0.0010(12) 0.0043(13)
C4 0.0191(16) 0.0123(16) 0.0097(15) 0.0005(12) 0.0012(12) -0.0014(13)
C5 0.0154(15) 0.0134(16) 0.0116(15) -0.0017(12) -0.0022(12) 0.0015(12)
C6 0.0153(15) 0.0131(15) 0.0090(15) -0.0019(12) 0.0013(12) 0.0004(12)
C7 0.0191(16) 0.0156(16) 0.0084(15) -0.0021(12) -0.0025(12) 0.0046(13)
C8 0.0132(15) 0.0186(17) 0.0154(16) -0.0057(13) -0.0005(12) -0.0002(13)
C9 0.0219(17) 0.0117(16) 0.0158(16) -0.0040(13) 0.0023(13) -0.0005(13)
C10 0.0179(16) 0.0139(16) 0.0114(15) -0.0043(12) 0.0012(12) 0.0068(13)
C11 0.0211(16) 0.0121(15) 0.0080(15) -0.0003(12) 0.0009(12) 0.0058(13)
C12 0.0174(16) 0.0156(16) 0.0136(16) -0.0006(13) 0.0034(13) 0.0062(13)
C13 0.0271(18) 0.0163(16) 0.0123(16) 0.0012(13) 0.0013(13) 0.0127(14)
C14 0.0297(18) 0.0113(16) 0.0146(16) 0.0014(13) 0.0062(14) 0.0042(14)
C15 0.0198(16) 0.0127(16) 0.0117(16) -0.0031(13) 0.0014(13) 0.0016(13)
O1 0.0137(10) 0.0148(11) 0.0118(11) 0.0030(9) -0.0001(8) -0.0015(9)
O2 0.0155(11) 0.0155(11) 0.0129(11) 0.0004(9) 0.0027(9) 0.0016(9)
O3 0.0175(11) 0.0138(11) 0.0100(11) 0.0049(9) 0.0027(9) 0.0045(9)
O4 0.0148(11) 0.0221(12) 0.0180(12) 0.0041(10) 0.0009(9) 0.0000(9)
P3 0.0137(4) 0.0128(4) 0.0109(4) 0.0024(3) 0.0008(3) 0.0016(3)
Fe1 0.0124(2) 0.0102(2) 0.0100(2) -0.00014(17) 0.00048(17) 0.00154(17)
Fe2 0.0160(3) 0.0106(3) 0.0098(3) 0.0004(2) 0.0013(2) 0.0036(2)
loop_
_atom_type_symbol
_atom_type_description
_atom_type_scat_dispersion_real
_atom_type_scat_dispersion_imag
_atom_type_scat_source
C C 0.0033 0.0016 'International Tables Vol C Tables 4.2.6.8 and 6.1.1.4'
H H 0.0000 0.0000 'International Tables Vol C Tables 4.2.6.8 and 6.1.1.4'
O O 0.0106 0.0060 'International Tables Vol C Tables 4.2.6.8 and 6.1.1.4'
P P 0.1023 0.0942 'International Tables Vol C Tables 4.2.6.8 and 6.1.1.4'
Fe Fe 0.3463 0.8444 'International Tables Vol C Tables 4.2.6.8 and 6.1.1.4'
loop_
_geom_angle_atom_site_label_1
_geom_angle_atom_site_label_2
_geom_angle_atom_site_label_3
_geom_angle
_geom_angle_site_symmetry_1
_geom_angle_site_symmetry_3
O1 C1 C2 127.9(3) . .
O1 C1 C5 121.9(3) . .
C2 C1 C5 110.2(3) . .
O1 C1 Fe1 122.6(2) . .
C2 C1 Fe1 71.47(17) . .
C5 C1 Fe1 71.69(17) . .
C1 C2 C3 106.4(3) . .
C1 C2 Fe1 67.34(18) . .
C3 C2 Fe1 70.74(18) . .
C2 C3 C4 108.8(3) . .
C2 C3 Fe1 68.72(17) . .
C4 C3 Fe1 70.17(18) . .
C5 C4 C3 108.3(3) . .
C5 C4 Fe1 68.83(17) . .
C3 C4 Fe1 69.51(17) . .
C4 C5 C1 106.3(3) . .
C4 C5 Fe1 70.77(17) . .
C1 C5 Fe1 66.87(17) . .
O2 C6 C10 123.1(3) . .
O2 C6 C7 127.2(3) . .
C10 C6 C7 109.7(3) . .
O2 C6 Fe1 123.6(2) . .
C10 C6 Fe1 71.22(17) . .
C7 C6 Fe1 70.99(17) . .
C8 C7 C6 106.5(3) . .
C8 C7 Fe1 70.76(17) . .
C6 C7 Fe1 67.56(17) . .
C9 C8 C7 108.7(3) . .
C9 C8 Fe1 70.16(18) . .
C7 C8 Fe1 68.65(17) . .
C8 C9 C10 108.6(3) . .
C8 C9 Fe1 69.70(18) . .
C10 C9 Fe1 68.63(17) . .
C9 C10 C6 106.5(3) . .
C9 C10 Fe1 70.84(18) . .
C6 C10 Fe1 67.42(17) . .
O3 C11 C15 127.4(3) . 2_556
O3 C11 C12 121.7(3) . .
C15 C11 C12 110.4(3) 2_556 .
O3 C11 Fe2 131.6(2) . .
C15 C11 Fe2 70.35(17) 2_556 .
C12 C11 Fe2 70.95(17) . .
C11 C12 C13 106.5(3) . .
C11 C12 Fe2 68.73(17) . .
C13 C12 Fe2 69.49(18) . .
C12 C13 C14 108.2(3) . 2_556
C12 C13 Fe2 70.17(18) . .
C14 C13 Fe2 69.64(18) 2_556 .
C15 C14 C13 108.4(3) . 2_556
C15 C14 Fe2 69.59(18) . .
C13 C14 Fe2 69.74(18) 2_556 .
C11 C15 C14 106.5(3) 2_556 .
C11 C15 Fe2 69.23(17) 2_556 .
C14 C15 Fe2 69.92(18) . .
C1 O1 P3 124.32(18) . .
C6 O2 P3 123.68(19) . .
C11 O3 P3 123.98(19) . .
O4 P3 O1 112.34(12) . .
O4 P3 O3 116.83(12) . .
O1 P3 O3 101.19(11) . .
O4 P3 O2 110.59(13) . .
O1 P3 O2 108.08(11) . .
O3 P3 O2 107.12(12) . .
C1 Fe1 C6 96.97(12) . .
C1 Fe1 C7 113.75(12) . .
C6 Fe1 C7 41.45(12) . .
C1 Fe1 C2 41.19(12) . .
C6 Fe1 C2 113.59(12) . .
C7 Fe1 C2 100.63(13) . .
C1 Fe1 C10 116.10(13) . .
C6 Fe1 C10 41.36(12) . .
C7 Fe1 C10 69.70(13) . .
C2 Fe1 C10 150.97(12) . .
C1 Fe1 C5 41.44(12) . .
C6 Fe1 C5 116.15(12) . .
C7 Fe1 C5 151.29(12) . .
C2 Fe1 C5 69.61(12) . .
C10 Fe1 C5 105.29(13) . .
C1 Fe1 C8 153.01(13) . .
C6 Fe1 C8 68.47(12) . .
C7 Fe1 C8 40.59(12) . .
C2 Fe1 C8 122.41(12) . .
C10 Fe1 C8 68.45(13) . .
C5 Fe1 C8 165.46(13) . .
C1 Fe1 C3 68.23(12) . .
C6 Fe1 C3 152.81(13) . .
C7 Fe1 C3 122.21(13) . .
C2 Fe1 C3 40.54(12) . .
C10 Fe1 C3 165.72(13) . .
C5 Fe1 C3 68.34(12) . .
C8 Fe1 C3 114.46(13) . .
C1 Fe1 C9 155.94(13) . .
C6 Fe1 C9 68.38(12) . .
C7 Fe1 C9 68.43(13) . .
C2 Fe1 C9 161.88(13) . .
C10 Fe1 C9 40.53(12) . .
C5 Fe1 C9 126.84(13) . .
C8 Fe1 C9 40.14(13) . .
C3 Fe1 C9 132.58(12) . .
C1 Fe1 C4 68.36(12) . .
C6 Fe1 C4 155.82(13) . .
C7 Fe1 C4 161.78(13) . .
C2 Fe1 C4 68.56(12) . .
C10 Fe1 C4 126.80(12) . .
C5 Fe1 C4 40.39(12) . .
C8 Fe1 C4 132.38(12) . .
C3 Fe1 C4 40.32(12) . .
C9 Fe1 C4 117.64(12) . .
C11 Fe2 C11 180.0 . 2_556
C11 Fe2 C15 139.58(12) . .
C11 Fe2 C15 40.43(12) 2_556 .
C11 Fe2 C15 40.42(12) . 2_556
C11 Fe2 C15 139.58(12) 2_556 2_556
C15 Fe2 C15 180.00(13) . 2_556
C11 Fe2 C14 67.37(12) . 2_556
C11 Fe2 C14 112.63(12) 2_556 2_556
C15 Fe2 C14 139.52(12) . 2_556
C15 Fe2 C14 40.48(12) 2_556 2_556
C11 Fe2 C14 112.63(12) . .
C11 Fe2 C14 67.37(12) 2_556 .
C15 Fe2 C14 40.48(12) . .
C15 Fe2 C14 139.52(12) 2_556 .
C14 Fe2 C14 180.0 2_556 .
C11 Fe2 C13 67.44(12) . .
C11 Fe2 C13 112.56(12) 2_556 .
C15 Fe2 C13 111.55(13) . .
C15 Fe2 C13 68.45(13) 2_556 .
C14 Fe2 C13 40.62(13) 2_556 .
C14 Fe2 C13 139.38(13) . .
C11 Fe2 C13 112.56(12) . 2_556
C11 Fe2 C13 67.44(12) 2_556 2_556
C15 Fe2 C13 68.45(13) . 2_556
C15 Fe2 C13 111.55(13) 2_556 2_556
C14 Fe2 C13 139.38(13) 2_556 2_556
C14 Fe2 C13 40.62(13) . 2_556
C13 Fe2 C13 180.00(18) . 2_556
C11 Fe2 C12 40.32(12) . .
C11 Fe2 C12 139.68(12) 2_556 .
C15 Fe2 C12 111.38(12) . .
C15 Fe2 C12 68.62(12) 2_556 .
C14 Fe2 C12 68.10(13) 2_556 .
C14 Fe2 C12 111.90(13) . .
C13 Fe2 C12 40.34(12) . .
C13 Fe2 C12 139.66(12) 2_556 .
C11 Fe2 C12 139.68(12) . 2_556
C11 Fe2 C12 40.32(12) 2_556 2_556
C15 Fe2 C12 68.62(12) . 2_556
C15 Fe2 C12 111.38(12) 2_556 2_556
C14 Fe2 C12 111.90(13) 2_556 2_556
C14 Fe2 C12 68.10(13) . 2_556
C13 Fe2 C12 139.66(12) . 2_556
C13 Fe2 C12 40.34(12) 2_556 2_556
C12 Fe2 C12 180.0 . 2_556
loop_
_geom_bond_atom_site_label_1
_geom_bond_atom_site_label_2
_geom_bond_distance
_geom_bond_site_symmetry_2
C1 O1 1.404(3) .
C1 C2 1.415(4) .
C1 C5 1.427(4) .
C1 Fe1 1.982(3) .
C2 C3 1.421(4) .
C2 Fe1 2.037(3) .
C3 C4 1.425(4) .
C3 Fe1 2.063(3) .
C4 C5 1.422(4) .
C4 Fe1 2.072(3) .
C5 Fe1 2.046(3) .
C6 O2 1.401(4) .
C6 C10 1.423(4) .
C6 C7 1.424(4) .
C6 Fe1 1.988(3) .
C7 C8 1.421(4) .
C7 Fe1 2.034(3) .
C8 C9 1.417(5) .
C8 Fe1 2.062(3) .
C9 C10 1.423(4) .
C9 Fe1 2.068(3) .
C10 Fe1 2.039(3) .
C11 O3 1.406(3) .
C11 C15 1.412(4) 2_556
C11 C12 1.414(4) .
C11 Fe2 2.036(3) .
C12 C13 1.421(4) .
C12 Fe2 2.065(3) .
C13 C14 1.427(5) 2_556
C13 Fe2 2.056(3) .
C14 C15 1.420(4) .
C14 C13 1.427(5) 2_556
C14 Fe2 2.055(3) .
C15 C11 1.412(4) 2_556
C15 Fe2 2.051(3) .
O1 P3 1.581(2) .
O2 P3 1.593(2) .
O3 P3 1.582(2) .
O4 P3 1.450(2) .
Fe2 C11 2.036(3) 2_556
Fe2 C15 2.051(3) 2_556
Fe2 C14 2.055(3) 2_556
Fe2 C13 2.056(3) 2_556
Fe2 C12 2.065(3) 2_556
loop_
_geom_torsion_atom_site_label_1
_geom_torsion_atom_site_label_2
_geom_torsion_atom_site_label_3
_geom_torsion_atom_site_label_4
_geom_torsion
_geom_torsion_site_symmetry_1
_geom_torsion_site_symmetry_4
O1 C1 C2 C3 -177.7(3) . .
C5 C1 C2 C3 1.2(3) . .
Fe1 C1 C2 C3 -60.3(2) . .
O1 C1 C2 Fe1 -117.3(3) . .
C5 C1 C2 Fe1 61.5(2) . .
C1 C2 C3 C4 -0.7(3) . .
Fe1 C2 C3 C4 -58.9(2) . .
C1 C2 C3 Fe1 58.1(2) . .
C2 C3 C4 C5 0.0(3) . .
Fe1 C3 C4 C5 -58.0(2) . .
C2 C3 C4 Fe1 58.0(2) . .
C3 C4 C5 C1 0.8(3) . .
Fe1 C4 C5 C1 -57.6(2) . .
C3 C4 C5 Fe1 58.4(2) . .
O1 C1 C5 C4 177.7(3) . .
C2 C1 C5 C4 -1.2(3) . .
Fe1 C1 C5 C4 60.2(2) . .
O1 C1 C5 Fe1 117.6(3) . .
C2 C1 C5 Fe1 -61.4(2) . .
O2 C6 C7 C8 178.6(3) . .
C10 C6 C7 C8 -0.6(3) . .
Fe1 C6 C7 C8 60.4(2) . .
O2 C6 C7 Fe1 118.3(3) . .
C10 C6 C7 Fe1 -61.0(2) . .
C6 C7 C8 C9 0.5(3) . .
Fe1 C7 C8 C9 58.8(2) . .
C6 C7 C8 Fe1 -58.3(2) . .
C7 C8 C9 C10 -0.2(4) . .
Fe1 C8 C9 C10 57.7(2) . .
C7 C8 C9 Fe1 -57.9(2) . .
C8 C9 C10 C6 -0.2(3) . .
Fe1 C9 C10 C6 58.2(2) . .
C8 C9 C10 Fe1 -58.3(2) . .
O2 C6 C10 C9 -178.8(3) . .
C7 C6 C10 C9 0.5(3) . .
Fe1 C6 C10 C9 -60.4(2) . .
O2 C6 C10 Fe1 -118.4(3) . .
C7 C6 C10 Fe1 60.9(2) . .
O3 C11 C12 C13 -172.8(3) . .
C15 C11 C12 C13 0.0(3) 2_556 .
Fe2 C11 C12 C13 59.5(2) . .
O3 C11 C12 Fe2 127.7(3) . .
C15 C11 C12 Fe2 -59.5(2) 2_556 .
C11 C12 C13 C14 0.5(3) . 2_556
Fe2 C12 C13 C14 59.5(2) . 2_556
C11 C12 C13 Fe2 -59.0(2) . .
C13 C14 C15 C11 -0.8(4) 2_556 2_556
Fe2 C14 C15 C11 -59.9(2) . 2_556
C13 C14 C15 Fe2 59.1(2) 2_556 .
C2 C1 O1 P3 59.0(4) . .
C5 C1 O1 P3 -119.8(3) . .
Fe1 C1 O1 P3 -32.2(3) . .
C10 C6 O2 P3 117.4(3) . .
C7 C6 O2 P3 -61.7(4) . .
Fe1 C6 O2 P3 29.1(3) . .
C15 C11 O3 P3 46.1(4) 2_556 .
C12 C11 O3 P3 -142.4(2) . .
Fe2 C11 O3 P3 -50.4(4) . .
C1 O1 P3 O4 174.0(2) . .
C1 O1 P3 O3 -60.7(2) . .
C1 O1 P3 O2 51.7(3) . .
C11 O3 P3 O4 -37.4(3) . .
C11 O3 P3 O1 -159.7(2) . .
C11 O3 P3 O2 87.2(2) . .
C6 O2 P3 O4 -173.0(2) . .
C6 O2 P3 O1 -49.6(2) . .
C6 O2 P3 O3 58.7(2) . .
