#------------------------------------------------------------------------------
#$Date: 2017-03-04 16:18:47 +0200 (Sat, 04 Mar 2017) $
#$Revision: 193580 $
#$URL: file:///home/coder/svn-repositories/cod/cif/4/03/21/4032122.cif $
#------------------------------------------------------------------------------
#
# This file is available in the Crystallography Open Database (COD),
# http://www.crystallography.net/
#
# All data on this site have been placed in the public domain by the
# contributors.
#
data_4032122
loop_
_publ_author_name
'Das, Riki'
'Kapur, Manmohan'
_publ_section_title
;
 Palladium-Catalyzed, ortho-Selective C-H Halogenation of Benzyl Nitriles,
 Aryl Weinreb Amides, and Anilides.
;
_journal_issue                   2
_journal_name_full               'The Journal of organic chemistry'
_journal_page_first              1114
_journal_page_last               1126
_journal_paper_doi               10.1021/acs.joc.6b02731
_journal_volume                  82
_journal_year                    2017
_chemical_formula_sum            'C8 H5 Br I N'
_chemical_formula_weight         321.94
_space_group_crystal_system      orthorhombic
_space_group_IT_number           62
_space_group_name_Hall           '-P 2ac 2n'
_space_group_name_H-M_alt        'P n m a'
_symmetry_space_group_name_Hall  '-P 2ac 2n'
_symmetry_space_group_name_H-M   'P n m a'
_atom_sites_solution_hydrogens   geom
_audit_creation_method           SHELXL-2014/6
_cell_angle_alpha                90
_cell_angle_beta                 90
_cell_angle_gamma                90
_cell_formula_units_Z            4
_cell_length_a                   10.8401(12)
_cell_length_b                   7.0137(8)
_cell_length_c                   11.9424(15)
_cell_measurement_reflns_used    9920
_cell_measurement_temperature    150(2)
_cell_measurement_theta_max      30.44
_cell_measurement_theta_min      2.54
_cell_volume                     907.97(18)
_computing_structure_refinement  'SHELXL-2014/6 (Sheldrick, 2014)'
_diffrn_ambient_temperature      150(2)
_diffrn_measured_fraction_theta_full 0.998
_diffrn_measured_fraction_theta_max 0.997
_diffrn_measurement_device_type  'Bruker APEX-II CCD'
_diffrn_measurement_method       '\f and \w scans'
_diffrn_radiation_type           MoK\a
_diffrn_radiation_wavelength     0.71073
_diffrn_reflns_av_R_equivalents  0.0576
_diffrn_reflns_av_unetI/netI     0.0213
_diffrn_reflns_Laue_measured_fraction_full 0.998
_diffrn_reflns_Laue_measured_fraction_max 0.997
_diffrn_reflns_limit_h_max       15
_diffrn_reflns_limit_h_min       -15
_diffrn_reflns_limit_k_max       10
_diffrn_reflns_limit_k_min       -10
_diffrn_reflns_limit_l_max       17
_diffrn_reflns_limit_l_min       -17
_diffrn_reflns_number            25860
_diffrn_reflns_point_group_measured_fraction_full 0.998
_diffrn_reflns_point_group_measured_fraction_max 0.997
_diffrn_reflns_theta_full        25.242
_diffrn_reflns_theta_max         30.562
_diffrn_reflns_theta_min         2.538
_exptl_absorpt_coefficient_mu    7.861
_exptl_absorpt_correction_type   none
_exptl_crystal_colour            colourless
_exptl_crystal_density_diffrn    2.355
_exptl_crystal_description       plate
_exptl_crystal_F_000             592
_exptl_crystal_size_max          .30
_exptl_crystal_size_mid          .29
_exptl_crystal_size_min          .27
_refine_diff_density_max         1.859
_refine_diff_density_min         -0.905
_refine_diff_density_rms         0.138
_refine_ls_extinction_method     none
_refine_ls_goodness_of_fit_ref   0.976
_refine_ls_hydrogen_treatment    constr
_refine_ls_matrix_type           full
_refine_ls_number_parameters     67
_refine_ls_number_reflns         1488
_refine_ls_number_restraints     0
_refine_ls_restrained_S_all      0.976
_refine_ls_R_factor_all          0.0393
_refine_ls_R_factor_gt           0.0315
_refine_ls_shift/su_max          0.001
_refine_ls_shift/su_mean         0.000
_refine_ls_structure_factor_coef Fsqd
_refine_ls_weighting_details
'w=1/[\s^2^(Fo^2^)+(0.1000P)^2^] where P=(Fo^2^+2Fc^2^)/3'
_refine_ls_weighting_scheme      calc
_refine_ls_wR_factor_gt          0.1127
_refine_ls_wR_factor_ref         0.1196
_reflns_Friedel_coverage         0.000
_reflns_number_gt                1295
_reflns_number_total             1488
_reflns_threshold_expression     'I > 2\s(I)'
_cod_data_source_file            jo6b02731_si_002.cif
_cod_data_source_block           O1_a
_cod_depositor_comments          'Adding full bibliography for 4032122.cif.'
_cod_database_code               4032122
_shelx_space_group_comment
;
The symmetry employed for this shelxl refinement is uniquely defined
by the following loop, which should always be used as a source of
symmetry information in preference to the above space-group names.
They are only intended as comments.
;
_shelxl_version_number           2014/6
_shelx_res_file
;
TITL O1_a.res in Pnma
CELL  0.71073  10.8401   7.0137  11.9424   90.000   90.000   90.000
ZERR    4.000   0.0012   0.0008   0.0015    0.000    0.000    0.000
LATT 1
SYMM 1/2-X, -Y, 1/2+Z
SYMM -X, 1/2+Y, -Z
SYMM 1/2+X, 1/2-Y, 1/2-Z
SFAC C  H  N  Br I
UNIT 32  20  4  4  4
L.S. 20
ACTA
BOND $H
FMAP 2
PLAN 10
TEMP -123.160
WGHT    0.100000
FVAR       0.39362
I1    5    0.354624    0.750000    0.777030    10.50000    0.02655    0.06322 =
         0.02333    0.00000   -0.00137    0.00000
BR1   4    0.712462    0.750000    0.417052    10.50000    0.02171    0.03292 =
         0.04386    0.00000    0.00943    0.00000
C2    1    0.392535    0.750000    0.604714    10.50000    0.01231    0.03164 =
         0.02667    0.00000    0.00319    0.00000
C1    1    0.516674    0.750000    0.572613    10.50000    0.01467    0.02957 =
         0.04011    0.00000   -0.00007    0.00000
AFIX  43
H1    2    0.580746    0.750000    0.626886    10.50000   -1.20000
AFIX   0
C3    1    0.297240    0.750000    0.525786    10.50000    0.01661    0.02696 =
         0.03035    0.00000    0.00043    0.00000
C6    1    0.543265    0.750000    0.458505    10.50000    0.01775    0.02275 =
         0.04087    0.00000    0.00386    0.00000
C4    1    0.329276    0.750000    0.411943    10.50000    0.02602    0.03710 =
         0.03118    0.00000    0.00031    0.00000
AFIX  43
H4    2    0.265821    0.750000    0.357076    10.50000   -1.20000
AFIX   0
C5    1    0.453353    0.750000    0.377271    10.50000    0.03149    0.03493 =
         0.02389    0.00000    0.00911    0.00000
AFIX  43
H5    2    0.474373    0.750000    0.300045    10.50000   -1.20000
AFIX   0
C7    1    0.166649    0.750000    0.564934    10.50000    0.01883    0.04198 =
         0.02556    0.00000    0.00217    0.00000
AFIX  23
H7A   2    0.153088    0.636090    0.612317    10.50000   -1.20000
H7B   2    0.153088    0.863910    0.612317    10.50000   -1.20000
AFIX   0
C8    1    0.074950    0.750000    0.474411    10.50000    0.02161    0.05358 =
         0.02596    0.00000    0.00451    0.00000
N1    3   -0.001253    0.750000    0.406684    10.50000    0.02525    0.12077 =
         0.04069    0.00000   -0.01236    0.00000
HKLF 4

REM  O1_a.res in Pnma
REM R1 =  0.0315 for    1295 Fo > 4sig(Fo)  and  0.0393 for all    1488 data
REM     67 parameters refined using      0 restraints

END

WGHT      0.0420      1.4317

REM Highest difference peak  1.859,  deepest hole -0.905,  1-sigma level  0.138
Q1    1   0.4855  0.7500  0.2483  10.50000  0.05    1.86
Q2    1   0.3487  0.7500  0.8389  10.50000  0.05    1.17
Q3    1   0.7050  0.7500  0.4818  10.50000  0.05    1.04
Q4    1   0.4404  0.7500  0.5943  10.50000  0.05    0.81
Q5    1   0.1382  0.7500  0.5939  10.50000  0.05    0.54
Q6    1   0.0826  0.7500  0.5322  10.50000  0.05    0.49
Q7    1   0.0223  0.7923  0.4218  11.00000  0.05    0.49
Q8    1   0.4026  0.8034  0.7730  11.00000  0.05    0.47
Q9    1   0.3324  0.7500  0.5635  10.50000  0.05    0.45
Q10   1   0.4174  0.7500  0.4066  10.50000  0.05    0.44
;
_shelx_res_checksum              92360
_shelx_hkl_file
;
   0   1   0    0.30    0.40
   0   1   0    0.10    0.60
   0   1   0    0.80    0.40
   0   1   0    1.60    0.30
   0  -1   0    1.00    0.40
   0  -1   0    0.30    0.20
   0  -1   0   -0.20    0.80
   0  -1   0    0.20    0.50
   0  -1   0    2.30    0.50
   0  -1   0    1.30    0.60
   0  -3   0   -4.60    1.10
   0  -3   0   -3.30    1.00
   0  -3   0   -4.30    2.30
   0  -3   0   -3.40    1.30
   0  -3   0   -3.00    1.30
   0  -3   0   -4.60    1.30
   0   3   0   -4.40    1.30
   0   3   0   -3.90    1.30
   0   3   0   -1.80    1.90
   0  -4   0 9293.57  496.45
   0   4   0 9330.47  497.05
   0   4   0 9385.86  496.65
   0  -4   0 9759.62  496.75
   0  -4   0 8669.33  496.05
   0   4   0 9913.21  496.65
   0  -5   0   -0.80    1.90
   0   5   0   -2.80    3.70
   0  -5   0    0.50    2.70
   0   5   0   -2.30    2.50
   0   6   0 3182.38  158.28
   0   6   0 2880.91  158.98
   0   6   0 3019.10  158.18
   0  -6   0 2776.42  158.18
   0  -7   0    1.90    3.70
   0   7   0    1.50    4.80
   0   7   0  -12.40    6.60
   0   7   0    5.00    5.30
   0  -7   0   -1.10    3.60
   0   8   0  756.32   45.10
   0   8   0  748.53   43.70
   0   8   0  831.72   43.90
   0  -8   0  614.14   41.70
   0  -8   0  746.43   42.30
   0   9   0   -3.30   14.20
   0   9   0   -6.70   13.70
   0   9   0    6.80    9.20
   0  -9   0   -2.20    6.80
   0  -9   0    3.70    8.70
   0  10   0  173.68   25.20
   0  10   0  223.88   26.00
   0 -10   0  165.58   17.30
  -1   1   0    1.40    0.90
   1  -1   0    0.10    0.60
  -1   1   0    1.80    0.70
  -1  -1   0   -0.40    0.50
   1   1   0   -1.00    0.40
   1  -1   0   -1.00    0.70
  -1  -1   0    2.40    0.80
   1  -1   0   -0.30    0.90
  -1   1   0   -1.20    0.80
   1   1   0   -0.30    0.50
   1  -2   0   -0.50    1.30
  -1  -2   0   -0.40    0.90
  -1  -2   0    1.60    0.70
   1  -2   0   -0.50    1.00
   1   2   0   -0.70    0.80
  -1   2   0   -1.10    1.20
   1   2   0    0.70    0.80
  -1   2   0   -1.40    1.10
  -1   2   0   -0.30    1.60
   1  -2   0   -0.50    0.90
  -1  -2   0    1.60    2.00
  -1   3   0    0.70    2.30
  -1  -3   0    0.10    1.20
   1  -3   0    0.20    1.90
  -1   3   0   -0.90    1.40
   1   3   0    2.60    1.20
   1   3   0    2.00    1.10
   1   3   0    0.40    1.20
  -1  -3   0    1.90    1.10
  -1  -3   0   -0.20    1.40
  -1   3   0   -0.70    1.60
   1   3   0   -0.10    1.50
  -1  -3   0    1.40    2.90
   1  -3   0    0.60    1.20
   1  -3   0   -0.50    1.40
   1  -4   0    4.00    2.20
   1  -4   0   -5.30    2.10
   1  -4   0    2.20    1.90
  -1   4   0   -1.20    2.40
  -1  -4   0    3.90    1.70
  -1  -4   0    0.20    1.70
   1   4   0    1.70    1.90
   1   4   0    2.40    1.60
   1   4   0    5.10    2.00
   1   4   0    1.00    2.50
   1  -4   0    0.20    2.50
  -1   4   0   -0.60    3.10
  -1   4   0   -0.30    2.00
  -1  -4   0    6.10    4.00
  -1  -5   0    0.90    2.20
   1  -5   0   -0.60    3.00
  -1   5   0    0.10    2.70
   1  -5   0    3.50    2.70
   1   5   0   -1.50    2.40
   1   5   0    0.00    2.30
  -1  -5   0   -0.10    5.10
   1  -5   0    1.70    2.30
  -1   5   0   -3.20    2.90
  -1   5   0   -3.70    3.80
   1   5   0   -2.90    3.30
  -1  -5   0    1.60    2.50
   1  -5   0    0.20    2.20
  -1   6   0    2.20    7.00
   1   6   0    7.50    5.10
   1   6   0    1.10    3.40
  -1  -6   0    3.40    2.80
   1  -6   0    5.20    3.20
   1  -6   0   -2.40    3.40
  -1   6   0    2.30    3.80
  -1   6   0   -2.30    5.70
   1   7   0   -2.10    5.20
  -1   7   0   -2.20    7.90
  -1   7   0    2.50    5.80
  -1  -7   0   -1.00    4.10
  -1   7   0   -5.20    4.70
   1  -7   0   -3.00    3.70
   1   7   0   -2.60    4.00
   1   7   0   -0.50    6.70
  -1  -7   0   -2.10    4.60
   1  -7   0    0.50    3.60
   1  -8   0   -0.80    5.60
   1   8   0    1.50    5.90
  -1  -8   0   -6.10    5.40
  -1   8   0    5.30    9.20
   1   8   0    9.20    9.40
  -1  -8   0   -0.10    6.00
   1  -8   0    4.60    5.10
   1   8   0  -10.00    7.40
  -1   8   0   -0.80    6.80
  -1   8   0   -0.50   10.70
  -1  -9   0    1.60    7.10
   1  -9   0   -8.20    6.20
  -1   9   0    6.30    8.80
   1   9   0   16.70   13.50
   1   9   0   -7.10    8.70
  -1   9   0   -2.10   15.40
  -1  -9   0   -1.70    8.90
  -1   9   0   -7.60   14.80
   1   9   0   14.90   13.20
  -2   0   0 1595.54   81.39
   2   0   0 1503.55   81.29
   2   0   0 1580.34   81.59
   2   0   0 1614.44   81.29
  -2   0   0 1491.75   81.39
  -2   0   0 1550.74   81.39
   2   0   0 1404.26   81.39
   2  -1   0 2313.17  127.89
  -2  -1   0 2298.67  128.09
  -2   1   0 2502.95  128.19
   2  -1   0 2373.36  128.29
  -2   1   0 2455.95  128.49
   2   1   0 2239.58  128.09
  -2  -1   0 2744.83  128.59
  -2  -1   0 2597.14  128.19
  -2   1   0 2326.67  128.09
  -2  -1   0 2273.57  128.09
  -2   1   0 2417.16  128.29
   2  -1   0 2481.35  128.09
   2   2   0 1197.38   66.49
  -2  -2   0 1180.08   66.49
  -2   2   0 1277.47   66.59
   2  -2   0 1288.17   66.49
  -2   2   0 1200.18   66.79
   2  -2   0 1265.07   67.09
  -2   2   0 1229.28   67.09
   2  -2   0 1314.37   66.69
   2   2   0 1285.77   66.19
  -2   3   0 1136.19   65.09
   2  -3   0 1223.18   64.69
   2   3   0 1220.78   64.39
  -2  -3   0 1110.19   64.59
  -2  -3   0 1176.28   64.59
  -2   3   0 1148.39   65.49
   2   3   0 1167.18   64.59
  -2   3   0 1260.47   64.89
   2  -3   0 1245.88   64.99
   2  -3   0 1291.97   65.49
  -2  -3   0 1344.47   65.09
  -2   4   0  697.03   41.90
   2  -4   0  749.42   40.90
  -2   4   0  750.62   41.40
   2   4   0  768.52   40.60
  -2   4   0  781.82   41.20
  -2  -4   0  728.33   40.70
   2   4   0  768.02   40.70
  -2  -4   0  870.71   42.20
  -2  -4   0  747.73   41.20
  -2  -4   0  677.53   40.60
   2  -4   0  717.23   40.90
   2  -4   0  789.82   41.70
  -2  -5   0  268.17   17.20
   2  -5   0  320.97   18.50
   2   5   0  291.37   17.90
   2   5   0  286.77   17.10
  -2  -5   0  313.57   18.90
  -2   5   0  279.27   19.30
   2  -5   0  289.37   17.40
  -2  -5   0  294.97   17.90
   2  -5   0  303.37   17.60
  -2  -5   0  285.77   17.20
   2   5   0  324.37   17.20
  -2   5   0  309.47   18.30
  -2   5   0  325.27   18.10
   2   5   0  313.67   17.20
  -2   6   0  337.67   19.80
   2   6   0  326.97   20.10
   2  -6   0  308.17   19.20
   2  -6   0  310.87   19.10
   2  -6   0  344.17   19.40
  -2  -6   0  344.17   21.30
  -2   6   0  317.57   20.40
  -2  -6   0  277.57   19.60
   2  -6   0  337.77   20.00
   2   6   0  351.46   19.10
  -2   6   0  308.17   21.80
  -2  -6   0  304.87   18.90
   2   6   0  315.97   19.00
   2  -7   0   35.30    5.40
  -2  -7   0   36.20    6.20
  -2  -7   0   32.20    5.60
   2  -7   0   35.70    5.40
   2   7   0   40.30    6.00
  -2   7   0   20.60    9.30
   2   7   0   36.10    7.70
  -2   7   0   38.70    7.90
  -2   7   0   35.80    6.20
   2   8   0  100.49   13.60
  -2   8   0  122.29   12.80
   2  -8   0   82.09   11.20
  -2   8   0   97.29   18.10
   2   8   0  100.59   16.30
   2   8   0  113.69   11.60
   2  -8   0   83.89    9.50
  -2   8   0  102.79   16.90
  -2  -8   0   71.69    9.20
  -2  -8   0   73.59   11.10
  -2  -9   0   -7.90    6.80
   2   9   0   -1.60   13.30
  -2   9   0  -18.90   14.90
  -2   9   0    5.10    9.50
   2   9   0   -2.70   12.50
   2   9   0   12.80    8.80
   2  -9   0    4.20    6.80
   3   0   0   -1.10    0.80
  -3   0   0   -2.10    0.90
   3   0   0   -2.30    0.70
  -3   0   0   -0.90    1.20
  -3   0   0   -2.50    1.30
  -3   0   0   -1.60    0.90
   3   0   0   -1.50    0.90
   3   0   0   -1.90    1.10
   3   0   0   -0.60    1.40
  -3   1   0    2.00    1.30
   3   1   0   -0.70    1.00
  -3   1   0   -0.50    1.70
  -3   1   0   -0.30    1.10
  -3  -1   0    2.50    1.90
  -3   1   0    1.20    1.50
   3   1   0    0.40    0.90
   3  -1   0   -1.30    0.90
   3  -1   0   -0.70    1.50
   3  -1   0    2.20    1.40
   3   1   0    1.60    1.20
   3  -1   0    1.20    1.50
  -3  -1   0    3.00    1.60
   3   1   0    1.60    0.90
  -3   1   0   -0.50    0.90
  -3  -1   0   -0.10    1.10
   3  -1   0   -0.90    0.70
  -3  -1   0    0.40    1.10
   3  -2   0    1.20    1.70
  -3  -2   0   -0.90    1.30
  -3   2   0   -0.50    1.40
  -3   2   0    1.40    1.60
   3  -2   0   -1.50    1.90
  -3  -2   0    0.80    2.20
  -3  -2   0    0.50    1.60
   3  -2   0   -1.30    1.10
   3   2   0   -1.10    1.00
   3   2   0   -1.10    1.70
  -3   2   0   -1.00    2.00
   3   2   0    1.00    0.80
  -3   2   0   -0.20    1.60
   3   3   0    1.20    1.50
   3   3   0    2.50    2.30
   3   3   0    1.60    1.20
  -3   3   0   -3.40    2.50
  -3  -3   0   -0.10    1.80
  -3   3   0   -3.10    2.10
  -3  -3   0    0.20    2.10
  -3   3   0    1.40    1.90
   3  -3   0   -0.20    2.20
  -3  -3   0    2.60    3.10
   3  -3   0    0.80    1.50
  -3  -4   0    2.80    3.00
  -3   4   0   -2.60    2.70
  -3   4   0   -6.90    3.40
   3  -4   0    1.20    1.80
   3  -4   0    0.30    2.50
   3   4   0   -3.30    1.70
  -3  -4   0    1.10    2.10
   3   4   0    1.70    1.70
   3  -4   0    0.30    3.30
  -3   4   0   -0.30    2.40
  -3  -4   0   -0.50    4.30
  -3   5   0   -8.30    4.30
  -3   5   0   -4.50    4.60
   3  -5   0   -2.90    4.10
  -3  -5   0   -5.20    2.60
  -3  -5   0    0.90    3.40
   3  -5   0   -1.50    2.20
   3   5   0   -4.00    2.30
   3  -5   0   -1.90    2.90
  -3   5   0   -5.60    3.20
  -3  -5   0    0.40    5.20
   3   5   0    1.40    2.30
   3  -6   0    4.10    5.00
   3   6   0   -0.90    3.00
  -3   6   0    3.50    5.40
  -3   6   0   -1.90    6.60
   3  -6   0   -5.60    3.80
   3   6   0    0.10    4.20
   3   6   0    2.60    3.30
  -3   6   0   -6.20    3.70
  -3  -6   0   -0.50    3.50
  -3  -6   0    2.90    6.20
  -3  -6   0   -0.60    4.20
  -3   7   0   -6.10    5.50
   3   7   0    1.30    4.30
   3  -7   0    3.00    3.50
   3   7   0    3.70    6.10
   3  -7   0   -1.70    5.40
  -3   7   0   -5.80    6.70
   3  -7   0   -2.10    6.30
   3  -7   0   -1.30    4.00
  -3   7   0   -6.30    9.00
  -3  -7   0    1.90    4.80
   3   7   0   -5.40    4.90
  -3   8   0   20.10   10.50
  -3   8   0   -7.70   11.60
   3   8   0   -0.10    8.30
   3  -8   0   -4.60    6.00
   3  -8   0   -2.90    4.10
  -3   8   0   11.40    6.90
   3   8   0    0.70    5.80
  -3  -8   0   -3.50    6.20
   3   9   0   11.80   11.90
  -3   9   0  -14.30   16.30
   3   9   0   -7.90    8.70
   3  -9   0   -0.70    6.90
  -3   9   0    1.60   10.20
   3   9   0    0.80   12.30
  -3  -9   0  -10.70    7.30
  -4   0   0  501.95   29.30
  -4   0   0  544.25   29.30
   4   0   0  508.75   29.20
  -4   0   0  550.84   29.30
   4   0   0  575.04   29.60
   4   0   0  541.05   29.30
  -4   0   0  552.14   29.60
   4   0   0  543.05   29.20
   4   0   0  545.95   29.70
   4  -1   0   40.00    3.50
   4   1   0   34.40    3.30
   4   1   0   32.30    3.20
  -4  -1   0   35.60    3.90
   4  -1   0   34.20    2.80
  -4   1   0   38.30    3.60
   4  -1   0   34.40    4.00
   4   1   0   43.50    3.50
  -4   1   0   37.00    4.40
   4  -1   0   37.70    3.10
  -4   1   0   35.90    3.10
  -4  -1   0   40.70    3.40
   4   1   0   36.30    3.20
  -4  -1   0   37.50    4.00
  -4   1   0   33.70    3.70
  -4   1   0   34.60    3.30
   4  -1   0   36.80    4.20
  -4  -1   0   36.20    3.40
  -4   2   0  331.57   19.90
   4  -2   0  336.17   19.80
  -4  -2   0  333.07   19.10
   4  -2   0  343.77   18.80
  -4   2   0  336.27   19.10
  -4   2   0  332.37   19.50
  -4  -2   0  359.96   20.60
  -4   2   0  323.47   19.00
   4   2   0  363.66   18.90
   4   2   0  338.97   19.20
   4  -2   0  345.27   19.40
   4  -2   0  314.27   18.30
   4  -3   0    5.60    2.10
  -4  -3   0   10.40    3.00
  -4   3   0    1.70    3.00
  -4  -3   0   11.30    4.00
  -4   3   0   11.70    2.70
  -4   3   0    6.60    3.90
  -4  -3   0    4.40    2.30
   4   3   0    5.20    2.70
  -4   3   0    9.10    2.90
   4   3   0    3.70    1.90
   4  -3   0    7.50    2.80
   4  -3   0    6.00    3.00
  -4   4   0   90.49    9.70
   4  -4   0  101.29    8.30
  -4  -4   0  114.79    9.40
  -4  -4   0   91.89    7.70
  -4   4   0  102.39    8.20
  -4   4   0   97.39    8.80
   4   4   0  112.59    6.70
   4   4   0  116.79    8.70
   4  -4   0  105.29    9.50
   4   4   0  104.19    7.40
   4  -4   0  103.09    7.40
  -4  -4   0  112.19    8.20
   4   5   0    8.00    2.50
  -4   5   0   10.70    5.00
   4  -5   0    0.80    3.50
  -4   5   0    0.60    3.20
  -4  -5   0    6.70    3.70
   4  -5   0    3.10    2.70
  -4  -5   0   12.60    5.70
  -4  -5   0   -2.40    3.10
   4  -5   0    1.90    4.70
  -4   5   0    0.60    5.50
   4   5   0   13.40    4.60
   4   5   0   -2.60    2.80
  -4  -6   0   13.80    4.80
  -4   6   0   14.60    6.20
  -4   6   0   14.30    5.40
  -4  -6   0   15.40    7.70
   4  -6   0    9.60    3.50
   4  -6   0   11.50    6.80
   4   6   0   14.10    3.60
  -4  -6   0   11.50    4.20
   4   6   0   15.10    5.70
   4  -6   0    7.60    4.60
  -4   6   0   -0.20    7.00
  -4  -7   0   11.90    5.70
  -4   7   0    4.90    8.10
   4  -7   0    4.00    7.70
   4  -7   0   13.10    6.20
  -4   7   0   10.80    6.30
   4  -7   0    9.80    4.70
   4  -7   0    7.70    4.50
  -4  -7   0   17.70    8.50
   4   7   0   13.90    4.70
   4   7   0    9.80    5.80
  -4   7   0    4.60   10.10
   4   8   0   -1.90    5.80
   4  -8   0   -0.90    7.70
   4  -8   0    1.50    9.70
   4   8   0   -6.80    7.90
  -4   8   0  -11.30   12.50
  -4  -8   0   -3.50   11.00
  -4   8   0  -14.20   11.70
  -4   8   0  -10.90    6.90
   4  -8   0   -3.50    5.40
   4   8   0    0.20    9.30
   4   9   0    9.40   12.50
   4   9   0    7.30    8.60
  -4   9   0    2.80   17.80
   4   9   0    2.30   15.80
   4  -9   0    9.70    5.80
  -4   9   0    5.20   10.90
   4   9   0    1.50   12.10
  -4  -9   0    9.10    7.80
  -5   0   0    3.20    1.90
  -5   0   0    7.50    1.80
   5   0   0    1.80    2.00
   5   0   0    1.90    1.30
  -5   0   0   -0.90    2.10
   5   0   0   -0.60    1.00
   5   0   0    3.20    1.80
  -5   0   0    1.90    1.80
   5   0   0    3.10    2.20
  -5   1   0    0.40    2.30
   5  -1   0    2.20    2.10
   5   1   0    0.80    1.30
   5  -1   0    2.00    2.40
   5   1   0    2.40    2.00
   5  -1   0   -0.10    1.10
  -5   1   0    2.80    1.70
   5   1   0    3.90    1.40
  -5   1   0    3.00    1.80
   5   1   0    2.80    1.90
  -5   1   0    0.50    1.50
  -5   1   0    2.90    1.70
  -5  -1   0    4.80    1.90
  -5  -1   0    2.20    2.60
  -5  -1   0    4.80    2.60
  -5  -1   0    2.40    1.70
   5  -1   0    0.40    1.40
   5   1   0    5.20    1.80
   5  -1   0    3.70    1.90
  -5   2   0   -1.80    3.00
  -5   2   0   -0.10    2.10
   5   2   0    3.40    2.30
  -5   2   0    2.70    2.60
   5  -2   0   -0.80    2.80
   5  -2   0    0.30    1.50
   5  -2   0   -1.60    1.10
   5  -2   0    0.70    2.20
   5   2   0    0.70    1.70
  -5  -2   0    1.90    2.10
  -5  -2   0    6.90    2.90
  -5   2   0    2.10    2.10
  -5  -2   0    2.60    1.90
   5   2   0   -1.20    1.70
  -5  -2   0    1.50    2.90
   5   3   0    6.80    3.10
   5  -3   0    4.40    3.40
   5  -3   0    1.20    2.90
   5   3   0    1.40    1.90
  -5   3   0    2.20    3.50
  -5  -3   0    4.20    3.00
   5  -3   0    0.80    1.80
  -5  -3   0    4.00    3.60
  -5  -3   0    1.50    2.30
   5   3   0    2.80    1.30
  -5   3   0   -0.10    3.60
  -5   3   0    1.40    2.50
  -5   3   0    2.40    2.40
  -5   4   0   -1.00    4.30
  -5   4   0    0.00    4.60
  -5  -4   0    2.20    4.90
  -5  -4   0    6.30    3.70
   5  -4   0    0.60    4.20
  -5   4   0   -2.30    4.20
   5   4   0    3.60    1.70
   5  -4   0    1.40    3.00
  -5   4   0    2.80    2.80
   5   4   0    0.10    3.30
   5   4   0   -2.20    2.10
  -5  -4   0   -0.90    2.90
   5   5   0   -0.50    2.60
   5   5   0    8.80    5.40
  -5  -5   0    1.10    3.60
  -5   5   0    3.60    5.10
   5  -5   0    2.80    2.70
  -5  -5   0    1.00    5.00
   5  -5   0    2.20    4.10
  -5   5   0   -0.70    5.40
   5  -5   0   -0.30    5.20
   5   5   0    2.50    2.50
  -5  -5   0    8.60    4.50
  -5   5   0    6.50    3.80
  -5   5   0    2.10    3.70
  -5  -6   0    1.40    4.50
  -5   6   0   -5.30    4.40
  -5  -6   0    3.00    4.30
  -5  -6   0    8.00    7.40
   5  -6   0   -1.10    4.80
   5   6   0   11.60    5.90
  -5   6   0  -12.60    7.10
   5   6   0   -5.40    3.60
   5  -6   0   -4.20    3.20
   5   6   0    1.70    3.20
   5  -6   0   -3.70    6.40
  -5   6   0  -10.90    5.70
  -5  -7   0   -3.70    8.40
  -5   7   0   -2.30    9.90
  -5  -7   0   -1.00    5.00
  -5   7   0  -12.20    8.50
   5  -7   0    7.60    8.30
   5   7   0   11.30    7.80
   5  -7   0   -6.00    4.20
  -5   7   0    4.20    6.40
   5  -7   0    5.40    6.10
   5   7   0   -0.40    4.30
   5   8   0    9.20   10.00
  -5   8   0   -5.80    8.40
   5  -8   0    2.30    6.10
  -5   8   0    6.10   12.90
   5  -8   0    5.90    8.60
  -5  -8   0    6.50    7.40
   5  -8   0    5.90   10.90
   5   8   0    3.30    5.80
  -5  -8   0    0.50   10.20
  -5   9   0    7.10   11.70
  -5  -9   0   -8.20    8.70
   5   9   0   23.90   13.80
   5   9   0   -3.10    9.00
  -5   9   0    4.80   18.70
   5  -9   0    5.60    6.90
  -6   0   0 1608.44   87.29
   6   0   0 1581.04   87.29
   6   0   0 1674.93   87.99
   6   0   0 1704.23   87.79
  -6   0   0 1691.93   87.29
   6   0   0 1606.84   87.19
  -6   0   0 1622.44   87.39
   6   0   0 1481.05   86.99
  -6   0   0 1724.43   87.69
   6  -1   0 4307.47  244.08
   6  -1   0 4522.95  243.78
  -6   1   0 4749.92  244.18
  -6  -1   0 4282.17  244.18
   6   1   0 4568.24  244.08
  -6   1   0 4373.46  244.48
   6   1   0 4725.93  243.78
   6  -1   0 4883.01  245.08
   6   1   0 4687.13  244.18
   6   1   0 4811.52  244.28
  -6  -1   0 4472.85  244.98
  -6   1   0 4769.92  244.98
   6  -1   0 4561.54  244.58
   6   1   0 4724.03  244.38
   6  -1   0 4672.23  243.88
  -6  -1   0 4552.44  244.18
  -6  -2   0 1092.29   60.39
   6   2   0 1079.99   59.99
   6  -2   0 1067.39   60.89
   6  -2   0 1079.09   59.79
   6  -2   0 1165.68   60.19
  -6   2   0 1154.58   60.79
  -6  -2   0 1057.89   60.59
  -6   2   0 1112.39   60.99
   6   2   0 1102.59   60.29
  -6  -2   0 1161.98   61.39
  -6   2   0 1152.18   61.59
  -6   2   0 1123.79   60.39
   6   2   0 1126.39   60.29
   6   2   0 1133.49   60.59
  -6  -2   0 1153.08   60.49
   6  -2   0 1126.69   61.49
   6   3   0 2786.52  160.08
   6  -3   0 3198.78  162.38
  -6   3   0 3109.89  161.98
   6   3   0 2888.41  161.38
   6  -3   0 3131.29  161.58
   6  -3   0 2995.70  160.88
  -6   3   0 3021.50  162.48
  -6  -3   0 3425.26  162.48
  -6   3   0 2966.90  161.18
  -6  -3   0 2919.01  161.18
  -6  -3   0 2910.41  161.38
   6  -3   0 2843.82  160.18
   6   3   0 3104.59  161.08
  -6   3   0 3056.99  161.58
  -6  -4   0  499.05   26.80
  -6   4   0  453.15   25.90
  -6   4   0  392.66   26.40
   6   4   0  429.96   26.10
  -6   4   0  419.46   27.20
   6  -4   0  452.25   26.90
   6   4   0  445.56   25.00
  -6  -4   0  446.46   25.30
   6   4   0  450.25   23.80
  -6   4   0  416.36   25.40
  -6  -4   0  414.66   25.60
   6  -4   0  434.16   24.80
   6   5   0 1349.16   68.89
  -6  -5   0 1299.07   70.19
  -6   5   0 1279.27   71.29
   6  -5   0 1288.07   70.59
   6  -5   0 1344.47   69.59
  -6  -5   0 1201.08   69.39
   6   5   0 1263.97   67.59
  -6   5   0 1286.27   69.79
  -6  -5   0 1210.08   68.89
   6  -5   0 1238.88   68.59
  -6   5   0 1129.59   70.09
   6   5   0 1309.57   69.89
  -6   5   0 1268.77   69.29
   6  -6   0  117.79   14.10
  -6  -6   0   93.59   11.00
  -6   6   0   88.89   13.70
   6  -6   0  110.29    9.10
  -6   6   0  120.89   19.20
   6  -6   0  121.39   11.40
  -6  -6   0  116.19   12.80
  -6   6   0  101.59   11.30
  -6   6   0   87.39   14.00
   6   6   0  117.29    8.40
   6   6   0  135.69   10.10
   6   6   0  113.79   13.50
   6   7   0  380.16   22.70
  -6   7   0  407.86   26.20
   6  -7   0  414.86   28.50
  -6   7   0  393.76   30.40
   6   7   0  415.56   27.60
  -6  -7   0  355.16   25.00
   6  -7   0  403.86   26.90
  -6  -7   0  380.16   26.40
  -6   7   0  353.06   28.10
  -6   7   0  394.56   26.70
   6   8   0   16.00   12.10
   6  -8   0   21.40   13.20
  -6   8   0   18.20    8.90
   6  -8   0   28.20   10.00
  -6  -8   0   12.50    8.40
  -6  -8   0   26.90   11.60
   6   8   0   25.00    6.90
   6  -8   0   24.50    7.00
  -6   8   0   19.00   14.50
  -6  -9   0   82.09   13.50
   6   9   0  105.09   18.60
   6   9   0  102.29   18.50
   6  -9   0   85.59   12.30
  -6   9   0   89.49   21.80
   7   0   0    2.90    1.80
  -7   0   0    3.20    2.30
  -7   0   0   -0.30    3.10
  -7   0   0    0.70    2.40
   7   0   0   -0.70    1.70
   7   0   0    4.60    2.60
  -7   0   0    3.00    2.30
   7   0   0   -2.50    3.00
   7   0   0   -2.20    2.90
   7   1   0    0.20    1.70
   7  -1   0   -0.10    1.70
   7   1   0    4.30    2.90
  -7   1   0   -1.60    2.80
  -7  -1   0   -1.10    2.20
  -7  -1   0    0.40    2.30
   7  -1   0    2.40    3.40
   7   1   0   -0.80    3.00
   7  -1   0    1.40    3.20
   7  -1   0    1.70    1.90
   7   1   0   -0.10    1.70
  -7   1   0    1.80    2.20
  -7  -1   0    2.00    3.70
  -7   1   0    1.50    3.40
   7  -1   0    1.70    2.50
  -7   2   0    1.80    3.20
   7  -2   0   -4.70    3.50
  -7  -2   0    0.10    2.70
  -7  -2   0    3.50    4.10
   7   2   0    5.00    3.00
   7   2   0    0.30    3.00
   7   2   0    0.00    2.30
  -7  -2   0    5.50    2.80
   7   2   0    4.20    3.30
  -7  -2   0    2.60    3.60
   7  -2   0    4.90    2.30
  -7   2   0   -0.70    3.00
   7  -2   0    2.60    3.70
   7  -2   0    0.40    1.80
  -7   2   0    3.80    4.20
   7   2   0    0.20    1.90
  -7   2   0    4.00    2.60
  -7  -3   0    6.00    4.20
   7  -3   0    2.70    1.80
   7   3   0    1.60    2.40
   7   3   0   -1.00    3.00
   7  -3   0    4.20    2.40
   7  -3   0   -3.90    4.50
  -7  -3   0    9.70    5.00
   7  -3   0    1.80    3.40
  -7   3   0    3.00    3.60
  -7  -3   0    2.50    2.80
  -7   3   0    4.50    4.70
  -7   3   0    0.10    3.90
   7   3   0    5.20    3.10
  -7   3   0    3.30    3.00
  -7  -4   0    1.00    3.70
   7  -4   0   -0.90    5.20
   7  -4   0    2.20    4.40
   7   4   0    3.80    4.50
   7   4   0    2.40    2.80
   7  -4   0   -1.00    2.50
  -7   4   0   -5.50    5.00
  -7   4   0    2.40    3.40
  -7  -4   0    5.20    6.00
  -7   4   0   -5.40    5.70
  -7   4   0    0.60    4.60
  -7  -4   0   -5.10    4.40
  -7   5   0   -1.00    7.30
   7  -5   0    3.00    5.50
  -7  -5   0    6.50    5.10
  -7  -5   0   11.20    6.70
  -7   5   0    5.90    4.10
   7  -5   0   -3.10    5.90
   7  -5   0    3.20    3.10
  -7   5   0    3.10    6.10
  -7  -5   0    2.70    4.00
   7   5   0   -2.80    2.80
   7   5   0    0.70    5.90
  -7   5   0    7.90    5.30
  -7   6   0   14.40    8.00
   7  -6   0   -3.40    8.00
  -7  -6   0    2.40    5.70
  -7   6   0   -2.60    5.40
   7  -6   0   -3.20    3.70
  -7  -6   0    5.40    7.80
   7   6   0   -3.90    7.20
   7   6   0   -5.50    4.10
  -7   6   0   -0.20    8.60
  -7   6   0   -5.00    5.80
  -7   7   0   -2.50   11.70
   7   7   0   -2.40    4.40
   7   7   0   -4.50    6.00
   7   7   0    5.70    9.30
  -7   7   0    9.60    8.30
   7  -7   0    6.60    7.40
  -7  -7   0    2.10   10.00
   7  -7   0   -6.40   10.80
  -7  -8   0   -1.80   10.70
   7  -8   0    3.00   10.40
   7  -8   0  -14.40   14.80
  -7  -8   0    8.40    8.30
  -7   8   0   -9.90   14.70
  -7   8   0   -4.40    9.90
   7   8   0    9.30   11.30
   8   0   0   91.39    7.00
  -8   0   0   96.79    7.90
  -8   0   0   93.99    7.80
   8   0   0  105.29    8.90
   8   0   0  102.19    7.00
   8   0   0   93.99    8.20
   8   0   0   96.09    9.00
  -8   0   0   99.69    8.90
  -8   0   0   93.39    7.60
   8  -1   0 2887.61  145.09
  -8  -1   0 2523.25  145.39
   8  -1   0 2721.13  143.89
  -8   1   0 2635.24  144.49
  -8  -1   0 2601.04  144.39
   8  -1   0 2541.65  144.19
   8  -1   0 2742.83  143.99
   8   1   0 2832.52  143.69
   8   1   0 2705.53  144.59
   8   1   0 2783.12  144.89
   8   1   0 2490.95  144.69
  -8   1   0 2902.61  145.29
   8   1   0 2796.32  144.39
   8  -1   0 2589.54  148.19
  -8   1   0 2730.43  144.39
  -8  -1   0 2771.62  144.49
  -8  -2   0   57.19    6.60
   8  -2   0   48.40    5.00
   8   2   0   63.59    6.10
  -8  -2   0   50.09    6.30
  -8   2   0   56.19    9.10
  -8   2   0   51.89    6.30
  -8  -2   0   54.39    7.60
   8  -2   0   59.39    8.50
   8   2   0   47.70    6.80
   8   2   0   51.99    5.00
   8   2   0   60.59    6.80
   8  -2   0   57.39    5.90
   8   2   0   71.19    7.10
  -8  -2   0   55.69    8.40
   8  -2   0   60.59    7.80
  -8   3   0 1769.02   96.69
   8  -3   0 1797.02   95.59
   8  -3   0 1775.52   94.49
   8   3   0 1726.23   94.69
   8   3   0 1752.12   95.29
  -8   3   0 1747.53   94.99
  -8   3   0 1737.73   95.89
   8  -3   0 1769.62   93.89
  -8  -3   0 1554.44   95.19
  -8  -3   0 1757.62   95.09
   8  -3   0 1909.61   96.69
   8   3   0 1608.74   94.39
   8   3   0 1887.71   94.99
  -8  -3   0 1835.02   96.29
  -8   3   0 1793.72   95.79
   8   4   0    7.60    3.20
  -8   4   0    9.80    4.50
  -8   4   0   -2.50    5.20
   8  -4   0    2.80    4.80
   8  -4   0   -3.70    5.70
  -8  -4   0   11.50    5.30
   8  -4   0    5.70    3.00
   8   4   0    7.90    5.40
  -8  -4   0    8.50    4.30
  -8   4   0    9.40    5.40
  -8   4   0   10.00    6.90
  -8  -4   0   11.70    6.90
  -8   5   0  686.43   43.50
  -8  -5   0  733.23   41.20
   8   5   0  755.62   40.70
  -8  -5   0  715.83   41.80
  -8  -5   0  776.52   42.50
   8  -5   0  672.03   40.10
  -8   5   0  731.43   44.30
   8  -5   0  715.63   43.20
  -8   5   0  755.62   41.50
  -8   5   0  685.43   42.50
   8   5   0  701.43   42.20
  -8  -6   0    5.00    6.30
  -8   6   0    8.60    9.20
   8   6   0    6.50    4.60
   8  -6   0   -2.20    6.70
   8   6   0    2.70    8.60
  -8   6   0   11.10    7.00
  -8  -6   0    0.40    7.50
  -8   6   0   13.10   10.00
   8  -6   0    6.40    4.60
   8  -6   0    4.70   10.00
  -8   6   0    0.30    5.60
  -8   7   0  242.38   20.60
   8   7   0  195.88   22.20
  -8  -7   0  203.28   17.90
  -8   7   0  194.18   25.00
   8  -7   0  213.28   18.90
   8   7   0  222.18   18.00
   8  -7   0  200.68   25.30
  -8  -7   0  183.88   19.00
   8   8   0  -27.50   13.50
  -8   8   0   27.20   11.40
  -8  -8   0  -11.00    8.70
  -8  -8   0   28.20   17.60
   8  -8   0   21.60   11.80
  -8   8   0    5.00   16.70
   9   0   0   -1.80    4.20
   9   0   0    3.70    4.10
   9   0   0   -1.40    2.70
   9   0   0   -3.10    2.30
   9   0   0    6.30    3.70
  -9   0   0   -1.10    4.30
  -9   0   0    2.80    2.90
  -9   0   0    2.50    3.10
   9  -1   0    2.10    2.60
  -9   1   0    4.00    3.70
   9   1   0   -4.50    3.90
   9  -1   0   -2.50    3.20
   9  -1   0   -3.80    4.50
  -9   1   0   -4.00    4.40
   9   1   0    5.70    4.10
  -9  -1   0    0.60    3.20
  -9  -1   0    0.00    5.00
   9   1   0    1.10    2.70
  -9  -1   0    2.80    2.90
  -9   1   0    1.90    3.30
   9   1   0    0.90    2.30
   9  -1   0    1.50    4.20
   9   1   0   -2.10    3.20
   9  -1   0   -1.20    2.20
  -9   2   0   -6.60    4.30
  -9   2   0   -4.20    5.50
   9   2   0   -5.20    3.80
  -9   2   0    2.10    3.30
   9  -2   0   -2.10    2.30
  -9  -2   0   -1.50    3.20
   9   2   0    1.20    2.70
   9  -2   0   -3.70    2.10
  -9  -2   0    1.90    5.60
   9   2   0   -1.30    2.30
   9  -2   0   -2.20    4.30
   9  -2   0    1.30    4.90
   9   2   0    2.60    3.80
   9   2   0   -0.50    4.30
  -9  -2   0   -4.30    3.00
   9  -3   0    1.80    2.80
   9  -3   0    4.20    6.20
  -9  -3   0    2.70    3.70
   9   3   0    0.10    4.20
  -9  -3   0    5.00    3.90
   9   3   0    6.70    3.40
  -9   3   0   -2.50    6.20
  -9   3   0   -2.10    3.70
   9   3   0    3.70    2.60
   9  -3   0    6.00    4.90
  -9   3   0    2.20    5.20
  -9  -3   0    8.40    5.50
  -9  -3   0    3.20    6.40
   9  -3   0    3.20    2.30
   9   3   0    2.40    4.20
   9   3   0    0.60    4.30
  -9   4   0    5.60    5.90
   9  -4   0  -13.50    7.00
  -9  -4   0   -0.50    4.70
  -9   4   0   -0.20    8.90
  -9  -4   0   -1.10    6.00
   9   4   0   -3.90    2.90
   9   4   0   -0.50    4.90
  -9  -4   0    0.70    6.80
   9  -4   0    3.30    3.20
   9   4   0   -2.00    4.50
  -9   4   0    2.90    5.60
   9   5   0   -6.50    6.30
  -9   5   0   -0.80    8.40
  -9  -5   0    4.30    6.60
   9   5   0    4.30    4.10
  -9  -5   0   13.30    7.90
  -9   5   0   -1.70    8.00
   9  -5   0   -2.30    3.60
   9  -5   0    6.20    9.00
  -9   5   0   -1.30    6.10
  -9   5   0   11.70    6.70
   9   6   0    7.00    6.30
  -9  -6   0   12.10   10.40
  -9   6   0   -1.80   11.80
  -9   6   0   19.30    7.60
   9   6   0   -3.50    8.70
  -9  -6   0    1.90    8.70
   9  -6   0   -5.30    7.40
   9  -6   0    0.20   11.40
  -9  -7   0    3.50    8.70
   9  -7   0   -3.30    9.80
  -9  -7   0   -0.60   10.10
  -9   7   0   21.60   10.00
   9   7   0  -14.20   11.30
  -9   7   0  -23.40   13.50
  -9  -8   0    1.30    8.30
   9  -8   0   -9.80   13.00
  -9   8   0   -2.60   18.00
   9   8   0   13.00   15.10
  -9  -8   0   -8.70   14.40
  10   0   0  142.29   12.50
 -10   0   0  127.69   11.40
 -10   0   0  136.09   10.00
  10   0   0  138.49    9.70
 -10   0   0  119.79   10.30
  10   0   0  123.69   11.70
  10   0   0  133.79    9.20
  10   0   0  119.89   10.80
  10  -1   0   28.50    4.10
  10   1   0   22.00    6.30
  10  -1   0   18.30    5.80
  10   1   0   42.40    5.80
  10   1   0   24.00    6.40
 -10   1   0   30.00    5.40
  10  -1   0   18.00    4.70
  10   1   0   23.50    3.80
  10   1   0   30.90    4.80
 -10   1   0   21.00    6.40
  10  -1   0   34.00    4.70
 -10  -1   0   27.60    5.20
  10  -1   0   28.80    6.90
 -10  -1   0   20.40    7.30
  10   2   0   98.99    9.50
  10  -2   0   84.39    7.40
 -10   2   0   87.09   10.50
 -10  -2   0   89.09   11.40
  10  -2   0   92.59   12.10
 -10   2   0   89.19   12.60
  10   2   0   83.39    9.90
  10  -2   0   97.89    7.90
  10  -2   0   93.89   10.70
  10   2   0   83.99    7.10
  10   2   0   76.89   12.50
  10   2   0   93.79    8.00
 -10   2   0   81.69    9.00
 -10  -2   0   95.39    9.20
  10  -3   0   18.40    3.70
 -10  -3   0   31.80    8.10
 -10   3   0   22.10    6.80
  10   3   0   24.00    5.90
 -10   3   0   24.00    5.60
  10  -3   0   14.00    7.90
  10   3   0   28.80    6.00
 -10  -3   0   28.70    5.60
 -10   3   0   26.80    8.80
  10   3   0   33.50    5.60
  10   3   0   28.20    6.30
  10   3   0   26.80    3.60
  10  -3   0   26.30    4.20
  10   4   0   38.00    5.80
  10   4   0   25.80    6.30
  10   4   0   36.20    7.60
  10  -4   0   30.70    9.70
 -10   4   0   23.40   10.20
 -10  -4   0   30.40    8.40
 -10  -4   0   34.60    7.70
  10  -4   0   25.40    4.80
 -10   4   0   38.30    6.90
  10  -4   0   34.60    7.70
 -10   4   0   23.80    8.10
 -10  -5   0   22.50    9.10
 -10   5   0   27.60    8.70
 -10   5   0   17.50   10.90
  10   5   0   20.00    6.70
  10  -5   0   28.30    7.00
 -10  -5   0   23.80    9.30
  10  -5   0   19.80   17.90
  10   5   0   23.80    8.20
 -10   6   0    7.20   12.70
  10   6   0   -8.00    9.00
 -10  -6   0   15.30    8.50
 -10   6   0   25.00    9.80
  10  -6   0   11.90    9.40
 -10  -6   0   14.20   10.60
 -10   7   0   43.60   14.10
  10  -7   0   -6.60   10.90
 -10  -7   0   15.30    9.50
  10   7   0   24.70   13.30
 -10  -7   0   29.30   13.50
 -10   7   0   27.10   15.70
 -11   0   0    2.10    4.70
  11   0   0    1.30    3.10
  11   0   0    6.10    4.60
 -11   0   0   -0.70    5.10
  11   0   0   -0.30    5.10
  11   0   0    4.90    6.40
 -11   0   0    1.30    4.50
  11   0   0    5.30    3.50
  11  -1   0    1.60    3.30
  11  -1   0    3.30    5.70
  11  -1   0   -0.50    4.20
 -11  -1   0    4.60    5.00
  11  -1   0    6.80    3.50
  11   1   0   -0.90    3.10
  11   1   0    6.20    4.90
 -11   1   0   -4.40    5.00
  11  -1   0   -4.40    6.80
 -11   1   0    2.20    4.60
  11   1   0    7.10    5.70
 -11  -1   0    6.70    6.80
 -11   1   0    0.40    6.40
  11   1   0    1.20    6.20
  11   1   0    6.00    3.70
 -11  -2   0    9.30    5.10
 -11  -2   0    2.50    6.90
  11   2   0    3.90    6.00
  11  -2   0    1.50    3.40
  11   2   0   -0.70    3.80
 -11   2   0    6.00    6.10
 -11   2   0    3.00    5.10
 -11   2   0   -3.40    7.20
  11   2   0   -2.30    2.90
  11   2   0   -1.80    5.80
  11   2   0    1.70    4.50
  11  -2   0    2.10    3.60
  11  -2   0    0.60    5.90
  11  -2   0   -8.20    7.20
  11  -3   0   -5.80    7.90
 -11   3   0   -6.20    7.70
  11   3   0    3.80    5.50
  11   3   0    4.80    5.40
 -11   3   0   -2.20    5.50
 -11  -3   0    5.40    7.60
 -11  -3   0    3.60    5.40
  11   3   0    5.70    4.00
  11  -3   0    1.10    3.80
  11  -3   0   -6.60    5.50
  11  -3   0   -5.20    3.30
  11   3   0    3.60    6.50
 -11   3   0    2.50    7.70
  11  -4   0   -2.50    7.30
  11   4   0    4.10    6.60
 -11   4   0    8.10    8.90
 -11  -4   0   -1.90    7.30
 -11   4   0   -5.90    6.60
 -11  -4   0   11.70    8.50
  11   4   0    5.20    6.90
 -11   4   0    2.20    9.10
  11  -4   0    1.40    4.90
  11   4   0   -5.30    6.30
  11   5   0   -2.20    8.00
 -11  -5   0    5.90    9.70
 -11   5   0   -0.70   10.80
 -11  -5   0    4.90    8.90
 -11  -6   0   -4.10   11.50
  11   6   0  -15.40   10.20
 -11  -6   0    1.50    9.60
  11  -6   0    2.30   10.60
 -11   6   0    8.40   13.90
  11  -7   0    8.40   12.10
  11   7   0  -20.70   13.10
 -11  -7   0   13.40   14.30
 -11  -7   0    0.80   10.00
 -12   0   0  183.58   17.60
 -12   0   0  206.18   15.90
 -12   0   0  196.38   14.70
  12   0   0  185.48   17.10
  12   0   0  206.78   14.10
  12   0   0  225.88   19.00
 -12   0   0  204.28   15.80
  12   0   0  206.68   13.60
  12  -1   0  178.18   12.90
  12  -1   0  177.68   14.50
  12  -1   0  181.38   18.20
  12  -1   0  183.08   13.00
  12   1   0  185.48   15.00
  12   1   0  190.68   13.40
  12   1   0  194.18   17.20
  12  -1   0  184.38   16.30
 -12   1   0  168.28   16.60
 -12  -1   0  151.38   15.10
 -12  -1   0  170.98   16.50
  12   1   0  200.18   16.10
 -12   1   0  189.48   15.10
 -12   1   0  177.78   14.80
 -12   2   0  168.58   15.50
  12   2   0  173.98   11.70
 -12   2   0  156.98   15.60
  12   2   0  175.18   17.20
  12  -2   0  167.78   12.40
  12  -2   0  152.98   18.60
  12   2   0  152.08   15.60
  12   2   0  174.98   14.50
  12  -2   0  161.58   16.00
 -12  -2   0  164.38   15.10
 -12   2   0  173.68   26.70
  12   2   0  168.18   12.90
  12  -2   0  180.18   12.60
 -12  -2   0  174.68   16.90
  12   3   0   89.79   14.90
 -12  -3   0  106.69   14.90
 -12   3   0  113.19   17.80
 -12  -3   0  108.89   13.50
  12  -3   0  122.09   10.20
  12  -3   0  111.59   13.50
 -12   3   0   94.09   13.70
 -12   3   0  113.59   16.00
  12   3   0   95.69   13.70
  12   3   0  119.59   12.80
  12  -3   0  112.59   10.90
  12   4   0  105.49   15.20
 -12  -4   0  135.79   16.00
 -12   4   0  110.19   15.80
  12   4   0  107.19   16.30
  12   4   0  107.19   14.00
  12  -4   0  128.59   15.80
  12   5   0   40.10   10.10
  12   5   0   45.10   11.00
 -12   5   0   39.00   13.70
 -12  -5   0   23.00   11.40
  12   5   0   26.20   11.50
  12   6   0   60.19   13.70
 -12   6   0   77.79   18.50
 -12  -6   0   43.10   11.70
 -12  -6   0   43.60   20.90
  12  -6   0   61.69   13.50
  13   0   0   -4.30    9.80
 -13   0   0   -6.50    7.20
  13   0   0    1.90    6.10
  13   0   0    7.50    5.50
  13   0   0    2.60    7.60
 -13   0   0    2.40    8.10
  13   0   0    1.30    4.50
  13   1   0    8.70    4.90
  13   1   0    2.60    7.50
  13  -1   0    7.70    5.30
 -13   1   0    7.80    7.40
  13  -1   0    1.80    6.00
  13   1   0    5.30    6.70
  13   1   0    4.00   10.00
  13  -1   0   -1.00    7.50
  13  -1   0    5.60    4.60
 -13  -1   0  -10.70    6.90
 -13   1   0   14.40    7.40
 -13  -1   0    4.70    9.20
 -13   1   0   -7.90    7.60
  13  -2   0   -6.30    5.20
  13   2   0    4.90    9.40
  13   2   0    8.70    7.20
 -13   2   0  -13.30    8.10
  13  -2   0    8.70    5.60
  13   2   0    5.20    4.60
 -13   2   0   -6.90    9.40
  13  -2   0   -0.70    7.50
 -13  -2   0    6.00    7.90
  13   2   0    7.90    9.70
 -13  -2   0   -9.90    8.90
  13  -3   0    1.20    7.70
  13  -3   0   -2.80    5.50
  13   3   0   -5.90    6.80
  13   3   0  -14.40   10.20
 -13   3   0    8.70   11.00
 -13  -3   0    6.40   10.10
 -13   3   0  -15.90   10.00
  13   3   0    2.30    8.90
 -13  -4   0    2.00   10.80
  13   4   0  -12.70   11.60
 -13   4   0    3.10   12.50
  13   4   0    2.40    9.20
  13   4   0    2.00    8.30
  13  -4   0    9.90    9.30
 -13   5   0   -8.30   16.00
  13   5   0   -0.20   10.90
  13   5   0   -0.90   10.50
 -14   0   0  623.84   39.60
  14   0   0  582.44   36.50
  14   0   0  595.14   38.10
  14   0   0  599.84   34.50
 -14  -1   0    2.50   11.20
  14   1   0   10.40    8.20
  14   1   0    6.90    5.50
  14  -1   0    9.90   10.00
  14  -1   0   10.20    6.00
  14   1   0   12.60    9.30
 -14   1   0   12.70   10.30
 -14   1   0    2.30   10.20
 -14   2   0  459.45   33.80
 -14  -2   0  555.74   35.10
  14  -2   0  527.25   33.70
  14   2   0  511.25   33.40
  14   2   0  480.05   33.30
  14  -2   0  509.05   31.00
 -14  -3   0   15.00   10.70
  14   3   0    2.70   15.00
  14   3   0   14.50   10.70
  14  -3   0    6.30   10.00
 -14   3   0   22.80   13.70
  14   3   0    8.20    9.50
 -14  -4   0  302.97   25.40
  14   4   0  254.77   24.40
 -14   4   0  213.58   31.20
  14  -4   0  276.87   25.50
  14   4   0  220.88   23.70
  15   0   0    3.90   11.00
  15   0   0   -1.40    8.40
 -15   0   0   21.30   13.70
 -15   1   0   -6.60   13.50
  15   1   0    4.20    9.40
 -15  -1   0  -12.60   12.80
  15  -1   0    0.20   10.90
  15   1   0    9.50   12.20
  15   2   0    5.40   10.20
 -15  -2   0   19.20   14.40
 -15   2   0   -0.20   14.00
  15   2   0   -4.30   12.20
  15  -2   0   -2.80   10.90
   0  -1  -1 1967.20   92.79
   0   1  -1 1722.43   92.79
   0   1  -1 1701.43   92.79
   0   1  -1 1715.43   92.89
   0  -1  -1 1683.23   92.89
   0   1   1 1859.01   92.99
   0  -1  -1 1723.43   92.79
   0   1   1 1687.53   92.79
   0  -1   1 1721.53   92.89
   0  -2  -1    0.30    1.00
   0  -2   1    1.20    2.10
   0   2  -1    0.80    0.90
   0  -2   1    1.90    0.90
   0   2   1    0.90    1.30
   0   2  -1    1.60    0.90
   0  -2  -1    2.30    1.10
   0  -2   1    0.90    1.10
   0  -2  -1   -0.30    0.70
   0   2  -1   -2.70    1.40
   0   2   1    3.50    1.10
   0  -2  -1    3.70    1.30
   0  -3  -1  805.82   40.90
   0   3   1  764.12   40.90
   0  -3  -1  723.43   40.70
   0  -3  -1  765.22   41.10
   0   3  -1  756.32   41.20
   0   3  -1  756.52   40.80
   0   3   1  717.23   41.30
   0  -3  -1  723.93   40.60
   0   3   1  706.73   40.90
   0  -3   1  722.83   40.80
   0  -3  -1  838.22   41.00
   0   3  -1  771.82   40.90
   0  -3   1  812.12   41.70
   0  -3   1  780.22   41.10
   0   4  -1   -2.50    2.10
   0   4   1    0.50    2.80
   0  -4  -1    2.50    2.30
   0  -4  -1    7.50    2.50
   0  -4   1    6.90    3.80
   0  -4   1    3.80    1.70
   0   4   1    6.00    2.20
   0  -4  -1    4.70    2.30
   0  -4  -1    4.20    1.50
   0   4  -1    3.10    1.90
   0  -4   1   -0.60    2.30
   0  -5  -1  180.28   11.50
   0   5  -1  183.58   12.60
   0   5   1  177.48   11.70
   0   5  -1  181.78   11.60
   0   5   1  211.58   11.70
   0   5   1  177.08   12.70
   0  -5  -1  179.78   10.70
   0  -5  -1  181.78   11.10
   0  -5   1  171.48   11.50
   0   5  -1  190.38   11.50
   0  -5   1  168.98   11.20
   0  -6   1    4.10    3.20
   0   6  -1    3.60    3.50
   0  -6   1    6.40    3.00
   0   6   1    8.90    5.40
   0  -6  -1    3.30    3.40
   0  -7  -1   17.70    4.70
   0  -7  -1   16.10    5.00
   0   7   1   16.40    7.90
   0   7  -1   26.40    5.40
   0   7  -1   21.50    6.20
   0   7   1   19.80    5.40
   0  -7   1   18.10    5.40
   0   7  -1   16.00    7.40
   0  -7   1   18.20    4.60
   0   7   1   21.70    6.30
   0   8   1   -5.70    6.20
   0   8   1   10.20   10.00
   0   8   1   10.50    8.40
   0  -8   1   10.80    6.20
   0   8  -1  -18.30    9.80
   0  -8   1    5.20    5.30
   0   8  -1  -20.20    8.90
   0  -8  -1    2.20    5.40
   0  -8  -1   -7.70    5.70
   0   8  -1    2.70    7.30
   0   9  -1    2.70    8.90
   0  -9  -1   -2.30    8.30
   0   9  -1    5.10   25.80
   0  -9  -1  -15.90    6.30
   0   9   1   -1.20    8.80
   0  -9   1   -9.50    6.50
   0   9   1   11.10   14.40
   0   9   1   10.00   13.50
   0   9  -1    8.90   13.90
   1   0  -1  268.17   13.00
  -1   0  -1  237.08   13.10
  -1   0   1  241.38   13.00
   1   0   1  246.38   13.20
   1   0   1  238.58   13.10
   1   0   1  241.08   13.10
   1   0   1  236.18   13.00
  -1   0   1  243.38   13.00
  -1   0  -1  250.67   13.20
  -1   0  -1  238.78   13.10
  -1   0  -1  225.28   12.90
   1   0  -1  228.48   13.10
  -1   0   1  251.27   13.00
  -1  -1   1  686.63   32.40
   1   1   1  613.64   32.50
  -1  -1   1  689.03   33.00
  -1   1  -1  591.74   32.50
   1  -1  -1  585.04   32.50
  -1   1  -1  590.54   32.40
   1  -1  -1  594.14   32.40
  -1   1  -1  595.94   32.70
   1   1   1  567.54   32.30
   1   1   1  621.64   32.50
   1  -1  -1  622.84   32.70
  -1   1   1  596.54   32.50
  -1   1   1  587.44   32.50
   1  -1   1  632.14   32.60
   1  -1   1  593.34   32.30
  -1  -1  -1  562.14   32.30
   1  -1   1  595.54   32.50
  -1  -1  -1  608.74   32.40
  -1  -1  -1  602.54   32.40
  -1  -1  -1  592.24   32.30
  -1   1   1  612.74   32.70
   1   2   1  190.38   11.10
   1  -2  -1  200.18   11.50
   1  -2  -1  195.48   11.10
  -1  -2   1  195.58   10.90
   1  -2  -1  197.58   11.00
  -1  -2   1  197.78   11.10
  -1   2  -1  174.68   11.10
   1   2   1  197.18   10.70
  -1   2  -1  191.88   11.00
  -1   2  -1  194.28   11.50
   1   2   1  203.68   11.00
   1  -2   1  202.78   11.00
  -1   2   1  194.78   11.10
   1  -2   1  202.88   11.30
  -1  -2  -1  190.98   10.70
  -1  -2  -1  186.08   10.90
  -1  -2  -1  212.18   11.00
   1   2  -1  181.28   10.80
   1   2  -1  210.08   10.90
  -1   2   1  190.18   11.10
   1  -2   1  201.48   10.90
  -1   2   1  193.08   11.50
  -1  -3   1  487.95   28.00
  -1   3  -1  507.35   28.70
  -1   3  -1  539.65   28.20
  -1   3  -1  514.45   28.30
  -1  -3   1  529.55   28.30
   1  -3  -1  517.95   28.00
   1  -3  -1  513.65   28.20
  -1  -3   1  587.24   29.20
   1  -3  -1  515.95   28.60
   1   3   1  529.05   28.30
   1   3   1  525.65   27.90
   1   3   1  505.05   28.10
  -1  -3  -1  493.85   27.90
  -1   3   1  500.75   28.20
  -1   3   1  488.55   28.30
  -1   3   1  486.45   28.70
   1   3  -1  480.25   27.80
   1  -3   1  519.55   28.10
   1  -3   1  568.64   28.40
   1   3  -1  525.95   28.00
  -1  -3  -1  536.25   28.20
  -1  -3  -1  485.65   27.80
   1  -3   1  534.75   28.10
  -1   4  -1   92.89    7.60
  -1  -4   1  118.49    9.00
  -1   4  -1   81.19    8.10
   1   4   1  110.79    7.80
  -1   4  -1  115.99    7.20
   1  -4  -1  118.49    8.00
   1   4   1  105.89    6.90
  -1  -4   1   95.09    7.20
   1  -4  -1  105.39    6.90
   1   4   1  103.99    6.80
   1  -4  -1   89.09    6.80
  -1  -4   1  105.29    6.80
  -1  -4  -1   89.59    7.10
   1   4  -1   93.29    6.60
  -1  -4  -1   99.59    6.60
  -1   4   1   91.89    7.30
   1  -4   1  106.49    6.90
   1   4  -1  100.79    6.50
   1   4  -1   96.49    7.30
  -1  -4  -1  104.49    6.60
   1   4  -1  110.39    6.90
   1  -4   1  101.29    6.90
   1  -4   1  100.69    7.40
  -1   4   1  110.79    8.50
  -1   5  -1  289.17   17.10
   1   5   1  280.57   16.60
   1  -5  -1  280.27   16.60
  -1  -5   1  272.87   16.90
   1   5   1  274.87   17.50
  -1   5  -1  296.87   18.10
   1   5   1  291.57   16.50
   1  -5  -1  309.87   16.80
   1  -5  -1  280.67   16.30
  -1   5  -1  282.97   16.80
  -1  -5   1  244.78   16.30
  -1  -5   1  276.87   18.20
   1  -5  -1  297.67   17.30
   1   5  -1  275.27   17.20
   1  -5   1  272.57   16.70
  -1  -5  -1  272.77   16.80
  -1  -5  -1  280.17   16.10
   1  -5   1  268.07   16.40
   1   5  -1  290.17   16.50
  -1   5   1  274.27   18.00
   1   5  -1  295.57   16.00
   1  -5   1  319.47   16.70
  -1   5   1  292.37   16.80
  -1  -5  -1  261.87   16.10
   1   6   1   46.90    6.50
  -1   6  -1   37.30    7.60
   1   6   1   48.70    7.00
  -1   6  -1   36.10    6.60
   1  -6  -1   43.60    5.80
  -1   6  -1   61.59    7.10
   1  -6  -1   44.80    5.20
  -1  -6   1   40.50    8.40
   1  -6  -1   65.19    7.50
  -1  -6   1   49.40    6.60
   1   6   1   58.99    7.20
  -1  -6  -1   58.39    5.60
   1   6  -1   36.40    6.60
  -1   6   1   41.70    6.10
   1  -6   1   54.99    6.10
  -1   6   1   44.40    7.60
  -1  -6  -1   47.20    6.00
  -1  -6  -1   43.60    5.80
  -1   6   1   42.70    6.30
   1   6  -1   52.29    6.60
   1  -6   1   42.10    6.20
   1   6  -1   52.69    6.80
   1  -7  -1   92.89    8.80
   1   7   1   92.79    9.80
   1  -7  -1   98.29    9.20
  -1   7  -1  101.29   10.50
  -1  -7   1   92.59    9.60
  -1   7  -1   98.39   14.40
   1   7   1   82.59   12.40
  -1  -7   1  110.29    9.70
  -1   7  -1  105.49   12.20
   1  -7   1   95.19    9.40
   1   7  -1   88.99   12.90
  -1   7   1   86.29   14.10
  -1   7   1  108.69   11.40
  -1  -7  -1   96.89    9.00
  -1  -7  -1   95.39    9.60
  -1   7   1  107.59   10.50
   1  -7   1   89.39    8.70
   1   7  -1  101.19   10.00
  -1  -8   1   29.70    6.60
  -1  -8   1   14.80    6.60
   1  -8  -1   21.80    5.90
  -1   8  -1   19.30    9.60
   1   8   1    5.30    8.50
  -1   8  -1   25.70    7.00
   1  -8  -1   14.50    6.30
  -1   8  -1   17.30   11.60
   1   8   1   24.70    7.00
   1   8   1   15.90    9.60
  -1   8   1   30.30    8.30
   1   8  -1   32.00    7.30
   1   8  -1   26.30    8.40
  -1  -8  -1   15.20    6.40
   1  -8   1   16.70    5.90
   1  -8   1   16.50    5.80
  -1   8   1   25.20    9.30
  -1  -8  -1   15.50    6.20
  -1   8   1   24.40   11.20
   1   8  -1   19.00   10.40
  -1   9  -1   10.40   14.80
   1   9   1   25.60   13.30
   1   9   1   41.10   10.00
   1  -9  -1   25.00    7.50
  -1   9  -1   18.30   10.20
  -1   9  -1   29.50   15.70
   1   9   1   36.00   18.50
  -1  -9   1   25.00    8.20
  -1   9   1   61.29   16.10
  -1  -9  -1   46.90   10.40
   1  -9   1   27.60    7.20
  -1   9   1   40.30   10.60
   1   9  -1   37.50   14.30
  -1  -9  -1   24.00    8.10
   1   9  -1   21.00    8.90
   1   9  -1   22.10   14.00
   2  -1  -1   28.70    2.70
  -2  -1   1   38.70    2.90
   2  -1  -1   32.90    2.80
   2   1   1   34.30    2.90
   2   1   1   31.00    2.70
   2  -1  -1   25.20    3.10
   2   1   1   28.90    2.50
  -2   1  -1   29.70    2.30
  -2   1  -1   34.10    3.40
  -2  -1   1   34.00    3.40
  -2   1  -1   26.10    3.00
  -2   1  -1   30.80    2.60
   2  -1   1   32.10    3.20
   2  -1   1   33.20    3.20
   2  -1   1   34.10    2.90
  -2   1   1   26.30    3.30
  -2  -1  -1   30.10    2.60
  -2  -1  -1   28.30    2.60
   2  -1   1   30.50    2.50
  -2  -1  -1   33.80    2.80
   2   1  -1   28.40    2.60
  -2   1   1   29.00    2.90
  -2   1   1   29.00    2.90
   2   1  -1   32.30    2.60
  -2  -1  -1   31.80    2.60
   2  -2  -1 3836.72  212.08
  -2   2  -1 4157.78  212.58
   2  -2  -1 4191.18  211.98
   2  -2  -1 4043.60  212.48
   2   2   1 4098.49  212.18
  -2   2  -1 3856.11  212.18
  -2   2  -1 3971.70  211.98
   2   2   1 3704.33  211.98
   2   2   1 4112.49  211.88
   2   2   1 3956.40  211.88
   2   2  -1 3771.32  211.88
  -2   2   1 3885.11  212.48
   2  -2   1 3960.20  211.88
  -2   2   1 4236.58  212.18
   2   2  -1 4077.39  211.78
  -2  -2  -1 4130.89  212.28
  -2   2   1 3931.81  212.08
   2  -2   1 4198.48  212.48
   2  -2   1 3918.61  212.08
   2   3   1    4.70    1.30
   2   3   1    4.60    1.80
  -2   3  -1    2.00    1.70
   2   3   1    8.70    2.10
  -2  -3   1    4.10    3.10
   2  -3  -1    0.10    2.40
  -2   3  -1    3.20    2.00
   2  -3  -1    4.90    1.70
  -2   3  -1    4.90    2.70
  -2  -3   1    5.60    2.10
   2  -3  -1    2.00    1.80
  -2  -3   1    1.50    1.50
   2   3   1    2.20    1.30
  -2  -3  -1    5.70    2.10
  -2   3   1   -1.10    2.90
   2  -3   1    5.10    2.30
  -2   3   1    4.20    2.30
  -2   3   1    2.80    1.80
   2  -3   1    2.90    1.60
  -2  -3  -1    4.70    1.20
   2   3  -1    4.90    1.40
   2   3  -1    0.70    1.30
  -2  -3  -1    1.20    1.50
  -2  -3  -1   12.30    5.40
   2  -4  -1 1757.42   91.19
   2  -4  -1 1734.73   91.39
  -2  -4   1 1552.54   91.09
   2   4   1 1699.23   90.89
   2   4   1 1692.83   91.29
  -2  -4   1 1850.51   92.49
  -2   4  -1 1761.72   91.49
  -2   4  -1 1631.64   91.69
  -2   4  -1 1673.03   92.29
  -2  -4   1 1799.82   91.69
   2   4   1 1712.03   91.19
   2  -4  -1 1775.52   92.09
   2  -4   1 1681.63   91.19
  -2  -4  -1 1712.13   91.49
   2   4  -1 1746.23   91.09
  -2  -4  -1 1506.05   90.79
  -2  -4  -1 1557.34   91.09
  -2   4   1 1677.73   91.69
  -2   4   1 1699.13   91.59
   2  -4   1 1704.83   91.29
  -2  -4  -1 1894.61   91.99
   2  -4   1 1815.12   91.79
   2   4  -1 1726.83   90.99
  -2   4   1 1656.73   92.19
  -2   5  -1    1.70    3.10
  -2  -5   1    9.20    6.00
   2   5   1    4.90    3.60
   2  -5  -1   -0.80    4.20
   2  -5  -1    6.10    3.30
  -2   5  -1    4.60    3.90
   2  -5  -1    2.50    2.70
  -2  -5   1    3.00    3.40
  -2   5  -1    8.70    4.70
  -2  -5   1    1.40    2.30
   2  -5  -1    9.70    2.70
   2   5   1    5.50    2.70
   2   5   1    6.50    2.50
  -2  -5  -1   -1.70    2.60
   2  -5   1    8.30    3.10
  -2   5   1    3.20    3.50
   2   5  -1    5.30    2.70
  -2  -5  -1    6.90    3.20
  -2   5   1    4.80    3.30
   2  -5   1    7.90    2.70
   2  -5   1    6.10    3.50
  -2  -5  -1    7.10    4.70
  -2   5   1   -2.40    4.40
   2   5  -1    2.90    2.30
  -2  -5  -1    5.10    2.20
  -2  -6   1  478.05   28.40
   2   6   1  479.75   26.10
   2  -6  -1  514.45   26.60
   2   6   1  469.15   27.10
  -2  -6   1  389.16   26.10
  -2   6  -1  444.36   28.70
  -2  -6   1  431.16   26.80
   2  -6  -1  464.95   26.40
   2   6   1  454.35   26.30
   2  -6  -1  447.26   26.10
  -2   6  -1  488.45   26.90
   2  -6  -1  476.65   27.30
  -2   6  -1  437.86   27.40
   2  -6   1  496.95   26.20
   2  -6   1  432.56   26.20
   2   6  -1  443.86   27.00
  -2  -6  -1  454.25   25.90
   2   6  -1  515.95   26.30
  -2   6   1  434.66   27.10
  -2   6   1  440.46   28.50
   2  -6   1  465.55   26.70
   2  -6   1  421.26   26.40
  -2  -6  -1  421.66   25.90
   2   6  -1  497.75   25.80
  -2   6   1  500.15   27.20
  -2  -6  -1  462.45   26.80
  -2   7  -1   16.50    7.00
  -2  -7   1    4.60    4.90
  -2   7  -1   -6.90    8.10
   2  -7  -1    4.40    5.60
   2  -7  -1   13.40    6.20
  -2   7  -1    1.30    5.20
   2  -7  -1    6.70    3.60
   2   7   1    2.50    5.30
   2   7   1    4.30    6.40
   2  -7  -1   11.40    4.40
   2   7   1    4.40    4.40
  -2   7   1    1.50    8.10
  -2  -7  -1    2.00    4.20
   2  -7   1    3.70    3.70
  -2   7   1   17.70    5.20
   2   7  -1    3.10    5.10
   2  -7   1   -1.90    4.30
   2   7  -1   14.10    6.90
   2   7  -1    8.50    5.00
  -2  -7  -1   10.50    4.50
  -2  -7  -1    6.70    5.00
  -2   7   1   13.90    6.70
  -2   8  -1  105.89   12.80
  -2   8  -1   76.39   12.80
   2   8   1   94.79   15.30
  -2   8  -1   89.99   15.00
   2  -8  -1   84.29   11.20
  -2  -8   1   87.09   10.80
   2   8   1  118.39   11.90
   2  -8  -1   82.39    9.30
   2   8  -1   93.09   12.60
  -2   8   1   89.29   18.70
  -2   8   1  123.59   16.80
   2  -8   1   75.79   11.30
  -2  -8  -1   87.09   11.70
   2   8  -1   80.09   10.40
   2   8  -1  108.29   12.00
   2  -8   1   86.29    9.40
  -2   8   1  115.69   13.30
  -2  -8  -1   73.29   11.00
  -2   9  -1  -12.60   15.50
   2   9   1   16.10   12.50
   2   9   1    2.10   12.60
  -2   9  -1    1.80    9.10
  -2  -9   1  -10.00    7.20
   2  -9  -1    6.30    6.50
   2   9   1    6.70    9.10
   2   9  -1   15.90   13.00
  -2   9   1   15.20   15.50
  -2  -9  -1   -7.30    7.50
   2   9  -1   -0.40   13.60
   2   9  -1   11.90    8.60
   2  -9   1    2.90    7.10
  -2   9   1    0.60   10.10
   3   0   1  263.67   14.60
  -3   0  -1  250.07   14.70
   3   0   1  253.57   14.90
  -3   0  -1  281.77   15.20
   3   0   1  266.67   14.40
  -3   0   1  270.27   14.60
  -3   0   1  272.67   14.80
  -3   0  -1  269.97   14.80
   3   0  -1  248.38   14.70
  -3   0  -1  262.77   14.80
   3   0   1  259.27   14.80
   3   0   1  270.07   15.10
  -3   0  -1  273.87   14.50
   3   0  -1  258.67   14.60
  -3   0   1  266.07   14.70
   3   0  -1  272.17   14.80
   3   0  -1  274.77   15.00
   3   1   1  775.12   43.40
  -3  -1   1  863.01   43.30
  -3   1  -1  838.82   43.90
  -3   1  -1  809.82   43.00
   3   1   1  826.02   43.10
   3  -1  -1  727.93   43.30
   3  -1  -1  821.92   43.80
  -3   1  -1  822.22   43.20
   3   1   1  806.12   43.20
   3  -1  -1  791.02   43.30
  -3  -1   1  764.12   43.10
  -3   1  -1  806.92   43.60
  -3  -1   1  804.42   43.90
   3   1   1  857.51   43.30
  -3   1  -1  767.82   43.20
  -3  -1  -1  884.71   43.60
  -3  -1  -1  861.01   43.40
  -3   1   1  773.32   43.50
  -3   1   1  780.22   43.50
   3  -1   1  818.02   43.10
  -3  -1  -1  735.63   43.20
   3   1  -1  813.02   43.20
   3  -1   1  820.92   43.70
  -3  -1  -1  859.91   43.00
  -3  -1  -1  846.32   43.20
  -3  -1  -1  730.33   43.30
   3   1  -1  752.62   43.20
  -3   1   1  816.02   43.70
   3  -1   1  849.81   43.80
   3  -1   1  798.62   43.00
   3  -1   1  753.02   43.20
  -3   2  -1  202.38   12.50
   3  -2  -1  204.88   12.40
   3   2   1  202.68   11.50
  -3   2  -1  198.98   11.70
   3   2   1  216.28   11.20
  -3   2  -1  203.68   12.20
  -3   2  -1  206.68   11.60
   3  -2  -1  202.08   11.60
  -3  -2   1  197.38   11.70
   3   2   1  194.98   11.90
  -3  -2   1  187.48   11.50
  -3  -2  -1  203.38   11.70
   3   2  -1  205.28   11.80
   3  -2   1  208.78   11.50
   3  -2   1  197.68   12.30
   3  -2   1  196.18   12.00
   3   2  -1  194.38   11.50
  -3   2   1  199.48   12.40
  -3   2   1  200.18   11.90
  -3   2   1  198.28   12.00
   3   3   1  425.96   23.40
  -3  -3   1  460.95   23.90
   3   3   1  467.35   24.10
  -3   3  -1  396.36   24.00
   3  -3  -1  412.76   23.90
   3  -3  -1  441.66   23.50
  -3  -3   1  502.35   25.00
  -3  -3   1  392.06   23.40
   3  -3  -1  416.86   24.50
  -3   3  -1  399.96   24.50
  -3   3  -1  423.96   23.70
   3   3   1  428.26   22.80
   3   3  -1  410.86   23.40
  -3  -3  -1  394.06   23.50
   3  -3   1  414.06   23.70
  -3   3   1  419.26   23.90
   3  -3   1  425.16   23.40
  -3   3   1  402.26   24.10
   3   3  -1  449.86   23.20
   3  -3   1  444.66   24.40
  -3  -3  -1  421.86   23.70
  -3   3   1  406.36   24.60
  -3   4  -1  100.09    7.80
   3  -4  -1  106.99    7.90
  -3  -4   1  107.09    8.10
   3   4   1  111.09    6.70
   3   4   1  107.19    7.30
  -3   4  -1   91.99    8.40
   3  -4  -1  109.19    7.40
   3   4   1  105.29    7.50
   3   4   1  107.69    7.20
   3  -4  -1  101.39    9.10
  -3   4  -1   97.79    9.40
  -3  -4   1  120.09    9.50
  -3  -4  -1   98.39    7.30
   3  -4   1  105.49    7.30
   3  -4   1  120.89    8.90
   3   4  -1  110.39    6.90
  -3   4   1  105.49    8.40
  -3  -4  -1  127.79    8.90
   3   4  -1  101.29    7.10
  -3  -4  -1  101.59    7.80
  -3   4   1  104.29    9.50
  -3   4   1  111.69    8.10
   3  -4   1  103.39    7.90
   3   5   1  186.28   12.20
  -3   5  -1  185.38   13.50
   3   5   1  197.78   11.50
   3  -5  -1  193.58   14.00
  -3   5  -1  182.18   14.70
  -3  -5   1  201.08   13.00
   3  -5  -1  180.58   12.50
  -3  -5   1  195.08   14.20
   3   5   1  188.98   11.90
  -3   5  -1  191.78   12.80
   3  -5  -1  194.78   12.00
   3   5  -1  197.88   11.80
  -3  -5  -1  174.58   12.10
   3  -5   1  179.08   11.90
  -3   5   1  172.68   14.50
   3  -5   1  201.38   12.30
  -3  -5  -1  158.08   11.50
  -3  -5  -1  191.38   12.60
  -3  -5  -1  202.78   13.50
  -3   5   1  208.88   13.00
   3  -5   1  202.08   13.40
   3   5  -1  199.98   11.70
  -3   6  -1   36.20    7.90
  -3  -6   1   64.09   10.20
  -3   6  -1   40.70    7.10
  -3  -6   1   47.40    6.80
   3   6   1   44.20    5.90
   3  -6  -1   52.79    7.60
  -3   6  -1   50.59    7.80
   3   6   1   46.10    6.30
   3  -6  -1   35.40    4.90
   3  -6  -1   40.20    7.00
   3   6   1   53.99    6.50
   3  -6  -1   45.00    6.00
  -3   6   1   44.30    8.40
  -3   6   1   41.90    6.50
   3   6  -1   44.40    5.90
  -3  -6  -1   54.09    8.00
  -3   6   1   52.89    8.60
  -3  -6  -1   38.10    6.00
   3  -6   1   46.10    6.30
  -3  -6  -1   39.60    6.10
   3   6  -1   49.30    6.20
   3  -6   1   53.49    7.20
  -3  -6  -1   48.70    6.60
   3  -6   1   45.60    7.10
   3   7   1   73.19    8.20
  -3   7  -1   59.69    9.60
   3  -7  -1   68.19    7.70
   3  -7  -1   87.69    9.90
  -3   7  -1   73.79   11.50
   3   7   1   83.69   11.20
   3  -7  -1   85.49   12.70
  -3   7  -1   62.49   12.50
  -3  -7   1   53.39    8.40
   3  -7  -1   63.49    8.40
   3   7   1   71.19    9.60
  -3  -7   1   70.09   10.90
  -3   7   1   79.19   10.50
   3  -7   1   56.09    6.90
  -3  -7  -1   62.59    8.60
   3  -7   1   89.59    9.70
   3  -7   1   74.49    8.60
   3   7  -1   73.79    8.70
   3  -7   1   64.99    7.70
  -3   7   1   75.69   12.40
  -3   7   1   61.49   10.90
  -3  -7  -1   58.99    8.80
   3  -8  -1   28.10    8.90
   3  -8  -1    6.70    6.30
  -3   8  -1   19.80    7.80
   3   8   1    7.30    9.10
   3   8   1   14.20    6.60
  -3   8  -1   10.30   12.60
   3  -8  -1   10.00    5.10
  -3  -8   1   15.00    8.40
   3  -8  -1   15.40    7.90
  -3   8  -1    0.90   10.80
  -3  -8  -1    4.90    6.10
   3  -8   1    9.80    4.80
   3   8  -1   15.30    7.60
   3   8  -1   24.00    6.70
  -3   8   1   15.20    8.40
   3  -8   1    4.80    6.20
  -3   8   1   24.60   12.30
  -3   8   1   15.60   10.80
   3   8  -1    8.80    8.90
   3  -9  -1   21.10    6.60
   3   9   1   23.30   13.10
   3   9   1    1.80   12.60
  -3   9  -1   13.10   17.30
  -3  -9   1    7.40    8.20
   3   9   1   21.90    9.40
  -3   9  -1   30.30   10.10
   3   9  -1   33.80   13.10
  -3  -9  -1   14.20    7.50
  -3   9   1    8.80   15.90
   3   9  -1   29.10   13.00
  -3   9   1   18.60   10.90
   3   9  -1   17.90    8.70
   3  -9   1   15.90    7.80
   4   0   1 1810.22  108.39
   4   0   1 1980.70  108.09
   4   0   1 2110.39  107.89
  -4   0  -1 2040.70  108.09
  -4   0  -1 2201.88  108.29
   4   0  -1 2089.59  108.59
   4   0  -1 1953.20  107.99
   4   0  -1 2007.70  108.29
  -4   0   1 2027.60  108.09
   4   0   1 1993.30  108.29
  -4   0  -1 2127.69  108.69
  -4   0  -1 2026.00  108.29
  -4   0  -1 1971.40  108.19
   4   0   1 2079.09  108.59
   4   0  -1 1953.80  108.19
  -4   0   1 2105.19  108.19
  -4   0   1 2117.19  108.29
   4   1   1 4713.73  268.77
   4  -1  -1 4833.82  268.87
  -4   1  -1 5072.19  268.87
  -4  -1   1 4861.91  268.87
   4  -1  -1 5267.77  269.47
   4   1   1 5239.28  269.07
  -4   1  -1 4736.63  269.17
   4  -1  -1 5297.57  269.17
   4   1   1 4728.93  268.97
  -4  -1   1 5304.57  268.97
   4  -1   1 5033.60  268.67
  -4  -1  -1 5031.50  269.17
   4   1  -1 5270.27  268.77
  -4  -1  -1 5287.57  268.97
   4  -1   1 5362.06  269.37
  -4  -1  -1 4686.83  268.97
  -4  -1  -1 4808.32  268.87
   4  -1   1 4764.82  268.87
  -4   1   1 5557.44  269.27
  -4  -1  -1 5274.37  268.87
   4   1  -1 5313.47  268.97
   4   1  -1 5168.38  268.67
  -4  -1  -1 4922.81  268.47
  -4   1   1 5123.39  269.37
   4  -1   1 5325.77  269.57
   4   2   1 1549.34   81.99
   4  -2  -1 1489.95   81.59
  -4   2  -1 1632.64   82.09
  -4   2  -1 1533.55   82.99
   4  -2  -1 1526.45   81.99
   4  -2  -1 1518.15   82.29
  -4   2  -1 1483.75   82.49
  -4  -2   1 1470.45   82.09
   4   2   1 1622.44   81.99
  -4   2  -1 1462.65   82.09
  -4   2  -1 1565.14   81.49
  -4  -2   1 1689.73   83.19
   4  -2  -1 1594.94   82.89
   4   2   1 1417.06   82.29
   4   2   1 1625.04   81.69
  -4   2   1 1506.15   82.79
  -4  -2  -1 1511.15   82.09
  -4   2   1 1481.55   82.49
   4  -2   1 1497.75   81.49
  -4  -2  -1 1510.95   82.09
   4   2  -1 1473.85   82.09
  -4  -2  -1 1496.45   82.19
  -4   2   1 1515.25   82.09
   4  -2   1 1652.13   82.59
   4  -2   1 1599.04   82.89
   4  -2   1 1568.14   81.89
   4   2  -1 1461.85   81.99
  -4   2   1 1547.75   82.39
  -4   3  -1 2633.44  136.49
   4   3   1 2603.14  136.29
  -4   3  -1 2453.85  136.99
  -4   3  -1 2472.35  137.39
  -4  -3   1 2385.36  136.29
   4  -3  -1 2634.84  137.39
   4   3   1 2649.33  136.79
   4  -3  -1 2625.64  136.29
  -4  -3   1 2577.04  136.59
  -4   3  -1 2621.34  136.49
  -4   3   1 2602.34  137.39
  -4  -3  -1 2578.34  136.49
   4  -3   1 2561.24  136.19
  -4   3   1 2590.54  136.79
   4   3  -1 2553.34  136.29
  -4   3   1 2495.15  136.89
  -4  -3  -1 2402.06  136.29
   4  -3   1 2598.34  137.19
   4  -3   1 2668.83  136.69
   4   3  -1 2581.64  135.89
   4   3  -1 2509.15  136.59
   4   4   1  750.72   40.00
   4  -4  -1  721.83   40.00
  -4  -4   1  680.63   40.10
  -4   4  -1  782.82   40.50
   4   4   1  735.93   39.20
  -4   4  -1  706.33   41.00
  -4   4  -1  740.63   40.40
   4   4   1  789.62   40.90
  -4   4  -1  712.23   41.60
   4  -4  -1  748.13   41.40
  -4  -4   1  815.92   41.80
   4  -4  -1  752.42   40.60
  -4  -4   1  708.13   40.50
  -4   4   1  724.83   40.70
   4   4  -1  707.43   40.00
  -4  -4  -1  707.13   40.30
  -4   4   1  673.43   41.40
   4   4  -1  735.03   39.50
  -4   4   1  727.83   40.90
  -4  -4  -1  697.63   40.10
   4  -4   1  751.72   41.20
   4   4  -1  685.73   40.50
  -4  -4  -1  821.82   41.00
   4  -4   1  705.83   39.90
   4  -5  -1  834.82   47.00
  -4  -5   1  878.41   48.80
   4  -5  -1  892.91   48.60
  -4   5  -1  877.61   47.60
   4   5   1  933.51   47.10
  -4  -5   1  759.02   47.50
  -4   5  -1  857.51   49.30
   4   5   1  848.02   46.80
   4  -5  -1  849.72   47.50
   4   5   1  838.02   46.30
  -4   5  -1  815.12   48.20
   4   5   1  922.41   48.10
  -4   5   1  833.12   48.10
   4  -5   1  825.12   47.00
  -4  -5  -1  822.22   47.10
   4   5  -1  905.01   46.60
   4  -5   1  909.51   48.40
  -4   5   1  852.71   47.90
  -4  -5  -1  760.92   47.40
   4   5  -1  888.61   47.90
   4   5  -1  919.21   47.10
  -4  -5  -1  923.61   48.30
   4  -5   1  904.61   47.60
  -4   5   1  822.12   49.00
  -4   6  -1  202.88   17.00
   4  -6  -1  217.28   14.60
  -4   6  -1  208.68   18.90
   4   6   1  239.78   14.10
   4   6   1  268.17   17.10
   4   6   1  218.48   15.00
   4  -6  -1  240.58   15.60
  -4  -6   1  205.18   15.60
  -4   6  -1  238.28   15.90
   4   6   1  205.88   14.60
   4  -6  -1  235.98   18.00
  -4  -6   1  237.88   17.70
  -4  -6  -1  233.98   15.10
  -4   6   1  212.28   18.30
   4   6  -1  249.38   14.40
  -4   6   1  222.88   16.90
  -4   6   1  248.58   16.40
  -4  -6  -1  247.98   16.70
   4  -6   1  232.88   15.30
   4  -6   1  220.18   14.60
   4  -6   1  246.58   17.00
  -4  -6  -1  236.98   15.60
  -4   7  -1  188.98   18.20
   4   7   1  203.88   13.50
  -4   7  -1  215.18   15.70
   4  -7  -1  171.98   13.60
   4   7   1  185.18   15.40
  -4   7  -1  202.18   20.50
   4  -7  -1  244.08   18.10
  -4  -7   1  174.68   14.70
   4  -7  -1  223.68   15.40
  -4  -7   1  188.28   17.00
   4   7   1  202.88   14.20
   4   7   1  219.18   17.60
   4  -7  -1  203.38   13.80
   4   7  -1  216.08   13.90
  -4   7   1  212.58   16.20
  -4  -7  -1  175.98   14.50
  -4   7   1  199.08   29.80
   4  -7   1  167.58   13.90
  -4  -7  -1  186.98   14.30
   4  -7   1  208.18   15.00
  -4   7   1  177.28   17.40
   4   7  -1  206.08   13.80
   4  -7   1  172.48   23.10
   4  -7   1  197.78   13.80
  -4  -8   1   49.00    9.60
  -4   8  -1   52.59   13.60
   4   8   1   55.49   10.10
   4  -8  -1   58.19    8.50
   4   8   1   55.29    9.40
   4   8   1   73.69   10.80
  -4   8  -1   58.09    9.40
   4  -8  -1   61.39   12.00
  -4   8  -1   58.69   15.30
  -4  -8   1   65.29   12.00
   4   8   1   70.49   11.50
   4  -8  -1   67.29    9.70
  -4   8   1   57.29   10.10
   4  -8   1   69.19    9.20
   4  -8   1   58.39   10.80
   4   8  -1   50.39   10.70
  -4   8   1   49.99   13.70
   4   8  -1   59.99    8.30
   4  -9  -1   24.50    7.20
  -4   9  -1   60.89   11.90
  -4  -9   1   26.10    8.80
   4   9   1   37.30   10.30
   4   9   1   49.40   13.50
  -4   9  -1   35.50   19.40
   4   9   1   31.10   12.90
  -4   9   1   65.99   12.90
   4   9  -1   45.30   10.00
   4   9  -1   36.00   13.30
  -4  -9  -1   44.40    9.10
  -4   9   1    8.80   16.80
   4  -9   1   27.90    6.60
   5   0  -1 1377.66   72.19
  -5   0  -1 1348.47   71.79
  -5   0  -1 1451.05   72.29
   5   0  -1 1264.47   71.79
  -5   0   1 1362.36   71.59
   5   0   1 1329.17   71.29
  -5   0   1 1195.58   71.59
   5   0  -1 1421.46   71.69
   5   0   1 1408.56   72.09
  -5   0   1 1358.26   71.79
   5   0   1 1341.37   71.59
   5   0  -1 1302.87   71.69
   5   0   1 1395.46   72.29
  -5   0  -1 1220.88   71.59
   5   0   1 1322.67   71.79
   5   0  -1 1310.87   71.49
  -5   0  -1 1345.07   71.69
   5  -1  -1  117.69    8.50
  -5   1  -1  113.19    7.60
   5   1   1  116.69    7.40
   5  -1  -1  110.89    7.30
   5   1   1  117.19    6.80
   5   1   1  119.59    7.90
  -5  -1   1  117.29    7.50
  -5   1  -1  119.89    7.40
   5   1   1  122.29    7.90
  -5   1  -1  117.09    8.70
  -5  -1   1  113.89    8.00
  -5  -1   1  118.49    8.80
   5  -1  -1  123.69    8.20
  -5   1  -1  112.89    8.00
  -5   1  -1  134.39    7.80
   5   1   1  118.49    7.80
   5  -1  -1  112.79    7.50
  -5  -1  -1  120.09    7.70
  -5  -1  -1  117.99    7.80
  -5  -1  -1  122.49    7.80
   5  -1   1  112.39    7.80
   5  -1   1  109.29    8.40
  -5   1   1  107.89    8.00
   5   1  -1  124.89    7.80
  -5   1   1  117.29    7.50
   5   1  -1  124.89    7.60
  -5  -1  -1  112.49    7.10
  -5  -1  -1  117.79    8.30
   5   1  -1  113.29    7.50
  -5  -1  -1  111.39    8.10
  -5   1   1  118.59    8.50
   5  -1   1  119.39    8.60
   5  -1   1  112.29    7.10
   5   1  -1  117.69    7.60
   5  -1   1  116.09    7.20
   5  -2  -1 1055.09   57.39
  -5   2  -1 1034.50   57.89
  -5   2  -1 1098.09   58.49
   5   2   1 1051.09   58.19
   5  -2  -1 1057.79   58.19
  -5  -2   1 1070.09   57.99
   5   2   1 1114.69   57.59
   5  -2  -1 1083.19   57.79
   5   2   1 1099.79   57.79
   5  -2  -1 1116.89   58.89
  -5   2  -1 1113.79   58.99
  -5  -2   1 1050.79   58.89
  -5   2  -1 1101.29   57.39
  -5  -2   1 1039.20   57.69
  -5   2  -1 1063.99   57.89
  -5  -2   1 1074.19   58.09
   5   2   1 1059.99   57.79
   5  -2   1 1105.39   57.59
  -5   2   1 1040.60   57.79
   5   2  -1 1109.09   57.99
   5   2  -1 1059.99   57.89
   5  -2   1 1097.69   58.79
   5  -2   1 1062.99   57.29
   5  -2   1 1113.49   58.49
  -5  -2  -1 1059.69   57.89
  -5   2   1 1122.99   58.89
  -5   2   1 1081.69   58.39
  -5  -2  -1 1006.90   57.89
  -5   2   1 1049.20   58.39
  -5  -2  -1 1017.10   57.99
   5   3   1   62.89    6.90
  -5  -3   1   59.49    5.70
  -5   3  -1   62.79    5.90
   5  -3  -1   62.59    5.30
   5   3   1   59.29    5.20
   5   3   1   66.69    5.20
  -5   3  -1   56.99    7.50
   5  -3  -1   69.59    7.40
  -5   3  -1   62.49    6.90
  -5  -3   1   64.89    6.40
   5   3   1   60.29    5.10
  -5  -3   1   66.19    7.20
  -5   3  -1   59.19    6.00
   5   3  -1   62.79    5.30
  -5   3   1   53.59    6.30
  -5   3   1   54.79    6.90
  -5   3   1   52.39    7.70
   5   3  -1   65.09    4.70
   5   3  -1   67.09    6.40
  -5  -3  -1   58.29    5.70
   5  -3   1   62.99    7.10
   5  -3   1   68.39    5.20
  -5  -3  -1   64.89    6.30
  -5   3   1   66.69    6.10
   5  -3   1   61.19    6.50
  -5  -4   1  684.53   35.30
   5  -4  -1  633.94   34.20
  -5   4  -1  586.84   35.40
   5  -4  -1  625.34   35.10
  -5   4  -1  571.14   35.70
   5   4   1  639.64   34.40
  -5   4  -1  608.04   34.10
  -5   4  -1  601.34   33.90
   5   4   1  623.34   33.50
   5  -4  -1  577.64   33.50
  -5  -4   1  577.14   34.10
  -5   4   1  588.94   34.80
  -5  -4  -1  596.94   33.90
  -5   4   1  586.44   34.30
   5   4  -1  570.74   34.10
   5  -4   1  611.74   34.80
  -5   4   1  587.44   35.30
   5  -4   1  632.44   34.00
   5   4  -1  595.54   33.40
   5   4  -1  623.04   32.80
  -5  -4  -1  579.74   33.70
   5  -4   1  583.04   33.50
   5  -5  -1   41.70    5.90
  -5  -5   1   44.20    6.50
  -5   5  -1   41.60    5.90
   5   5   1   54.09    7.90
   5  -5  -1   38.90    5.50
   5   5   1   37.10    4.40
  -5   5  -1   36.20    6.70
   5   5   1   41.90    5.50
  -5   5  -1   43.30    8.50
  -5  -5   1   42.10    7.70
  -5   5  -1   39.10    5.70
   5  -5  -1   37.70    7.10
  -5   5   1   39.30    5.90
   5   5  -1   47.50    5.00
   5  -5   1   46.90    6.30
  -5   5   1   38.50    6.50
  -5   5   1   34.00    7.60
   5   5  -1   42.20    6.60
   5   5  -1   39.30    6.30
  -5  -5  -1   39.90    5.90
   5  -5   1   49.40    8.60
  -5  -5  -1   51.29    7.80
  -5  -5  -1   40.70    6.70
   5  -5   1   36.20    4.70
  -5  -6   1  225.78   17.50
  -5   6  -1  254.87   17.30
   5   6   1  318.47   19.40
  -5   6  -1  255.17   17.60
   5  -6  -1  250.57   17.40
   5   6   1  261.07   15.50
   5  -6  -1  256.07   19.90
   5  -6  -1  252.27   16.20
  -5   6  -1  230.18   19.40
  -5  -6   1  262.97   19.20
  -5   6  -1  279.67   21.40
  -5   6   1  244.68   20.60
   5  -6   1  281.17   17.50
   5   6  -1  280.97   18.90
  -5  -6  -1  269.37   18.80
  -5   6   1  265.47   18.20
   5  -6   1  217.48   16.00
   5   6  -1  275.87   16.60
   5   6  -1  287.37   15.90
   5  -6   1  278.67   19.20
  -5   6   1  272.67   19.10
  -5  -6  -1  246.18   17.30
  -5  -6  -1  272.07   17.10
  -5   7  -1   16.60    6.60
   5  -7  -1   20.50    9.10
  -5  -7   1   16.00    6.60
  -5  -7   1   23.40    9.50
   5   7   1   47.40    9.30
   5   7   1   24.30    4.80
   5   7   1   19.00    5.50
  -5   7  -1   18.00    6.60
   5  -7  -1   18.70    5.10
  -5   7  -1    8.90   10.00
   5  -7  -1   18.30    7.00
  -5   7  -1   16.70   10.40
   5  -7   1   36.30    8.90
  -5  -7  -1   20.90    6.70
   5  -7   1   17.70    5.10
  -5   7   1   21.10    8.90
   5  -7   1   26.40    6.90
  -5   7   1   21.60   10.10
  -5  -7  -1   28.10    8.80
   5   7  -1   28.90    5.90
   5   7  -1   22.70    5.30
  -5   7   1   21.60    7.20
  -5  -7  -1   16.90    5.90
  -5  -8   1   97.49   15.20
   5   8   1   83.99   10.80
   5   8   1  137.19   18.20
  -5   8  -1   60.09   16.30
   5   8   1  100.59   11.70
   5  -8  -1   94.99   14.60
  -5  -8   1   99.89   13.20
   5   8   1   93.59   14.40
   5  -8  -1  105.39   14.80
  -5   8  -1  110.49   15.10
  -5   8   1   80.99   15.90
   5  -8   1   98.79   15.10
  -5   8   1  123.79   16.70
   5  -8   1   79.99   11.20
   5  -8   1   91.59   13.30
   5   8  -1   99.49   12.00
   5   8  -1  148.99   18.40
   5   9   1  -14.60    9.40
   5   9   1   22.60   11.90
  -5   9  -1   42.20   11.20
   5  -9  -1   13.10    6.60
   5   9   1   33.70   13.80
  -5   9  -1    7.90   18.90
  -5  -9   1   11.40    9.10
  -5   9   1   15.80   12.10
   5   9  -1   30.60   14.40
  -5  -9  -1    1.90    8.30
   5  -9   1   15.30    6.40
   5   9  -1    5.20   10.90
  -5   9   1  -11.60   18.10
   6   0   1  560.84   30.60
   6   0   1  589.84   30.30
  -6   0  -1  576.34   30.80
  -6   0  -1  566.64   30.90
  -6   0  -1  579.54   31.40
   6   0  -1  554.54   30.70
   6   0  -1  545.85   30.70
  -6   0   1  555.54   30.70
   6   0  -1  554.94   31.30
  -6   0   1  542.95   30.70
   6   0  -1  581.74   31.20
   6   0   1  556.04   31.40
  -6   0  -1  514.45   30.60
  -6   0   1  588.64   30.90
   6   0   1  527.65   31.20
   6   0   1  533.35   30.80
   6   0  -1  574.14   30.70
   6  -1  -1 1087.79   58.49
   6  -1  -1 1168.38   58.19
   6   1   1 1075.29   57.79
   6  -1  -1 1044.80   57.39
   6   1   1 1117.79   57.89
  -6  -1   1 1039.90   57.59
  -6  -1   1 1070.19   58.79
  -6   1  -1 1099.79   57.49
  -6   1  -1 1067.49   57.69
   6  -1  -1 1018.50   57.49
   6  -1  -1  998.00   57.49
   6   1   1 1076.39   57.99
   6   1   1 1081.29   57.59
  -6   1  -1  924.81   57.89
  -6  -1   1 1023.00   57.89
  -6   1  -1 1057.89   57.79
   6   1   1 1100.29   56.99
   6  -1   1 1086.19   57.29
   6   1  -1 1092.09   57.69
  -6  -1  -1 1082.69   57.79
   6   1  -1 1127.99   57.79
   6   1  -1 1068.29   57.79
   6  -1   1 1120.09   58.49
   6  -1   1 1098.89   58.59
  -6   1   1 1096.79   58.39
  -6   1   1 1103.19   58.09
  -6  -1  -1 1064.59   58.29
  -6   1   1 1058.99   57.59
   6  -1   1 1061.69   57.29
  -6  -1  -1 1095.29   57.69
  -6  -1  -1 1010.20   57.09
   6  -1   1 1022.00   57.69
  -6  -1  -1 1038.80   57.79
   6   1  -1 1071.69   57.49
  -6  -2   1  397.26   23.50
  -6   2  -1  401.86   23.70
  -6  -2   1  385.26   22.60
  -6   2  -1  374.46   22.80
  -6  -2   1  374.16   22.20
   6  -2  -1  377.46   21.60
   6  -2  -1  381.66   21.90
   6   2   1  355.96   22.00
   6  -2  -1  391.66   23.30
   6   2   1  401.16   22.10
  -6   2  -1  417.66   21.70
  -6   2  -1  407.56   22.50
   6   2   1  378.56   22.50
  -6   2  -1  388.26   22.20
   6  -2  -1  431.16   22.80
   6   2   1  395.96   22.20
  -6  -2   1  381.96   22.00
   6   2  -1  387.76   21.90
  -6  -2  -1  369.46   22.30
   6  -2   1  401.46   23.40
   6  -2   1  385.56   21.40
   6   2  -1  411.46   22.20
  -6   2   1  414.96   23.50
   6  -2   1  379.66   22.90
   6   2  -1  410.36   22.20
  -6   2   1  397.86   22.90
  -6  -2  -1  350.06   22.40
  -6   2   1  369.96   22.70
  -6  -2  -1  392.76   22.30
  -6  -2  -1  397.46   23.00
   6  -2   1  397.26   21.80
  -6   2   1  393.96   22.20
  -6   3  -1  616.04   35.20
   6   3   1  614.54   33.30
   6  -3  -1  643.44   35.10
  -6  -3   1  661.73   35.10
   6   3   1  599.34   33.20
  -6   3  -1  604.84   33.70
   6  -3  -1  587.94   33.20
  -6   3  -1  544.85   34.30
   6  -3  -1  623.54   33.90
  -6   3  -1  622.64   33.80
  -6  -3   1  597.74   33.80
   6   3   1  577.94   34.10
   6   3   1  575.54   33.00
   6  -3  -1  572.34   32.50
  -6   3   1  625.54   33.60
  -6   3   1  545.45   34.30
   6   3  -1  594.54   33.80
   6  -3   1  625.14   33.10
  -6  -3  -1  603.54   33.70
   6  -3   1  593.64   34.70
  -6  -3  -1  568.24   33.80
  -6   3   1  617.34   34.20
   6   3  -1  645.24   33.50
   6  -3   1  584.64   34.20
  -6   3   1  617.74   35.00
  -6   4  -1  113.79   12.30
   6  -4  -1  129.29   11.80
   6  -4  -1  132.39   10.50
  -6   4  -1  122.29   11.40
   6   4   1  124.69    9.10
   6   4   1  127.89   11.30
   6  -4  -1  129.39    9.10
  -6  -4   1  124.19   10.30
  -6  -4   1  131.69   11.70
  -6   4  -1  134.29   10.30
  -6   4  -1  129.89   10.00
  -6  -4  -1  138.89   10.10
   6   4  -1  139.39    9.40
   6   4  -1  123.59   10.90
  -6   4   1  115.99   12.20
  -6  -4  -1  130.69   10.20
  -6  -4  -1  153.58   11.20
   6  -4   1  126.19    8.90
   6  -4   1  130.79   10.50
  -6   4   1  138.09   10.00
   6   4  -1  134.09    8.30
  -6   4   1  129.19   10.80
   6  -4   1  133.79   11.50
  -6   4   1  106.59   11.20
  -6  -5   1  228.38   15.90
  -6  -5   1  244.88   17.50
   6  -5  -1  220.28   14.50
   6  -5  -1  237.08   17.90
   6   5   1  256.87   14.90
  -6   5  -1  237.78   15.60
  -6   5  -1  203.38   18.70
  -6   5  -1  223.88   16.00
   6   5   1  247.28   17.10
  -6   5  -1  215.68   16.90
   6  -5  -1  236.38   15.90
   6  -5   1  224.48   17.50
  -6   5   1  245.48   15.70
  -6   5   1  229.58   17.10
  -6  -5  -1  222.78   15.30
  -6  -5  -1  223.88   15.70
  -6   5   1  221.58   18.30
   6   5  -1  241.58   13.70
  -6  -5  -1  251.37   16.30
   6   5  -1  242.28   14.90
  -6   5   1  235.68   16.70
   6  -5   1  214.28   14.40
   6   5  -1  225.18   16.50
  -6   6  -1   21.20    5.60
  -6  -6   1   13.60    6.10
   6  -6  -1   18.00    4.00
  -6   6  -1   28.10    7.10
  -6   6  -1   24.80    7.90
   6  -6  -1    2.40    8.30
   6  -6  -1   16.30    5.70
  -6  -6   1   18.20    8.30
   6   6   1   18.00    7.20
  -6   6  -1   20.70   10.80
   6   6  -1   20.10    4.10
  -6   6   1   23.70    6.10
  -6  -6  -1   22.40    5.70
   6   6  -1   18.20    7.60
   6   6  -1   18.90    4.70
   6  -6   1   13.90    4.30
   6  -6   1   24.70    7.60
   6  -6   1   23.20    6.30
  -6   6   1   16.40    7.50
  -6  -6  -1   26.00    6.30
  -6  -6  -1   30.00    8.80
  -6   6   1   20.50    7.60
  -6  -7   1   52.19    8.60
  -6   7  -1   53.29   13.60
  -6  -7   1   48.50   11.30
  -6   7  -1   43.00   11.70
   6  -7  -1   48.00    6.60
  -6   7  -1   41.30    8.60
   6   7   1   47.20    7.50
   6   7   1   71.19   11.70
   6  -7  -1   75.79   12.50
   6  -7  -1   69.79   11.40
  -6   7  -1   63.79    9.60
  -6  -7  -1   75.39   12.40
   6  -7   1   55.19    8.90
  -6  -7  -1   49.40    8.50
   6  -7   1   43.60   10.70
   6  -7   1   49.99    7.20
  -6   7   1   55.09   12.90
   6   7  -1   68.59    8.50
   6   7  -1   70.49   11.40
  -6   7   1   68.99    9.70
  -6  -7  -1   67.49   11.00
   6   7  -1   65.59   10.10
  -6   7   1   41.70   10.50
  -6   7   1   54.09    9.00
   6   8   1  -20.20   10.40
  -6  -8   1   -3.40    9.90
   6  -8  -1    5.90    5.90
  -6   8  -1    5.90    9.10
  -6   8  -1   18.20   15.00
   6  -8  -1    1.80   13.60
  -6  -8   1   -2.50    7.40
   6  -8  -1   -1.40    9.70
  -6   8   1   10.00   13.80
  -6  -8  -1   -8.10    6.70
   6  -8   1  -13.40    9.10
  -6   8   1   -3.90    9.50
   6   8  -1  -13.90   10.50
   6  -8   1   -3.90   12.30
   6   8  -1   -5.20    6.40
  -6   9  -1   18.90   12.30
   6  -9  -1   22.00    7.80
  -6  -9   1    9.70   10.10
   6   9   1   20.90   15.20
  -6   9  -1   -1.40   20.10
   6  -9  -1   -4.50   12.30
  -6   9   1   57.39   14.40
  -6   9   1    7.50   18.40
   6   9  -1   -2.20   14.90
  -6  -9  -1   -2.30    8.80
   6  -9   1   16.30   13.40
   6   9  -1   18.30    9.90
   6  -9   1   15.50    7.60
   7   0   1 1449.15   79.99
   7   0  -1 1519.75   79.99
   7   0  -1 1459.25   79.19
   7   0   1 1461.55   79.09
   7   0   1 1441.46   79.29
  -7   0   1 1423.06   79.19
  -7   0  -1 1551.64   79.29
   7   0  -1 1499.85   79.59
  -7   0  -1 1401.16   78.99
  -7   0  -1 1498.15   79.39
  -7   0   1 1498.55   79.29
  -7   0   1 1484.25   79.09
   7   0   1 1482.15   78.69
   7   0  -1 1413.96   79.09
   7   0   1 1543.95   79.89
   7   0  -1 1459.15   79.09
  -7   0  -1 1494.15   79.89
  -7   1  -1    4.40    4.20
   7  -1  -1    5.00    3.30
   7   1   1    6.30    1.70
  -7   1  -1    4.60    3.00
   7   1   1    4.60    1.90
  -7   1  -1    4.90    3.00
   7   1   1    6.10    3.40
   7   1   1    3.20    3.10
   7   1   1    6.00    2.60
  -7   1  -1    5.40    2.40
   7  -1  -1    4.40    3.20
   7  -1  -1    6.40    2.20
  -7  -1   1    4.00    2.40
  -7   1  -1    5.90    2.50
  -7  -1   1    8.00    4.20
   7  -1  -1    4.40    2.50
   7  -1  -1    5.30    2.20
   7   1  -1    5.30    3.20
   7  -1   1    6.00    2.10
   7  -1   1    3.30    3.70
   7   1  -1    4.20    3.20
   7   1  -1    6.90    2.30
  -7  -1  -1    6.60    3.70
  -7   1   1    5.50    3.10
  -7  -1  -1    5.50    2.70
  -7   1   1    7.00    3.70
  -7  -1  -1   10.80    2.40
   7  -1   1    7.30    3.70
   7  -1   1    4.80    1.80
   7   1  -1    6.40    2.50
  -7   1   1    5.10    2.40
  -7  -1  -1    7.00    3.10
  -7  -1  -1    9.30    2.90
   7  -1   1    4.80    3.10
   7   1  -1    3.20    2.20
  -7  -2   1 1079.99   61.79
   7   2   1 1144.29   60.59
   7  -2  -1 1114.79   59.89
  -7   2  -1 1104.19   61.09
   7  -2  -1 1124.79   60.19
   7   2   1 1042.40   60.29
  -7  -2   1 1059.69   60.29
  -7   2  -1 1075.59   60.39
  -7   2  -1 1160.88   60.79
  -7  -2   1 1074.09   60.69
   7  -2  -1 1119.89   61.69
   7   2   1 1142.29   60.49
  -7   2  -1 1132.29   61.79
   7   2   1 1161.18   60.79
   7  -2  -1 1149.29   60.99
  -7  -2  -1 1070.89   60.69
   7  -2   1 1124.59   61.19
   7   2  -1 1062.49   60.09
  -7  -2  -1 1082.89   60.49
   7   2  -1 1113.99   60.29
  -7   2   1 1151.28   61.49
  -7   2   1 1137.49   60.39
   7   2  -1 1202.98   60.49
   7   2  -1 1052.89   60.59
  -7  -2  -1 1115.79   60.59
  -7  -2  -1 1227.68   61.49
   7  -2   1 1121.19   60.49
   7  -2   1 1112.29   59.69
   7  -2   1 1143.39   59.99
   7  -2   1 1124.89   61.79
  -7   2   1  999.40   60.79
   7  -3  -1   10.90    4.80
  -7   3  -1    4.90    3.80
   7   3   1    7.50    3.00
   7   3   1    4.50    3.80
  -7   3  -1    3.60    5.30
  -7  -3   1    7.50    4.70
  -7  -3   1   12.60    4.90
   7  -3  -1   10.50    4.20
   7  -3  -1    6.40    2.60
  -7   3  -1    1.90    3.30
   7   3   1    6.00    3.50
   7  -3  -1    5.50    2.10
   7   3   1    7.20    2.40
  -7   3  -1    5.60    3.30
  -7   3   1    3.40    4.80
  -7  -3  -1    5.80    3.10
   7  -3   1    7.90    4.20
  -7  -3  -1    3.80    4.00
  -7   3   1    5.20    4.20
  -7   3   1    3.90    3.90
   7   3  -1    6.20    2.90
  -7  -3  -1   11.30    5.00
   7   3  -1   10.10    3.90
   7  -3   1    4.00    4.20
   7  -3   1    8.50    2.50
   7  -3   1    5.50    1.90
  -7   3   1    6.60    3.60
  -7  -4   1  570.14   33.70
  -7   4  -1  589.04   33.90
  -7  -4   1  624.74   35.20
   7   4   1  578.34   34.20
  -7   4  -1  520.85   34.20
  -7   4  -1  575.64   33.60
   7  -4  -1  585.94   35.10
  -7   4  -1  598.04   35.60
   7   4   1  619.44   33.00
   7  -4  -1  572.04   32.70
  -7   4   1  605.44   34.30
   7   4  -1  596.54   31.90
   7   4  -1  623.44   33.20
  -7   4   1  576.34   35.30
  -7  -4  -1  637.74   34.50
  -7  -4  -1  538.65   33.30
   7  -4   1  620.34   34.90
  -7   4   1  560.64   33.30
  -7  -4  -1  561.94   33.70
  -7   4   1  522.35   34.30
   7   4  -1  579.44   33.80
   7  -4   1  590.44   32.70
   7  -4   1  638.94   34.00
  -7  -5   1   13.80    5.60
   7  -5  -1    5.70    6.70
  -7  -5   1   -2.00    6.80
  -7   5  -1    5.20    4.30
   7  -5  -1    1.70    5.20
   7   5   1    7.80    6.20
  -7   5  -1    0.10    5.80
  -7   5  -1    5.10    4.70
   7   5   1    6.90    3.50
   7  -5  -1    2.50    3.20
  -7   5  -1    4.40    8.20
  -7   5   1    6.70    6.90
   7   5  -1    8.80    3.90
   7   5  -1    7.70    2.70
   7  -5   1   11.00    6.60
  -7   5   1    5.30    5.10
  -7   5   1    7.80    6.10
  -7  -5  -1   12.70    6.80
   7   5  -1    9.80    6.40
  -7  -5  -1   10.80    5.00
  -7   5   1    0.90    4.30
  -7  -5  -1    4.10    5.00
   7  -5   1    5.90    2.90
  -7   6  -1  243.18   22.20
  -7   6  -1  237.48   18.10
   7  -6  -1  219.18   15.60
  -7  -6   1  200.58   17.30
  -7   6  -1  238.78   19.50
   7  -6  -1  225.68   20.70
   7  -6  -1  206.48   19.60
  -7   6  -1  216.88   16.90
  -7  -6   1  215.98   17.80
   7   6   1  254.77   16.20
  -7   6   1  261.77   17.50
   7  -6   1  245.68   19.70
  -7  -6  -1  252.87   18.20
   7   6  -1  269.77   19.40
   7  -6   1  201.08   15.40
   7  -6   1  258.57   20.20
  -7   6   1  264.47   18.80
  -7   6   1  243.78   21.30
   7   6  -1  247.18   16.10
  -7  -6  -1  232.48   16.90
  -7   6   1  207.18   19.90
   7   6  -1  247.58   14.60
  -7  -6  -1  240.38   17.30
  -7   7  -1   -4.00   11.80
  -7  -7   1    0.00    9.10
  -7  -7   1  -12.90   10.80
   7  -7  -1    1.30   11.40
   7  -7  -1  -11.50    7.60
  -7   7  -1   -0.10    7.20
   7   7   1   10.90    8.90
   7   7  -1    7.10    9.30
  -7  -7  -1    3.10    6.80
   7  -7   1   -0.10   10.60
  -7   7   1   10.00    8.50
   7   7  -1   10.80    6.20
  -7  -7  -1   12.70    9.80
   7   7  -1   -2.10    4.50
   7  -7   1    5.60    7.70
  -7   7   1   14.60   11.80
  -7  -8   1   57.59   22.90
  -7  -8   1   66.29   11.80
   7  -8  -1   86.69   12.90
   7   8   1  102.69   15.10
  -7   8  -1   82.69   18.80
  -7   8  -1   87.39   13.10
   7  -8  -1   89.19   17.30
   7   8  -1   79.49    9.20
   7  -8   1   90.09   12.90
  -7   8   1   66.79   18.10
  -7  -8  -1   76.19   13.60
  -7  -8  -1   63.79   10.90
   7   8  -1   77.89   14.40
   7  -8   1   62.09   16.50
  -8   0   1  209.98   13.20
   8   0  -1  196.58   12.40
  -8   0  -1  203.28   12.60
  -8   0  -1  208.48   13.00
   8   0   1  201.58   13.90
   8   0   1  204.18   11.90
   8   0  -1  192.28   13.50
   8   0  -1  203.48   14.10
   8   0   1  188.18   13.90
   8   0  -1  199.18   13.00
  -8   0  -1  209.28   13.10
   8   0  -1  200.98   12.50
   8   0   1  218.38   13.30
  -8   0   1  184.08   12.50
   8   0   1  208.88   12.40
  -8   0  -1  209.18   13.90
  -8   0   1  201.58   12.90
   8   1   1  659.43   37.40
   8   1   1  614.14   37.00
   8  -1  -1  640.64   36.60
   8  -1  -1  668.43   36.40
  -8   1  -1  665.33   37.00
   8   1   1  670.83   37.40
   8   1   1  653.43   35.70
   8  -1  -1  621.14   39.40
   8   1   1  688.83   37.00
   8  -1  -1  713.73   37.50
  -8   1  -1  691.03   36.60
  -8  -1   1  656.23   38.30
  -8  -1   1  667.53   36.80
   8  -1  -1  659.23   36.40
  -8   1  -1  663.73   38.10
  -8  -1  -1  628.04   36.90
  -8   1   1  723.43   37.70
  -8   1   1  695.43   36.80
   8  -1   1  642.74   36.80
  -8  -1  -1  616.24   37.70
   8   1  -1  647.84   36.70
   8   1  -1  687.23   36.60
  -8  -1  -1  646.14   36.90
   8  -1   1  646.74   42.00
   8  -1   1  692.53   36.30
   8   1  -1  640.44   37.00
   8  -1   1  685.23   36.10
   8   1  -1  625.14   36.30
  -8  -1  -1  639.84   35.90
   8   1  -1  671.23   37.30
   8  -1   1  650.83   37.70
  -8  -1  -1  700.33   36.70
  -8   1   1  652.03   37.00
  -8   2  -1  122.79   11.90
   8  -2  -1  158.78   12.60
  -8  -2   1  149.49   10.40
  -8   2  -1  153.88   11.10
  -8   2  -1  139.59   12.70
   8   2   1  161.38   11.10
  -8  -2   1  134.29   12.30
   8  -2  -1  148.29   11.20
   8   2   1  138.09    9.80
   8  -2  -1  122.89   10.60
   8   2   1  145.49    8.70
  -8   2  -1  144.49   10.30
  -8  -2   1  154.88   11.20
   8   2   1  145.79   10.80
   8   2   1  149.99   10.80
   8  -2  -1  146.89    9.40
   8   2  -1  162.88   10.40
  -8  -2  -1  146.99   10.70
   8  -2   1  144.99   12.10
   8   2  -1  138.19   10.40
   8   2  -1  145.59   10.00
   8  -2   1  140.49    9.10
  -8  -2  -1  153.18   11.90
   8  -2   1  146.59   11.60
   8   2  -1  140.19   10.70
   8  -2   1  143.69   10.80
  -8   2   1  143.69   11.40
   8  -2   1  150.48    9.50
  -8  -2  -1  118.99   11.50
  -8   2   1  155.18   12.70
  -8   3  -1  401.26   25.50
   8   3   1  394.96   24.10
   8  -3  -1  400.56   23.10
  -8   3  -1  405.56   24.30
   8   3   1  421.66   24.30
  -8  -3   1  378.16   24.80
   8  -3  -1  399.66   23.80
  -8   3  -1  421.46   25.10
   8   3   1  418.56   25.00
   8  -3  -1  430.96   26.40
  -8   3  -1  414.46   26.90
   8   3   1  447.06   24.10
   8  -3  -1  426.36   25.00
  -8  -3   1  430.86   26.20
  -8  -3  -1  391.66   24.70
   8   3  -1  434.56   24.10
   8  -3   1  399.56   23.00
  -8  -3  -1  396.86   24.50
   8  -3   1  466.15   25.70
  -8   3   1  392.66   26.30
  -8   3   1  405.76   24.30
   8  -3   1  422.86   23.70
  -8   3   1  372.16   25.10
   8   3  -1  441.96   24.60
   8  -3   1  420.46   26.10
  -8  -3  -1  405.86   24.30
  -8  -3  -1  470.25   25.80
  -8   4  -1   52.39    7.80
  -8   4  -1   41.00    6.20
  -8   4  -1   41.90    8.70
   8  -4  -1   39.30    5.80
   8   4   1   48.90    6.20
  -8   4  -1   44.90    7.30
   8   4   1   49.99    7.60
   8   4   1   36.30    5.70
  -8  -4   1   50.29    8.70
  -8  -4   1   61.49    9.10
   8  -4  -1   43.60    7.90
  -8  -4  -1   49.80    7.20
  -8  -4  -1   67.99    9.70
   8  -4   1   44.70    7.00
  -8   4   1   39.80    9.10
  -8   4   1   38.10    7.50
   8   4  -1   49.99    4.70
  -8  -4  -1   50.79    8.10
   8  -4   1   35.00    5.60
   8   4  -1   42.20    6.60
   8   4  -1   54.19    6.50
   8  -4   1   41.10    7.40
  -8   4   1   58.49    8.20
  -8   4   1   49.10    8.30
  -8  -5   1  146.89   14.10
   8  -5  -1  134.99   11.40
  -8   5  -1  157.28   13.90
   8   5   1  172.58   12.20
  -8   5  -1  130.49   15.20
   8  -5  -1  156.38   19.90
   8  -5  -1  181.88   17.60
  -8   5  -1  140.69   16.10
  -8   5  -1  177.68   18.00
  -8  -5   1  167.18   15.10
   8   5   1  158.68   15.40
  -8   5   1  169.48   17.10
  -8  -5  -1  173.08   13.60
  -8  -5  -1  172.08   14.00
   8   5  -1  176.38   12.20
   8   5  -1  164.68   15.10
  -8   5   1  190.98   15.70
   8   5  -1  167.08   10.40
   8  -5   1  166.88   11.60
  -8   5   1  157.68   15.60
   8  -5   1  176.78   16.50
  -8   5   1  173.28   13.70
  -8  -5  -1  193.28   15.00
  -8   6  -1    4.60    7.00
  -8   6  -1   -6.90    9.80
  -8  -6   1    4.60    6.60
   8   6   1   -2.90    4.90
   8  -6  -1    3.30    4.50
  -8   6  -1    2.20    6.40
   8  -6  -1   -5.40   10.00
   8   6   1    8.50    8.40
  -8  -6   1    5.00    8.30
   8  -6  -1    6.30    7.00
  -8   6  -1  -12.40    8.70
  -8   6   1    5.80   10.10
   8  -6   1    3.80    9.20
  -8  -6  -1    7.90    5.70
   8   6  -1    4.90    3.70
   8   6  -1    1.70    4.60
  -8   6   1   -9.70    9.20
   8   6  -1   -2.20    9.00
  -8  -6  -1    1.10    6.50
  -8  -6  -1    2.70    8.40
  -8   6   1    4.50    5.80
   8  -6   1   -8.10    4.20
   8  -6   1    2.60    7.10
  -8   6   1   22.40    7.50
   8  -7  -1   39.20   15.00
   8  -7  -1   48.10    9.90
  -8   7  -1   45.10   14.90
  -8  -7   1   37.10   11.20
   8   7   1   49.60   12.60
  -8   7  -1   49.50   10.40
  -8  -7   1   44.70    9.80
  -8   7   1   76.49   11.90
   8  -7   1   50.59    9.80
  -8  -7  -1   55.09   12.10
   8   7  -1   50.99    9.30
  -8  -7  -1   30.00    8.90
   8  -7   1   41.20   13.80
  -8   7   1   39.80   13.20
   8   7  -1   47.70    6.40
   8   7  -1   52.39   12.70
  -8   8  -1    3.50   11.00
  -8   8  -1   13.20   18.00
   8  -8  -1   10.30   11.80
  -8  -8   1   -6.80    8.80
   8   8   1  -15.60   13.90
  -8  -8   1  -17.90   13.90
  -8   8   1   15.10   15.50
   8   8  -1  -21.30   13.20
   8  -8   1  -12.10   11.40
  -8  -8  -1  -12.90    8.50
  -8  -8  -1   -3.70   12.30
   9   0   1  382.56   23.40
  -9   0   1  400.56   23.10
  -9   0  -1  413.56   23.30
   9   0  -1  386.86   23.00
   9   0  -1  404.96   23.80
   9   0  -1  395.66   22.60
   9   0   1  402.76   24.20
   9   0   1  398.76   24.20
  -9   0   1  365.46   22.50
   9   0  -1  317.47   25.60
   9   0  -1  402.76   22.80
   9   0   1  413.46   22.70
  -9   0  -1  407.66   24.10
  -9   0  -1  406.66   22.80
   9   0   1  405.26   22.10
  -9   0  -1  402.06   23.20
   9  -1  -1    4.00    3.00
   9   1   1    2.50    2.70
   9  -1  -1   12.50    4.80
   9  -1  -1    5.80    4.80
  -9   1  -1    3.60    3.50
  -9   1  -1    0.70    3.60
   9   1   1    7.00    4.40
  -9  -1   1    2.20    5.00
  -9  -1   1    4.70    3.80
   9   1   1    5.00    2.10
   9   1   1    6.00    3.50
   9  -1  -1    4.70    3.40
   9   1   1    3.00    4.20
  -9   1  -1    4.90    5.20
  -9   1  -1    5.10    3.50
   9   1  -1    3.00    2.60
   9  -1   1    2.90    2.40
  -9  -1  -1    4.30    3.90
   9  -1   1    8.60    4.80
  -9   1   1    2.00    3.20
   9  -1   1   -1.40    3.40
   9   1  -1    7.10    4.20
  -9   1   1    2.90    3.70
   9   1  -1    8.20    2.90
  -9   1   1    1.40    4.30
  -9  -1  -1    1.50    5.00
  -9  -1  -1    5.10    3.70
  -9  -1  -1    7.10    3.00
   9  -1   1    3.60    4.40
  -9  -1  -1    2.30    3.50
   9  -1   1    3.30    2.20
   9   1  -1   14.00    3.80
   9   1  -1    5.50    4.10
   9  -2  -1  336.67   19.80
   9   2   1  345.87   20.90
  -9   2  -1  349.96   22.80
   9  -2  -1  343.17   19.60
   9  -2  -1  346.17   21.30
  -9   2  -1  340.17   20.50
   9   2   1  348.77   21.00
   9  -2  -1  324.87   26.20
  -9   2  -1  307.87   21.20
  -9  -2   1  344.47   22.70
   9   2   1  355.26   21.20
  -9  -2   1  300.37   20.90
   9   2   1  340.77   18.80
  -9   2  -1  336.97   21.30
   9   2   1  334.37   20.00
  -9  -2  -1  347.67   20.80
   9   2  -1  371.16   20.60
  -9   2   1  310.67   21.30
   9  -2   1  332.27   19.40
   9  -2   1  340.87   19.60
  -9  -2  -1  318.97   20.60
   9   2  -1  341.07   20.10
   9   2  -1  355.16   21.10
   9  -2   1  322.27   22.10
   9   2  -1  325.97   20.50
  -9   2   1  339.37   22.20
   9  -2   1  342.47   20.80
  -9  -2  -1  374.56   22.30
   9   2  -1  317.67   19.50
   9  -2   1  370.26   21.90
  -9   2   1  339.37   20.40
   9   3   1    2.60    2.80
   9   3   1   -2.50    4.30
   9  -3  -1    2.30    4.70
  -9   3  -1    4.70    3.80
  -9  -3   1    1.60    5.60
   9  -3  -1    5.80    3.10
  -9   3  -1   -1.40    6.90
   9   3   1   -0.20    4.80
  -9   3  -1    0.60    4.40
   9   3   1    3.20    4.50
  -9  -3   1    5.70    6.50
  -9   3  -1    8.10    5.70
   9  -3  -1    9.50    6.70
   9  -3  -1    2.30    2.70
  -9   3   1    2.60    3.90
  -9  -3  -1   -4.20    5.40
   9  -3   1    1.20    2.40
   9   3  -1    7.40    3.60
   9  -3   1   -4.30    5.40
   9  -3   1    9.20    4.90
  -9  -3  -1    4.80    5.10
   9   3  -1    1.80    4.20
  -9  -3  -1    5.20    3.90
  -9   3   1    7.70    5.10
  -9   3   1   -0.90    5.90
   9   3  -1    4.60    4.00
   9  -3   1    1.70    3.00
  -9  -3  -1   -0.40    3.80
   9  -4  -1  206.08   18.50
   9  -4  -1  210.48   12.60
   9   4   1  202.28   14.80
  -9   4  -1  227.78   16.50
  -9  -4   1  232.48   17.20
   9   4   1  195.68   13.70
  -9   4  -1  210.08   15.10
  -9   4  -1  183.28   16.70
   9   4   1  188.78   14.70
  -9  -4   1  198.78   15.90
   9   4   1  217.58   16.40
   9  -4  -1  205.08   13.60
   9   4  -1  202.98   12.40
  -9   4   1  210.98   20.60
   9  -4   1  213.48   17.10
  -9  -4  -1  213.78   15.70
   9   4  -1  208.48   15.70
  -9   4   1  217.48   15.10
   9   4  -1  220.78   14.10
  -9   4   1  173.18   16.60
  -9  -4  -1  171.58   18.10
   9  -4   1  221.18   13.60
  -9   5  -1    1.20    9.90
   9  -5  -1    4.80    3.80
   9  -5  -1    9.30    6.80
  -9  -5   1    1.30    5.90
  -9  -5   1    3.00    7.70
  -9   5  -1   -9.30    7.70
   9  -5  -1    2.50    8.60
   9   5   1    7.50    4.20
  -9   5  -1  -10.90    5.80
  -9   5  -1    3.40    6.50
  -9   5   1   -5.40    6.20
  -9  -5  -1    5.00    5.50
   9  -5   1   16.40    9.40
  -9  -5  -1    5.40    7.70
   9   5  -1   -3.30    6.20
   9  -5   1    2.60    6.30
  -9  -5  -1    0.00    6.10
  -9   5   1   -5.40    7.80
   9  -5   1   -3.50    3.60
  -9   5   1    2.00    8.80
   9   5  -1    3.00    4.10
  -9   5   1    6.10    7.60
  -9  -6   1   60.79   13.80
   9   6   1  138.59   17.10
  -9   6  -1  109.19   15.90
   9  -6  -1  105.89   14.00
   9  -6  -1   90.39   18.10
  -9  -6   1   99.29   14.90
  -9   6  -1   75.99   14.60
   9   6   1  104.59   13.60
   9  -6   1  109.09   14.50
   9  -6   1   93.89   14.30
  -9  -6  -1   99.29   13.20
   9   6  -1   98.29   12.30
  -9   6   1  115.49   15.60
  -9   6   1  147.19   17.30
   9   6  -1  100.69   13.00
  -9  -6  -1  106.79   13.10
   9  -7  -1   -1.50    9.80
   9   7   1  -14.40   10.60
  -9  -7   1    6.00    9.10
  -9   7  -1   10.50   10.80
  -9  -7   1   -0.10   11.00
  -9   7  -1   30.50   15.50
   9  -7   1   -2.50    9.20
   9   7  -1  -16.70   10.50
  -9  -7  -1   10.30    9.20
  -9   7   1   13.30   14.50
  -9   7   1    8.50   11.10
  -9  -7  -1   14.50   11.50
  -9  -8   1   13.90   10.30
  -9  -8   1   35.60   16.20
  -9   8  -1   70.69   16.20
   9   8   1   29.70   16.00
   9  -8  -1   63.89   14.50
  -9   8  -1   65.19   21.50
   9  -8   1   20.40   13.40
  -9  -8  -1   33.40   10.70
   9   8  -1   28.80   15.40
  -9  -8  -1   53.19   16.00
  -9   8   1   46.90   19.50
 -10   0   1  249.48   16.60
 -10   0  -1  258.77   17.00
 -10   0  -1  275.57   16.90
 -10   0   1  263.07   16.80
  10   0  -1  278.57   18.70
 -10   0   1  235.98   16.00
 -10   0  -1  275.87   16.60
  10   0  -1  257.77   16.20
  10   0  -1  271.37   16.10
 -10   0  -1  274.07   18.10
  10   0  -1  242.08   17.30
  10   0  -1  256.47   16.80
  10   0   1  253.17   18.10
  10   0   1  258.97   18.50
  10   0   1  280.57   16.10
  10   0   1  249.18   17.30
  10   0   1  259.17   15.50
  10  -1  -1 1061.59   57.19
  10   1   1 1084.49   57.49
  10  -1  -1 1073.69   57.29
  10  -1  -1 1003.80   57.59
 -10   1  -1 1066.99   58.09
  10   1   1 1025.20   57.89
  10   1   1  954.30   58.29
 -10  -1   1 1020.20   59.79
 -10  -1   1 1011.40   57.79
 -10   1  -1  974.80   57.59
  10   1   1 1110.59   56.59
  10  -1  -1 1015.50   58.39
 -10   1  -1 1101.39   59.19
  10  -1  -1 1043.00   59.39
  10   1   1 1076.39   58.79
  10   1  -1 1098.79   57.69
  10  -1   1 1085.39   59.39
  10  -1   1 1071.49   57.19
  10   1  -1 1077.49   57.09
  10  -1   1 1054.89   58.89
 -10   1   1 1091.99   57.99
  10   1  -1 1050.59   57.59
 -10  -1  -1 1108.09   58.09
 -10  -1  -1 1028.20   59.29
  10  -1   1  941.61   57.79
 -10   1   1 1102.99   58.49
 -10   1   1  995.00   57.69
  10   1  -1 1079.69   58.19
  10  -1   1 1074.89   57.99
  10   1  -1 1050.79   58.69
 -10  -1  -1 1030.60   58.09
  10  -2  -1  204.58   17.20
 -10   2  -1  211.18   14.80
 -10  -2   1  195.38   17.20
 -10  -2   1  206.78   14.60
  10   2   1  213.68   13.70
  10  -2  -1  220.68   13.70
  10   2   1  203.78   15.70
  10   2   1  203.68   15.20
  10  -2  -1  216.68   13.50
  10   2   1  235.58   15.30
 -10   2  -1  207.58   15.50
  10  -2  -1  223.98   15.70
 -10   2  -1  206.48   17.80
 -10   2   1  223.28   14.80
 -10   2   1  217.38   17.00
  10  -2   1  206.48   13.40
 -10  -2  -1  221.08   14.90
  10   2  -1  227.18   14.50
  10   2  -1  198.88   17.60
 -10   2   1  171.48   15.30
  10  -2   1  211.08   16.10
 -10  -2  -1  233.38   16.80
 -10  -2  -1  193.48   14.60
  10  -2   1  208.68   16.70
  10   2  -1  205.28   15.10
  10   2  -1  196.08   13.20
  10  -2   1  197.58   13.20
  10   2  -1  219.68   14.10
 -10   3  -1  645.24   37.20
 -10   3  -1  647.24   36.20
 -10  -3   1  640.54   38.20
  10   3   1  580.34   37.20
  10   3   1  604.74   36.30
  10  -3  -1  639.14   34.80
 -10  -3   1  575.54   36.60
 -10   3  -1  613.34   37.00
  10   3   1  663.23   36.80
  10   3   1  628.34   35.60
  10  -3  -1  639.84   38.50
 -10   3  -1  636.94   38.80
  10  -3  -1  609.84   35.20
  10   3  -1  646.64   35.80
  10  -3   1  620.14   35.00
  10   3  -1  614.54   34.70
 -10  -3  -1  677.53   37.60
  10   3  -1  581.74   35.40
  10   3  -1  666.53   36.20
  10  -3   1  627.24   34.50
 -10   3   1  621.04   37.20
  10  -3   1  576.14   39.80
  10   3  -1  630.74   36.20
 -10   3   1  625.24   36.20
  10  -3   1  635.54   38.10
 -10  -3  -1  616.74   36.50
 -10  -3  -1  597.24   36.00
 -10   3   1  646.94   38.30
 -10  -4   1  100.79   12.50
 -10   4  -1  102.49   13.70
 -10   4  -1  108.09   12.00
  10  -4  -1  111.69    8.50
 -10   4  -1  127.29   14.30
  10   4   1   97.69   11.90
  10   4   1   87.59    9.60
  10  -4  -1  124.89   16.60
  10  -4  -1  109.09    9.80
 -10   4  -1  109.39   14.60
 -10  -4   1  120.59   13.70
  10  -4   1  122.79    9.70
 -10   4   1   87.69   13.50
  10  -4   1   96.59   12.70
 -10  -4  -1   95.79   12.20
 -10  -4  -1  123.49   11.50
  10   4  -1  129.99   10.00
 -10  -4  -1  130.19   13.80
 -10   4   1  122.29   15.90
  10   4  -1  113.89   12.30
  10  -4   1  127.79   15.60
 -10   4   1  126.89   12.20
  10   5   1  234.58   22.90
  10   5   1  212.28   20.30
 -10   5  -1  279.97   21.00
 -10   5  -1  248.98   24.20
 -10  -5   1  249.78   20.40
 -10  -5   1  242.88   19.60
  10  -5  -1  257.37   19.70
  10  -5   1  256.97   19.10
 -10   5   1  260.77   23.10
 -10   5   1  241.78   28.00
  10  -5   1  266.27   27.70
 -10  -5  -1  248.58   20.10
 -10   5   1  218.38   19.60
  10  -5   1  221.88   17.00
 -10  -5  -1  252.77   18.40
 -10  -5  -1  253.27   19.40
 -10  -6   1   47.00   10.10
 -10   6  -1   55.49   11.10
 -10   6  -1   41.30   14.90
  10  -6  -1   31.10    9.90
 -10  -6   1   44.10   12.10
  10   6   1   28.90   10.80
  10  -6   1   60.69   11.30
 -10  -6  -1   46.10   10.90
 -10  -6  -1   35.20    9.60
 -10   6   1   35.80   12.90
  10   6  -1   35.30   10.10
  10  -7  -1   60.59   12.60
 -10  -7   1   37.20   11.20
 -10   7  -1   81.19   17.90
  10   7   1   62.89   14.70
 -10  -7   1   69.79   14.70
 -10  -7  -1   54.89   11.10
 -10   7   1   53.29   15.90
 -10  -7  -1   56.69   13.70
  10  -7   1   59.09   12.90
  10   7  -1   31.60   12.80
 -11   0  -1   67.89    9.10
  11   0   1   69.29   10.90
  11   0  -1   60.19    7.00
 -11   0   1   69.59    8.20
 -11   0   1   61.29    8.80
  11   0  -1   73.39    9.90
  11   0  -1   56.09    8.90
  11   0   1   57.69    6.60
  11   0  -1   61.69    7.30
  11   0   1   69.79    9.30
 -11   0  -1   75.39    8.90
 -11   0   1   53.19    8.70
  11   0   1   53.89    6.60
 -11   0  -1   55.29    8.90
  11   0  -1   59.59    8.10
  11   0   1   62.89    9.30
 -11   1  -1  185.18   16.50
 -11   1  -1  181.68   13.90
  11  -1  -1  184.48   12.60
 -11   1  -1  187.38   14.20
  11   1   1  188.78   15.50
 -11  -1   1  155.58   15.40
  11  -1  -1  183.48   13.70
  11  -1  -1  162.18   16.80
 -11  -1   1  160.88   13.70
  11   1   1  185.28   12.50
  11   1   1  183.28   15.40
  11  -1  -1  192.48   12.80
  11   1   1  185.88   11.60
  11  -1  -1  187.68   14.90
  11   1   1  189.48   14.30
  11   1  -1  189.28   16.20
  11  -1   1  193.58   15.40
 -11  -1  -1  184.28   14.10
 -11   1   1  188.88   14.90
 -11   1   1  160.08   13.80
 -11   1   1  185.48   14.00
  11  -1   1  189.08   12.00
  11  -1   1  190.08   15.80
  11   1  -1  176.98   13.90
  11  -1   1  181.18   13.80
 -11  -1  -1  191.08   14.20
  11  -1   1  183.08   12.30
  11   1  -1  186.38   13.20
  11   1  -1  181.58   12.30
 -11  -1  -1  165.58   15.40
  11   1  -1  173.18   14.20
  11  -2  -1   49.99    7.30
  11   2   1   49.70    6.90
 -11  -2   1   55.39    9.30
 -11  -2   1   80.79   12.20
  11   2   1   65.09    9.40
  11   2   1   46.00    5.60
  11  -2  -1   53.99    7.30
 -11   2  -1   44.70    7.40
  11   2   1   68.29    9.00
  11  -2  -1   56.49   10.30
 -11   2  -1   46.80    7.50
  11   2   1   53.29    8.20
 -11   2  -1   64.49   10.10
  11  -2  -1   55.49    8.70
 -11   2   1   58.39    7.80
  11   2  -1   57.49    7.50
 -11   2   1   65.19    8.50
  11   2  -1   50.39    5.60
  11   2  -1   50.69    8.60
  11   2  -1   55.79    8.20
 -11  -2  -1   62.09    9.10
  11  -2   1   54.99    6.70
  11  -2   1   52.09    5.70
 -11  -2  -1   44.50    6.90
 -11  -2  -1   57.69    9.90
 -11   2   1   61.19    9.40
  11  -2   1   54.29    8.70
  11   2  -1   51.79    7.10
  11  -2   1   43.20   12.60
  11  -3  -1  139.39   10.20
  11   3   1   97.99   13.20
  11  -3  -1  121.99   13.60
  11   3   1  107.89   10.40
 -11   3  -1  137.19   13.10
 -11   3  -1  139.89   17.40
  11   3   1  152.78   14.10
 -11   3  -1  116.79   14.30
 -11  -3   1  120.79   14.40
  11  -3  -1  143.39   17.20
  11  -3  -1  125.89   10.60
 -11  -3  -1  151.08   14.20
 -11   3   1  125.79   15.80
  11   3  -1  135.09   13.50
 -11   3   1  105.39   14.40
 -11  -3  -1  136.39   12.40
  11   3  -1  143.59   11.20
 -11   3   1  142.79   13.00
  11   3  -1  147.99   12.40
  11  -3   1  119.79   10.40
  11  -3   1  127.39   16.10
  11   3  -1  111.49   12.40
 -11  -3  -1  114.99   12.70
  11   3  -1  134.09   10.20
  11  -3   1  137.59   13.70
 -11   4  -1   19.00   11.00
  11   4   1   35.90    8.70
  11  -4  -1   26.60    5.20
  11   4   1   25.90    8.20
 -11  -4   1   45.50   10.70
 -11  -4   1   30.60    8.80
 -11   4  -1   34.30    9.60
  11  -4  -1   20.80    5.60
  11   4   1   32.30    8.20
  11  -4   1   31.70    8.20
  11   4  -1   27.10    6.30
 -11  -4  -1   48.20   10.40
  11  -4   1   31.90    5.30
  11   4  -1   32.80    9.40
 -11   4   1   33.00    7.80
 -11   4   1   25.50   10.40
 -11   4   1   32.80   11.00
 -11  -4  -1   36.50    7.30
 -11   5  -1   64.09   14.10
  11   5   1   49.30   11.10
  11   5   1   64.39    9.90
 -11  -5   1   56.89   12.50
 -11  -5   1   46.20   10.90
  11  -5  -1   78.49   11.10
 -11   5  -1   84.79   12.00
  11   5   1   61.29    9.80
  11  -5   1   62.49   10.30
  11   5  -1   65.89   10.50
 -11  -5  -1   64.29   10.80
 -11  -5  -1   78.89   12.40
 -11   5   1   66.19   13.80
 -11  -6   1   27.60   12.40
  11  -6  -1   26.60   11.00
  11   6   1   -9.70   10.60
 -11   6  -1    4.50   14.10
 -11   6  -1   38.80   11.90
 -11  -6   1   24.60   10.70
  11  -6   1   22.50   10.60
 -11  -6  -1   16.50    9.30
 -11   6   1   -4.20   12.70
  11   6  -1   10.00   10.50
 -11  -6  -1   19.50   11.40
  11   7   1   17.10   14.50
 -11   7  -1   47.60   23.80
  11  -7  -1   33.60   13.80
  11  -7   1   33.20   13.80
  11   7  -1   17.00   13.70
 -12   0   1  486.85   28.60
  12   0   1  489.95   31.90
 -12   0  -1  492.75   30.20
  12   0  -1  495.45   29.40
  12   0   1  492.05   29.80
  12   0  -1  510.35   29.00
  12   0  -1  485.25   32.20
  12   0   1  494.35   28.70
  12   0  -1  498.95   30.50
 -12   0  -1  456.35   29.90
 -12   0   1  459.15   29.60
  12   0  -1  510.35   28.50
 -12   0  -1  508.35   28.80
 -12   0   1  505.05   32.40
  12   0   1  491.55   27.80
 -12  -1   1   36.10    7.30
  12   1   1   43.60    9.10
 -12   1  -1   38.30    9.40
  12  -1  -1   40.10    8.30
 -12   1  -1   39.90    7.40
  12   1   1   31.30    5.50
 -12  -1   1   40.70    9.60
  12  -1  -1   46.60    7.30
  12   1   1   54.29    8.00
  12   1   1   43.50    6.20
 -12   1  -1   50.89    7.60
  12   1   1   36.60    9.10
  12  -1  -1   48.80   10.80
  12  -1  -1   40.00    6.00
  12   1  -1   26.20    8.70
 -12  -1  -1   38.10    7.90
  12  -1   1   45.70    8.50
  12  -1   1   42.30    7.20
  12  -1   1   42.90    6.30
  12  -1   1   43.40    9.20
 -12   1   1   39.60    7.00
  12   1  -1   46.70    7.20
  12   1  -1   40.80    5.60
 -12   1   1   53.19    8.60
  12   1  -1   50.29    8.10
 -12  -1  -1   49.20   10.10
  12   1  -1   31.40    7.70
 -12   1   1   40.40    7.50
  12  -1   1   45.70    7.00
  12  -2  -1  406.36   23.20
  12  -2  -1  412.96   25.30
  12  -2  -1  369.66   23.10
 -12   2  -1  318.07   31.20
 -12  -2   1  380.06   27.00
  12   2   1  367.16   25.70
 -12  -2   1  341.67   24.60
  12   2   1  388.96   24.60
  12   2   1  383.36   23.50
  12   2   1  378.66   21.60
  12  -2  -1  396.86   28.70
 -12   2  -1  341.87   25.00
 -12   2  -1  365.96   25.00
  12   2   1  363.86   26.10
  12   2  -1  374.86   26.40
  12  -2   1  366.86   22.80
  12  -2   1  406.46   23.00
  12   2  -1  394.46   23.70
 -12   2   1  395.56   25.40
 -12   2   1  384.86   25.20
  12  -2   1  363.36   26.00
  12  -2   1  402.76   27.90
  12   2  -1  388.36   24.70
 -12   2   1  406.96   26.60
 -12  -2  -1  361.56   25.10
  12   2  -1  415.36   24.60
 -12  -2  -1  422.36   26.60
  12   2  -1  381.76   22.60
  12   3   1   30.80    8.10
  12   3   1   31.70    9.30
  12  -3  -1   41.20    6.00
 -12   3  -1   34.80   11.90
  12  -3  -1   38.30    6.50
 -12  -3   1   46.40   11.80
 -12   3  -1   32.50    9.30
  12   3   1   37.60    8.60
  12  -3  -1   47.70    8.60
  12  -3   1   26.80    5.90
  12   3  -1   38.20    8.50
 -12   3   1   42.00    8.70
 -12   3   1   27.00   10.00
  12   3  -1   52.99    9.70
 -12   3   1   36.80   10.50
  12  -3   1   41.80    8.90
 -12  -3  -1   47.50   10.70
  12   3  -1   41.20    7.60
 -12  -3  -1   31.90    8.00
  12   3  -1   41.10    5.60
  12   4   1  175.18   17.90
  12  -4  -1  199.58   13.80
  12   4   1  175.08   19.40
 -12   4  -1  203.18   23.80
  12   4   1  160.68   17.80
 -12  -4   1  208.58   19.30
  12   4  -1  208.18   17.50
  12   4  -1  173.78   18.60
 -12   4   1  178.38   21.70
  12  -4   1  207.58   18.40
  12   4  -1  168.48   17.00
 -12  -4  -1  214.78   19.00
  12  -5  -1   31.60   10.20
 -12   5  -1   28.40   14.40
  12   5   1   18.00   11.20
 -12  -5   1   29.30   12.40
  12   5   1   27.10   10.70
  12   5   1   15.40   10.60
 -12  -5   1   29.00   10.70
  12  -5   1   17.00    9.30
  12   5  -1   25.10    9.50
 -12   5   1   -1.20   13.20
 -12  -5  -1   26.30   11.60
 -12   6  -1   60.19   17.40
 -12  -6   1   73.39   16.20
  12   6   1   55.69   13.80
 -12  -6   1   38.70   12.10
  12  -6  -1   63.09   12.50
 -12  -6  -1   48.30   11.30
 -12   6   1   58.99   17.00
 -12  -6  -1   59.59   13.80
  12  -6   1   73.19   14.10
  12   6  -1   58.39   13.40
  13   0   1   74.79    9.60
  13   0  -1   71.29    9.80
  13   0   1   54.29    8.30
  13   0   1   86.09   12.90
 -13   0   1   86.69   14.30
  13   0   1   74.59    9.60
  13   0   1   67.29   10.60
 -13   0  -1   52.99    9.80
 -13   0  -1   72.39   12.80
  13   0  -1   60.89    8.50
  13   0  -1   65.69    9.40
 -13   0   1   58.09    9.90
 -13   0  -1   65.09    9.50
  13   0  -1   68.19   10.10
 -13   0  -1   81.09   11.90
  13   0  -1   70.59   12.80
  13   1   1  196.88   17.60
  13  -1  -1  187.28   14.20
  13  -1  -1  187.88   16.60
  13   1   1  161.98   19.70
  13  -1  -1  164.58   13.70
  13   1   1  169.88   16.30
 -13  -1   1  133.19   16.60
 -13  -1   1  164.78   18.50
 -13   1  -1  169.88   16.60
 -13   1  -1  177.28   18.80
  13  -1   1  198.18   17.90
  13   1  -1  181.48   15.60
  13   1  -1  194.08   17.00
  13   1  -1  182.78   13.40
 -13   1   1  159.48   15.80
  13   1  -1  147.49   19.80
 -13   1   1  190.28   17.20
 -13  -1  -1  177.98   17.80
 -13  -1  -1  168.08   17.20
 -13   1   1  178.08   16.80
  13  -1   1  174.18   15.40
  13  -1   1  159.18   13.00
  13  -1   1  180.58   14.00
  13   2   1   68.79   13.10
  13  -2  -1   62.69   10.20
 -13  -2   1   47.30    9.10
  13  -2  -1   51.09    7.10
  13   2   1   51.79    9.20
 -13   2  -1   57.69   12.30
  13   2   1   42.30   12.00
  13  -2  -1   51.69    7.60
 -13  -2   1   58.89   12.70
 -13   2  -1   50.29   10.00
  13   2  -1   50.79    9.20
 -13   2   1   52.79   10.30
  13   2  -1   62.69    7.10
 -13  -2  -1   59.79   12.00
  13   2  -1   55.09    9.30
  13  -2   1   49.30    7.20
  13  -2   1   55.29   10.10
 -13   2   1   70.39   15.70
  13   2  -1   38.70   11.30
  13  -2   1   48.60    7.30
 -13   2   1   64.79   10.90
  13   3   1  113.39   14.90
  13  -3  -1  107.49   11.90
 -13  -3   1  113.89   17.10
  13   3   1   98.09   15.20
  13   3   1  119.69   15.60
  13  -3  -1  147.09   17.10
 -13   3  -1  139.29   21.90
  13  -3   1  131.79   16.20
  13   3  -1  107.29   11.60
  13   3  -1  143.49   14.50
  13   3  -1  148.99   15.50
 -13   3   1  154.68   19.40
 -13  -3  -1  149.39   16.40
 -13   3   1  153.08   19.60
  13   3  -1  129.99   19.50
 -13   4  -1   39.70   14.20
  13   4   1   23.40    9.40
  13   4   1   15.80   12.60
 -13  -4   1   25.40   11.80
  13   4   1   40.00   10.50
 -13   4   1   38.40   13.20
 -13  -4  -1   34.50   12.50
  13  -4   1   23.90   10.00
  13   4  -1   29.30   10.00
  13   4  -1   34.80    8.60
  13   4  -1   28.90   12.00
 -13  -5   1   73.69   16.50
  13   5   1   72.29   13.20
  13   5   1   48.20   13.00
 -13   5  -1   87.69   19.20
  13  -5  -1   58.29   12.90
  13   5  -1   63.29   12.20
 -13  -5  -1   71.19   14.50
 -13   5   1   95.99   19.10
 -14   0   1   -9.20   11.10
 -14   0  -1    1.20    9.50
  14   0   1    6.10    7.40
  14   0   1   -0.10    5.30
  14   0   1   -1.60    9.80
  14   0  -1   -5.70    8.90
  14   0  -1    0.90    6.40
  14   0  -1    5.00    7.00
  14  -1  -1   67.99    8.90
  14   1   1   64.39    9.80
  14   1   1   67.39   10.40
 -14   1  -1   70.49   12.40
 -14  -1   1   86.19   16.30
  14  -1  -1   69.59   11.30
  14   1   1   82.49   12.30
  14   1  -1   78.69   12.40
  14  -1   1   58.99    8.10
 -14  -1  -1   93.69   15.20
  14  -1   1   97.19   13.90
  14   1  -1   68.39    8.50
  14   1  -1   70.09   10.00
 -14   1   1   59.59   11.50
  14  -1   1   60.89   10.00
  14   2   1    5.90   10.10
 -14   2  -1   -9.60   10.60
  14  -2  -1    2.00    9.90
  14  -2  -1   -6.60    8.00
  14   2   1    6.40    9.30
 -14   2  -1  -10.50   11.90
 -14  -2   1   -1.40   17.80
  14   2  -1   20.90   16.90
 -14   2   1    4.40   11.30
  14  -2   1    1.00   10.20
  14   2  -1    9.10   10.00
  14  -2   1    4.50    6.60
 -14   2   1    3.60   10.80
  14   2  -1    6.60    8.30
 -14  -2  -1  -15.20    9.60
  14   3   1   52.49   13.10
 -14   3  -1   38.80   14.90
  14   3   1   45.00   10.10
  14  -3  -1   44.90   11.00
 -14  -3   1   40.10   14.90
  14  -3   1   41.10   11.00
 -14   3   1   51.89   13.70
  14   3  -1   40.70   10.80
  14   3  -1   29.50   15.00
  14   3  -1   46.50   10.90
 -14  -3  -1   43.50   12.90
  14   4   1   -3.10   10.70
  14   4   1  -16.40   12.10
 -14  -4   1    8.30   13.60
 -14   4  -1    7.40   16.20
 -14  -4  -1   -3.90   13.40
  14  -4   1    1.30   12.20
  14   4  -1    0.30   10.00
 -14   4   1    2.20   14.80
  14   4  -1    9.10   13.50
  15   0   1    3.30    9.30
 -15   0  -1    7.40   13.20
  15   0   1   14.40   12.40
  15   0  -1   11.10   10.80
 -15   0   1    8.20   13.20
  15   0  -1    5.50    8.80
 -15   1  -1   99.29   15.60
  15   1   1   89.59   15.10
  15   1   1  119.59   19.10
 -15  -1   1  124.89   20.50
  15  -1  -1   99.19   13.60
 -15   1  -1  104.69   18.10
  15   1  -1   85.39   12.40
 -15  -1  -1   72.29   28.40
  15  -1   1   90.89   15.20
 -15   1   1   97.09   18.20
  15   1  -1   99.59   14.50
 -15  -2   1   16.60   14.30
  15   2   1   11.60   12.40
  15  -2  -1   -5.50   10.80
 -15   2  -1    2.70   14.00
  15   2   1    3.80   10.90
 -15   2   1   -7.90   13.40
  15  -2   1   16.70   11.50
 -15  -2  -1    9.40   15.00
  15   2  -1    8.70   10.10
  15   2  -1    4.40   12.30
   0   0   2   30.80    2.60
   0   0   2   33.90    2.40
   0   0   2   29.30    2.10
   0   0   2   34.20    2.40
   0   0  -2   32.60    2.70
   0   0  -2   34.70    2.40
   0   0  -2   37.40    2.10
   0   1  -2    1.50    0.80
   0  -1  -2    0.10    1.00
   0  -1   2   -0.30    0.80
   0  -1  -2   -0.50    0.80
   0   1   2    1.00    1.00
   0  -1   2    2.70    1.80
   0  -1  -2    0.10    0.50
   0   1   2   -0.30    0.90
   0   1  -2    0.70    0.80
   0  -1   2   -0.60    0.80
   0   2   2   48.90    3.80
   0   2  -2   40.10    3.40
   0  -2   2   57.19    4.80
   0   2   2   49.80    3.90
   0   2   2   46.70    3.50
   0  -2  -2   46.10    3.90
   0   2  -2   44.40    3.70
   0  -2  -2   44.90    3.20
   0  -2   2   52.09    3.50
   0   2  -2   49.40    3.60
   0  -2  -2   56.19    3.30
   0  -2  -2   50.29    3.90
   0   3  -2    2.20    1.50
   0  -3   2    6.00    3.40
   0   3  -2   -0.10    1.50
   0  -3   2   -0.60    1.60
   0   3   2    0.60    1.40
   0   3  -2   -0.60    1.80
   0  -3  -2    4.10    2.00
   0   3  -2    0.60    1.10
   0  -3  -2    1.70    1.30
   0   3   2    2.90    1.80
   0  -3  -2    1.50    1.50
   0  -3   2    1.50    1.40
   0   3   2    2.00    2.30
   0  -3  -2    2.50    2.00
   0  -4  -2   29.20    4.40
   0   4  -2   19.60    2.70
   0   4   2   23.90    4.00
   0  -4  -2   19.80    3.20
   0  -4   2   24.10    3.50
   0  -4   2   33.60    5.40
   0   4   2   22.60    3.90
   0  -4  -2   30.80    4.50
   0  -4  -2   28.90    3.00
   0   4  -2   17.00    3.00
   0  -4  -2   26.40    3.40
   0  -4   2   24.00    3.30
   0   4  -2   27.60    3.80
   0   4  -2   25.20    4.20
   0   4   2   27.20    3.50
   0  -5   2   -0.40    4.80
   0  -5  -2   -2.00    3.20
   0   5  -2   -0.50    2.60
   0   5   2   -1.80    3.90
   0   5   2    2.10    2.70
   0  -5  -2   -0.90    1.90
   0  -5  -2   -0.80    2.40
   0  -5  -2    0.90    2.10
   0  -5   2   -1.10    2.40
   0   5   2   -0.40    2.90
   0  -5  -2    0.00    3.50
   0   5  -2    3.10    3.10
   0  -5   2   -2.00    2.20
   0   5  -2   -0.40    3.60
   0   6  -2   -9.20    5.20
   0  -6   2    1.10    3.30
   0  -6  -2   -3.60    2.80
   0   6   2   -4.50    3.30
   0  -6   2    1.60    3.20
   0  -6  -2    0.00    2.80
   0   6  -2   -9.80    4.30
   0   6  -2    1.30    3.40
   0  -6  -2    2.60    2.40
   0   6   2   -0.70    5.00
   0   7  -2   -1.90    5.80
   0   7  -2    3.10    7.80
   0  -7  -2    0.90    4.20
   0   7  -2    1.90    4.50
   0   7   2    1.20    7.30
   0  -7  -2    4.70    4.50
   0  -7   2    1.40    4.30
   0   7   2   -2.10    4.40
   0  -7   2    3.70    4.40
   0   8   2   -4.10    8.40
   0  -8   2    7.10    5.80
   0  -8  -2    9.10    5.70
   0   8  -2   -1.00    6.30
   0   8   2   -3.00    7.10
   0   8  -2   15.60    8.90
   0   8   2    9.80    9.90
   0   8  -2   -2.10   10.70
   0  -8   2    8.00    6.00
   0  -8  -2   11.30    5.40
   0  -9   2   -3.60    7.10
   0   9   2    9.50   13.70
   0  -9  -2   -4.90    6.90
   0  -9  -2   -1.40    8.70
   0   9  -2   -3.20    9.30
   0   9   2    0.30   22.00
   0   9  -2  -32.20   15.20
   0   9   2   10.10   10.00
   1   0   2  595.04   31.60
   1   0   2  544.25   31.50
   1   0   2  598.54   31.80
  -1   0  -2  606.04   31.90
   1   0  -2  631.24   31.60
  -1   0   2  601.04   31.60
  -1   0  -2  581.24   31.50
   1   0  -2  545.65   31.70
  -1   0  -2  581.74   31.50
  -1   0   2  598.64   31.50
  -1   0  -2  588.84   31.60
  -1   0   2  566.94   31.30
   1   0  -2  625.44   31.30
   1   1   2  367.86   20.60
  -1  -1   2  413.46   21.30
   1   1   2  387.16   20.60
  -1   1  -2  361.86   20.50
  -1  -1   2  441.46   20.50
   1  -1  -2  378.56   20.80
   1  -1  -2  381.56   20.70
   1   1   2  376.36   20.90
  -1   1  -2  361.56   20.90
  -1   1  -2  350.06   20.70
  -1  -1  -2  371.76   20.40
  -1   1   2  375.26   20.70
  -1   1   2  366.66   20.70
   1  -1   2  401.06   20.70
   1  -1   2  358.76   20.50
  -1  -1  -2  373.56   20.90
   1  -1   2  384.66   20.80
  -1  -1  -2  386.96   20.60
   1  -1   2  375.96   20.70
  -1  -2   2  472.05   23.10
  -1   2  -2  394.76   22.00
   1   2   2  392.96   21.80
  -1  -2   2  406.46   22.10
   1  -2  -2  381.06   22.00
   1  -2  -2  400.36   22.50
   1   2   2  433.86   22.50
   1   2   2  390.66   22.10
   1  -2  -2  395.06   22.20
  -1   2  -2  396.56   22.40
  -1   2  -2  390.16   22.20
  -1   2   2  397.36   22.40
  -1  -2  -2  423.26   22.00
   1  -2   2  407.06   22.20
  -1   2   2  402.16   22.20
  -1   2   2  382.66   22.20
  -1  -2  -2  399.26   22.10
   1  -2   2  394.76   22.00
   1  -2   2  383.26   22.00
  -1  -2  -2  433.56   22.40
   1  -2   2  431.86   22.60
   1   2  -2  404.46   22.10
  -1  -2  -2  393.26   21.70
  -1   3  -2  194.68   12.10
   1  -3  -2  198.78   12.60
   1  -3  -2  218.38   11.80
  -1   3  -2  214.08   12.00
  -1  -3   2  222.48   12.20
  -1   3  -2  202.48   12.70
   1   3   2  205.98   12.20
   1   3   2  195.58   12.10
   1  -3  -2  205.08   11.80
  -1  -3   2  192.28   11.90
   1  -3  -2  202.98   12.10
   1   3   2  202.68   11.70
   1  -3   2  213.18   12.80
  -1   3   2  197.58   12.20
  -1  -3  -2  210.78   12.10
   1  -3   2  191.18   11.80
   1   3  -2  212.28   11.90
  -1  -3  -2  234.88   12.40
  -1   3   2  199.18   12.10
  -1  -3  -2  216.68   11.90
  -1  -3  -2  201.08   11.70
  -1   3   2  205.08   12.70
  -1  -3  -2  194.78   11.50
   1  -3   2  216.08   12.10
   1   3  -2  204.68   11.60
   1  -4  -2  209.68   12.20
   1  -4  -2  216.58   12.70
  -1  -4   2  204.98   13.00
  -1  -4   2  243.08   14.80
   1   4   2  235.28   13.40
  -1  -4   2  203.18   12.80
   1  -4  -2  218.78   12.60
   1   4   2  208.08   12.60
  -1   4  -2  206.38   13.10
  -1   4  -2  206.88   13.90
   1   4   2  208.48   13.00
   1  -4  -2  237.38   13.10
   1  -4  -2  224.18   13.60
  -1   4  -2  227.08   12.90
   1  -4   2  209.88   12.70
  -1   4   2  212.58   13.10
   1   4  -2  214.98   12.40
  -1  -4  -2  211.38   12.30
  -1  -4  -2  212.18   12.80
   1  -4   2  218.38   12.50
   1   4  -2  209.28   12.40
   1  -4   2  227.18   12.80
   1   4  -2  233.58   12.80
  -1   4   2  221.68   14.00
  -1   4   2  209.08   13.20
  -1  -4  -2  209.98   12.50
   1   5   2   90.09    7.30
  -1  -5   2   91.79    7.20
   1  -5  -2   84.89    6.90
  -1   5  -2   99.79    9.50
  -1   5  -2   91.39    7.80
   1  -5  -2   88.09    6.10
   1  -5  -2  104.09    7.90
  -1  -5   2  106.89   10.10
   1  -5  -2   94.49    9.00
   1  -5  -2  106.29    7.00
   1   5   2   95.59    8.90
  -1  -5   2   80.49    7.60
   1   5   2  104.89    7.70
  -1   5  -2  104.29    8.20
  -1   5   2  101.59    7.90
  -1  -5  -2   95.99    6.80
  -1  -5  -2   88.59    7.40
   1  -5   2   82.09    7.10
   1   5  -2  106.19    7.40
   1   5  -2   95.79    7.10
   1   5  -2  104.49    6.60
  -1  -5  -2   83.99    6.70
   1   5  -2   89.69    8.60
   1  -5   2   84.29    7.40
  -1   5   2   82.19    7.90
  -1   5   2   79.59    9.20
  -1   6  -2  120.99    9.90
   1  -6  -2  152.48   10.80
   1  -6  -2  122.69    9.10
   1  -6  -2  137.49   10.90
  -1  -6   2  126.89    9.50
   1   6   2  121.69    9.90
   1   6   2  139.69   11.40
  -1   6  -2  103.49   12.50
  -1   6  -2  113.09   10.80
   1   6   2  127.79    9.40
  -1  -6   2  117.19    9.50
  -1  -6   2  117.19   11.90
   1  -6  -2  113.59    9.00
   1  -6   2  112.19    9.40
  -1  -6  -2  117.69    8.80
   1   6  -2  121.09    8.20
   1   6  -2  138.09    9.60
   1  -6   2  111.89    9.20
   1   6  -2  118.79   11.30
  -1  -6  -2  123.09    8.60
  -1  -6  -2  116.59    9.30
   1   6  -2  119.49    9.80
  -1   6   2  114.69   12.10
  -1   6   2  110.49   10.20
   1   7   2   31.50    7.70
   1  -7  -2   29.20    4.90
   1   7   2   28.80    6.60
  -1   7  -2   38.10    7.60
   1   7   2   36.80    6.20
  -1   7  -2   29.30    5.80
  -1  -7   2   32.00    5.40
  -1  -7   2   21.30    5.50
   1  -7  -2   38.90    5.30
  -1   7  -2   19.80    8.70
  -1  -7  -2   23.60    5.00
   1   7  -2   19.30    6.70
  -1   7   2   29.70    6.30
   1   7  -2   20.10    7.90
   1  -7   2   29.50    5.10
   1  -7   2   28.70    5.80
  -1  -7  -2   33.30    4.80
   1   7  -2   30.10    5.90
  -1   7   2   15.40    6.80
  -1  -7  -2   31.20    5.80
  -1   7   2   27.70    8.90
  -1   8  -2   29.20   11.10
   1   8   2   47.80    8.70
  -1   8  -2   63.19    8.70
   1  -8  -2   55.39    8.50
  -1  -8   2   56.19    8.70
   1  -8  -2   48.70    7.50
   1   8   2   66.09   11.30
  -1   8  -2   43.90   13.10
   1   8  -2   43.10   11.30
  -1   8   2   64.59   14.00
  -1  -8  -2   51.09    7.90
   1  -8   2   60.09    8.40
  -1   8   2   29.00   13.60
   1   8  -2   58.09    8.60
   1   8  -2   45.40    9.80
   1  -8   2   53.89    7.80
  -1   8   2   56.69   10.10
  -1  -8  -2   36.70    7.10
  -1   9  -2   16.50    9.10
   1  -9  -2   -0.60    6.70
  -1  -9   2   -3.40    7.00
   1   9   2   -3.30   13.40
  -1   9  -2   -7.70   16.10
   1  -9  -2   -1.00   11.40
   1   9   2    6.20   13.90
   1   9   2    7.50   10.00
  -1   9  -2   -0.30   16.00
  -1   9   2   18.70   10.80
  -1   9   2  -14.80   13.60
   1  -9   2    4.00    7.30
   1   9  -2    0.40   13.90
  -1  -9  -2    4.20    7.60
  -1  -9  -2    3.50    9.00
   1   9  -2    3.00   14.30
   1   9  -2   23.30    9.40
  -2   0   2    5.30    1.20
   2   0   2    2.60    1.40
  -2   0  -2    4.20    1.30
   2   0   2    2.90    1.40
   2   0   2    2.80    1.20
  -2   0   2    3.20    1.10
  -2   0   2    3.10    1.20
  -2   0  -2    2.90    1.10
   2   0  -2    4.20    1.30
   2   0   2    3.50    0.90
  -2   0  -2    4.40    1.70
  -2  -1   2 5827.92  303.27
   2  -1  -2 5865.01  303.67
  -2  -1   2 5686.93  304.07
   2   1   2 5974.90  303.37
  -2   1  -2 5681.83  303.87
  -2   1   2 5721.53  303.57
   2  -1   2 6040.90  303.67
   2  -1   2 5934.61  303.77
  -2  -1  -2 5182.28  303.37
  -2  -1  -2 6328.07  303.37
  -2  -1  -2 4849.61  303.17
  -2   2  -2    4.00    1.40
  -2   2  -2    0.40    1.40
   2   2   2    2.70    1.60
  -2   2  -2    0.00    1.60
   2  -2  -2   -0.90    1.20
   2   2   2    1.70    1.30
   2  -2  -2    2.50    1.40
  -2   2  -2    2.00    2.10
   2  -2  -2    0.70    1.60
   2   2   2    2.60    1.50
  -2   2   2    2.20    1.90
  -2  -2  -2    2.40    1.90
  -2  -2  -2    4.50    1.90
   2  -2   2    1.30    1.80
  -2  -2  -2    2.40    1.40
   2   2  -2    0.50    1.20
   2  -2   2    0.50    1.70
  -2  -2  -2    2.70    1.60
  -2  -2  -2    2.20    1.20
  -2   2   2   -1.80    1.30
   2  -2   2    1.70    1.20
   2  -3  -2 2892.21  152.98
  -2  -3   2 3064.19  153.28
  -2   3  -2 2935.61  153.88
   2   3   2 2818.52  153.38
   2  -3  -2 2867.91  153.18
  -2   3  -2 2726.63  153.38
   2   3   2 2787.42  152.98
   2   3   2 2926.41  152.58
   2  -3  -2 2917.01  153.78
  -2   3  -2 2909.11  153.08
  -2  -3  -2 2677.53  152.48
   2   3  -2 2911.91  152.88
   2  -3   2 3097.49  153.48
   2  -3   2 2776.32  152.98
  -2   3   2 2964.20  153.38
  -2   3   2 2921.31  153.78
  -2  -3  -2 3125.19  153.08
   2   3  -2 2848.52  152.88
  -2  -3  -2 2727.83  152.88
   2  -3   2 2754.42  152.98
  -2   4  -2    6.60    2.60
  -2   4  -2    2.30    3.10
   2   4   2    4.70    2.00
  -2  -4   2   16.30    3.40
   2  -4  -2    7.40    2.20
   2   4   2    6.50    2.90
  -2   4  -2    3.30    3.50
   2   4   2    9.40    2.90
   2  -4  -2    9.00    2.80
  -2  -4   2   12.10    5.00
   2  -4  -2    7.70    3.30
   2   4  -2    7.10    2.10
  -2  -4  -2    6.50    3.60
   2  -4   2    8.00    2.10
   2  -4   2    2.80    2.60
   2  -4   2    6.00    2.90
  -2  -4  -2    9.90    2.80
  -2   4   2    8.60    2.80
  -2   4   2    6.50    3.80
   2   4  -2    3.60    2.10
  -2  -4  -2    5.60    2.30
  -2  -4  -2    6.10    1.80
   2  -5  -2  944.01   50.99
   2  -5  -2  946.51   52.09
   2  -5  -2 1026.20   51.39
   2   5   2  908.91   51.19
  -2   5  -2  926.71   52.49
   2  -5  -2  924.01   50.89
  -2   5  -2  907.11   51.69
  -2  -5   2  890.11   51.49
   2   5   2  959.40   50.69
  -2  -5   2  971.80   52.89
   2   5   2  937.71   51.39
  -2   5  -2  960.70   51.39
  -2   5   2  936.11   51.59
  -2   5   2  923.11   52.39
   2   5  -2  983.00   50.89
   2  -5   2  963.50   50.89
  -2  -5  -2  886.81   50.79
   2  -5   2  884.51   51.69
  -2  -5  -2  826.62   50.39
   2  -5   2 1011.10   51.39
  -2   5   2  929.71   51.59
   2   5  -2 1008.70   50.79
  -2  -5  -2  942.81   51.29
   2   6   2   17.30    4.90
  -2  -6   2   18.40    6.80
  -2  -6   2    6.80    4.10
   2  -6  -2   11.30    3.70
   2  -6  -2   11.90    4.60
  -2   6  -2   10.00    4.50
   2   6   2   12.80    4.30
   2  -6  -2   10.60    3.40
  -2   6  -2   -1.20    5.30
  -2   6  -2   11.60    6.60
   2   6   2    9.40    3.60
   2  -6  -2    9.50    5.70
   2  -6   2    6.10    3.50
  -2   6   2    7.50    4.60
  -2   6   2   11.60    4.80
   2  -6   2    9.60    3.50
   2   6  -2    8.80    5.00
  -2  -6  -2    9.60    3.40
   2   6  -2   17.40    4.00
   2   6  -2    5.10    3.20
  -2   6   2   10.50    6.20
  -2  -6  -2    9.40    3.20
  -2  -6  -2    7.50    4.10
   2  -7  -2  184.18   14.10
  -2   7  -2  225.68   15.50
   2  -7  -2  213.88   14.00
  -2   7  -2  198.28   19.40
   2  -7  -2  225.78   16.50
  -2   7  -2  217.08   17.20
  -2  -7   2  196.88   17.30
  -2  -7   2  177.08   15.00
   2   7   2  218.18   16.80
   2   7   2  211.98   14.60
   2   7   2  217.68   15.40
  -2  -7  -2  203.08   14.90
  -2   7   2  203.88   16.30
  -2   7   2  229.68   18.90
   2   7  -2  205.98   14.90
   2  -7   2  176.18   14.40
  -2  -7  -2  218.88   14.20
   2   7  -2  217.38   13.50
   2   7  -2  234.58   14.80
   2  -7   2  210.98   14.40
  -2   7   2  240.78   16.30
   2   7  -2  199.68   16.90
   2  -8  -2    7.90    5.10
  -2  -8   2    3.80    5.90
  -2   8  -2    7.00    6.80
   2   8   2    1.00    8.90
  -2   8  -2   -0.70   10.80
   2   8   2    2.00    6.60
   2  -8  -2   -5.70    5.70
  -2   8  -2    4.10   12.00
  -2   8   2   10.40    9.90
  -2  -8  -2    5.50    5.40
  -2   8   2   17.00   10.70
   2   8  -2   -2.60    8.20
   2   8  -2   12.50    7.00
  -2  -8  -2   16.00    6.40
  -2   8   2   11.90    7.70
   2  -8   2    3.60    6.10
   2   8  -2   -7.20    9.60
   2  -8   2    2.40    4.70
  -2  -8  -2    1.30    5.70
  -2   9  -2   26.10   10.30
   2  -9  -2   31.20    7.90
   2   9   2   24.40   14.00
  -2   9  -2   31.40   17.40
   2   9   2   47.20   16.90
  -2  -9   2   23.80    9.00
  -2  -9  -2   19.80    8.00
   2   9  -2   51.89    9.80
   2  -9   2   18.50    7.00
  -2  -9  -2   28.40    9.80
   2   9  -2   22.20   14.60
  -2   9   2   53.09   15.80
   2   9  -2   26.60   13.60
  -2   9   2   51.89   11.70
  -3   0  -2 1417.36   76.89
  -3   0   2 1468.65   76.89
   3   0  -2 1432.46   76.99
   3   0   2 1508.65   76.59
   3   0   2 1538.55   77.39
  -3   0  -2 1484.25   77.39
  -3   0  -2 1455.85   76.59
   3   0  -2 1423.86   76.59
  -3   0  -2 1443.86   76.99
   3   0   2 1403.66   77.09
  -3   0   2 1422.36   76.69
   3   0   2 1369.16   76.99
   3   0  -2 1531.45   76.89
  -3   0   2 1422.66   76.79
  -3   0  -2 1347.17   76.89
  -3  -1   2 3219.08  166.48
   3   1   2 3291.17  165.58
   3   1   2 3155.88  165.78
  -3   1  -2 3178.18  166.28
  -3   1  -2 2984.60  165.58
  -3   1  -2 3031.80  165.38
   3  -1  -2 3204.48  166.08
  -3   1  -2 3088.79  165.48
  -3  -1   2 2984.70  165.58
  -3   1  -2 3007.00  165.88
   3   1   2 3000.10  165.78
  -3  -1   2 3012.10  165.28
   3  -1  -2 2933.31  165.78
   3  -1   2 3289.17  166.18
   3  -1   2 3153.28  165.38
  -3  -1  -2 3411.16  165.68
   3  -1   2 2885.71  165.58
  -3   1   2 3218.48  165.88
  -3  -1  -2 3220.08  165.48
  -3   1   2 3292.67  165.88
  -3  -1  -2 3071.09  165.58
   3   1  -2 3215.98  165.68
  -3  -1  -2 3208.28  165.78
   3   1  -2 3191.48  165.28
  -3   1   2 2981.70  165.38
  -3  -1  -2 2881.61  165.68
   3  -1   2 3249.67  166.08
   3   2   2 1128.69   58.89
  -3   2  -2 1109.79   59.59
   3  -2  -2 1140.39   59.39
  -3  -2   2 1172.08   60.29
  -3   2  -2 1043.10   59.09
  -3  -2   2 1147.69   59.19
   3   2   2 1080.59   59.29
   3  -2  -2 1114.79   59.79
   3   2   2 1050.79   59.09
  -3   2  -2 1066.89   58.99
   3  -2  -2 1081.79   59.09
  -3   2  -2 1140.19   59.99
   3  -2   2 1192.38   59.79
  -3  -2  -2 1111.59   59.09
   3   2  -2 1019.90   58.99
  -3  -2  -2 1087.19   58.69
  -3   2   2 1059.39   59.39
   3  -2   2 1065.89   59.39
  -3  -2  -2 1076.69   59.09
   3   2  -2 1129.09   59.09
  -3   2   2 1169.28   59.39
  -3   2   2 1094.59   59.69
   3  -2   2 1078.29   58.89
  -3   3  -2 1460.25   80.49
  -3   3  -2 1553.24   80.19
  -3   3  -2 1483.85   81.09
   3  -3  -2 1512.65   79.99
   3  -3  -2 1529.35   80.29
   3   3   2 1615.54   80.49
  -3   3  -2 1475.75   80.09
   3  -3  -2 1521.95   80.89
   3   3   2 1429.36   79.69
  -3  -3   2 1512.25   80.29
   3   3   2 1352.46   80.09
   3  -3   2 1587.84   80.69
  -3  -3  -2 1423.06   79.99
  -3   3   2 1348.17   80.29
  -3   3   2 1462.35   80.39
   3   3  -2 1512.05   79.99
   3  -3   2 1490.25   79.89
  -3  -3  -2 1714.13   80.29
  -3  -3  -2 1438.86   79.99
   3  -3   2 1482.25   80.29
  -3   3   2 1498.85   80.89
   3   3  -2 1510.05   79.79
   3   4   2  480.95   29.50
   3   4   2  576.84   30.00
  -3   4  -2  509.75   30.70
  -3  -4   2  579.74   31.10
   3   4   2  510.15   28.60
   3   4   2  499.35   29.00
  -3  -4   2  536.15   29.80
  -3   4  -2  511.25   29.40
   3  -4  -2  541.65   29.20
  -3   4  -2  530.15   30.10
   3  -4  -2  536.15   30.40
   3  -4  -2  518.05   29.50
  -3  -4  -2  525.95   29.40
  -3  -4  -2  578.94   29.70
  -3   4   2  503.05   29.80
   3   4  -2  537.55   29.20
   3  -4   2  511.55   29.20
  -3   4   2  524.25   30.60
  -3  -4  -2  488.35   28.50
  -3   4   2  548.15   30.00
   3  -4   2  551.44   30.10
   3   4  -2  555.34   29.00
  -3  -4  -2  500.85   29.20
   3  -5  -2  494.25   29.60
  -3  -5   2  519.35   30.00
   3  -5  -2  537.05   30.80
   3  -5  -2  529.45   29.20
  -3   5  -2  513.45   32.20
   3   5   2  542.45   29.40
   3   5   2  479.45   29.30
  -3  -5   2  543.35   31.40
   3   5   2  513.45   28.70
  -3   5  -2  547.25   29.80
  -3   5  -2  504.85   31.10
   3   5  -2  561.14   29.10
   3  -5   2  545.55   30.10
  -3  -5  -2  527.15   29.20
   3  -5   2  529.35   29.40
  -3   5   2  534.85   31.20
  -3  -5  -2  585.94   30.20
   3   5  -2  543.35   29.00
  -3  -5  -2  471.75   28.60
   3  -5   2  493.55   29.20
  -3  -5  -2  461.85   29.40
  -3   5   2  514.75   30.10
  -3   5   2  531.55   30.10
  -3   6  -2  215.68   16.70
  -3   6  -2  181.58   13.40
   3   6   2  188.78   12.20
  -3  -6   2  180.68   13.70
  -3  -6   2  183.68   15.80
  -3   6  -2  180.98   14.90
   3  -6  -2  179.58   12.30
   3  -6  -2  205.18   15.50
   3  -6  -2  195.48   12.60
   3   6   2  187.98   13.70
   3  -6  -2  220.18   13.60
   3   6   2  186.58   13.10
  -3   6   2  190.78   14.30
   3  -6   2  175.68   12.50
  -3   6   2  168.38   14.10
   3   6  -2  202.78   12.40
   3  -6   2  190.28   12.90
  -3  -6  -2  170.28   12.00
  -3  -6  -2  194.68   12.80
   3   6  -2  213.88   12.60
  -3  -6  -2  180.48   13.10
  -3   6   2  188.98   15.90
   3  -6   2  195.58   13.90
   3  -7  -2  148.89   11.50
   3  -7  -2  137.79   11.20
   3   7   2  146.19   13.20
   3   7   2  147.39   11.80
  -3   7  -2  172.98   14.60
  -3  -7   2  123.99   13.00
   3   7   2  152.08   14.10
  -3  -7   2  141.89   14.80
   3  -7  -2  187.48   13.40
  -3   7  -2  162.88   16.10
  -3   7  -2  145.79   17.80
  -3   7   2  142.49   15.00
   3   7  -2  180.78   11.50
   3  -7   2  144.99   12.20
  -3  -7  -2  148.69   12.30
  -3   7   2  142.49   16.80
   3  -7   2  171.68   13.30
   3  -7   2  135.29   11.50
  -3  -7  -2  124.59   11.50
   3   7  -2  167.58   12.10
  -3   7   2  164.08   14.10
  -3  -7  -2  154.38   11.90
   3   8   2   44.70   10.30
   3  -8  -2   59.09    8.30
  -3   8  -2   46.90   13.30
   3  -8  -2   63.29   10.20
  -3   8  -2   62.69    9.20
   3  -8  -2   46.70    7.90
   3   8   2   62.79   10.00
   3   8   2   52.49    8.40
  -3   8  -2   55.79   14.20
  -3  -8  -2   46.20    7.90
   3   8  -2   46.40   10.70
   3  -8   2   53.69   11.20
  -3   8   2   83.29   14.30
  -3   8   2   66.59   10.50
  -3  -8  -2   60.99    8.00
  -3   8   2   66.79   11.80
   3   8  -2   63.59    8.20
  -3   9  -2   20.50   10.10
  -3  -9   2    7.40    8.20
   3   9   2   18.10   11.70
  -3   9  -2   22.60   18.60
   3   9   2   23.70   15.40
   3   9   2   46.90   10.60
   3  -9  -2   28.50    7.50
   3   9  -2   24.60   13.60
   3  -9   2   23.70    6.50
   3   9  -2   22.60   13.00
  -3   9   2   60.59   12.90
  -3   9   2   50.39   16.30
   3   9  -2   35.80    9.80
  -3  -9  -2   21.10    8.20
   4   0   2 3640.14  216.48
  -4   0  -2 4246.77  217.08
  -4   0   2 3916.01  216.38
  -4   0  -2 4180.08  216.18
   4   0   2 4026.30  216.78
  -4   0  -2 4074.09  216.58
  -4   0   2 4068.39  216.38
  -4   0  -2 4237.18  216.48
   4   0  -2 4176.08  216.78
   4   0   2 4370.26  217.08
   4   0  -2 4072.29  216.58
  -4   0   2 4129.89  216.28
  -4   0  -2 3902.21  216.38
   4   0   2 4134.19  216.38
   4   0  -2 4131.99  216.48
  -4   1  -2  836.22   43.80
   4  -1  -2  804.82   44.10
  -4  -1   2  792.52   44.90
  -4  -1   2  801.62   43.70
   4  -1  -2  785.72   44.10
   4   1   2  861.91   44.30
   4   1   2  822.02   44.00
  -4  -1   2  820.72   44.00
  -4   1  -2  806.72   43.70
   4   1   2  787.42   44.20
   4  -1  -2  809.62   44.50
  -4   1  -2  820.62   44.00
   4   1   2  830.52   43.90
  -4   1  -2  789.82   44.30
  -4   1  -2  826.12   44.80
  -4  -1  -2  794.82   44.10
  -4  -1  -2  804.22   44.00
   4   1  -2  806.02   43.70
  -4   1   2  770.22   43.80
   4   1  -2  818.12   43.70
   4   1  -2  752.52   43.90
   4  -1   2  818.82   43.60
  -4  -1  -2  861.31   44.20
  -4   1   2  859.01   44.40
  -4  -1  -2  897.91   44.10
   4  -1   2  864.71   44.70
   4   1  -2  844.22   43.70
   4  -1   2  739.93   44.30
  -4  -1  -2  791.52   43.70
  -4  -1  -2  801.12   44.00
  -4   1   2  833.22   44.20
   4  -1   2  829.02   44.10
  -4  -2   2 3170.28  159.98
  -4   2  -2 2882.81  160.28
   4   2   2 2938.81  159.68
  -4   2  -2 3037.80  160.78
  -4  -2   2 3201.08  160.98
   4   2   2 3040.80  159.58
   4  -2  -2 3039.90  160.58
  -4   2  -2 3033.30  159.78
  -4   2  -2 3030.50  159.68
   4   2   2 2946.31  160.08
  -4   2  -2 2998.60  159.28
   4   2   2 2941.61  159.78
   4  -2  -2 2899.01  159.78
  -4   2   2 3037.10  160.18
   4  -2   2 3209.58  160.58
   4  -2   2 3057.89  159.48
   4  -2   2 3130.19  160.28
  -4   2   2 2997.80  159.68
  -4  -2  -2 2926.61  159.78
  -4  -2  -2 2926.11  159.78
  -4   2   2 3029.50  160.38
   4   2  -2 2889.91  159.78
  -4  -2  -2 2856.91  159.88
   4   2  -2 2975.90  159.68
   4  -3  -2  525.95   28.70
  -4   3  -2  513.25   29.00
  -4  -3   2  543.95   29.90
  -4   3  -2  533.55   28.40
  -4   3  -2  497.15   29.60
  -4   3  -2  534.15   28.50
   4  -3  -2  497.15   28.20
   4   3   2  521.75   27.90
  -4  -3   2  513.65   28.60
   4   3   2  466.25   28.20
   4   3   2  520.35   28.80
   4   3   2  515.35   28.10
   4  -3  -2  546.25   29.50
  -4   3   2  518.65   28.90
  -4  -3  -2  490.65   28.30
  -4   3   2  520.25   29.40
  -4  -3  -2  472.75   28.20
  -4   3   2  503.75   28.90
   4  -3   2  530.15   28.80
  -4  -3  -2  439.36   29.50
   4   3  -2  503.25   28.50
   4   3  -2  503.05   28.20
   4   3  -2  525.55   28.00
   4  -3   2  505.95   28.00
   4  -3   2  520.35   29.10
  -4   4  -2 1265.67   72.39
  -4  -4   2 1302.17   71.99
   4   4   2 1475.85   72.39
  -4   4  -2 1251.37   72.99
   4   4   2 1227.88   71.59
   4   4   2 1264.97   71.19
  -4   4  -2 1347.17   71.89
   4  -4  -2 1321.37   72.79
   4  -4  -2 1292.07   71.49
   4  -4  -2 1294.17   71.89
  -4  -4   2 1378.16   73.19
  -4   4  -2 1321.17   71.79
   4   4  -2 1308.37   71.89
   4   4  -2 1351.76   71.19
  -4  -4  -2 1312.87   71.79
  -4   4   2 1345.97   72.89
   4   4  -2 1421.56   71.59
   4  -4   2 1395.56   72.49
   4  -4   2 1338.77   71.89
  -4   4   2 1279.57   72.29
   4  -4   2 1287.77   71.39
  -4   4   2 1350.26   72.29
  -4  -4  -2 1276.37   71.59
  -4  -4  -2 1505.65   72.19
   4   5   2  205.88   13.20
   4   5   2  234.18   14.80
  -4   5  -2  214.48   13.90
  -4   5  -2  213.48   13.90
   4   5   2  173.18   13.50
   4   5   2  203.38   12.20
   4  -5  -2  209.48   13.90
  -4  -5   2  197.68   15.30
  -4  -5   2  205.28   14.10
   4  -5  -2  199.88   13.00
  -4   5  -2  182.38   15.80
  -4   5  -2  203.08   15.10
   4  -5  -2  217.68   16.00
  -4  -5  -2  204.78   13.30
   4   5  -2  217.48   12.70
   4  -5   2  205.48   13.10
  -4   5   2  210.68   16.00
   4   5  -2  218.78   13.10
  -4  -5  -2  232.18   14.40
  -4   5   2  199.08   14.60
   4  -5   2  224.68   14.80
   4  -5   2  211.68   13.80
  -4   5   2  211.68   14.60
  -4  -5  -2  204.38   13.70
   4  -6  -2  408.36   25.40
  -4   6  -2  371.76   24.80
   4   6   2  433.26   24.80
  -4   6  -2  403.56   23.80
  -4  -6   2  369.76   25.20
   4   6   2  385.06   22.00
   4   6   2  324.87   22.80
   4   6   2  373.96   23.00
  -4   6  -2  408.86   23.60
  -4  -6   2  354.76   23.70
   4  -6  -2  409.46   23.60
   4  -6  -2  364.06   22.50
  -4   6  -2  363.46   26.40
   4  -6   2  394.26   24.30
   4  -6   2  392.56   23.10
  -4   6   2  423.86   24.60
  -4   6   2  371.46   24.30
  -4   6   2  390.76   26.10
  -4  -6  -2  420.66   24.30
  -4  -6  -2  391.76   23.40
   4  -6   2  354.26   22.60
   4   6  -2  430.46   22.50
  -4  -6  -2  388.96   23.10
   4   7   2   61.19    9.70
  -4  -7   2   55.29    8.40
   4   7   2   62.49    6.90
   4  -7  -2   61.69   10.60
   4   7   2   66.99    9.70
  -4   7  -2   58.99   12.30
  -4  -7   2   59.59   11.60
   4  -7  -2   65.49   10.40
   4   7   2   53.69    8.00
   4  -7  -2   52.99    8.20
  -4   7  -2   53.19   10.40
  -4   7  -2   71.39   10.60
   4  -7  -2   51.29    7.30
   4  -7   2   59.29    9.10
   4   7  -2   52.49    6.90
  -4  -7  -2   65.99    9.20
   4  -7   2   67.69    9.90
  -4  -7  -2   60.69    9.20
  -4   7   2   69.19   12.30
   4  -7   2   53.19    8.40
  -4   7   2   64.09   10.10
   4   7  -2   60.99    8.60
  -4   7   2   82.29   11.90
  -4   8  -2   93.99   17.00
   4   8   2   81.09   11.90
   4  -8  -2   89.99   14.40
   4  -8  -2   87.99    9.60
   4   8   2   78.39   11.40
  -4  -8   2   90.49   14.80
  -4   8  -2   78.89   10.70
   4  -8  -2  108.39   14.20
  -4  -8   2   89.69   12.00
  -4   8  -2   73.49   14.70
   4   8   2   79.69    9.60
   4   8   2   67.49   10.70
   4  -8   2   75.19   10.30
  -4   8   2  128.79   15.80
  -4   8   2  105.29   15.10
  -4  -8  -2   95.29   12.40
   4   8  -2   87.29   12.00
   4   9   2   19.10   10.10
   4  -9  -2    5.90    7.30
  -4  -9   2    9.60    8.60
   4  -9  -2   19.80   12.70
  -4   9  -2    8.40   10.50
  -4   9  -2   -8.30   19.30
   4   9   2   16.40   11.80
   4   9   2   12.90   12.40
  -4   9   2   35.50   12.40
   4   9  -2   -4.20   12.20
  -4  -9  -2    7.80    7.80
  -4   9   2    9.60   16.00
   4   9  -2   11.80    9.40
   4  -9   2   18.20    7.60
   5   0  -2  463.25   24.80
   5   0  -2  447.26   24.50
  -5   0  -2  458.85   24.70
   5   0   2  429.16   24.10
  -5   0  -2  460.65   24.70
   5   0  -2  446.06   25.20
   5   0   2  437.46   25.30
  -5   0  -2  450.55   24.90
  -5   0   2  413.36   24.60
   5   0   2  413.86   25.20
   5   0   2  471.85   24.60
   5   0   2  450.85   24.90
  -5   0  -2  468.95   24.50
   5   0  -2  424.16   24.80
  -5   0   2  444.46   24.50
  -5   0   2  440.16   24.60
  -5   0  -2  472.05   25.50
   5  -1  -2  740.33   41.40
  -5  -1   2  718.53   40.40
  -5   1  -2  743.93   40.40
  -5   1  -2  686.13   40.90
   5   1   2  741.33   40.90
  -5  -1   2  764.32   40.80
  -5   1  -2  733.43   40.50
  -5  -1   2  744.53   41.80
   5  -1  -2  730.93   40.50
   5   1   2  731.03   40.80
   5   1   2  800.32   41.10
  -5   1  -2  781.32   41.70
  -5   1  -2  770.32   40.80
   5  -1  -2  809.42   40.90
   5   1   2  759.02   40.60
   5  -1  -2  720.33   40.80
  -5   1   2  722.93   40.50
  -5   1   2  717.13   41.00
   5   1  -2  753.12   40.40
   5  -1   2  734.63   40.80
   5   1  -2  731.53   40.70
   5  -1   2  691.03   41.20
   5  -1   2  780.22   41.50
   5  -1   2  784.02   40.30
  -5   1   2  768.12   41.10
   5   1  -2  745.03   40.50
  -5  -1  -2  747.93   40.30
  -5  -1  -2  738.53   40.70
   5  -1   2  732.83   40.30
  -5  -1  -2  784.92   41.00
  -5  -1  -2  809.22   41.00
  -5  -1  -2  730.23   40.90
   5   1  -2  760.32   40.60
  -5  -2   2  357.46   23.10
  -5   2  -2  395.16   22.10
   5   2   2  425.36   22.00
  -5   2  -2  404.26   23.40
   5  -2  -2  395.96   23.10
  -5   2  -2  409.36   21.50
   5   2   2  373.96   22.40
  -5  -2   2  392.96   22.20
   5   2   2  412.56   21.90
  -5   2  -2  404.06   22.00
   5   2   2  398.56   22.10
   5  -2  -2  381.56   22.00
   5  -2  -2  420.26   22.30
  -5   2  -2  375.06   22.70
   5  -2  -2  397.66   21.60
   5   2  -2  374.96   22.00
  -5  -2  -2  389.16   22.10
   5  -2   2  392.26   22.90
  -5  -2  -2  335.27   22.00
   5  -2   2  382.86   22.10
   5  -2   2  397.66   21.60
   5   2  -2  414.36   21.90
  -5   2   2  380.76   21.90
  -5   2   2  382.76   22.90
   5  -2   2  403.76   22.70
  -5  -2  -2  348.27   22.10
  -5   2   2  396.06   22.60
  -5   3  -2  527.15   30.00
  -5  -3   2  501.55   29.50
   5  -3  -2  507.55   28.40
   5   3   2  510.05   29.80
  -5  -3   2  572.04   31.00
  -5   3  -2  535.25   29.30
  -5   3  -2  524.65   29.40
  -5   3  -2  515.45   30.70
   5   3   2  487.75   29.00
   5   3   2  543.05   29.10
   5   3   2  527.55   28.80
   5  -3  -2  514.05   29.10
   5  -3  -2  555.34   30.60
   5  -3  -2  520.25   29.60
  -5   3   2  511.75   29.90
   5   3  -2  512.95   29.40
   5  -3   2  527.85   28.80
  -5  -3  -2  498.15   29.20
   5  -3   2  541.55   30.20
   5  -3   2  552.94   29.90
  -5   3   2  537.35   30.50
  -5  -3  -2  529.85   29.40
  -5   3   2  515.65   29.30
  -5   3   2  509.05   29.90
  -5   4  -2  202.48   14.60
  -5  -4   2  233.08   15.80
  -5   4  -2  203.48   16.00
   5  -4  -2  205.88   13.40
   5   4   2  237.78   14.90
  -5  -4   2  223.78   14.40
  -5   4  -2  221.88   14.10
   5   4   2  197.18   13.50
   5  -4  -2  229.18   14.30
   5   4   2  214.98   13.20
   5  -4  -2  190.68   20.50
  -5   4  -2  228.58   14.10
   5   4   2  228.28   13.40
   5   4  -2  233.58   13.70
   5   4  -2  205.38   14.40
   5  -4   2  232.08   15.10
   5  -4   2  199.58   13.20
  -5   4   2  227.28   14.90
   5   4  -2  220.48   12.90
   5  -4   2  218.98   14.30
  -5   4   2  209.38   15.60
  -5   4   2  200.48   14.90
  -5  -4  -2  219.58   13.80
  -5  -4  -2  257.57   14.40
  -5  -4  -2  213.18   13.90
  -5   5  -2  279.97   17.70
  -5   5  -2  282.87   18.70
  -5   5  -2  276.67   17.50
   5  -5  -2  286.87   19.70
   5   5   2  262.77   17.30
   5  -5  -2  275.97   16.70
  -5  -5   2  268.97   18.00
  -5  -5   2  277.67   19.50
   5  -5  -2  275.67   17.60
  -5   5  -2  278.77   20.20
   5   5   2  285.27   16.50
   5   5   2  292.67   18.80
  -5   5   2  274.57   18.40
  -5   5   2  269.07   19.70
   5   5  -2  297.77   18.40
  -5   5   2  259.57   18.50
   5  -5   2  260.47   20.30
   5  -5   2  262.37   16.60
  -5  -5  -2  302.37   18.30
   5   5  -2  284.17   16.20
  -5  -5  -2  270.37   17.10
  -5  -5  -2  263.17   17.30
   5   5  -2  286.07   16.90
  -5  -6   2   69.69   11.40
   5   6   2   65.69    9.20
  -5   6  -2   82.79   10.00
   5   6   2   94.19   12.40
  -5   6  -2   80.99    9.20
  -5   6  -2   72.39   11.20
   5   6   2   81.69    8.70
   5  -6  -2   74.49    7.90
   5  -6  -2   93.59    9.90
  -5   6  -2   64.69    9.40
  -5  -6   2   65.29    9.50
   5  -6  -2   85.39   13.40
   5  -6   2   69.09    9.40
  -5  -6  -2   84.99    9.30
   5   6  -2   79.79    8.30
  -5   6   2   66.09    9.50
   5  -6   2   87.49   11.60
   5   6  -2   80.09    7.60
  -5  -6  -2   84.79    9.30
  -5  -6  -2   82.99   10.30
   5   6  -2   98.79   11.60
  -5   6   2   67.69   10.50
   5  -6   2   59.79    7.60
  -5   6   2   83.09   10.60
  -5  -7   2  108.69   12.30
   5   7   2  142.29   15.30
   5  -7  -2  119.89   17.50
   5   7   2   98.89   12.30
   5  -7  -2  109.89    9.70
  -5   7  -2  100.79   12.40
   5   7   2  107.59   12.10
   5   7   2  104.39    9.70
  -5   7  -2  120.99   15.60
  -5   7  -2  105.09   12.20
  -5   7  -2  130.09   16.60
   5  -7  -2  101.29   10.40
  -5  -7   2   97.79   14.80
   5  -7  -2  125.49   13.00
  -5   7   2  125.59   13.80
  -5   7   2  138.39   15.50
   5   7  -2  125.29   14.60
   5  -7   2  118.49   12.10
   5   7  -2  122.59   10.60
   5   7  -2  105.39   10.80
  -5  -7  -2  116.59   11.80
  -5  -7  -2  106.89   11.50
  -5   7   2  106.39   14.20
   5  -7   2   94.79   14.70
   5  -7   2   90.49   10.30
  -5   8  -2   19.10    7.90
  -5   8  -2    2.50   14.30
   5   8   2   18.00    8.60
   5   8   2   24.40    7.00
   5  -8  -2   26.90   10.50
   5  -8  -2   12.20    6.30
  -5  -8   2   14.90   10.90
   5   8   2   41.30   10.70
   5   8   2   15.60    8.80
  -5  -8   2   18.70    7.90
   5  -8  -2   37.10   13.40
   5   8  -2   20.80    7.30
   5   8  -2   20.40    7.80
  -5  -8  -2   25.50   11.60
   5  -8   2   11.60   10.50
   5   8  -2   29.10   10.60
  -5  -8  -2    6.20    7.50
   5  -8   2   30.50    8.80
  -5   8   2   26.20   13.20
  -5   8   2   48.10   10.30
   5  -8   2   14.90    6.70
   5  -9  -2   26.50    6.70
  -5  -9   2   25.40    9.60
  -5   9  -2   58.49   11.80
  -5   9  -2   21.10   20.80
   5  -9  -2   63.89   14.00
   5   9   2   45.40   14.20
   5   9   2   42.80   12.50
   5   9   2   47.90   11.80
  -5   9   2   38.40   18.50
   5   9  -2   69.89   15.30
  -5  -9  -2   21.10    9.20
   5   9  -2   24.70   10.10
   5  -9   2   25.90    8.10
   6   0   2  997.40   51.69
  -6   0  -2  979.90   52.59
  -6   0  -2 1002.00   52.19
  -6   0  -2 1002.10   53.19
  -6   0   2  934.01   52.19
   6   0   2  950.30   52.89
   6   0   2 1025.20   53.09
   6   0   2  938.21   52.49
   6   0  -2  976.20   52.49
  -6   0   2  979.40   52.19
   6   0  -2  950.90   52.09
   6   0  -2  971.50   52.99
  -6   0  -2  925.71   52.19
  -6   0   2  949.11   52.19
   6   0  -2  982.10   52.39
  -6   0  -2  977.50   52.39
   6   0  -2  905.01   52.49
   6   0   2  988.90   52.19
  -6  -1   2  192.68   11.20
   6  -1  -2  190.28   12.50
   6  -1  -2  178.48   11.40
  -6   1  -2  181.28   11.90
  -6  -1   2  185.98   12.80
  -6   1  -2  188.18   11.20
   6   1   2  181.08   12.00
  -6   1  -2  184.18   11.50
  -6   1  -2  182.88   11.30
   6   1   2  192.98   11.80
   6   1   2  181.98   10.20
  -6  -1   2  195.18   11.80
   6  -1  -2  179.68   11.10
  -6   1  -2  194.48   12.90
   6  -1  -2  178.28   11.70
   6   1   2  194.58   11.90
   6   1   2  175.88   11.10
  -6   1   2  194.88   11.80
  -6  -1  -2  196.08   11.50
   6   1  -2  194.48   11.70
   6   1  -2  196.18   11.10
   6  -1   2  188.48   10.90
  -6  -1  -2  183.48   11.80
   6   1  -2  184.48   11.40
  -6  -1  -2  180.18   11.60
   6  -1   2  187.38   12.50
   6   1  -2  177.48   11.40
  -6  -1  -2  176.68   10.90
  -6   1   2  184.98   11.20
   6  -1   2  181.78   10.70
   6  -1   2  183.28   11.80
   6  -1   2  177.18   12.30
  -6   1   2  175.28   12.00
  -6  -1  -2  169.18   12.70
   6  -2  -2  762.52   41.00
   6  -2  -2  736.43   40.60
   6   2   2  742.93   41.10
   6  -2  -2  732.73   40.20
  -6  -2   2  699.93   42.00
   6   2   2  734.23   40.80
  -6   2  -2  752.52   40.70
  -6   2  -2  759.42   41.30
   6   2   2  776.92   40.60
  -6   2  -2  734.63   40.70
  -6  -2   2  713.93   40.90
  -6   2  -2  785.82   40.20
   6   2   2  698.23   40.60
  -6  -2   2  670.33   40.20
   6  -2  -2  777.12   41.90
   6   2  -2  752.22   40.70
  -6   2   2  725.03   41.30
  -6  -2  -2  729.73   40.80
   6  -2   2  757.72   41.70
   6  -2   2  744.43   41.40
   6   2  -2  796.12   40.50
  -6  -2  -2  666.73   40.80
  -6   2   2  723.83   40.60
  -6   2   2  783.22   41.70
   6  -2   2  766.82   40.20
  -6  -2  -2  720.93   40.80
  -6  -2  -2  830.42   41.20
   6  -2   2  707.03   40.70
   6  -3  -2   73.99    5.60
  -6   3  -2   68.69    9.20
   6   3   2   78.09    6.70
   6   3   2   79.79    6.90
  -6  -3   2   76.59    7.50
   6   3   2   74.89    8.00
  -6   3  -2   77.39    6.90
   6  -3  -2   65.09   10.60
   6   3   2   79.49    6.30
   6  -3  -2   69.79    6.80
  -6  -3   2   77.09    8.90
  -6  -3  -2   78.19    7.30
  -6   3   2   67.49    9.00
   6  -3   2   81.59    8.40
  -6  -3  -2   79.59    6.90
  -6  -3  -2  100.09    8.10
   6   3  -2   79.99    6.70
  -6   3   2   78.99    7.10
   6  -3   2   71.59    8.10
   6  -3   2   82.09    6.10
  -6   3   2   76.19    8.10
   6   3  -2   78.29    7.20
  -6   4  -2  353.16   20.80
   6  -4  -2  331.57   20.10
  -6   4  -2  325.57   22.80
   6  -4  -2  353.76   22.40
  -6  -4   2  378.36   22.80
  -6   4  -2  328.77   21.60
  -6   4  -2  341.57   20.80
   6   4   2  346.37   21.80
   6   4   2  365.06   20.20
  -6  -4   2  331.57   21.10
   6  -4  -2  343.17   21.10
   6   4   2  300.17   20.00
   6   4   2  346.57   20.00
   6   4  -2  350.36   20.30
  -6  -4  -2  401.16   21.40
  -6   4   2  341.17   22.40
   6  -4   2  350.96   21.10
   6   4  -2  335.37   21.00
  -6   4   2  309.07   21.50
   6  -4   2  376.06   22.20
   6  -4   2  344.87   19.90
   6   4  -2  346.77   19.50
  -6   4   2  358.66   21.70
  -6  -4  -2  317.97   20.50
  -6  -4  -2  348.17   20.70
  -6   4   2  339.97   20.70
   6   5   2   16.40    4.10
  -6   5  -2    9.00    3.90
   6   5   2   14.70    5.70
   6  -5  -2    6.80    3.30
   6  -5  -2   11.30    4.80
  -6   5  -2   -0.30    4.20
  -6   5  -2   12.10    5.50
  -6  -5   2   16.80    7.10
  -6  -5   2   24.40    6.10
   6   5   2    7.10    4.30
  -6   5  -2    2.40    7.10
   6  -5  -2   11.50    6.70
   6  -5   2    7.00    3.30
  -6  -5  -2    9.20    4.30
   6  -5   2    2.50    5.60
  -6  -5  -2   15.40    5.00
  -6   5   2   18.10    6.60
   6   5  -2    6.70    5.30
   6   5  -2   15.60    4.10
  -6   5   2    2.30    7.00
   6   5  -2   12.00    3.00
  -6  -5  -2   17.30    6.40
  -6   5   2    6.30    4.20
  -6   5   2   12.50    5.20
   6   6   2   89.89    9.40
  -6  -6   2  110.99   12.10
  -6   6  -2   85.49   10.30
  -6   6  -2   91.39   10.90
   6  -6  -2  114.99   15.50
  -6   6  -2   83.69   13.10
   6   6   2   88.39   10.70
   6  -6  -2   97.59   11.30
  -6  -6   2   79.09   10.90
   6   6   2  103.19   15.90
   6  -6  -2   82.89    8.60
  -6   6   2  129.99   13.10
   6   6  -2  102.89   13.10
  -6  -6  -2  114.29   12.10
  -6  -6  -2   92.19   10.70
   6   6  -2  111.59    9.60
   6  -6   2   96.59    9.20
  -6   6   2   97.19   12.90
   6  -6   2  110.09   13.50
   6   6  -2  103.19    8.60
  -6  -6  -2   92.89   10.10
   6  -6   2  121.59   11.60
  -6   6   2   90.89   13.10
   6  -7  -2    6.20    5.20
  -6   7  -2    1.90    8.90
   6  -7  -2  -13.50    6.80
   6   7   2   -4.70    6.70
   6  -7  -2  -18.80   11.00
  -6   7  -2    8.30    7.40
  -6   7  -2    0.60   11.60
  -6  -7   2   -0.20    9.50
  -6  -7   2    6.00    6.50
   6   7   2   -7.20    8.30
  -6   7  -2    5.90    9.40
  -6  -7  -2    4.40   10.50
  -6  -7  -2    1.10    6.00
  -6  -7  -2    0.10    8.10
  -6   7   2    5.00   10.30
   6   7  -2    3.20    4.90
   6  -7   2    3.60    7.20
   6   7  -2   -6.00    5.70
   6  -7   2   -5.20    8.80
  -6   7   2   15.10    7.60
  -6   7   2    7.50   12.20
  -6  -8   2   12.20    8.60
   6   8   2   25.30   11.60
   6   8   2    2.20    8.20
   6  -8  -2   24.50   10.20
  -6  -8   2   20.00   21.80
   6   8   2   17.10    9.40
  -6   8  -2   -8.00   16.20
  -6   8  -2   32.40    9.00
   6  -8  -2   17.00    6.80
   6  -8  -2   47.40   15.70
   6   8  -2   18.90    7.70
   6   8  -2   24.50    8.60
   6   8  -2   -0.40   10.90
   6  -8   2   23.00   11.90
  -6  -8  -2   14.80    8.70
  -6   8   2   41.60   10.70
  -6  -8  -2   11.60    8.30
   6  -8   2   12.90   12.40
  -6   8   2   16.60   13.90
   6  -9  -2    5.90    7.00
   6   9   2  -22.90   13.80
  -6   9  -2   31.10   21.80
  -6  -9   2    0.40    9.00
   6  -9  -2    1.10   13.40
  -6   9  -2   16.10   12.80
   6   9   2  -12.40   19.10
  -6  -9   2   26.30   14.30
   6  -9   2    1.00    6.50
  -6   9   2   31.80   19.50
  -6  -9  -2    0.20    8.90
   6   9  -2   -8.50   14.40
  -6   9   2   24.80   15.90
   6  -9   2   24.50   14.30
   6   9  -2   -1.10    9.80
   7   0  -2   21.00    3.10
  -7   0   2   23.00    3.50
   7   0   2   12.80    4.10
   7   0   2   17.80    2.80
  -7   0  -2   21.60    4.70
  -7   0  -2   20.50    3.60
  -7   0   2   17.80    3.50
  -7   0   2   19.00    3.10
   7   0  -2   22.80    4.40
   7   0  -2   14.10    3.10
  -7   0  -2   19.70    3.40
   7   0   2   18.40    2.70
   7   0   2   17.90    3.50
   7   0  -2   23.20    3.80
  -7   0  -2   22.60    3.30
   7   0   2   25.50    4.40
   7   0  -2   20.90    3.30
   7   1   2  171.48    9.50
  -7   1  -2  163.38   11.20
  -7  -1   2  163.18   10.70
  -7   1  -2  174.78   11.00
   7  -1  -2  180.38   11.40
   7   1   2  165.88   10.50
   7  -1  -2  169.38   12.10
   7  -1  -2  160.08   10.70
  -7   1  -2  159.98   12.40
  -7  -1   2  165.58   12.40
   7  -1  -2  166.68   10.50
  -7   1  -2  174.78   11.00
  -7   1  -2  169.48   10.70
   7   1   2  162.98   11.20
   7   1   2  170.38   11.60
   7   1   2  169.08   11.60
   7  -1   2  166.28   10.20
  -7  -1  -2  164.18   11.10
  -7  -1  -2  173.98   11.70
   7   1  -2  166.58   10.70
   7  -1   2  176.38   12.10
  -7  -1  -2  158.08   10.90
  -7  -1  -2  165.28   10.30
   7  -1   2  170.58   12.40
   7   1  -2  164.38   10.60
   7   1  -2  171.58   11.00
   7  -1   2  168.18   11.30
  -7   1   2  157.08   11.20
  -7   1   2  167.18   10.60
   7   1  -2  172.28   12.90
  -7  -1  -2  167.78   11.50
  -7   1   2  176.38   11.70
   7  -1   2  171.68   10.10
  -7  -2   2   18.60    6.30
   7  -2  -2   17.20    6.30
   7  -2  -2   11.80    3.60
  -7   2  -2   18.10    5.60
  -7  -2   2   12.20    4.30
   7  -2  -2   18.10    3.10
  -7   2  -2    6.60    4.10
   7   2   2   13.20    4.00
   7   2   2   17.70    3.90
   7   2   2   15.10    3.60
  -7  -2   2   14.20    3.00
   7  -2  -2   12.50    2.80
  -7   2  -2   18.40    3.10
  -7   2  -2   17.10    3.60
   7   2  -2   12.40    3.40
   7   2  -2   16.50    3.60
   7  -2   2   15.90    4.30
  -7  -2  -2   18.60    4.70
  -7   2   2   19.40    4.50
   7   2  -2   22.00    3.40
  -7  -2  -2   14.40    3.30
  -7   2   2   13.70    4.40
   7  -2   2   16.80    3.70
  -7   2   2   17.80    3.40
   7  -2   2   16.30    2.60
  -7  -2  -2   19.80    4.50
  -7  -2  -2   19.30    4.00
   7   3   2  118.69   10.80
   7  -3  -2  138.79    9.30
   7  -3  -2  144.29   12.20
  -7  -3   2  134.59   11.70
   7   3   2  134.39    9.20
  -7   3  -2  139.79   10.20
  -7   3  -2  126.79   12.50
   7   3   2  106.29    9.90
   7   3   2  131.89    9.80
  -7   3  -2  119.59   11.10
  -7  -3   2  135.89   10.90
  -7   3  -2  130.89   10.10
   7  -3  -2  122.79    8.60
   7  -3   2  130.39    8.90
  -7  -3  -2  160.38   10.80
  -7  -3  -2  137.29   10.00
   7  -3   2  133.09   11.10
   7   3  -2  147.09    9.50
  -7   3   2  134.49   11.50
   7   3  -2  144.19   10.30
   7  -3   2  158.88   11.90
  -7   3   2  140.79   12.10
  -7  -3  -2  118.39   10.20
   7   4   2    9.50    5.20
  -7  -4   2   17.20    5.30
   7   4   2    9.80    3.20
   7  -4  -2    6.50    5.70
  -7  -4   2   15.90    7.40
  -7   4  -2    8.00    6.90
  -7   4  -2   11.30    4.40
  -7   4  -2    4.80    4.70
   7  -4  -2    7.40    3.00
   7   4   2   11.70    3.90
   7  -4  -2    4.00    4.60
   7  -4  -2    5.70    2.40
  -7   4  -2    0.20    4.70
   7   4   2   12.30    4.30
   7   4  -2   10.00    4.50
  -7   4   2    4.90    5.20
  -7   4   2    8.90    3.90
   7  -4   2    9.40    4.60
  -7  -4  -2   12.90    5.70
  -7  -4  -2    6.60    4.90
   7  -4   2    6.30    2.70
   7   4  -2    8.60    2.60
  -7   4   2    6.80    6.10
   7  -4   2   10.50    5.40
  -7  -4  -2   11.70    4.40
   7   4  -2    3.60    3.10
  -7   5  -2   80.39   11.70
  -7  -5   2   90.69   10.60
   7   5   2   81.09   12.20
  -7   5  -2   87.69   11.40
   7  -5  -2   89.79    9.90
  -7  -5   2   84.89   11.30
   7   5   2   59.19    8.70
  -7   5  -2   81.39    9.70
   7  -5  -2   81.09   10.90
  -7   5  -2   68.89    9.70
   7  -5  -2   78.79    7.80
   7   5   2   72.79    8.90
  -7   5   2   74.69   11.70
   7  -5   2   89.09   10.20
  -7  -5  -2   89.99    9.70
  -7   5   2   85.39    9.80
   7   5  -2   83.89    6.90
  -7  -5  -2   86.59    9.90
  -7   5   2   87.69   11.30
   7   5  -2   79.19   11.10
   7  -5   2   75.89   11.50
  -7   5   2   73.29   10.70
   7   5  -2  101.29    8.40
  -7  -5  -2   76.29    9.40
   7  -5   2   63.39    7.20
  -7  -6   2    6.80    7.40
  -7  -6   2    1.80    6.30
  -7   6  -2    4.50    5.10
   7   6   2    3.50    5.40
   7  -6  -2    6.90    9.60
   7  -6  -2    4.40    6.50
   7  -6  -2    2.10    4.30
   7   6   2    3.40    7.70
  -7   6  -2   -5.60    7.40
  -7   6  -2   13.80    6.90
  -7   6  -2   -1.90    9.50
   7  -6   2    8.60    7.40
  -7  -6  -2    8.70    5.50
  -7   6   2   11.00    5.90
   7  -6   2   -1.60    8.00
  -7  -6  -2   12.70    9.60
  -7   6   2    6.90    7.10
   7   6  -2    6.80    3.80
   7  -6   2    1.80    3.90
  -7   6   2    0.80    8.20
   7   6  -2   12.00    7.70
  -7  -6  -2    9.10    8.40
  -7   6   2    2.60    8.40
   7   6  -2    8.70    4.60
   7   7   2   22.40    8.30
  -7  -7   2   33.60   11.20
  -7   7  -2   47.60    9.80
  -7  -7   2   29.40   10.00
  -7   7  -2   33.30   14.00
   7   7   2   70.79   12.20
   7  -7  -2   43.30    9.40
   7   7   2   35.70    7.70
   7  -7  -2   42.90   13.90
   7   7  -2   56.09   10.70
   7  -7   2   50.59    9.40
   7  -7   2   45.90   12.00
  -7   7   2   35.00   11.60
  -7   7   2   66.89   11.00
  -7  -7  -2   45.80   10.60
   7   7  -2   41.10    6.40
  -7  -7  -2   49.00    8.50
   7   7  -2   47.90    8.40
  -7  -8   2   -2.80   13.20
  -7  -8   2  -12.20    8.70
  -7   8  -2  -11.90   16.50
   7  -8  -2   19.30   20.20
   7  -8  -2    2.50   10.80
   7   8   2   24.70   12.20
   7   8   2   19.50   10.80
  -7   8  -2    5.70   10.90
  -7  -8  -2   -4.60    8.10
   7   8  -2   -0.90    7.40
   7   8  -2    2.00   12.00
  -7   8   2    0.70   14.90
   7  -8   2   -3.30   10.30
  -7   8   2   30.50   11.70
   7  -8   2  -24.90   14.20
   7   8  -2    4.40   11.70
  -8   0   2  714.33   39.60
   8   0   2  722.63   39.00
   8   0  -2  705.53   39.80
   8   0   2  699.83   40.10
   8   0  -2  719.13   39.70
   8   0  -2  786.62   40.40
   8   0   2  731.83   40.80
   8   0  -2  734.53   40.80
  -8   0  -2  640.04   40.70
  -8   0   2  723.93   39.80
   8   0  -2  728.33   39.90
  -8   0  -2  676.63   39.60
   8   0   2  736.83   39.60
  -8   0  -2  759.32   40.00
   8   0   2  724.43   40.80
  -8   0   2  720.23   39.60
  -8   0  -2  748.43   40.90
  -8   1  -2  502.85   28.50
   8   1   2  481.75   26.50
   8   1   2  460.15   27.50
   8  -1  -2  445.16   26.60
  -8   1  -2  484.45   27.10
  -8  -1   2  452.85   28.60
   8  -1  -2  475.75   26.50
  -8   1  -2  467.25   27.10
   8   1   2  488.35   27.20
  -8  -1   2  463.15   26.70
   8  -1  -2  500.85   27.40
   8   1   2  461.65   25.50
  -8   1  -2  427.16   27.00
   8   1   2  418.96   27.50
  -8   1  -2  491.45   26.70
  -8  -1  -2  459.95   26.20
  -8  -1  -2  445.36   27.10
   8  -1   2  488.65   26.30
   8   1  -2  479.15   26.50
   8  -1   2  490.45   26.00
  -8   1   2  487.15   26.70
  -8  -1  -2  475.85   27.00
   8  -1   2  478.15   27.20
   8  -1   2  478.35   28.10
   8  -1   2  451.75   28.10
   8   1  -2  477.85   26.90
  -8  -1  -2  496.95   27.70
   8   1  -2  435.96   26.60
   8   1  -2  488.35   27.40
  -8  -1  -2  482.55   27.20
   8   1  -2  462.35   26.80
  -8   1   2  459.85   27.10
  -8   1   2  486.25   27.40
  -8   2  -2  572.54   32.50
  -8  -2   2  539.55   34.00
   8  -2  -2  548.75   31.70
   8  -2  -2  594.64   32.70
  -8  -2   2  547.25   31.70
  -8   2  -2  581.64   34.10
   8   2   2  553.44   32.50
   8   2   2  577.34   31.90
  -8   2  -2  594.54   32.30
   8  -2  -2  570.24   31.50
  -8   2  -2  551.44   32.70
   8  -2  -2  545.25   33.70
   8   2   2  602.34   32.70
  -8   2  -2  584.34   31.60
  -8  -2   2  547.45   32.60
   8   2   2  588.24   32.60
   8   2  -2  547.95   32.10
   8  -2   2  553.34   32.30
   8  -2   2  569.84   33.20
   8   2  -2  548.05   31.80
   8  -2   2  571.04   33.50
  -8   2   2  500.55   32.80
  -8   2   2  575.14   33.20
  -8  -2  -2  578.24   32.30
  -8  -2  -2  643.34   33.10
  -8  -2  -2  534.75   32.20
   8   2  -2  591.24   31.80
  -8   2   2  576.64   32.50
   8  -2   2  570.34   31.40
   8   2  -2  590.94   32.20
   8  -3  -2  249.78   16.60
  -8   3  -2  248.88   16.70
  -8   3  -2  243.98   19.10
  -8  -3   2  238.88   18.10
   8  -3  -2  263.37   15.00
   8  -3  -2  251.17   15.50
   8   3   2  222.78   16.80
   8   3   2  254.27   16.20
  -8  -3   2  223.28   16.70
   8  -3  -2  240.58   18.20
  -8   3  -2  258.37   17.20
   8   3   2  265.17   15.60
   8   3   2  263.17   16.60
  -8   3  -2  266.57   16.30
  -8  -3  -2  250.07   16.40
   8   3  -2  248.48   15.80
   8  -3   2  249.68   15.20
  -8   3   2  258.87   16.20
  -8  -3  -2  242.38   16.50
  -8  -3  -2  232.78   16.10
   8   3  -2  271.57   16.20
  -8   3   2  261.87   18.30
  -8  -3  -2  290.37   17.20
   8  -3   2  246.08   17.40
   8  -3   2  262.17   18.00
  -8   3   2  236.98   17.30
   8   4   2  280.77   19.20
   8   4   2  235.38   17.70
  -8   4  -2  257.67   19.10
   8  -4  -2  282.87   20.50
  -8   4  -2  276.77   18.10
   8  -4  -2  273.47   18.60
  -8  -4   2  272.07   18.90
   8  -4  -2  269.47   16.80
   8  -4  -2  266.37   15.90
  -8  -4   2  285.87   20.00
   8   4   2  272.47   17.40
  -8   4  -2  272.17   21.10
  -8   4  -2  278.27   18.70
   8   4   2  276.97   17.00
   8  -4   2  308.27   20.10
  -8   4   2  276.07   19.80
   8   4  -2  275.67   18.10
   8  -4   2  258.97   16.70
  -8  -4  -2  279.27   18.10
   8   4  -2  307.17   17.40
  -8  -4  -2  255.67   18.10
  -8   4   2  278.77   20.60
  -8  -4  -2  303.37   18.80
   8  -4   2  279.37   18.90
   8   4  -2  281.37   16.20
  -8   4   2  281.27   18.20
  -8   5  -2   68.69   10.50
   8   5   2   77.29    8.10
  -8   5  -2   79.09   10.80
  -8  -5   2   77.09   10.50
   8   5   2   89.89   11.00
   8  -5  -2   81.69   10.50
   8   5   2   69.39    9.90
   8   5   2   59.19    9.70
  -8   5  -2   71.89   10.30
   8  -5  -2   91.09   14.40
   8  -5  -2   85.69    8.10
  -8   5  -2   57.29   11.90
  -8  -5   2   78.09   11.70
   8   5  -2   85.29    8.80
  -8  -5  -2   60.19    8.50
   8   5  -2   81.89    6.90
   8   5  -2   73.99   11.60
  -8  -5  -2   88.39   10.70
   8  -5   2   62.89    9.70
  -8   5   2   73.29   11.00
  -8   5   2   64.49   10.10
   8  -5   2   60.19    7.70
  -8   5   2   68.99   11.00
  -8  -6   2   92.19   14.70
   8  -6  -2  105.19   13.10
  -8   6  -2   94.09   14.80
  -8   6  -2   64.89   11.90
   8   6   2  118.09   16.40
  -8   6  -2   78.29   10.80
   8   6   2   74.09   11.70
  -8   6  -2   96.89   13.90
  -8  -6   2   80.89   12.30
   8  -6  -2   88.29   10.20
   8  -6  -2   95.69   14.10
   8  -6   2  108.39   13.00
  -8   6   2  114.79   17.00
   8   6  -2  109.39    8.70
  -8  -6  -2   92.49   13.00
  -8   6   2   81.09   12.60
   8  -6   2   75.99    9.20
  -8  -6  -2   93.29   12.00
   8   6  -2  116.09   10.90
  -8   6   2   80.19   13.50
   8   6  -2  116.49   15.00
  -8  -6  -2   89.99   11.80
   8  -6   2   74.29   12.40
  -8   7  -2    9.40    8.60
  -8  -7   2   17.90   10.80
   8  -7  -2   21.70    9.00
   8   7   2    6.80   11.20
  -8  -7   2   11.90    9.50
   8   7   2    9.00    8.00
  -8   7  -2    3.70   13.50
  -8   7   2   16.40   12.30
  -8  -7  -2   17.50    8.10
   8   7  -2   16.30    5.70
  -8  -7  -2    5.50   10.00
   8   7  -2   13.10   10.60
   8  -7   2   16.80   13.50
   8   7  -2   17.10   10.10
   8  -7   2   11.80    9.30
  -8  -7  -2   18.50    7.80
  -8  -8   2   20.80   14.70
  -8  -8   2   18.10   10.20
  -8   8  -2   22.30   18.00
   8  -8  -2   12.60   12.40
   8   8   2   29.00   15.70
  -8   8  -2   36.00   12.40
   8   8  -2   16.40    8.40
  -8  -8  -2   18.60   12.70
  -8   8   2   58.69   18.20
   8  -8   2   16.60   12.10
  -8  -8  -2    1.90    9.00
   8   8  -2   16.70   14.10
  -9   0  -2  527.15   29.60
   9   0   2  521.95   28.20
   9   0   2  562.84   30.70
   9   0   2  529.35   28.90
  -9   0   2  507.85   28.90
  -9   0   2  503.65   29.20
   9   0   2  496.15   30.40
   9   0  -2  529.35   29.20
  -9   0  -2  537.15   30.60
   9   0  -2  532.25   29.20
   9   0   2  520.85   29.70
  -9   0   2  480.85   28.80
  -9   0  -2  497.55   29.10
   9   0  -2  446.06   31.60
  -9   0  -2  550.14   29.60
   9   0  -2  469.95   29.50
   9   0  -2  519.85   29.10
  -9  -1   2    2.00    3.30
  -9  -1   2    8.70    6.20
   9  -1  -2    3.60    3.90
   9   1   2    3.70    3.00
   9   1   2    3.70    2.00
  -9   1  -2    8.90    3.70
   9   1   2    5.70    4.70
  -9   1  -2    3.90    5.20
   9  -1  -2    9.40    3.00
   9  -1  -2    7.60    5.30
  -9   1  -2   15.60    4.20
   9   1   2    4.70    3.70
   9  -1  -2    7.00    2.80
   9   1   2    7.40    4.60
   9  -1   2   12.80    4.60
   9  -1   2    8.80    2.40
   9  -1   2    7.90    4.20
  -9  -1  -2    6.20    4.50
   9   1  -2    5.50    3.20
  -9  -1  -2   10.80    4.00
   9   1  -2   11.20    2.90
  -9   1   2   -0.80    4.00
  -9  -1  -2    7.70    3.60
  -9  -1  -2    8.30    5.30
   9   1  -2    3.20    3.80
  -9  -1  -2    7.60    3.50
  -9   1   2    4.40    4.10
   9  -1   2    4.40    5.30
   9   1  -2    3.50    4.30
   9  -2  -2  412.16   24.60
   9   2   2  400.46   27.30
  -9   2  -2  406.06   27.40
  -9   2  -2  456.35   25.40
  -9  -2   2  414.06   27.40
  -9   2  -2  417.16   25.80
   9  -2  -2  419.46   25.70
   9  -2  -2  437.86   24.40
   9   2   2  400.76   25.80
  -9   2  -2  448.16   24.70
   9   2   2  443.16   25.80
  -9   2  -2  441.66   25.80
  -9  -2   2  419.76   24.90
   9  -2  -2  445.16   27.20
   9   2   2  444.96   24.70
   9   2  -2  422.76   25.40
  -9   2   2  427.76   25.00
   9  -2   2  400.06   26.20
   9   2  -2  452.75   24.80
  -9  -2  -2  410.06   25.40
  -9   2   2  428.16   26.40
  -9  -2  -2  436.36   25.50
   9  -2   2  424.56   24.10
  -9  -2  -2  477.15   26.40
   9   2  -2  420.96   24.90
   9   2  -2  434.76   25.00
  -9   2   2  423.76   25.80
   9  -2   2  428.16   26.70
   9  -2   2  407.46   25.30
  -9   3  -2    2.10    3.80
   9  -3  -2   10.30    6.40
  -9   3  -2    8.50    5.50
   9  -3  -2   11.90    3.60
  -9   3  -2    4.70    6.90
   9  -3  -2   12.60    4.70
   9   3   2    0.20    5.00
   9   3   2    6.00    5.30
   9  -3  -2    5.20    3.00
  -9  -3   2    2.60    5.60
   9   3   2    5.10    4.90
  -9  -3   2    7.00    6.70
  -9   3  -2   13.00    5.20
   9   3   2    9.70    3.60
   9  -3   2   10.70    6.50
   9   3  -2    9.10    4.90
  -9  -3  -2    9.10    4.40
  -9   3   2    6.20    4.30
  -9   3   2   -2.40    5.70
   9  -3   2    5.80    5.50
  -9   3   2    0.80    5.30
  -9  -3  -2   10.00    6.10
   9   3  -2    5.10    3.20
  -9  -3  -2   -0.70    4.30
   9   3  -2   11.30    4.20
   9  -3   2    6.80    3.10
   9   4   2  215.08   16.10
   9  -4  -2  212.98   17.50
   9   4   2  231.48   16.70
  -9   4  -2  196.48   23.00
  -9   4  -2  229.38   17.40
  -9  -4   2  256.17   19.10
  -9   4  -2  233.48   17.80
   9  -4  -2  226.48   14.00
  -9  -4   2  225.88   17.20
   9  -4  -2  229.88   14.90
   9   4   2  243.08   15.20
  -9   4  -2  244.18   16.30
   9   4   2  205.08   17.40
   9  -4  -2  214.28   19.20
   9   4  -2  257.07   16.70
  -9   4   2  231.08   18.00
   9  -4   2  225.88   14.80
   9   4  -2  229.18   14.10
  -9  -4  -2  248.98   16.80
  -9   4   2  235.48   16.70
  -9  -4  -2  254.37   17.70
   9  -4   2  226.18   20.20
  -9  -4  -2  191.68   19.70
   9   4  -2  258.77   15.40
   9  -4   2  232.48   18.30
  -9   5  -2   -7.60    8.70
  -9   5  -2    6.00    6.60
   9   5   2   -1.00    6.60
  -9  -5   2    3.20    7.90
   9   5   2   -4.50    7.00
  -9   5  -2   -1.60    5.70
   9  -5  -2   -4.20    6.10
  -9   5  -2   -3.70    9.60
   9  -5  -2   14.10    9.70
   9   5   2    4.60    4.10
   9  -5  -2   10.60    4.30
  -9  -5   2    6.20    9.70
  -9   5   2    4.70    7.90
   9  -5   2    0.80    6.80
  -9   5   2   16.90    9.20
  -9  -5  -2    5.80    8.20
  -9  -5  -2   -1.10    5.80
   9  -5   2   -5.90    8.50
  -9   5   2    7.50    7.00
   9   5  -2   13.50    4.80
   9  -5   2   -5.70    3.90
   9   5  -2    7.50    3.50
  -9  -5  -2   12.50    5.70
   9   5  -2   -4.50    6.10
   9   6   2  107.09   14.10
  -9   6  -2   99.59   16.10
   9   6   2   67.09   10.30
   9  -6  -2   90.19   13.60
  -9  -6   2   69.69   12.30
  -9   6  -2  103.09   15.40
  -9  -6   2   98.79   14.90
  -9  -6  -2  100.49   13.10
  -9  -6  -2   83.69   13.50
   9   6  -2  112.79   14.90
   9   6  -2   74.99   18.70
   9  -6   2   80.79   13.90
  -9  -6  -2   69.19   11.20
  -9   6   2   93.69   14.00
   9   6  -2  109.09    8.80
  -9  -7   2   17.50   16.80
  -9   7  -2  -17.20   14.10
   9   7   2  -14.40   10.80
   9  -7  -2   -8.50    9.60
  -9  -7   2    7.50    8.90
  -9   7  -2   -8.00    9.00
   9   7  -2  -19.00   10.70
   9  -7   2   -2.00    9.80
  -9  -7  -2  -11.00   11.10
  -9  -7  -2    7.90    8.50
  -9   7   2    5.10   12.70
   9   7  -2    8.90    5.80
  -9  -7  -2   -0.80    8.10
   9  -8  -2   20.50   14.40
  -9  -8   2   41.80   16.40
   9   8   2   32.20   15.60
  -9   8  -2   42.30   23.90
  -9  -8   2   29.30   11.20
  -9  -8  -2   42.20   10.30
  -9   8   2   88.59   28.20
  -9  -8  -2   30.50   14.40
   9   8  -2   22.20   15.30
   9  -8   2   41.40   14.00
 -10   0   2 1114.59   59.49
  10   0  -2 1122.39   59.89
  10   0   2 1100.19   60.39
 -10   0  -2 1072.49   60.29
 -10   0  -2 1131.99   60.19
  10   0  -2 1104.39   59.79
  10   0   2 1097.39   61.29
 -10   0   2 1086.69   59.29
  10   0  -2 1074.79   60.39
 -10   0  -2 1176.88   61.19
  10   0   2 1108.89   58.89
  10   0  -2 1124.19   61.49
  10   0   2 1115.59   59.69
  10   0  -2 1073.29   59.69
  10   0   2 1067.79   61.19
 -10   0  -2 1014.60   59.59
 -10   0   2 1021.00   59.89
 -10   1  -2  249.88   16.10
  10  -1  -2  233.28   15.20
 -10  -1   2  243.88   15.80
  10  -1  -2  236.08   18.00
 -10   1  -2  239.18   18.60
 -10  -1   2  210.08   18.10
  10   1   2  239.68   16.50
 -10   1  -2  259.67   15.80
  10  -1  -2  224.98   15.10
  10   1   2  234.28   15.00
  10  -1  -2  239.58   16.50
  10   1   2  242.08   17.10
  10   1   2  242.08   17.60
 -10   1  -2  266.17   16.30
  10   1   2  232.28   13.90
 -10  -1  -2  250.27   17.40
 -10   1   2  237.28   16.20
  10   1  -2  231.58   16.10
  10  -1   2  242.48   17.90
  10   1  -2  232.18   15.50
 -10   1   2  243.68   16.60
 -10  -1  -2  230.58   16.10
  10  -1   2  245.68   14.80
 -10  -1  -2  244.08   16.40
  10  -1   2  253.87   17.90
 -10   1   2  254.47   16.10
 -10  -1  -2  263.87   16.20
  10   1  -2  240.38   17.50
  10  -1   2  238.18   14.70
  10   1  -2  224.48   15.70
  10  -1   2  238.18   16.40
 -10  -1  -2  233.38   15.00
  10   1  -2  233.38   15.30
  10   2   2  856.21   47.40
  10  -2  -2  878.71   47.20
 -10   2  -2  853.01   48.50
 -10  -2   2  826.52   47.60
 -10   2  -2  851.31   48.20
  10  -2  -2  885.91   48.50
  10   2   2  844.62   48.50
  10  -2  -2  873.11   49.99
 -10   2  -2  877.91   48.10
  10   2   2  853.41   48.30
 -10  -2   2  788.92   50.09
  10   2   2  815.42   48.60
  10  -2  -2  825.82   47.30
  10   2  -2  833.72   47.50
 -10   2   2  882.91   47.80
 -10  -2  -2  919.01   49.10
  10   2  -2  906.71   47.80
 -10   2   2  845.82   48.50
  10   2  -2  886.91   47.50
 -10   2   2  900.61   49.00
  10  -2   2  855.71   49.10
  10  -2   2  856.51   46.80
  10   2  -2  806.92   47.10
  10  -2   2  829.62   49.40
  10  -2   2  852.31   48.00
 -10  -2  -2  786.82   47.90
  10   2  -2  883.31   48.60
 -10  -2  -2  898.51   48.20
  10  -3  -2  144.29   11.10
  10   3   2  159.98   11.40
  10   3   2  140.09   13.80
  10  -3  -2  142.29   11.60
 -10   3  -2  185.08   14.10
 -10  -3   2  135.89   13.70
  10   3   2  158.08   13.80
  10   3   2  138.19   13.20
 -10  -3   2  147.99   14.90
 -10   3  -2  154.08   12.50
 -10   3  -2  141.99   14.10
 -10   3  -2  164.58   19.80
  10  -3  -2  151.78   14.50
  10  -3  -2  147.59   15.60
  10  -3   2  155.18   15.90
  10   3  -2  171.38   12.40
  10   3  -2  162.58   13.30
 -10   3   2  133.99   15.20
 -10  -3  -2  170.98   12.80
  10   3  -2  143.79   11.90
 -10   3   2  166.68   12.90
  10  -3   2  147.99   14.30
 -10   3   2  128.49   13.80
 -10  -3  -2  137.99   12.70
  10  -3   2  136.39   10.80
  10   3  -2  145.39   11.60
 -10  -3  -2  187.08   14.10
 -10   4  -2  449.86   27.70
 -10   4  -2  376.16   27.80
 -10   4  -2  441.86   30.80
  10   4   2  390.66   27.20
 -10   4  -2  402.96   26.40
  10  -4  -2  418.26   29.50
  10  -4  -2  401.36   24.90
 -10  -4   2  379.76   26.90
  10  -4  -2  427.26   24.20
  10   4   2  412.96   26.40
 -10  -4   2  408.26   28.60
  10   4   2  425.06   25.30
 -10  -4  -2  451.55   26.60
 -10   4   2  390.96   28.10
 -10   4   2  419.26   28.70
 -10  -4  -2  458.65   26.80
  10  -4   2  436.86   28.60
 -10   4   2  412.66   26.70
  10   4  -2  463.95   25.80
  10  -4   2  396.36   24.80
  10  -4   2  467.05   27.50
  10   4  -2  468.45   26.40
  10   5   2   57.49    9.40
 -10  -5   2   70.79   12.70
 -10   5  -2   74.69   11.00
  10   5   2   58.09    9.20
 -10   5  -2   64.29   12.70
 -10  -5   2   44.40    9.90
  10  -5  -2   64.29    9.90
  10   5   2   52.79   10.30
 -10  -5  -2   79.29   12.80
 -10   5   2   69.49   12.10
  10   5  -2   66.99    7.30
 -10  -5  -2   68.09    9.50
  10   5  -2   70.49    9.80
 -10  -5  -2   73.09   15.10
  10  -5   2   65.59   10.10
  10  -5   2   54.19    8.00
 -10   5   2   57.49    9.60
  10  -6  -2  156.78   16.50
 -10  -6   2  152.48   17.40
 -10   6  -2  132.89   18.90
  10   6   2  101.39   16.60
 -10  -6   2  154.68   16.90
 -10   6  -2  123.89   19.10
  10   6   2  128.49   15.80
  10   6   2  124.89   17.00
  10   6  -2  133.79   17.60
  10   6  -2  148.29   11.10
 -10  -6  -2  142.39   14.90
 -10   6   2  142.59   17.70
 -10  -6  -2  153.78   15.90
 -10  -6  -2  144.49   16.70
  10   7   2   26.90   13.40
  10  -7  -2   14.40   11.00
 -10   7  -2   23.50   13.10
 -10   7  -2    1.10   16.50
 -10  -7   2   37.90   12.80
 -10  -7   2   37.10   11.70
  10   7  -2    2.90   12.00
 -10  -7  -2   -5.80   12.30
 -10  -7  -2   21.90    9.30
 -10   7   2   39.00   16.50
  10  -7   2   36.30   12.40
  11   0  -2  366.36   22.50
  11   0   2  356.06   24.00
 -11   0   2  391.06   22.40
  11   0  -2  368.86   22.80
 -11   0   2  359.16   23.50
 -11   0  -2  400.26   23.60
 -11   0  -2  370.76   22.90
  11   0  -2  388.56   24.00
  11   0  -2  367.06   23.00
 -11   0  -2  385.66   23.80
  11   0   2  391.16   21.70
  11   0   2  388.16   25.50
 -11   0  -2  402.26   25.10
  11   0   2  385.66   25.10
  11   0  -2  394.36   25.80
  11   0   2  397.96   22.60
 -11   1  -2  322.97   19.60
 -11   1  -2  313.77   20.10
 -11  -1   2  281.37   19.50
  11  -1  -2  304.17   18.80
 -11   1  -2  297.57   22.10
  11   1   2  313.17   18.70
  11   1   2  326.27   20.40
  11  -1  -2  289.97   22.20
  11   1   2  317.27   21.40
  11  -1  -2  274.37   20.00
  11  -1  -2  318.67   18.90
  11   1   2  310.77   17.30
 -11   1  -2  293.57   19.50
  11   1   2  287.07   21.10
 -11  -1   2  298.67   22.10
  11   1  -2  318.97   19.10
  11  -1   2  295.17   21.80
 -11   1   2  311.47   20.10
 -11   1   2  306.47   19.70
  11   1  -2  297.47   18.70
  11  -1   2  316.37   18.40
  11  -1   2  299.27   21.50
  11   1  -2  304.97   19.40
  11   1  -2  301.17   21.50
 -11  -1  -2  317.67   21.30
  11   1  -2  293.27   19.80
 -11  -1  -2  264.97   24.20
  11  -1   2  297.87   17.90
 -11  -1  -2  282.67   19.90
 -11   2  -2  325.37   21.20
 -11  -2   2  305.57   23.50
 -11   2  -2  340.47   24.30
  11   2   2  299.77   22.30
  11   2   2  351.06   19.80
  11  -2  -2  304.67   19.60
  11  -2  -2  353.26   21.70
  11   2   2  322.37   22.10
  11  -2  -2  304.17   23.70
 -11  -2   2  311.47   20.30
  11  -2  -2  315.87   19.40
 -11   2  -2  291.57   21.30
  11  -2   2  329.27   22.40
  11  -2   2  315.17   23.10
  11   2  -2  324.97   19.90
  11   2  -2  327.87   20.10
  11  -2   2  296.37   20.70
  11  -2   2  309.67   19.00
 -11   2   2  333.87   22.10
 -11   2   2  340.17   21.00
 -11   2   2  292.47   21.20
  11   2  -2  321.17   20.40
  11   2  -2  316.87   22.30
 -11  -2  -2  277.37   20.70
 -11  -2  -2  352.66   21.00
  11   2  -2  257.97   22.20
 -11  -2  -2  350.56   22.30
  11   3   2  191.18   16.80
  11   3   2  192.58   13.80
 -11  -3   2  186.88   17.80
  11  -3  -2  207.08   19.90
  11  -3  -2  195.18   13.50
  11   3   2  193.28   16.40
  11  -3  -2  177.98   13.90
  11  -3  -2  210.58   16.30
 -11   3  -2  178.18   15.80
 -11   3  -2  197.38   17.30
 -11   3  -2  211.88   20.50
  11   3   2  212.08   17.40
  11  -3   2  193.78   13.70
  11  -3   2  207.58   17.10
  11   3  -2  204.68   14.70
  11   3  -2  187.18   16.60
  11   3  -2  227.18   14.80
  11   3  -2  207.28   14.80
 -11   3   2  201.68   18.40
  11  -3   2  203.58   18.50
 -11  -3  -2  220.88   16.70
 -11   3   2  177.58   17.50
 -11   3   2  193.38   15.90
  11   3  -2  170.98   13.80
 -11  -3  -2  181.18   15.40
 -11  -4   2  203.08   17.00
 -11  -4   2  219.08   18.90
  11  -4  -2  191.18   14.50
 -11   4  -2  172.58   21.90
  11   4   2  164.48   17.00
 -11   4  -2  164.98   18.80
  11  -4  -2  193.08   12.90
 -11   4  -2  208.88   18.60
  11   4   2  172.38   17.40
  11   4   2  181.38   17.20
 -11   4   2  185.08   20.40
 -11  -4  -2  237.28   17.80
  11  -4   2  201.68   16.90
  11   4  -2  209.48   15.70
 -11   4   2  178.18   17.00
 -11   4   2  163.38   19.00
  11  -4   2  152.08   13.80
 -11  -4  -2  201.58   15.90
  11   4  -2  163.58   14.00
 -11   5  -2  118.59   17.80
 -11  -5   2  106.69   15.80
 -11   5  -2  101.29   16.70
  11   5   2   72.59   12.50
  11  -5  -2   85.39   12.00
  11   5   2   93.49   11.80
 -11  -5   2   60.79   11.90
  11   5   2   62.99   11.40
  11   5  -2   92.29   14.30
 -11   5   2   95.19   14.90
 -11  -5  -2  102.49   12.70
  11  -5   2  122.89   15.90
  11   5  -2   87.89    8.80
 -11  -5  -2  101.49   14.70
 -11  -5  -2  102.09   13.40
 -11  -6   2   56.59   12.00
 -11   6  -2  101.39   19.90
  11   6   2   55.39   13.10
  11   6   2   52.99   11.80
 -11  -6   2   77.59   15.60
  11  -6  -2   91.39   12.80
 -11  -6  -2   63.59   11.50
  11   6  -2   67.99   12.50
 -11   6   2  108.59   16.60
 -11  -6  -2  107.69   15.80
  12   0  -2   37.20    6.30
  12   0  -2   26.50    6.20
  12   0   2   25.40    8.70
  12   0   2   37.60    7.10
  12   0  -2   43.70    8.00
 -12   0  -2   33.10    9.80
  12   0   2   35.20    4.90
  12   0   2   37.60    9.40
 -12   0   2   52.49   11.40
 -12   0   2   36.90    7.30
  12   0  -2   39.50    9.60
 -12   0  -2   42.60    7.10
 -12   0  -2   26.90    7.10
  12   0   2   32.10    5.50
  12   0  -2   45.00    6.10
 -12   0  -2   38.20    8.50
 -12  -1   2  491.15   31.80
  12   1   2  564.64   31.10
  12   1   2  530.45   33.60
 -12   1  -2  559.54   34.60
  12  -1  -2  545.05   31.00
  12  -1  -2  542.25   32.40
  12  -1  -2  512.05   30.90
  12   1   2  529.95   29.50
 -12  -1   2  517.65   34.80
  12  -1  -2  546.65   35.10
  12   1   2  515.25   33.60
  12   1   2  540.65   32.60
 -12   1  -2  547.45   32.00
 -12   1  -2  539.75   32.30
  12  -1   2  581.94   33.90
 -12  -1  -2  459.35   32.20
  12  -1   2  554.64   30.80
 -12  -1  -2  534.05   32.10
  12   1  -2  536.05   31.50
 -12   1   2  534.15   32.10
  12  -1   2  553.04   32.20
  12   1  -2  506.35   30.70
  12   1  -2  543.35   34.30
  12  -1   2  496.45   34.10
 -12   1   2  544.25   32.10
  12  -1   2  523.05   30.10
 -12   1   2  502.35   33.00
 -12  -1  -2  546.15   33.60
  12   1  -2  565.34   32.40
  12   1  -2  531.85   31.30
  12  -2  -2   37.40    5.70
 -12  -2   2   25.20    9.80
  12   2   2   39.40    9.20
 -12   2  -2   40.10   11.20
  12   2   2   20.10    7.00
  12  -2  -2   34.20    8.20
  12   2   2   27.60    8.40
  12  -2  -2   31.20   10.00
  12  -2  -2   40.30    6.50
 -12  -2   2   26.10    6.50
 -12   2  -2   44.20    7.90
 -12   2  -2   26.90    8.00
  12   2   2   31.40    6.30
 -12  -2  -2   39.40    9.80
 -12   2   2   30.70    8.10
 -12   2   2   35.40    7.70
  12   2  -2   49.40   10.00
 -12  -2  -2   33.90    7.00
 -12  -2  -2   38.00    8.10
  12   2  -2   44.60    7.80
 -12   2   2   43.20    9.10
  12  -2   2   40.00    5.80
  12  -2   2   45.50   10.30
  12   2  -2   33.80    6.00
  12   2  -2   40.30    7.20
  12  -2   2   29.70   12.80
  12   2  -2   36.20    8.90
  12   3   2  315.57   24.20
  12  -3  -2  331.77   21.10
 -12   3  -2  311.77   27.20
  12   3   2  313.67   22.90
  12  -3  -2  360.86   20.80
 -12  -3   2  323.27   25.00
  12  -3  -2  378.66   23.40
  12   3   2  298.77   24.30
 -12   3  -2  299.87   24.10
  12  -3   2  366.76   24.70
 -12  -3  -2  260.57   23.00
 -12   3   2  347.47   24.80
 -12  -3  -2  372.86   22.70
  12  -3   2  325.87   20.80
  12   3  -2  337.97   21.60
  12   3  -2  315.37   21.80
  12   3  -2  300.67   24.00
 -12   3   2  325.97   23.20
 -12   3   2  278.37   24.10
  12   4   2   25.90   10.30
 -12   4  -2   24.00   12.80
 -12  -4   2   27.30   11.60
  12  -4  -2   23.80    6.00
  12   4   2   24.10    9.30
  12   4   2   30.70   10.30
 -12   4   2   21.20   10.30
 -12  -4  -2   32.30    7.80
 -12  -4  -2   30.90   10.30
  12  -4   2   17.00    8.10
  12   4  -2   29.80    7.40
  12   4  -2   34.10    6.80
  12   4  -2   29.40    7.80
  12   5   2  119.29   19.90
  12  -5  -2  149.09   18.30
 -12   5  -2  134.99   17.20
 -12  -5   2   95.19   21.90
 -12   5  -2  146.39   21.00
  12   5   2  117.59   19.70
  12   5   2  126.39   20.80
 -12  -5   2  182.18   18.70
 -12  -5  -2  167.98   18.20
 -12   5   2  152.88   22.80
 -12  -5  -2  159.88   16.50
  12  -5   2  154.78   18.90
  12   5  -2  143.19   16.70
  12   6   2    4.10   12.30
 -12  -6   2    1.80   11.20
  12   6   2   15.90   15.60
 -12  -6   2    8.20   14.10
 -12   6  -2   32.00   18.00
  12  -6  -2   22.70   11.30
 -12   6  -2   37.80   14.00
 -12  -6  -2    9.10   10.00
  12   6  -2    6.10   11.40
 -12   6   2   -1.30   14.20
 -12  -6  -2   26.10   11.90
 -13   0  -2   73.39    9.10
  13   0  -2   64.19    7.90
  13   0   2   65.19    9.40
 -13   0   2   52.39    9.80
  13   0  -2   53.29   13.20
  13   0  -2   64.69   10.90
  13   0   2   64.89    8.40
 -13   0   2   64.89   13.10
  13   0  -2   75.89   10.20
 -13   0  -2   77.59   12.30
  13   0  -2   66.39   10.20
  13   0   2   55.49    9.50
  13   0   2   76.79   11.40
 -13   0  -2   66.99   10.60
  13   1   2   18.90   10.10
  13  -1  -2   18.30    7.00
  13   1   2   17.40    4.30
 -13   1  -2   16.30   11.80
  13  -1  -2   18.80    5.40
  13  -1  -2   13.70    7.30
 -13  -1   2    6.10   10.40
  13   1   2   22.70    8.20
 -13  -1   2   14.70    8.20
 -13   1  -2   10.50    8.50
  13   1   2   29.60   10.30
  13  -1   2   19.60    5.20
  13   1  -2   18.80   10.80
  13   1  -2   13.20    5.60
 -13   1   2   12.80    8.10
 -13  -1  -2   16.90   10.00
  13   1  -2   20.20    6.70
  13   1  -2    2.50    9.00
  13  -1   2   26.40    8.60
  13  -1   2    2.20    6.70
 -13   1   2   21.50    7.60
 -13   1   2   14.10    8.30
  13   2   2   54.89   11.80
 -13   2  -2   47.30   10.60
  13  -2  -2   57.39    8.10
  13   2   2   48.40   10.90
 -13  -2   2   45.60    9.00
 -13  -2   2   66.39   12.90
  13  -2  -2   57.79    8.20
 -13   2  -2   56.39   13.00
  13   2   2   79.19   13.30
  13  -2  -2   72.79   11.10
  13   2  -2   68.69    9.10
 -13   2   2   71.89   10.90
 -13  -2  -2   64.59    9.20
 -13   2   2   56.49   10.90
  13  -2   2   63.29    7.60
  13   2  -2   64.99   10.00
 -13  -2  -2   69.49   11.80
  13   2  -2   44.80   12.20
  13   2  -2   70.79   10.20
  13  -2   2   68.09   12.10
 -13   2   2   53.69   10.60
  13   3   2    1.50    8.10
  13   3   2   12.20    9.70
  13  -3  -2   18.80    6.60
 -13   3  -2    3.70   12.90
  13   3   2    3.60   11.70
 -13  -3   2    8.40    9.50
 -13  -3  -2    9.10   10.10
 -13   3   2   23.40   11.30
  13   3  -2   17.20   10.90
  13   3  -2   14.60    8.10
  13  -3   2    5.70    9.40
  13   3  -2   15.30    7.60
 -13  -3  -2   10.90    6.50
  13  -3   2   12.00    8.20
 -13   3   2    6.30   10.70
  13   3  -2   17.20    6.40
  13   4   2   46.50   14.30
  13  -4  -2   42.90   11.60
  13   4   2   48.20   14.50
  13   4   2   25.50   10.10
 -13  -4   2   31.60   14.00
 -13   4  -2   40.70   15.60
  13   4  -2   35.70    9.20
  13   4  -2   29.20    8.80
  13   4  -2   33.90   17.00
  13  -4   2   37.10   11.20
 -13  -4  -2   56.79   12.80
 -13   4   2   57.29   13.50
  13   5   2   -3.10   11.50
 -13  -5   2    7.80   14.50
 -13   5  -2   30.20   18.70
  13   5   2    5.60   13.20
  13  -5  -2   -5.90   10.70
  13  -5   2   12.60   10.80
 -13  -5  -2   20.40   12.80
 -13   5   2    7.30   14.10
  13   5  -2    6.00    9.60
  14   0  -2   54.09    8.00
 -14   0  -2   72.99   11.80
 -14   0   2   73.89   19.70
 -14   0   2   57.99   14.70
  14   0   2   49.80   11.70
  14   0   2   47.00    7.40
  14   0   2   58.69   10.00
  14   0  -2   82.79   11.10
 -14   0  -2   74.09   13.70
  14   1   2   36.00    9.60
 -14  -1   2   23.50   10.10
 -14  -1   2   16.60   13.00
  14  -1  -2   17.80    9.50
  14   1   2   28.40   11.20
  14  -1  -2   25.40    7.80
 -14   1  -2   17.50   12.00
 -14   1  -2   11.10   10.40
  14   1  -2    7.20    8.90
  14   1  -2   23.70    7.80
 -14  -1  -2   10.10   10.90
  14  -1   2   20.90   10.20
 -14   1   2   24.90   10.60
  14  -1   2   10.00    8.00
  14   1  -2   21.20    6.90
  14  -1   2   18.10    6.80
  14   2   2   61.59   11.20
 -14  -2   2   39.40   13.70
  14   2   2   62.69   13.20
 -14   2  -2   34.20   14.00
 -14   2  -2   49.90   12.50
  14  -2  -2   42.80   10.60
  14   2  -2   58.59    9.60
  14  -2   2   32.50   12.20
 -14  -2  -2   47.40   13.10
  14   2  -2   33.30   11.00
  14   2  -2   35.60   10.30
 -14   2   2   47.40   17.40
  14   2  -2   21.90   15.40
  14  -2   2   37.30    8.50
 -14   2   2   38.30   12.30
 -14  -3   2   12.30   13.60
  14   3   2   25.00   12.60
  14   3   2   22.90   10.10
 -14   3  -2   26.60   15.30
  14   3  -2   14.60   10.10
 -14   3   2   14.70   12.50
  14  -3   2   35.50   11.10
  14   3  -2   42.30   17.10
 -14  -3  -2   21.30   11.90
  14   3  -2   19.90   10.30
  14  -4  -2   35.20   15.30
 -14  -4   2   13.20   14.70
 -14   4  -2    2.70   18.20
  14   4   2   28.20   13.60
  14   4   2    0.30   10.80
  14   4  -2   40.20   11.00
  14   4  -2   23.10   15.50
 -14   4   2    3.90   14.90
 -14  -4  -2   10.80   13.10
  15   0   2  -13.00    9.10
 -15   0  -2    3.40   19.60
 -15   0   2   12.10   12.70
  15   0   2    5.80   11.90
  15   0  -2    5.10   10.60
  15   1   2   19.10   10.80
 -15   1  -2   -7.00   13.30
  15   1   2   12.80   12.90
 -15   1  -2   22.20   13.90
 -15  -1   2   -8.30   13.80
  15  -1  -2   -8.50   10.40
  15  -1   2   13.10   12.60
 -15   1   2    1.70   13.90
 -15  -1  -2   16.00   13.10
  15  -1   2    9.70    9.10
  15   1  -2   11.80    9.20
  15   1  -2   17.70   10.80
  15  -2  -2    4.90   11.30
 -15   2  -2   11.60   15.90
  15   2   2   16.50   11.80
 -15  -2   2   18.00   14.00
  15   2   2   15.60   14.10
  15  -2   2    6.40   12.10
 -15   2   2    4.20   14.70
  15   2  -2   17.50   10.50
  15   2  -2    7.70   11.50
 -15  -2  -2    7.70   11.60
   0   0   3   -3.20    1.30
   0   0   3   -2.10    1.40
   0   0  -3   -1.70    1.30
   0   0   3   -2.00    1.60
   0   0  -3   -2.30    1.60
   0  -1   3 9999.00  522.85
   0  -1  -3 9786.42  522.55
   0   2  -3    3.70    1.60
   0   2   3    0.40    1.70
   0   2   3    2.90    1.80
   0  -2   3    1.60    1.40
   0  -2  -3    2.20    1.90
   0  -2   3    0.30    1.20
   0  -2  -3    0.00    1.10
   0   2  -3    3.30    1.90
   0   2  -3    0.30    1.50
   0  -2   3    3.50    3.00
   0  -2  -3   -0.70    1.70
   0  -2  -3   -1.40    1.10
   0  -3   3 6047.89  295.47
   0   3   3 5372.46  294.67
   0  -3  -3 5519.85  294.17
   0   3  -3 5751.42  294.47
   0  -3   3 5050.69  294.37
   0   3  -3 5386.06  294.57
   0  -3  -3 5821.52  294.17
   0   3   3 5483.15  294.77
   0  -3  -3 5574.74  294.77
   0   3  -3 5531.75  294.37
   0  -3  -3 5886.11  294.87
   0  -3   3 5303.77  294.47
   0  -4  -3    1.80    1.60
   0  -4  -3    2.20    1.70
   0  -4   3    1.30    2.40
   0  -4   3    2.30    5.10
   0   4  -3    2.50    2.10
   0   4  -3    0.30    1.60
   0   4   3    1.30    2.90
   0  -4   3    4.20    2.20
   0   4  -3    0.70    3.00
   0  -4  -3    1.20    3.00
   0  -4  -3   -2.50    1.70
   0   4  -3    2.10    2.30
   0   4   3    1.00    2.10
   0  -4  -3    0.70    2.70
   0   4   3    2.70    2.60
   0  -5  -3 2075.79  107.89
   0  -5   3 1877.81  108.19
   0   5   3 2080.09  108.59
   0   5  -3 1965.10  107.99
   0  -5  -3 2026.50  107.59
   0   5  -3 2128.99  108.09
   0  -5   3 1900.21  109.39
   0   5  -3 2051.49  107.29
   0   5  -3 2027.90  108.69
   0  -5  -3 2026.10  107.49
   0  -5  -3 2105.69  108.49
   0   5   3 2074.89  108.19
   0   5   3 2032.70  108.69
   0  -5   3 1892.91  108.09
   0  -6  -3   -3.40    4.60
   0   6  -3    0.20    5.40
   0  -6  -3    8.50    4.80
   0   6  -3   -4.20    4.70
   0   6  -3   -1.60    3.70
   0  -6   3    4.80    3.10
   0   6   3   -4.50    5.00
   0   6   3    2.20    4.60
   0  -6  -3   -0.20    2.60
   0   6   3    1.80    4.00
   0  -6  -3   -1.20    3.40
   0  -6  -3   -3.60    2.80
   0  -6   3    1.60    3.70
   0   7  -3  532.85   31.80
   0   7   3  575.64   32.90
   0  -7  -3  517.65   29.70
   0   7  -3  518.05   33.20
   0  -7  -3  515.15   30.40
   0  -7  -3  534.75   30.80
   0   7   3  518.45   31.90
   0   7  -3  607.24   31.40
   0   7   3  572.14   31.60
   0  -7   3  492.25   31.10
   0  -7   3  488.25   30.90
   0  -8  -3    2.60    5.20
   0  -8   3   -3.10    5.30
   0   8   3   -2.00   11.00
   0   8   3   15.90    7.40
   0   8  -3  -14.80   11.00
   0   8   3   -1.70    9.10
   0  -8   3   -3.00    6.40
   0   8  -3   -5.30    9.90
   0   8  -3    8.80    6.90
   0  -8  -3   -1.70    5.70
   0   9  -3  132.89   16.20
   0   9  -3   89.59   17.80
   0   9   3  104.89   17.20
   0  -9  -3  108.69   13.00
   0  -9   3   95.79   13.50
   0  -9  -3   91.09   12.50
  -1   0   3  256.37   14.30
  -1   0   3  270.97   14.60
   1   0  -3  272.27   14.40
  -1   0  -3  245.78   14.20
   1   0   3  228.28   14.10
   1   0  -3  271.27   14.40
   1   0   3  249.78   14.70
  -1   0  -3  252.87   14.30
  -1   0   3  272.97   14.30
  -1   0  -3  252.67   14.90
   1   0   3  260.17   14.40
  -1  -1   3  884.31   46.20
  -1  -1   3  955.10   46.40
  -1   1  -3  804.92   46.30
  -1   1  -3  814.32   46.90
   1  -1  -3  868.91   46.70
   1   1   3  875.61   46.60
  -1  -1   3  870.81   47.20
  -1   1  -3  931.71   46.60
   1   1   3  864.51   47.00
  -1   1  -3  839.32   46.60
   1   1   3  886.41   46.60
   1  -1  -3  845.72   46.60
   1  -1   3  894.21   46.80
  -1   1   3  871.01   46.70
   1   1  -3  851.11   46.40
  -1   1   3  807.72   46.60
   1  -1   3  879.91   46.40
   1  -1   3  929.91   46.70
   1  -1   3  836.22   46.60
  -1  -1  -3  855.91   47.10
  -1  -1  -3  932.11   46.70
   1   1  -3  824.82   46.30
  -1  -1  -3  840.42   46.20
   1   2   3  158.38   10.30
   1  -2  -3  197.88    9.80
  -1  -2   3  173.28   10.60
   1  -2  -3  173.58   10.70
  -1   2  -3  171.98   10.40
   1  -2  -3  169.48   10.30
  -1   2  -3  170.48   10.80
  -1   2  -3  177.88   10.10
  -1  -2   3  177.38   12.20
   1  -2  -3  181.78   10.50
   1   2   3  173.58   10.80
  -1  -2  -3  180.48    9.90
  -1  -2  -3  163.78    9.80
  -1   2   3  180.58   10.60
   1  -2   3  172.98   10.40
  -1  -2  -3  168.18   10.80
   1   2  -3  185.88   10.40
   1  -2   3  193.28   11.10
   1  -2   3  175.98   10.20
   1  -2   3  172.08   10.30
  -1   2   3  177.78   10.60
  -1  -2  -3  165.68   10.30
  -1  -3   3  413.26   24.10
   1  -3  -3  424.26   24.70
  -1   3  -3  440.26   24.00
   1  -3  -3  418.86   23.90
  -1  -3   3  483.65   25.60
   1   3   3  402.56   24.20
  -1   3  -3  419.86   24.60
   1  -3  -3  454.75   23.70
   1  -3  -3  435.66   24.30
  -1   3  -3  412.96   24.20
   1   3   3  441.76   24.50
  -1  -3  -3  439.46   24.30
  -1  -3  -3  433.16   23.60
  -1   3   3  415.16   24.50
  -1   3   3  416.16   24.30
   1   3  -3  462.05   24.10
  -1  -3  -3  461.45   24.60
  -1  -3  -3  442.76   23.90
  -1   3   3  414.26   24.40
   1  -3   3  441.26   24.00
   1  -3   3  435.26   23.80
   1  -3   3  425.06   24.00
  -1  -3  -3  444.56   23.80
   1  -3   3  443.86   25.00
   1  -4  -3   66.79    5.50
  -1   4  -3   67.99    6.40
   1   4   3   66.69    5.70
   1   4   3   65.39    6.50
  -1   4  -3   75.09    6.00
  -1   4  -3   65.59    7.20
   1   4   3   62.59    6.30
   1  -4  -3   76.49    5.30
  -1  -4   3   78.59    8.30
   1  -4  -3   73.09    6.20
  -1  -4   3   74.29    6.10
   1  -4  -3   76.19    7.20
   1   4  -3   67.19    6.20
   1  -4   3   64.79    5.60
   1   4  -3   69.89    5.80
  -1  -4  -3   71.39    5.60
  -1   4   3   69.99    6.50
   1   4  -3   69.19    5.30
   1  -4   3   77.49    5.70
  -1   4   3   65.59    7.10
  -1  -4  -3   71.29    6.40
  -1  -4  -3   81.49    6.80
  -1   4   3   72.39    6.30
  -1  -4  -3   67.49    5.10
   1  -4   3   69.99    7.60
  -1  -4  -3   72.69    5.50
  -1  -5   3  130.09   12.50
  -1  -5   3  111.29    9.90
   1  -5  -3  150.88   10.40
   1  -5  -3  124.89    9.20
   1  -5  -3  142.39   11.30
  -1   5  -3  136.09   10.40
   1   5   3  136.49   10.70
   1   5   3  141.09   10.20
   1   5   3  135.79    9.70
   1  -5  -3  144.99    8.70
  -1   5  -3  142.29    9.90
  -1   5  -3  137.09   11.70
   1  -5  -3  132.79    9.20
  -1  -5  -3  169.28   10.60
   1  -5   3  127.09   10.30
   1  -5   3  117.39    9.70
   1   5  -3  136.29    9.40
  -1   5   3  140.49   10.20
  -1   5   3  136.49   10.40
  -1  -5  -3  131.39   10.00
   1   5  -3  143.39    8.80
   1   5  -3  142.49   10.60
   1   5  -3  145.09    9.60
  -1   5   3  141.69   11.20
  -1  -5  -3  140.29    9.10
  -1  -5  -3  136.79    8.90
   1  -6  -3   18.90    4.00
   1   6   3   17.90    5.70
   1   6   3   14.70    4.50
   1   6   3   18.80    4.90
  -1   6  -3   15.10    4.40
  -1  -6   3   25.90    8.50
  -1   6  -3   18.30    5.70
   1  -6  -3   21.20    5.90
  -1  -6   3   23.90    5.40
   1  -6  -3   19.20    5.40
   1  -6  -3   24.60    4.10
  -1   6  -3   18.40    6.60
   1  -6   3   17.00    4.00
   1   6  -3   29.40    4.50
   1  -6   3   16.40    4.00
   1   6  -3   17.60    4.50
  -1  -6  -3   18.80    3.70
  -1  -6  -3   22.10    3.70
   1   6  -3   18.20    5.80
   1   6  -3   20.20    4.30
  -1   6   3   18.30    6.30
  -1   6   3   16.80    4.80
  -1  -6  -3   25.20    4.60
  -1   7  -3   33.50    9.00
   1  -7  -3   32.10    5.40
   1   7   3   24.60    7.00
  -1  -7   3   24.90    6.60
   1  -7  -3   29.50    5.40
   1  -7  -3   23.70    7.30
  -1   7  -3   20.00    8.00
  -1   7  -3   31.40    6.40
   1   7   3   30.10    6.00
   1   7   3   23.30    7.70
   1  -7  -3   42.20    7.50
   1   7  -3   28.30    5.80
  -1  -7  -3   29.30    5.30
   1  -7   3   31.60    5.50
   1   7  -3   20.90    7.20
   1  -7   3   28.60    6.20
  -1  -7  -3   23.00    5.60
   1   7  -3   31.90    8.40
  -1  -7  -3   29.70    4.80
  -1   7   3   31.10    7.00
  -1   7   3   26.80    8.10
  -1   8  -3    0.30    6.20
   1  -8  -3    4.20    5.70
   1   8   3   -7.40    8.90
  -1   8  -3  -20.40   11.40
  -1  -8   3    7.00    7.20
   1   8   3   10.70    7.50
  -1   8  -3   -2.80   10.60
   1  -8  -3    4.30    5.50
   1   8  -3   -9.90   10.70
   1  -8   3    3.90    6.20
   1   8  -3   -2.60    6.30
  -1  -8  -3   11.40    5.30
  -1   8   3    2.50    9.00
  -1  -8  -3    2.50    5.50
   1  -8   3    6.50    6.10
  -1  -8  -3    5.70    6.10
   1   8  -3   -4.10    9.10
  -1   8   3    7.70   10.00
   1   9   3   22.20   11.00
  -1   9  -3   -0.40   16.40
  -1   9  -3    3.20   16.90
  -1   9  -3   22.00    9.80
   1  -9  -3    5.60    7.10
   1   9   3   13.20   14.30
   1  -9  -3   10.30   12.00
  -1  -9   3   -5.80    7.10
   1   9  -3    4.60   15.00
   1   9  -3    2.80    8.90
  -1   9   3   -2.60   13.90
  -1   9   3   13.50   12.10
   1   9  -3   -7.80   15.30
  -1  -9  -3   -3.10    7.90
   1  -9   3    2.60    7.50
  -1  -9  -3    9.50    9.00
  -2   0  -3 1699.33   90.59
  -2   0  -3 1778.72   90.39
  -2   0   3 1790.32   90.49
   2   0   3 1616.34   90.99
   2   0   3 1688.13   90.79
   2   0  -3 1736.93   90.59
  -2   0   3 1695.43   90.29
   2   0  -3 1786.92   90.69
   2   0   3 1613.04   90.59
  -2   0  -3 1670.13   91.19
  -2   0  -3 1673.53   90.59
  -2   1  -3 1748.23   93.29
  -2   1  -3 1709.83   92.59
   2   1   3 1884.31   92.79
  -2   1  -3 1799.82   92.59
  -2  -1   3 1879.51   92.59
   2  -1  -3 1643.94   92.79
  -2   1  -3 1569.64   92.79
  -2  -1   3 1707.83   93.39
   2   1   3 1804.92   93.19
   2  -1  -3 1682.73   92.99
   2   1   3 1728.23   92.79
  -2   1   3 1733.63   92.89
   2  -1   3 1708.93   92.99
  -2  -1  -3 1647.24   92.79
  -2   1   3 1811.72   92.79
   2  -1   3 1760.72   92.69
  -2  -1  -3 1836.42   92.69
   2  -1   3 1728.93   92.59
   2   1  -3 1795.72   92.39
   2  -1   3 1795.52   93.09
   2   1  -3 1605.14   92.59
  -2  -1  -3 1747.23   93.19
  -2  -1  -3 1748.93   92.49
  -2   2  -3 1014.30   56.09
   2   2   3 1025.90   55.99
  -2  -2   3 1144.29   55.69
   2   2   3 1056.99   55.39
  -2  -2   3 1133.69   56.79
   2  -2  -3  995.00   55.59
  -2   2  -3  946.81   55.69
  -2   2  -3 1010.90   55.39
   2  -2  -3 1030.70   55.99
   2   2   3 1085.39   55.69
  -2  -2  -3  997.10   55.39
  -2  -2  -3 1063.29   55.89
  -2   2   3 1022.20   55.89
  -2  -2  -3 1060.39   55.49
   2  -2   3  970.90   55.29
  -2   2   3 1004.60   55.79
   2  -2   3 1068.59   55.79
   2  -2   3 1008.80   55.69
  -2  -2  -3 1019.30   55.49
  -2   3  -3 1200.28   63.99
  -2   3  -3 1068.99   64.19
  -2  -3   3 1224.88   64.19
   2   3   3 1304.97   64.29
  -2  -3   3 1309.17   65.39
   2  -3  -3 1116.59   64.59
   2   3   3 1165.08   64.49
   2  -3  -3 1249.47   64.19
  -2   3  -3 1244.98   63.99
  -2   3  -3 1164.98   64.79
   2  -3  -3 1157.08   63.89
   2   3   3 1143.39   63.89
  -2  -3  -3 1291.27   64.29
   2  -3   3 1137.99   63.89
  -2  -3  -3 1186.78   63.89
   2  -3   3 1189.38   64.19
  -2   3   3 1198.78   64.59
   2   3  -3 1286.97   63.99
  -2   3   3 1087.29   64.29
  -2  -3  -3 1233.08   63.79
   2   3  -3 1165.68   63.79
  -2  -3  -3 1111.99   63.29
  -2  -3  -3 1172.78   63.89
   2  -3   3 1183.28   63.99
   2  -4  -3  318.67   18.00
  -2  -4   3  310.57   18.10
  -2   4  -3  294.57   19.00
   2   4   3  302.87   17.30
   2  -4  -3  303.77   17.50
   2   4   3  292.57   18.10
  -2   4  -3  319.97   17.80
   2  -4  -3  308.27   18.90
  -2   4  -3  299.67   18.20
   2   4   3  295.47   17.80
   2  -4  -3  325.57   17.30
  -2  -4   3  325.87   19.50
  -2   4   3  319.77   18.30
  -2   4   3  287.37   18.80
   2  -4   3  302.87   17.90
  -2  -4  -3  296.27   17.50
  -2  -4  -3  281.57   16.80
  -2   4   3  319.07   18.40
   2   4  -3  308.87   17.40
  -2  -4  -3  312.87   17.60
  -2  -4  -3  300.57   17.60
   2   4  -3  324.97   17.60
   2  -4   3  281.97   17.50
   2  -5  -3  566.44   31.10
  -2   5  -3  537.25   33.00
  -2   5  -3  574.44   31.60
   2  -5  -3  600.84   31.70
  -2  -5   3  493.95   31.70
   2   5   3  594.84   31.90
  -2  -5   3  571.24   33.50
   2   5   3  526.05   31.70
   2  -5  -3  579.34   32.70
   2   5   3  565.34   31.10
  -2   5  -3  530.25   32.10
   2  -5  -3  581.34   31.10
  -2  -5  -3  548.45   31.10
   2   5  -3  574.54   31.20
   2  -5   3  559.74   31.00
  -2   5   3  584.54   32.10
   2  -5   3  600.04   31.50
   2  -5   3  538.55   31.30
  -2  -5  -3  514.25   30.60
  -2  -5  -3  574.14   31.50
  -2   5   3  561.44   32.70
   2   5  -3  577.04   31.00
  -2   6  -3   41.20    6.00
  -2   6  -3   45.20    8.20
   2  -6  -3   52.39    5.80
  -2   6  -3   50.49    7.40
   2  -6  -3   56.79    8.20
   2  -6  -3   60.19    8.10
   2  -6  -3   47.60    6.20
  -2  -6   3   55.79    7.50
  -2  -6   3   51.09   10.00
   2   6   3   45.30    6.80
   2   6   3   47.00    5.80
   2   6  -3   48.50    6.70
  -2  -6  -3   43.80    6.30
   2  -6   3   52.09    7.00
  -2  -6  -3   46.30    5.80
   2  -6   3   44.20    6.50
   2   6  -3   52.59    6.00
  -2  -6  -3   48.10    7.00
  -2   6   3   46.80    6.40
  -2   6   3   47.80    6.50
  -2   6   3   41.80    8.10
   2   7   3  212.28   16.20
  -2   7  -3  202.48   19.40
   2   7   3  184.48   14.00
  -2   7  -3  198.78   17.20
  -2  -7   3  168.18   16.80
   2  -7  -3  211.98   17.00
   2   7   3  189.88   15.30
   2  -7  -3  172.38   13.30
   2  -7  -3  179.78   12.90
  -2  -7   3  167.38   14.30
   2  -7   3  175.38   13.90
  -2  -7  -3  170.68   12.90
   2   7  -3  193.38   12.70
  -2   7   3  222.08   15.90
   2   7  -3  172.88   16.10
  -2  -7  -3  199.38   13.40
  -2  -7  -3  197.98   14.10
   2  -7   3  176.28   13.40
  -2   7   3  218.28   18.00
   2   7  -3  206.18   14.10
  -2   7   3  187.98   15.90
   2  -8  -3    1.20    5.00
   2   8   3    7.50    9.50
  -2   8  -3   17.40   11.60
   2  -8  -3   17.70    9.10
   2   8   3    8.10    7.20
   2   8   3  -13.60    8.70
  -2   8  -3   -6.10    6.40
  -2   8  -3  -25.50   11.60
   2  -8  -3   13.60    6.50
  -2   8   3   -3.50    9.50
  -2   8   3    4.30   10.80
  -2  -8  -3    1.40    5.60
   2  -8   3    4.70    6.80
  -2  -8  -3   -3.20    5.30
   2   8  -3  -12.90   10.20
  -2  -8  -3    1.90    6.10
   2   8  -3    6.60    6.50
  -2   8   3   23.90    8.60
  -2   9  -3   58.99   11.10
  -2   9  -3   57.49   18.80
  -2  -9   3   43.60    9.90
   2   9   3   67.69   13.00
   2   9   3   69.99   14.80
   2  -9  -3   47.20    9.20
   2  -9   3   29.00    7.40
   2   9  -3   45.60   15.70
  -2  -9  -3   51.19    9.00
  -2  -9  -3   51.49   11.70
  -2   9   3   68.99   16.00
  -2   9   3   62.99   14.30
   2   9  -3    9.10   14.40
   2   9  -3   56.09    9.80
  -3   0  -3  732.23   41.50
   3   0   3  770.22   41.80
  -3   0  -3  753.82   41.60
   3   0  -3  814.62   41.50
   3   0   3  716.93   41.60
   3   0   3  793.02   42.00
  -3   0   3  794.42   41.30
   3   0   3  792.12   41.20
  -3   0  -3  769.02   41.50
   3   0  -3  752.62   41.60
  -3   0  -3  781.22   41.10
  -3   0   3  778.52   41.40
  -3   0  -3  771.72   42.20
   3   1   3   52.59    4.40
  -3  -1   3   53.09    4.00
   3  -1  -3   51.39    4.50
  -3   1  -3   47.00    4.90
  -3   1  -3   48.70    3.90
   3   1   3   41.80    4.20
   3   1   3   51.59    4.30
  -3  -1   3   46.00    5.10
  -3   1  -3   49.90    3.70
  -3   1  -3   49.00    4.30
   3  -1  -3   47.20    4.10
  -3  -1  -3   48.70    3.90
   3  -1   3   51.09    4.40
  -3  -1  -3   44.80    4.00
   3  -1   3   51.59    4.60
   3  -1   3   53.09    3.50
  -3   1   3   43.40    4.20
  -3  -1  -3   47.40    4.00
  -3   1   3   49.80    4.10
  -3  -1  -3   43.00    5.40
   3   1  -3   49.40    3.60
  -3  -1  -3   49.10    4.60
   3  -1   3   53.99    4.80
  -3   2  -3  519.55   28.60
   3  -2  -3  499.15   28.80
  -3   2  -3  532.45   28.50
   3   2   3  526.75   29.00
   3   2   3  570.44   28.60
   3  -2  -3  509.35   29.30
  -3  -2   3  553.64   28.70
   3  -2  -3  521.35   28.80
  -3  -2   3  502.65   29.80
  -3   2  -3  520.95   29.60
   3   2   3  488.35   28.90
  -3   2  -3  483.65   29.00
  -3  -2  -3  518.85   28.60
   3  -2   3  521.05   28.40
  -3  -2  -3  541.25   28.90
  -3  -2  -3  552.94   28.50
  -3   2   3  521.85   28.90
   3   2  -3  503.85   28.30
  -3  -2  -3  513.15   28.50
   3  -2   3  519.15   29.10
  -3   2   3  523.35   29.10
   3  -2   3  538.95   29.20
  -3  -3   3   34.00    5.70
   3   3   3   21.50    3.70
   3   3   3   34.60    3.90
   3  -3  -3   29.30    3.60
  -3   3  -3   27.20    4.80
   3  -3  -3   22.00    4.20
  -3   3  -3   27.20    4.10
  -3   3  -3   29.90    4.70
   3  -3  -3   27.20    4.10
   3   3   3   29.80    4.60
  -3  -3   3   31.30    4.50
  -3   3  -3   25.10    3.80
   3  -3   3   29.70    4.10
  -3  -3  -3   28.40    3.80
  -3  -3  -3   32.10    3.90
  -3  -3  -3   34.30    4.30
   3   3  -3   25.10    3.70
  -3   3   3   24.90    3.90
   3  -3   3   23.90    3.70
   3   3  -3   24.00    3.60
  -3  -3  -3   27.50    3.60
  -3  -3  -3   27.90    3.80
  -3   3   3   18.10    3.80
   3  -3   3   27.40    3.40
  -3   4  -3  227.98   13.30
  -3  -4   3  213.48   15.10
  -3   4  -3  213.78   13.00
  -3  -4   3  218.88   13.40
   3  -4  -3  197.28   12.70
  -3   4  -3  208.48   14.80
   3   4   3  209.58   12.90
  -3   4  -3  212.08   13.70
   3  -4  -3  208.28   13.20
   3  -4  -3  208.28   14.30
   3   4   3  229.28   13.70
   3   4   3  196.98   13.50
   3  -4   3  204.68   12.70
   3   4  -3  213.28   12.70
  -3   4   3  201.18   14.30
  -3  -4  -3  200.98   12.90
   3  -4   3  213.38   13.10
  -3  -4  -3  203.58   12.70
   3   4  -3  212.58   12.60
  -3   4   3  211.28   13.70
  -3   4   3  199.38   13.60
   3  -4   3  216.18   13.60
   3   5   3    8.50    3.90
   3  -5  -3   11.10    3.20
  -3   5  -3    6.70    5.60
   3  -5  -3    5.80    5.10
  -3  -5   3    1.50    3.90
  -3   5  -3   14.10    7.60
  -3   5  -3   13.80    3.70
  -3   5  -3    8.50    3.50
   3   5   3   13.20    4.50
   3  -5  -3    5.40    3.90
   3   5   3    3.30    2.60
  -3  -5   3    9.70    6.40
   3   5   3    7.80    3.90
   3   5  -3    8.50    3.00
  -3  -5  -3    5.90    3.60
   3   5  -3    5.90    3.00
   3  -5   3    8.10    2.70
  -3   5   3    9.00    5.20
  -3  -5  -3    6.10    2.20
  -3   5   3    3.10    3.90
   3  -5   3    2.50    3.90
  -3  -5  -3    7.90    3.00
   3  -5   3    5.40    3.50
  -3   5   3    9.40    3.80
   3   6   3   59.49    8.60
  -3   6  -3   64.49   10.30
  -3  -6   3   43.90    7.30
  -3  -6   3   62.29    9.60
   3  -6  -3   72.79    8.40
  -3   6  -3   69.19    8.40
   3   6   3   46.10    6.70
  -3   6  -3   53.89    9.00
   3  -6  -3   48.30    6.70
   3  -6  -3   55.49    6.30
   3   6   3   54.69    8.00
  -3   6   3   47.00    7.30
  -3  -6  -3   59.59    7.10
  -3  -6  -3   59.19    7.30
  -3   6   3   56.19    8.90
   3   6  -3   58.89    6.70
   3  -6   3   55.29    7.00
   3  -6   3   51.49    6.70
  -3   6   3   73.29    9.10
   3   6  -3   52.69    6.90
  -3  -6  -3   36.40    5.90
   3  -6   3   66.49    7.50
   3  -7  -3    2.40    8.30
   3  -7  -3    5.70    4.50
  -3   7  -3   -0.50    7.90
   3   7   3    0.60    4.70
  -3  -7   3   -2.70    5.40
  -3  -7   3   15.20    8.80
   3  -7  -3    4.10    6.00
   3   7   3   -0.70    6.30
  -3   7  -3   -1.40    5.60
   3   7   3    2.00    6.10
  -3   7  -3   10.80    9.70
   3  -7  -3   -2.20    3.60
  -3   7   3   -9.20    6.90
   3  -7   3   -2.60    4.40
  -3  -7  -3    1.60    4.90
  -3   7   3    4.50    6.50
  -3   7   3    7.60    9.50
  -3  -7  -3   -4.00    4.30
   3  -7   3    4.10    4.60
  -3  -7  -3    1.60    4.90
   3   7  -3    1.70    4.30
   3   7  -3    1.40    4.70
  -3  -8   3   -3.90    7.60
   3  -8  -3   18.90   10.70
  -3   8  -3   24.30    7.40
  -3   8  -3   -3.50   12.60
   3  -8  -3    6.10    4.80
  -3   8  -3   35.10   12.50
   3   8   3    5.10    8.00
   3   8   3    8.90    9.10
   3  -8  -3   17.30    9.00
   3   8   3   11.80    9.30
  -3  -8   3   18.80   10.30
   3   8   3   15.50    7.20
  -3  -8  -3    8.70    6.20
  -3  -8  -3   19.10    6.40
  -3  -8  -3    1.70    6.20
  -3   8   3   17.90    8.80
  -3   8   3   17.90   11.40
   3  -8   3   17.50    6.80
   3   8  -3   14.90    5.80
   3   8  -3    6.90    9.50
   3   9   3   -5.10   13.20
  -3   9  -3  -17.20   18.40
   3  -9  -3    2.70    6.50
  -3  -9   3  -13.80    8.00
  -3   9  -3   -4.50    9.80
   3   9   3   -6.90   11.70
   3   9  -3   -8.50   13.80
   3   9  -3   -2.50    9.20
  -3  -9  -3    6.90    7.40
  -3   9   3   15.20   12.80
  -3   9   3   -1.50   15.30
   3  -9   3    5.30    5.70
  -4   0  -3   10.30    2.10
   4   0   3   12.70    2.30
   4   0   3   15.00    1.70
  -4   0  -3   10.70    2.00
   4   0  -3    9.50    2.00
  -4   0   3   17.00    2.30
  -4   0   3   14.70    2.20
   4   0  -3   11.70    2.40
  -4   0  -3    7.50    2.00
   4   0   3   13.30    2.70
   4   0   3   11.20    2.40
  -4   0   3   13.80    2.00
  -4   0  -3   10.40    3.20
  -4   0  -3   13.90    1.70
  -4   1  -3  194.78   11.60
  -4  -1   3  198.18   11.70
   4   1   3  190.78   11.90
  -4   1  -3  178.08   11.90
   4   1   3  194.68   11.90
  -4   1  -3  202.88   12.80
  -4   1  -3  204.08   11.30
   4  -1  -3  185.78   11.70
  -4  -1   3  202.48   12.90
   4   1   3  203.28   12.00
  -4   1  -3  194.28   11.30
   4  -1  -3  202.88   12.20
  -4  -1  -3  193.08   11.60
   4  -1   3  179.28   12.20
   4   1  -3  203.88   11.20
  -4   1   3  205.48   11.90
   4   1  -3  204.48   11.30
   4  -1   3  206.28   11.20
  -4   1   3  193.58   11.90
  -4  -1  -3  192.18   11.80
  -4   1   3  192.88   11.30
  -4  -1  -3  203.28   11.50
  -4  -1  -3  200.38   12.20
   4  -1   3  203.58   12.30
  -4   2  -3    3.50    1.70
  -4   2  -3    0.40    3.30
  -4  -2   3    6.30    2.60
  -4   2  -3    2.40    2.60
   4  -2  -3    3.00    2.80
   4   2   3    5.50    2.40
   4  -2  -3    1.80    2.30
  -4  -2   3    5.20    3.70
   4  -2  -3    2.70    1.80
  -4   2  -3    3.10    2.10
   4   2   3    2.80    2.10
   4   2   3    2.20    2.20
  -4   2  -3    3.70    1.60
  -4   2   3    3.50    2.10
  -4  -2  -3    6.70    2.30
   4   2  -3    0.70    1.80
  -4  -2  -3    3.10    2.20
  -4  -2  -3    4.60    2.60
   4  -2   3    4.30    2.30
  -4  -2  -3    3.90    2.50
   4  -2   3    5.00    2.30
   4  -2   3    3.10    1.60
   4  -2   3    1.30    2.80
  -4   2   3    4.20    2.60
  -4  -2  -3    3.00    1.80
  -4  -2  -3    1.40    1.80
   4   3   3  123.79    8.10
  -4   3  -3  104.69    8.90
   4  -3  -3  116.69    9.60
   4  -3  -3  122.09    8.10
  -4   3  -3  106.99   10.00
   4  -3  -3  119.89    8.50
  -4  -3   3  138.69    8.80
  -4  -3   3  108.39   10.00
   4   3   3  133.69    9.00
  -4   3  -3  111.89    8.10
   4   3   3  115.79    8.30
  -4   3  -3  117.19    8.50
  -4  -3  -3  106.59    8.10
   4  -3   3  114.89    7.70
   4  -3   3  123.89    9.10
  -4  -3  -3  112.59    8.10
  -4  -3  -3  140.59    8.30
   4  -3   3  119.59    9.00
  -4   3   3  113.29    8.80
   4   3  -3  114.99    8.00
   4   3  -3  121.49    8.40
  -4   3   3  118.19    9.50
   4  -4  -3   10.80    4.50
   4  -4  -3    5.70    3.50
   4  -4  -3   12.40    2.90
   4   4   3   12.80    4.40
  -4  -4   3   19.60    5.80
  -4   4  -3    7.90    3.10
  -4   4  -3    4.10    4.10
   4   4   3   13.40    3.20
   4   4   3   11.90    3.80
  -4  -4   3   13.50    3.80
  -4   4  -3   12.20    3.30
  -4   4  -3    5.70    5.10
  -4  -4  -3    9.20    3.00
   4  -4   3   13.10    4.10
   4  -4   3   10.70    3.70
   4   4  -3   15.50    3.80
  -4   4   3    5.40    4.30
   4   4  -3   10.20    2.60
  -4  -4  -3   12.00    3.60
  -4  -4  -3   16.20    4.30
  -4   4   3   12.10    4.00
   4   4  -3    5.20    2.80
   4  -5  -3   16.40    6.10
  -4   5  -3   20.70    5.30
   4   5   3   22.20    4.30
  -4  -5   3   28.10    7.60
   4   5   3   16.70    5.10
  -4   5  -3   23.20    4.60
   4   5   3   27.80    5.30
   4  -5  -3   22.60    5.00
  -4  -5   3   21.00    5.10
  -4   5  -3   23.90    4.30
   4  -5  -3   23.30    3.70
  -4   5  -3   24.30    7.30
   4  -5   3   20.70    5.20
   4   5  -3   26.90    3.90
  -4  -5  -3   18.40    4.30
  -4  -5  -3   25.70    5.80
   4   5  -3   21.60    4.00
  -4   5   3   21.70    5.30
  -4   5   3   10.00    5.40
   4  -5   3   19.00    3.70
  -4  -5  -3   23.20    4.90
  -4   5   3   18.30    4.80
  -4   6  -3   19.60    5.10
  -4   6  -3   20.40    6.50
   4   6   3   13.80    5.40
   4  -6  -3   15.60    4.00
  -4  -6   3   19.40    5.90
   4  -6  -3   27.50    8.10
   4   6   3   21.30    5.50
   4  -6  -3   15.80    5.60
  -4  -6   3   19.40    7.80
  -4   6  -3    7.00    7.90
  -4   6  -3   19.80    5.30
   4   6   3   21.60    4.10
   4  -6  -3   22.50    4.10
   4   6   3   25.90    6.60
  -4   6   3   18.10    7.70
   4  -6   3   14.80    4.20
  -4  -6  -3   23.90    4.90
   4  -6   3   15.60    5.20
  -4   6   3   17.30    6.20
   4   6  -3   23.70    4.40
  -4  -6  -3   17.80    5.20
  -4   6   3   20.30    6.10
   4  -6   3   21.10    6.10
   4   6  -3   13.90    4.40
   4   7   3    4.70    7.30
  -4   7  -3    3.80    6.30
   4   7   3   -1.50    6.50
  -4  -7   3   -4.10    5.40
   4  -7  -3    8.30    4.50
  -4   7  -3    4.00   10.30
   4  -7  -3    2.60    4.20
   4  -7  -3   -3.30    9.10
  -4  -7   3   12.00    9.20
  -4   7  -3   -0.40    8.50
   4   7   3   11.20    6.50
   4  -7  -3    2.60    5.90
   4   7   3    0.50    4.60
  -4   7  -3    3.60    5.80
  -4   7   3    6.70    7.40
   4   7  -3    2.30    4.90
  -4   7   3    4.00    9.10
  -4  -7  -3    7.20    5.50
   4  -7   3   -5.60    5.60
  -4  -7  -3   -5.70    5.10
   4  -7   3    1.30    6.80
  -4   7   3   20.60    7.60
   4   7  -3   -3.00    4.60
   4  -7   3    0.70    4.50
   4   8   3    8.40    9.70
   4  -8  -3   30.50    9.30
  -4   8  -3   22.60   21.20
   4   8   3   17.00    9.40
   4  -8  -3   -8.10   11.00
  -4   8  -3   23.20    8.00
   4  -8  -3   14.00    5.10
  -4  -8   3   21.10   11.40
   4   8   3   13.70    8.60
  -4  -8   3   10.60    8.00
  -4   8  -3    2.40   14.20
  -4   8   3   21.10    9.90
   4   8  -3   16.20    7.00
   4  -8   3    5.70    6.10
  -4   8   3   16.90   11.70
  -4  -8  -3   12.00    7.20
   4   8  -3   18.90    9.40
  -4   9  -3   -0.40    9.50
  -4  -9   3    4.90    9.10
   4   9   3   21.40   13.70
   4  -9  -3   -9.70   17.10
   4   9   3   14.10   15.10
  -4   9  -3  -11.30   19.60
   4   9   3   25.70   11.50
   4  -9  -3   -3.60    6.50
   4  -9   3   10.30    7.10
   4   9  -3    6.90    9.60
  -4   9   3   28.80   14.00
  -4   9   3   -7.50   16.60
  -4  -9  -3   -8.60    8.20
   4   9  -3   12.40   13.20
  -5   0   3   22.90    3.50
   5   0   3   28.30    4.00
  -5   0  -3   27.40    4.00
   5   0   3   32.00    5.10
   5   0  -3   27.20    3.70
  -5   0  -3   26.30    3.00
  -5   0   3   27.60    3.10
  -5   0   3   25.90    3.70
   5   0  -3   27.80    3.30
  -5   0  -3   26.90    3.90
  -5   0  -3   32.50    4.70
   5   0   3   29.30    2.50
  -5   0  -3   23.30    3.50
   5   0   3   26.20    4.10
   5   0  -3   27.30    4.20
   5  -1  -3  909.41   49.10
  -5  -1   3  881.31   47.90
  -5  -1   3  932.51   48.40
  -5  -1   3  887.01   49.70
   5   1   3  865.31   48.60
  -5   1  -3  897.71   48.10
  -5   1  -3  831.02   48.60
   5   1   3  917.11   48.90
   5   1   3  924.91   48.70
   5  -1  -3  854.81   48.70
  -5   1  -3  933.41   48.50
  -5   1  -3  882.31   48.10
   5  -1   3  922.31   47.90
  -5  -1  -3  863.81   48.60
  -5  -1  -3  967.90   48.40
   5   1  -3  852.01   48.20
  -5  -1  -3  928.21   48.90
  -5   1   3  889.51   48.60
   5  -1   3  896.81   49.10
  -5  -1  -3  873.31   48.10
   5   1  -3  937.01   48.50
  -5  -1  -3  852.81   48.40
   5  -1   3  886.91   49.10
  -5   1   3  925.31   48.60
   5  -1   3  829.02   48.50
  -5   1   3  876.21   48.10
   5   1  -3  914.21   48.10
  -5  -2   3   19.80    4.60
   5  -2  -3   25.40    4.30
   5   2   3   30.80    4.00
  -5   2  -3   18.70    4.00
  -5   2  -3   20.80    4.80
  -5   2  -3   21.40    3.10
   5  -2  -3   21.10    3.40
   5   2   3   17.10    3.40
   5  -2  -3   19.30    3.50
  -5   2  -3   23.50    3.90
  -5   2  -3   18.10    3.10
  -5  -2   3   21.00    3.90
   5   2   3   21.40    3.40
   5   2  -3   17.40    2.90
  -5  -2  -3   28.20    4.20
  -5   2   3   19.30    4.00
  -5   2   3   18.80    3.70
  -5   2   3   23.80    3.20
  -5  -2  -3   22.90    3.60
  -5  -2  -3   15.50    3.20
   5  -2   3   17.70    4.00
   5   2  -3   30.30    3.70
  -5  -2  -3   18.40    3.30
  -5  -2  -3   26.90    3.60
   5  -2   3   19.30    3.00
  -5  -2  -3   22.20    3.50
   5  -2   3   20.20    3.70
   5  -2   3   20.90    3.40
   5   3   3  535.25   29.40
  -5  -3   3  561.44   30.70
  -5   3  -3  476.65   30.30
  -5  -3   3  498.45   29.00
  -5   3  -3  536.05   27.80
  -5   3  -3  494.05   28.70
   5   3   3  542.35   28.50
   5   3   3  469.85   28.70
   5  -3  -3  534.35   29.10
   5  -3  -3  491.65   29.90
  -5   3  -3  505.95   28.70
   5  -3  -3  514.65   28.60
  -5   3  -3  534.45   29.60
  -5   3   3  497.05   29.70
  -5  -3  -3  458.95   28.60
   5  -3   3  517.85   29.40
   5   3  -3  512.95   28.60
  -5   3   3  467.55   29.20
   5  -3   3  561.54   29.80
   5   3  -3  536.65   28.60
   5  -3   3  511.05   28.30
  -5  -3  -3  500.65   28.70
  -5   4  -3    7.90    5.30
   5   4   3    8.80    3.70
   5  -4  -3    8.70    3.60
  -5   4  -3   10.60    4.10
   5  -4  -3   12.00    4.90
  -5  -4   3   13.60    4.40
  -5   4  -3   11.00    3.40
   5   4   3   17.50    4.80
  -5   4  -3    8.10    3.40
   5   4   3   12.50    3.40
  -5  -4   3   11.30    5.60
   5  -4  -3   11.30    2.90
   5  -4   3    8.50    3.90
  -5  -4  -3    7.10    3.70
  -5   4   3    5.00    4.90
  -5   4   3    9.10    4.20
   5  -4   3   11.10    2.80
  -5  -4  -3    6.20    3.00
   5   4  -3    5.80    2.80
  -5  -4  -3   13.30    4.40
   5   4  -3   14.50    4.30
   5  -4   3    9.00    4.20
   5   4  -3   10.30    2.60
   5   5   3  207.18   14.50
   5  -5  -3  184.28   15.60
  -5   5  -3  191.38   13.30
  -5  -5   3  174.58   13.30
  -5   5  -3  173.18   15.70
   5  -5  -3  181.68   12.10
  -5   5  -3  169.08   13.00
  -5   5  -3  173.78   14.10
  -5  -5   3  184.08   15.20
   5   5   3  160.28   13.20
   5   5   3  181.48   12.30
   5  -5  -3  172.88   13.30
   5   5  -3  188.78   12.40
  -5   5   3  198.58   14.50
  -5   5   3  167.98   14.90
   5  -5   3  204.88   13.20
   5   5  -3  185.88   11.70
  -5  -5  -3  188.48   12.90
   5  -5   3  165.38   12.10
   5   5  -3  202.38   13.90
  -5  -5  -3  196.08   12.70
   5  -5   3  169.88   15.10
  -5   5   3  178.78   14.20
  -5  -5  -3  196.98   13.10
   5  -6  -3    0.70    5.50
  -5  -6   3    9.80    8.10
   5   6   3   12.90    4.90
  -5   6  -3   -5.90    6.20
   5  -6  -3    9.50    4.00
  -5  -6   3    4.70    5.70
  -5   6  -3    5.70    7.90
   5   6   3    1.30    6.90
   5  -6  -3    6.90    7.80
  -5   6  -3    2.90    7.80
   5   6   3    1.20    5.70
  -5   6  -3    2.30    4.20
   5   6  -3   11.90    6.20
   5   6  -3    3.30    4.10
  -5   6   3   -1.60    6.70
  -5   6   3   13.90    6.30
  -5  -6  -3    3.70    4.90
  -5   6   3   11.90    7.00
  -5  -6  -3    7.30    4.70
   5  -6   3    5.80    3.70
   5  -6   3    3.00    5.10
   5  -6   3   -6.30    6.00
   5   6  -3    7.20    3.70
  -5  -7   3   50.59   11.50
   5   7   3   48.50    8.00
  -5  -7   3   31.00    7.30
   5  -7  -3   50.09    9.10
   5  -7  -3   58.09    7.60
  -5   7  -3   27.00    9.90
   5  -7  -3   60.39   12.20
  -5   7  -3   52.99    8.20
   5  -7  -3   43.80    6.60
  -5   7  -3   65.39   10.80
   5   7   3   32.30    8.30
   5   7   3   67.09   10.90
  -5   7  -3   42.60   12.50
   5  -7   3   55.79    8.30
  -5  -7  -3   48.80    7.80
  -5   7   3   59.39   12.10
   5  -7   3   32.70    6.30
  -5   7   3   71.69   10.40
   5   7  -3   57.09    9.60
   5   7  -3   37.10    6.30
   5   7  -3   55.79    9.30
  -5  -7  -3   46.10    7.70
  -5   7   3   39.80   10.00
   5  -7   3   46.80    9.20
   5   8   3   21.10   10.00
   5   8   3   -1.80   10.50
   5  -8  -3    2.30    9.80
  -5   8  -3  -12.20   14.10
  -5   8  -3    1.10    8.30
  -5  -8   3   10.90    7.70
  -5  -8   3   17.50   15.10
   5  -8  -3    3.60   13.40
   5   8   3    7.90    8.70
   5  -8  -3    0.40    4.70
   5  -8   3    9.90   10.30
  -5  -8  -3   -4.30    7.40
   5   8  -3    6.10    6.70
   5   8  -3    4.10    7.40
   5  -8   3    5.00    5.40
  -5  -8  -3   11.90    8.00
   5   8  -3   14.70   10.00
  -5   8   3   17.50   10.60
  -5   8   3  -13.20   11.50
   5  -8   3   -1.00    8.30
  -5  -9   3   31.50   13.70
   5  -9  -3   -0.40   13.70
  -5   9  -3   16.80   10.20
   5  -9  -3   10.30    6.90
  -5  -9   3   15.80    9.10
   5   9   3   12.40   14.90
  -5   9  -3  -19.40   21.80
   5   9   3   34.50   15.70
   5   9  -3   32.30   15.10
  -5  -9  -3    1.10    8.60
  -5   9   3    0.50   17.60
   5  -9   3   14.00    6.60
   5   9  -3   16.80   10.40
   6   0   3 3444.36  186.88
   6   0   3 3780.72  188.48
   6   0   3 3353.96  187.68
   6   0  -3 3380.46  187.08
   6   0  -3 3559.84  187.58
  -6   0  -3 3747.92  188.58
   6   0  -3 3572.74  187.58
  -6   0  -3 3376.86  187.48
   6   0   3 3645.24  188.18
  -6   0   3 3594.14  187.38
   6   0  -3 3604.44  188.08
  -6   0  -3 3498.95  187.68
  -6   0  -3 3418.76  187.48
  -6   0   3 3461.45  187.18
  -6   0   3 3425.16  187.18
  -6   0  -3 3627.24  187.18
  -6  -1   3  475.35   29.80
   6   1   3  520.75   28.90
   6   1   3  473.45   28.80
  -6   1  -3  515.95   29.80
  -6  -1   3  503.15   28.00
  -6   1  -3  490.65   28.60
   6  -1  -3  507.75   29.30
  -6   1  -3  523.45   28.20
   6  -1  -3  495.25   28.60
   6  -1  -3  509.25   28.60
  -6  -1   3  514.35   28.60
   6   1   3  510.35   28.80
   6  -1  -3  505.55   28.30
  -6   1  -3  520.15   28.20
  -6   1  -3  528.65   28.60
   6  -1   3  512.25   29.30
   6   1  -3  506.15   28.10
  -6  -1  -3  547.65   28.60
   6  -1   3  485.15   28.70
  -6  -1  -3  516.05   28.50
   6  -1   3  512.95   27.80
  -6   1   3  513.25   28.10
   6   1  -3  510.25   28.40
  -6  -1  -3  494.75   28.60
   6  -1   3  516.75   29.30
  -6   1   3  514.05   28.70
  -6   1   3  526.65   28.80
  -6  -1  -3  522.85   29.10
   6   1  -3  522.25   27.90
   6   1  -3  522.25   28.50
  -6  -1  -3  486.75   28.00
   6  -2  -3 2701.83  145.69
  -6  -2   3 2576.44  146.19
  -6   2  -3 2646.24  145.99
  -6   2  -3 2644.94  145.19
   6  -2  -3 2621.84  144.69
   6   2   3 2677.93  144.89
  -6  -2   3 2698.83  144.89
   6   2   3 2612.34  144.69
  -6   2  -3 2741.33  144.79
   6   2   3 2611.24  144.99
  -6   2  -3 2738.13  144.49
  -6   2  -3 2788.22  144.19
   6  -2   3 2653.73  144.69
  -6  -2  -3 2918.71  144.69
  -6  -2  -3 2887.91  144.09
  -6  -2  -3 2828.52  144.79
   6  -2   3 2861.01  145.69
   6   2  -3 2842.12  144.19
  -6   2   3 2664.33  144.49
   6  -2   3 2647.54  145.39
  -6  -2  -3 2653.93  144.69
   6  -2   3 2704.43  144.19
  -6   2   3 2617.74  145.09
  -6   2   3 2784.82  145.29
   6   2  -3 2856.11  144.79
  -6  -2  -3 2557.34  144.89
  -6   3  -3  289.67   15.40
   6   3   3  282.47   17.30
   6  -3  -3  259.87   16.10
   6  -3  -3  257.67   16.80
  -6   3  -3  273.37   18.70
   6   3   3  298.87   16.50
   6   3   3  270.67   16.40
  -6   3  -3  253.87   17.30
  -6  -3   3  254.87   16.80
  -6   3  -3  255.57   16.40
   6  -3  -3  258.17   18.20
  -6  -3   3  255.17   18.30
  -6   3  -3  263.67   16.40
   6  -3   3  280.47   17.40
  -6  -3  -3  255.87   16.50
  -6   3   3  267.57   16.40
   6   3  -3  296.87   16.30
   6  -3   3  259.97   15.70
  -6   3   3  262.97   17.80
  -6  -3  -3  278.77   16.50
   6   4   3 1196.58   73.39
  -6  -4   3 1331.57   74.09
  -6   4  -3 1315.57   75.49
   6   4   3 1466.95   74.59
   6  -4  -3 1393.86   75.19
   6  -4  -3 1271.77   72.49
   6   4   3 1362.16   73.29
   6  -4  -3 1373.46   73.39
  -6   4  -3 1310.37   74.49
  -6   4  -3 1375.26   73.79
  -6  -4   3 1349.56   75.69
  -6   4  -3 1342.77   73.79
   6  -4  -3 1343.07   73.99
  -6  -4  -3 1337.57   73.69
   6   4  -3 1465.35   73.69
   6   4  -3 1362.06   73.69
   6  -4   3 1368.56   74.19
  -6   4   3 1380.16   73.79
  -6  -4  -3 1363.46   73.69
   6   4  -3 1337.57   72.99
   6  -4   3 1434.36   74.79
  -6   4   3 1291.67   74.49
   6  -4   3 1334.97   73.19
  -6  -4  -3 1504.85   73.69
  -6   4   3 1327.67   74.79
  -6   5  -3   87.89   10.50
  -6   5  -3   67.09   10.10
   6   5   3   85.49    8.40
  -6  -5   3   78.59    9.70
   6  -5  -3   83.69   12.40
  -6   5  -3   67.49    8.70
   6  -5  -3   74.59    7.00
   6  -5  -3   72.89    9.20
   6   5   3   63.09    8.90
   6   5   3   99.59   11.30
  -6   5  -3   72.19    9.20
  -6  -5   3   71.09   10.70
  -6  -5  -3   77.29    9.60
  -6   5   3   69.79    9.90
   6  -5   3   85.29   10.80
  -6  -5  -3   64.89    8.40
   6   5  -3   83.29   10.00
  -6  -5  -3   74.59    8.60
   6   5  -3   68.99    6.80
  -6   5   3   71.49   10.60
   6   5  -3   77.09    7.80
   6  -5   3   86.19    9.60
   6  -5   3   63.39    7.00
  -6  -6   3  419.56   29.30
  -6   6  -3  434.66   37.30
  -6  -6   3  415.76   30.30
  -6   6  -3  483.55   30.70
   6   6   3  483.35   28.20
   6  -6  -3  466.05   28.00
   6  -6  -3  450.95   31.50
   6  -6  -3  528.55   29.70
  -6   6  -3  513.25   29.70
  -6   6  -3  495.15   29.30
   6   6  -3  488.65   27.40
   6   6  -3  482.55   30.00
   6  -6   3  469.75   30.40
  -6  -6  -3  491.25   28.90
   6  -6   3  451.75   28.00
  -6   6   3  452.65   30.30
  -6   6   3  496.25   31.60
   6   6  -3  558.14   28.60
   6  -6   3  527.15   29.50
  -6  -6  -3  457.45   28.80
  -6  -6  -3  537.75   29.20
  -6  -7   3   12.40    9.10
   6   7   3   16.90    8.90
   6   7   3    2.80    7.70
  -6   7  -3    6.50   12.90
  -6  -7   3    5.40    6.40
   6  -7  -3   -2.50   11.20
  -6   7  -3   20.10   11.80
  -6   7  -3    3.00    6.30
   6  -7  -3   17.40    7.90
   6   7   3   14.10    7.10
   6  -7  -3   -3.20    9.60
   6   7  -3    1.40    8.80
   6  -7   3   17.40    7.40
  -6   7   3   19.60   10.30
  -6  -7  -3   15.40    7.40
   6   7  -3    4.30    5.50
   6  -7   3   15.20    9.50
   6   7  -3   14.50    6.40
  -6  -7  -3   12.90    6.60
  -6   8  -3  156.98   16.70
  -6   8  -3  152.68   21.70
   6  -8  -3  130.79   15.00
  -6  -8   3  109.79   17.30
   6   8   3  107.19   16.60
   6  -8  -3  174.78   18.40
  -6  -8   3  104.99   15.60
   6   8   3   96.19   13.60
   6  -8  -3  137.29   19.00
   6   8   3  141.09   20.10
  -6   8   3  127.59   17.00
   6   8  -3  134.19   14.30
  -6  -8  -3  123.49   16.30
   6   8  -3  109.89   16.00
  -6  -8  -3  129.29   14.50
   6   8  -3   95.69   15.00
   6  -8   3  140.99   21.40
  -6  -9   3   -9.00    9.40
   6   9   3   -2.40   21.40
  -6   9  -3    5.00   22.20
   6  -9  -3   11.90    7.00
   6  -9  -3    0.50   14.30
  -6  -9   3   -0.90   14.20
  -6   9  -3   34.80   12.70
   6   9   3    3.70   13.90
   6   9  -3    5.90   10.70
  -6   9   3   -5.70   16.80
  -6  -9  -3   14.00    9.30
   6   9  -3  -21.10   14.70
   6  -9   3    0.20    7.30
   7   0  -3  475.95   26.90
  -7   0  -3  445.56   26.30
  -7   0  -3  471.35   26.10
  -7   0  -3  490.65   27.40
  -7   0  -3  472.95   25.80
   7   0   3  485.05   27.20
  -7   0  -3  444.86   26.00
   7   0  -3  421.66   26.10
  -7   0   3  458.95   25.80
   7   0  -3  432.36   26.20
  -7   0   3  471.65   25.70
   7   0   3  458.95   26.40
   7   0   3  478.25   27.00
  -7   0   3  460.15   25.90
   7   0   3  482.75   25.20
   7   0  -3  464.95   25.70
   7   0  -3  446.16   26.00
  -7   1  -3    5.40    3.00
   7   1   3    7.30    2.40
   7  -1  -3    8.30    3.30
  -7  -1   3   10.70    4.90
   7   1   3   12.80    3.30
   7   1   3    7.60    3.30
  -7   1  -3   10.30    3.00
  -7  -1   3   11.60    2.80
  -7   1  -3    9.50    4.30
   7   1   3    6.50    4.00
   7  -1  -3    6.10    2.50
  -7   1  -3   15.10    3.50
   7  -1  -3   11.80    4.40
   7  -1  -3    9.50    2.80
  -7   1  -3    6.50    3.10
  -7  -1  -3   10.10    3.90
  -7  -1  -3   15.00    4.40
  -7   1   3   10.20    2.70
   7   1  -3    7.10    3.50
   7  -1   3    9.30    3.70
   7  -1   3    6.00    3.50
  -7  -1  -3    7.00    3.30
  -7  -1  -3    3.50    2.80
  -7  -1  -3   16.60    3.10
   7  -1   3    7.60    2.00
   7   1  -3   15.50    2.90
   7   1  -3    7.60    3.20
   7  -1   3    8.00    4.00
   7   1  -3    7.30    2.80
  -7   1   3    5.20    3.20
  -7   1   3    4.20    3.20
   7   2   3  336.77   20.40
   7  -2  -3  328.37   19.30
  -7  -2   3  354.76   20.50
   7   2   3  352.26   19.60
   7   2   3  318.57   20.20
   7  -2  -3  343.97   21.70
  -7   2  -3  329.27   21.80
  -7   2  -3  330.57   20.00
   7   2   3  328.67   20.40
  -7  -2   3  310.17   19.20
  -7   2  -3  331.57   19.80
  -7  -2   3  324.77   21.90
  -7   2  -3  362.66   19.40
   7  -2   3  328.57   19.10
  -7   2   3  339.77   19.70
   7  -2   3  325.27   21.00
  -7   2   3  346.97   20.80
  -7  -2  -3  377.66   20.30
   7  -2   3  363.76   21.30
   7   2  -3  338.97   19.30
   7   2  -3  339.67   19.70
   7   2  -3  367.36   19.30
  -7  -2  -3  302.37   20.60
  -7   2   3  355.06   20.80
   7  -2   3  320.27   20.10
  -7  -2  -3  328.37   20.00
  -7  -3   3    5.10    4.90
   7   3   3   -1.10    3.90
  -7   3  -3    7.10    5.00
  -7   3  -3    8.20    3.50
   7   3   3    0.90    4.40
  -7   3  -3    2.90    4.30
   7  -3  -3    5.70    3.00
   7  -3  -3    7.10    5.00
   7   3   3    6.90    3.70
  -7  -3   3    3.40    5.20
  -7   3  -3    5.90    2.90
  -7   3  -3    3.10    3.70
   7  -3  -3    2.50    4.00
   7  -3  -3    5.90    2.50
   7  -3   3    6.50    4.40
   7  -3   3    7.00    4.50
   7   3  -3    6.30    3.30
   7   3  -3    4.00    3.10
   7  -3   3    0.80    2.50
  -7  -3  -3    7.50    5.20
  -7  -3  -3    7.70    4.10
  -7   3   3   -1.60    4.90
  -7   3   3    9.60    5.00
  -7  -3  -3    8.80    3.70
  -7  -4   3  135.59   11.50
  -7  -4   3  142.09   13.10
  -7   4  -3  130.19   10.70
   7  -4  -3  123.59    8.90
  -7   4  -3  123.29   13.80
   7  -4  -3  114.99   13.50
  -7   4  -3  136.09   11.00
  -7   4  -3  113.59   12.10
   7   4   3  136.19   12.40
   7   4   3  150.28   10.90
   7  -4  -3  142.99   11.50
   7   4   3  122.09   10.70
   7  -4  -3  132.69   10.00
  -7  -4  -3  136.69   10.70
   7  -4   3  136.29    9.60
  -7  -4  -3  137.69   10.90
  -7   4   3  133.19   10.90
  -7  -4  -3  159.88   11.60
  -7   4   3  146.49   13.40
   7   4  -3  135.69    9.40
   7   4  -3  143.59   11.30
   7  -4   3  130.29   12.20
  -7   4   3  119.99   12.30
   7   4  -3  148.99   10.40
   7  -4   3  129.99   12.50
   7   5   3    4.10    4.90
  -7  -5   3   -1.50    5.30
   7  -5  -3    0.80    7.20
  -7   5  -3   -2.70    6.10
   7  -5  -3    3.80    3.10
   7   5   3   -0.10    6.40
  -7  -5   3    1.80    7.00
  -7   5  -3   -4.60    4.50
  -7   5  -3    1.10    7.80
   7   5   3    0.80    5.00
   7  -5  -3    1.00    5.10
   7  -5   3   -1.40    5.40
  -7  -5  -3    3.00    5.50
  -7  -5  -3    6.90    6.60
   7   5  -3    0.80    3.20
   7  -5   3    3.70    3.20
  -7   5   3   -8.10    6.10
   7  -5   3   -2.00    6.20
   7   5  -3    1.70    3.60
   7   5  -3    1.80    5.50
  -7  -5  -3    6.30    4.90
  -7   5   3    0.20    4.70
  -7   5   3    2.00    8.10
   7   6   3   35.10    7.50
   7  -6  -3   27.60   11.10
  -7   6  -3   36.40    7.80
   7  -6  -3   25.10    7.20
   7   6   3   30.90    6.90
  -7  -6   3   32.40   10.00
  -7  -6   3   37.60    8.10
  -7   6  -3   30.70   11.60
   7   6   3   45.30    9.90
  -7   6  -3   31.20    8.80
  -7   6  -3   37.90    7.00
   7  -6  -3   27.20    5.50
  -7  -6  -3   46.30    7.50
   7  -6   3   32.30    5.60
  -7   6   3   33.80    9.80
  -7   6   3   40.20   10.30
  -7  -6  -3   43.80    9.00
   7   6  -3   32.50    6.30
   7   6  -3   32.80    8.40
  -7  -6  -3   35.10    7.30
  -7   6   3   32.80    8.00
   7  -6   3   23.20    9.00
   7   6  -3   31.50    5.00
  -7  -7   3    3.80   10.80
  -7  -7   3  -15.00    7.00
  -7   7  -3  -17.40   12.90
  -7   7  -3   -9.90    7.10
   7  -7  -3   -8.80    7.80
   7   7   3   14.10   10.20
   7   7   3   -0.80    9.00
   7  -7  -3    1.90   13.50
   7   7   3    2.10    7.70
   7  -7   3    2.60    8.40
  -7  -7  -3    1.30    7.50
   7   7  -3    7.70   15.20
   7   7  -3    4.20    5.40
  -7   7   3    6.50   10.90
   7   7  -3   -0.30    6.80
   7  -7   3  -19.30   10.50
  -7  -8   3    4.10   12.70
  -7   8  -3   26.80    9.40
   7  -8  -3   11.50    6.90
   7   8   3   11.90   13.00
  -7   8  -3   -7.50   18.20
   7  -8  -3    6.40   11.10
   7   8   3   -1.20   10.40
  -7  -8   3   -6.80    8.40
   7   8   3  -13.80   11.60
  -7   8   3   26.50   14.50
   7  -8   3    3.80   14.50
   7   8  -3   13.30    7.70
  -7  -8  -3   11.60    9.40
   7   8  -3    9.20   12.00
  -7  -8  -3   -0.50    8.20
   7  -8   3    6.90   10.70
   8   0   3 3258.47  181.38
   8   0   3 3240.58  180.68
   8   0   3 3294.57  179.58
  -8   0  -3 3442.36  180.58
   8   0  -3 3304.77  180.08
   8   0  -3 3291.27  180.68
  -8   0   3 3277.17  180.08
   8   0  -3 3473.45  180.78
  -8   0   3 3508.45  180.08
  -8   0  -3 3411.06  180.78
  -8   0   3 3364.36  180.28
   8   0  -3 3571.34  181.48
   8   0   3 3283.67  181.78
   8   0  -3 3548.45  180.68
  -8   0  -3 3414.56  180.38
  -8   0  -3 3548.04  181.58
   8   1   3   39.30    3.30
   8  -1  -3   40.00    6.50
  -8   1  -3   30.90    4.80
  -8   1  -3   39.40    5.20
  -8   1  -3   35.10    6.30
   8   1   3   40.80    6.50
  -8   1  -3   41.90    6.20
   8   1   3   34.90    4.60
  -8   1  -3   47.40    5.70
  -8  -1   3   35.20    5.30
   8   1   3   29.20    5.30
   8   1   3   36.20    6.00
  -8  -1   3   47.30    8.30
   8  -1  -3   36.90    5.00
   8  -1  -3   36.30    5.10
  -8  -1  -3   38.60    6.20
  -8   1   3   39.80    5.30
   8  -1   3   35.40    5.70
   8  -1   3   32.50    5.20
   8   1  -3   46.40    7.00
   8  -1   3   33.50    6.40
  -8  -1  -3   35.20    6.20
   8   1  -3   33.70    5.70
  -8  -1  -3   49.70    5.90
  -8  -1  -3   41.70    5.90
   8  -1   3   33.40    4.10
  -8   1   3   39.10    6.40
   8   1  -3   37.20    5.20
   8   1  -3   37.30    5.70
  -8  -1  -3   41.80    5.50
  -8   1   3   39.50    5.40
  -8  -2   3 2679.73  145.99
   8   2   3 2707.53  146.99
  -8   2  -3 2872.11  146.19
   8  -2  -3 2688.03  146.49
  -8   2  -3 2837.52  146.79
   8   2   3 2565.44  146.89
   8   2   3 2879.91  146.49
   8  -2  -3 2688.13  146.09
   8  -2  -3 2650.83  147.79
  -8   2  -3 2607.84  146.99
  -8  -2   3 2562.14  148.49
  -8  -2   3 2644.34  146.89
   8  -2  -3 2798.82  146.89
  -8   2  -3 2745.83  148.29
  -8   2  -3 2797.72  146.69
   8   2   3 2808.32  146.99
  -8   2   3 2757.82  146.39
   8   2  -3 2930.41  146.09
   8  -2   3 2860.41  147.89
   8   2  -3 2729.23  146.09
   8   2  -3 2855.81  146.79
  -8  -2  -3 2730.03  146.79
   8  -2   3 2736.63  145.89
   8  -2   3 2808.22  147.69
  -8  -2  -3 2561.34  146.79
   8   2  -3 2754.52  146.59
  -8   2   3 2835.22  147.29
   8  -2   3 2669.03  146.69
   8   3   3   13.90    4.50
   8  -3  -3   13.30    3.40
   8  -3  -3   10.80    4.90
   8   3   3   11.80    5.60
   8  -3  -3    6.30    5.90
  -8  -3   3   11.80    6.80
  -8   3  -3   11.60    4.10
   8   3   3    7.00    4.70
  -8   3  -3   16.00    4.20
  -8   3  -3   11.70    3.40
   8  -3  -3   10.20    3.20
  -8   3  -3   18.10    5.70
  -8   3  -3   10.50    6.40
  -8  -3   3   18.10    5.70
  -8  -3  -3   11.20    3.80
  -8   3   3    9.00    5.80
   8  -3   3    9.70    5.30
  -8   3   3    9.20    5.70
   8   3  -3    6.00    3.20
   8  -3   3   12.00    5.20
  -8   3   3   12.90    4.10
  -8  -3  -3    8.70    3.80
  -8  -3  -3   11.00    5.00
  -8  -3  -3    7.10    5.20
   8  -3   3    7.80    3.00
   8   3  -3   11.80    3.80
  -8   4  -3 1482.15   80.89
   8   4   3 1294.87   79.59
   8  -4  -3 1398.86   78.49
   8  -4  -3 1463.75   79.39
  -8   4  -3 1431.96   80.19
  -8   4  -3 1507.05   79.99
  -8  -4   3 1456.85   81.99
  -8   4  -3 1396.76   82.09
   8  -4  -3 1532.45   81.89
   8  -4  -3 1598.74   80.59
   8   4   3 1496.95   80.79
   8   4   3 1385.26   79.59
   8  -4   3 1534.65   80.69
  -8  -4  -3 1474.15   79.99
   8  -4   3 1418.36   79.09
  -8  -4  -3 1321.67   79.69
  -8   4   3 1499.25   81.39
   8   4  -3 1602.64   79.79
  -8   4   3 1407.96   81.09
   8  -4   3 1520.55   81.29
   8   4  -3 1536.55   79.79
  -8   4   3 1487.25   79.99
   8   5   3   -0.40    6.70
   8  -5  -3    6.10    5.30
  -8   5  -3   -1.50    9.80
   8   5   3    1.90    5.90
   8   5   3   -7.30    6.40
   8  -5  -3    5.50    3.40
  -8  -5   3    6.70    6.30
  -8   5  -3    4.00    5.60
  -8  -5   3    3.70    8.10
   8  -5  -3   13.30    9.20
  -8   5  -3   -1.20    7.60
   8  -5   3    4.80    3.90
  -8  -5  -3   -0.20    5.30
  -8   5   3    7.50    8.00
  -8  -5  -3    8.30    5.80
   8   5  -3    1.20    3.40
   8  -5   3   11.70    7.10
  -8   5   3    4.80    5.30
   8  -5   3    7.80    7.50
   8   5  -3    1.00    5.60
  -8   5   3   13.00    8.40
   8   5  -3    2.00    4.10
  -8  -5  -3   11.00    7.10
   8   6   3  498.05   32.80
  -8   6  -3  565.94   34.30
  -8  -6   3  532.35   34.10
   8   6   3  488.35   33.40
   8  -6  -3  590.04   33.90
  -8  -6   3  537.45   35.60
   8  -6  -3  568.64   37.80
  -8   6  -3  562.84   38.30
   8  -6   3  564.24   35.80
  -8   6   3  623.24   37.20
  -8  -6  -3  575.54   33.50
   8   6  -3  543.05   34.40
  -8   6   3  563.54   34.30
   8   6  -3  548.05   31.20
  -8  -6  -3  526.05   33.50
  -8  -6  -3  545.25   33.40
   8   6  -3  606.64   33.10
  -8   7  -3   19.40   15.30
  -8   7  -3    6.70    9.00
   8   7   3    2.70   10.70
   8   7   3    3.70    8.80
  -8  -7   3    5.10    8.70
   8  -7  -3   10.30    9.20
   8   7   3  -15.30    9.60
   8   7  -3   11.20   10.30
   8  -7   3    2.20    9.50
   8  -7   3  -14.20   12.10
  -8   7   3    0.80   12.60
  -8  -7  -3    5.60    7.90
  -8  -7  -3    4.60   10.20
  -8  -7  -3   17.10    8.50
   8   7  -3    9.50    6.00
   8   8   3  189.88   26.50
   8   8   3  134.49   21.20
  -8   8  -3  169.48   25.00
  -8  -8   3  133.89   21.90
   8  -8  -3  163.58   22.70
  -8   8  -3  187.38   21.50
  -8  -8   3  153.08   18.50
   8   8  -3  148.09   16.40
   8   8  -3  157.68   25.40
   8  -8   3  212.68   21.80
  -8  -8  -3  190.38   20.30
  -8  -8  -3  183.48   17.50
  -9   0   3   11.30    3.50
  -9   0  -3    7.10    3.90
  -9   0  -3    7.90    4.10
   9   0  -3    3.30    2.90
  -9   0   3    9.20    3.60
  -9   0  -3    8.90    5.80
   9   0   3    6.10    5.10
   9   0   3    9.80    4.20
   9   0   3    8.30    2.20
   9   0  -3    9.40    5.20
  -9   0  -3    4.20    3.50
   9   0  -3   10.10    4.00
   9   0   3    4.60    4.20
  -9   0   3    6.20    3.40
   9   0  -3    6.70    3.50
   9   0  -3    4.60    3.30
  -9  -1   3   61.59    6.60
   9   1   3   58.49    8.00
   9  -1  -3   57.19    6.10
  -9   1  -3   57.69    7.10
  -9  -1   3   65.79    9.80
   9   1   3   56.19    4.40
   9  -1  -3   57.19    9.50
  -9   1  -3   59.69    8.30
  -9   1  -3   62.59    7.10
   9   1   3   58.69    5.80
  -9   1  -3   66.29    7.70
  -9   1  -3   58.29    7.70
   9   1   3   55.79    8.00
   9  -1  -3   57.09    6.60
   9   1   3   60.89    9.80
   9  -1  -3   54.69    7.50
   9   1  -3   55.29    6.20
   9   1  -3   50.79    8.40
   9   1  -3   50.09    6.90
  -9   1   3   46.40    7.70
   9   1  -3   50.99    6.90
   9  -1   3   49.90    7.80
   9   1  -3   47.90    7.00
  -9  -1  -3   53.49    6.80
  -9   1   3   53.59    6.60
   9  -1   3   54.79    8.30
  -9  -1  -3   53.59    8.90
  -9  -1  -3   69.09    8.30
  -9  -1  -3   54.49    7.20
   9  -1   3   47.00    5.20
  -9   1   3   50.09    6.70
   9  -1   3   56.89    8.20
  -9  -1  -3   56.49    7.40
   9  -2  -3    6.40    3.00
   9  -2  -3    6.10    5.20
  -9  -2   3    4.70    6.50
   9   2   3   -0.10    4.30
  -9  -2   3    4.60    3.40
   9   2   3    2.70    4.10
   9  -2  -3   10.80    4.80
   9   2   3    7.90    6.00
  -9   2  -3    3.90    3.50
  -9   2  -3   10.00    3.90
   9  -2  -3    2.40    3.50
  -9   2  -3    3.60    4.20
  -9   2  -3    2.20    6.00
  -9   2  -3    6.20    4.50
   9   2   3    6.20    2.90
  -9  -2  -3    4.00    3.80
   9  -2   3    4.20    4.20
   9  -2   3    6.30    5.70
   9  -2   3    3.90    2.60
  -9  -2  -3    6.90    5.20
   9   2  -3    5.00    3.20
   9   2  -3    8.30    4.60
  -9  -2  -3    5.60    4.20
  -9   2   3    0.40    4.80
  -9   2   3   10.90    5.30
  -9   2   3    8.30    3.90
   9  -2   3    6.90    4.90
   9   2  -3    7.80    3.70
   9   2  -3    4.00    3.20
  -9   3  -3   23.30    5.00
   9  -3  -3   32.80    4.60
  -9  -3   3   36.60    7.30
   9   3   3   18.80    6.60
   9  -3  -3   27.50    4.50
  -9   3  -3   33.40    6.50
  -9   3  -3   40.50    6.80
  -9  -3   3   32.20    8.60
  -9   3  -3   39.00    5.00
  -9   3  -3   29.90    8.60
   9  -3  -3   29.60    8.10
   9   3   3   33.30    6.90
   9   3   3   37.40    6.20
  -9   3   3   23.60    6.40
   9  -3   3   25.60    4.10
  -9   3   3   28.50    5.70
  -9  -3  -3   42.20    7.20
   9  -3   3   17.80    6.20
   9   3  -3   33.50    5.70
   9   3  -3   36.40    6.10
   9   3  -3   34.20    5.00
   9  -3   3   37.20    7.00
  -9  -3  -3   29.60    5.90
  -9  -3  -3   23.50    5.30
   9   3  -3   30.30    4.70
  -9   3   3   27.70    7.40
  -9   4  -3   -0.20    5.50
   9   4   3   -5.20    6.10
  -9   4  -3   -4.80    8.60
   9  -4  -3   -6.40    8.00
  -9  -4   3    5.40    7.10
   9  -4  -3    2.90    3.60
   9  -4  -3    0.10    5.80
  -9   4  -3    5.30    5.40
   9  -4  -3    3.70    3.20
  -9  -4   3    4.40    6.60
  -9   4  -3   -2.30    6.90
   9   4   3   -0.70    5.30
  -9  -4  -3    8.60    5.30
   9   4  -3    6.40    4.90
  -9   4   3    3.20    5.20
   9  -4   3    4.40    7.20
   9   4  -3    3.50    4.20
  -9   4   3    3.80    9.00
   9  -4   3   -1.60    3.30
  -9  -4  -3    0.20    5.70
  -9   4   3   -2.70    6.60
   9  -4   3    1.40    5.90
  -9  -4  -3    3.50    6.50
   9   5   3    7.00    7.00
  -9   5  -3   13.90    6.90
   9  -5  -3   13.50    4.70
   9  -5  -3   22.00    6.90
  -9   5  -3    2.90   10.30
   9   5   3   -3.50    7.50
  -9  -5   3   -3.70    7.10
   9  -5  -3   12.70   10.40
  -9   5  -3   10.80    6.30
  -9  -5   3   12.70    9.40
   9   5   3  -10.70    7.10
   9  -5   3    3.70    8.10
   9   5  -3   11.60    6.70
  -9  -5  -3    7.40    7.50
   9  -5   3    3.70    4.40
   9  -5   3   11.70    7.30
  -9   5   3   -1.40    7.80
  -9   5   3    4.00    7.30
  -9  -5  -3    8.10    6.60
   9   5  -3   10.60    4.00
  -9   5   3   19.70    9.60
  -9  -5  -3   19.10    6.40
   9   5  -3   12.10    4.80
  -9   6  -3    5.40    7.70
  -9  -6   3   10.30   10.10
  -9  -6   3    7.30    9.70
   9   6   3   -4.70    8.80
  -9   6  -3    6.20   12.40
   9   6   3    1.40    8.30
   9  -6  -3    7.10    7.40
   9   6   3   -6.10    8.70
  -9   6   3   10.00   10.00
  -9  -6  -3   10.80    6.60
  -9  -6  -3   14.60   10.20
   9   6  -3    3.20    4.50
  -9  -6  -3   13.30    8.00
   9   6  -3    4.60    8.00
   9  -6   3  -18.70   10.50
  -9   7  -3    3.00   10.20
  -9  -7   3   -9.60    9.10
   9  -7  -3    9.90   11.00
  -9   7  -3   14.40   16.50
   9   7   3   -2.50   11.50
   9   7   3   13.80   12.10
   9   7   3    9.40   10.40
  -9  -7   3   18.50   12.60
  -9  -7  -3   -2.00   11.20
   9  -7   3    6.40   11.20
   9   7  -3   -5.30   10.30
  -9   7   3    4.80   13.10
  -9  -7  -3    3.60    8.70
  -9  -7  -3    8.80    8.80
   9   7  -3    0.50    6.20
  10   0   3   76.09    9.50
  10   0   3   68.79    9.50
  10   0  -3   72.29    7.40
 -10   0  -3   71.99    8.80
 -10   0  -3   58.79    8.60
  10   0   3   82.59    9.80
 -10   0   3   60.89    7.60
  10   0   3   65.59    5.90
  10   0  -3   78.69    9.50
  10   0  -3   68.19    7.90
 -10   0  -3   75.49    9.70
  10   0  -3   76.69    7.80
 -10   0  -3   82.09    8.80
 -10   0   3   62.89    7.70
  10   0  -3   68.69    8.50
  10   1   3  135.09   12.50
 -10  -1   3  131.29   13.60
 -10   1  -3  141.29   11.50
  10  -1  -3  146.79   11.80
 -10   1  -3  144.09   11.70
  10   1   3  138.49    8.70
  10   1   3  123.59   13.60
  10   1   3  142.29   10.20
  10  -1  -3  133.89   10.70
  10  -1  -3  141.99   10.50
  10  -1  -3  129.89   14.10
  10   1   3  135.79   11.90
 -10   1  -3  149.29   11.40
 -10   1  -3  124.29   14.70
 -10  -1  -3  157.88   11.90
 -10  -1  -3  137.69   10.70
  10  -1   3  155.58   14.30
  10  -1   3  132.39   13.10
 -10   1   3  131.79   11.70
  10  -1   3  137.99   12.10
  10   1  -3  141.79   10.80
 -10  -1  -3  148.79   12.90
 -10  -1  -3  150.78   12.40
  10  -1   3  137.49    9.60
  10   1  -3  143.79   10.80
  10   1  -3  145.89   13.00
 -10   1   3  135.19   11.30
  10   1  -3  144.89   10.90
 -10  -1  -3  143.79   11.60
  10   1  -3  124.19   11.10
 -10   1   3  149.49   11.40
 -10  -2   3   54.79   10.40
  10  -2  -3   55.89    7.80
 -10  -2   3   47.30    8.20
 -10   2  -3   69.19    8.20
  10   2   3   76.39    9.60
  10  -2  -3   65.49    9.40
 -10   2  -3   56.49    8.90
  10   2   3   64.39    8.40
 -10   2  -3   70.39    8.60
  10  -2  -3   76.09    9.20
  10   2   3   72.79    9.70
  10  -2  -3   62.69    7.40
 -10   2  -3   62.09   10.40
  10   2   3   53.79    6.80
 -10   2  -3   74.49    9.70
 -10   2   3   65.09    8.70
 -10   2   3   83.69   10.30
  10  -2   3   62.89    6.90
  10   2  -3   74.29    7.60
 -10  -2  -3   79.69    9.30
  10  -2   3   63.19    9.00
  10   2  -3   82.09    8.10
  10  -2   3   65.29    9.20
  10   2  -3   62.89    8.60
  10   2  -3   57.69    8.20
 -10   2   3   72.39    8.60
  10  -2   3   69.79   11.00
 -10  -2  -3   72.89   10.00
 -10  -2  -3   72.79    9.10
 -10  -3   3   82.09   11.20
  10   3   3   87.39   10.70
  10   3   3   71.69   11.00
  10  -3  -3   94.29    8.10
  10  -3  -3  109.59   14.50
 -10   3  -3   89.59   11.60
 -10   3  -3   77.39   12.00
 -10   3  -3   73.29   13.00
 -10  -3   3   80.39   12.40
  10  -3  -3   79.09    8.50
 -10   3  -3   87.69   10.10
  10   3  -3   87.49    9.00
  10   3  -3   84.19    8.70
  10  -3   3   71.39    8.10
  10  -3   3   81.29   12.20
 -10  -3  -3   93.89   10.60
  10   3  -3   93.59   11.10
 -10   3   3   74.39   10.20
 -10   3   3   98.29   12.40
  10  -3   3   72.79   10.30
 -10  -3  -3   66.99   10.50
  10   3  -3   80.89    9.00
 -10   3   3   84.09   10.60
  10  -4  -3   51.99   11.40
 -10  -4   3   48.10   11.40
  10  -4  -3   54.39    7.90
 -10  -4   3   48.60    9.10
 -10   4  -3   45.60   11.60
 -10   4  -3   48.30    7.60
 -10   4  -3   52.79    9.10
  10  -4  -3   54.09    8.90
  10  -4  -3   40.50    6.50
  10   4   3   57.69    9.90
  10   4   3   44.70    9.10
 -10   4  -3   59.69   10.10
  10   4   3   60.79    8.90
  10   4  -3   47.40    7.80
  10  -4   3   49.90    6.30
  10  -4   3   39.00    8.40
 -10  -4  -3   56.49    8.10
 -10   4   3   45.40    9.90
  10  -4   3   54.29   10.30
 -10   4   3   56.39   10.70
  10   4  -3   60.79    9.30
 -10   4   3   47.60    8.30
 -10  -4  -3   56.39    9.60
 -10  -5   3   13.10   10.10
 -10  -5   3   27.70   10.40
  10  -5  -3   25.00    8.10
  10   5   3   21.50    9.20
  10   5   3   13.60    8.60
  10   5   3   32.20    9.60
 -10   5  -3   25.20    8.30
 -10   5  -3   24.00   12.30
 -10   5   3   27.60    9.90
 -10  -5  -3   39.50    8.20
  10  -5   3   27.40    8.40
 -10   5   3   22.20    9.00
 -10  -5  -3   34.30    9.60
  10   5  -3   24.10    4.90
  10   5  -3   25.70    7.60
 -10   6  -3   22.40   10.40
 -10   6  -3   36.70   15.30
  10   6   3   14.90   10.60
 -10  -6   3   27.20    9.40
  10   6   3   26.20   10.80
  10  -6  -3   42.40   10.20
  10   6   3   18.50   11.00
 -10  -6  -3   44.10    9.20
  10   6  -3   30.70    5.70
  10   6  -3   33.60    9.30
 -10   6   3   20.00   12.60
 -10  -6  -3   33.60    9.00
 -10  -6  -3   28.70   11.10
 -10   7  -3   -1.30   17.60
 -10  -7   3   17.40   11.30
  10   7   3    5.80   14.10
  10   7   3  -23.60   12.40
 -10  -7   3   15.20   12.60
  10  -7  -3  -12.20   11.50
 -10   7  -3    8.00   11.80
 -10  -7  -3   -1.70    9.00
 -10  -7  -3    9.20   12.00
  10  -7   3   21.80   13.70
  10   7  -3   -1.10   11.00
 -10   7   3   18.20   14.10
  10   7  -3    4.00    8.30
 -10  -7  -3    8.50   12.10
 -10  -7  -3    8.40    9.40
  11   0  -3  136.39   12.00
 -11   0  -3  145.29   12.40
  11   0  -3  139.29   11.50
 -11   0   3  131.29   14.20
  11   0  -3  139.29   15.20
  11   0   3  122.09   13.70
 -11   0  -3  140.89   11.90
  11   0   3  136.99   14.90
  11   0  -3  129.89   11.10
 -11   0  -3  151.18   15.00
 -11   0  -3  115.69   11.40
  11   0  -3  155.28   10.90
  11   0   3  129.89    9.30
 -11   0   3  118.19   11.60
  11   0   3  139.59   13.70
 -11  -1   3   65.39   12.00
  11  -1  -3   70.19   10.50
 -11   1  -3   63.59    9.10
  11   1   3   61.59    5.40
  11   1   3   62.59    9.10
 -11   1  -3   82.39   10.40
  11   1   3   56.89    9.70
 -11   1  -3   59.09   10.60
 -11  -1   3   49.20    7.00
  11  -1  -3   73.19    8.20
  11  -1  -3   60.49    7.60
  11  -1  -3   62.59    9.60
 -11   1  -3   62.99    9.40
  11   1   3   67.29    9.50
 -11  -1  -3   57.99    8.70
  11   1  -3   58.19    8.40
  11  -1   3   45.20    9.00
 -11  -1  -3   60.29    9.40
 -11   1   3   55.19    9.40
  11   1  -3   52.69    8.60
  11   1  -3   43.40    6.40
 -11  -1  -3   57.49    8.30
  11  -1   3   65.79    9.90
  11   1  -3   57.39    7.70
 -11   1   3   63.89    9.30
  11  -1   3   50.39    6.70
  11  -1   3   52.59   10.90
  11   1  -3   67.59    9.90
 -11  -1  -3   61.49    7.20
 -11  -1  -3   78.09   10.30
 -11   1   3   67.69    8.40
 -11   2  -3   86.19   12.20
  11  -2  -3  118.99   11.60
  11  -2  -3  106.29   15.40
  11   2   3  105.69   14.60
  11   2   3   99.49   13.20
  11  -2  -3  105.39    9.30
 -11   2  -3  121.99   10.70
 -11  -2   3  104.39   14.10
  11   2   3   90.79   11.50
 -11   2  -3  113.29   11.50
  11  -2  -3   86.99    9.90
 -11  -2   3   92.79   10.30
  11  -2   3  106.09    9.00
  11  -2   3   92.29   11.60
  11   2  -3   94.09   10.10
 -11  -2  -3  112.39   11.80
  11  -2   3  106.99   11.30
  11   2  -3  117.89   10.80
  11   2  -3  101.29    9.90
 -11   2   3   92.39   12.50
 -11   2   3  106.29   12.70
  11   2  -3  110.49   10.90
  11  -2   3  107.19   13.60
 -11   2   3  100.59   11.50
 -11  -2  -3  124.19   12.40
 -11  -2  -3  104.99   11.80
  11   2  -3  120.09   13.90
 -11  -3   3   32.90   10.10
 -11   3  -3   29.00   11.20
  11   3   3   26.00    8.80
 -11   3  -3   54.69   10.50
  11  -3  -3   41.80   10.20
  11  -3  -3   35.40    5.50
  11   3   3   37.20    7.90
  11   3   3   29.90    8.40
  11  -3  -3   46.80    6.20
 -11   3  -3   27.60    7.20
 -11   3  -3   14.70    8.70
 -11   3   3   29.80    9.30
  11   3  -3   35.40    6.50
  11  -3   3   26.40    9.50
  11  -3   3   28.80    5.40
 -11  -3  -3   21.30    7.10
 -11   3   3   29.80    6.70
  11  -3   3   44.40    9.20
  11   3  -3   48.40    7.10
 -11  -3  -3   43.70    7.60
 -11  -3  -3   43.60    8.90
 -11   3   3   37.50    9.30
  11   3  -3   35.30    8.00
  11   3  -3   27.30    5.80
  11   3  -3   28.10    6.50
 -11   4  -3   53.29   14.10
  11  -4  -3   55.29    8.60
  11  -4  -3   63.69   10.00
 -11  -4   3   55.29   12.30
 -11  -4   3   50.69   10.30
  11   4   3   47.80    9.70
 -11   4  -3   72.89   10.20
  11   4   3   41.30   10.80
  11   4   3   50.49    9.80
  11  -4   3   42.40    6.60
 -11   4   3   54.19   10.80
 -11  -4  -3   70.49   11.20
  11   4  -3   76.49   10.70
 -11  -4  -3   62.79   10.90
 -11   4   3   48.50   11.10
 -11   4   3   48.50    9.20
  11  -4   3   58.99   10.00
  11  -5  -3    7.30    8.40
  11   5   3    2.90    9.60
 -11  -5   3   13.80    9.80
 -11   5  -3   24.60    9.90
 -11   5  -3   -3.00   12.80
  11   5   3    7.40    8.90
  11   5   3   -0.50    9.70
 -11  -5   3   14.70   10.60
 -11  -5  -3   19.30    7.90
 -11  -5  -3   26.30   10.90
  11  -5   3    4.40    8.60
  11   5  -3   11.30    5.20
 -11   5   3   32.30   11.20
  11   6   3   22.50   12.00
  11  -6  -3   31.10   10.60
 -11  -6   3   16.80   11.30
  11   6   3    0.20   11.30
 -11  -6   3   25.00   13.40
 -11   6  -3   20.10   18.60
  11   6   3   19.80   20.10
 -11   6  -3   36.00   12.40
 -11  -6  -3   12.30   11.70
  11   6  -3   12.40    5.70
  11   6  -3   28.40   10.20
 -11   6   3   45.50   14.50
 -11  -6  -3   26.30    9.80
 -11  -6  -3   19.80    9.50
 -12   0   3  166.48   14.70
 -12   0  -3  158.18   15.30
  12   0   3  174.68   17.40
 -12   0  -3  171.78   18.20
  12   0   3  187.68   15.70
  12   0  -3  166.48   18.80
 -12   0  -3  192.78   14.50
  12   0  -3  177.48   13.80
  12   0   3  175.68   12.10
  12   0   3  172.78   18.20
  12   0  -3  183.88   14.60
  12   0  -3  173.68   13.70
 -12   0  -3  192.28   14.80
 -12   0   3  179.98   17.20
  12   1   3  177.58   20.10
  12  -1  -3  218.98   16.20
  12   1   3  211.28   18.40
 -12   1  -3  178.08   20.00
  12  -1  -3  216.08   20.90
  12  -1  -3  193.08   14.70
  12   1   3  196.38   12.30
 -12   1  -3  206.18   16.60
 -12  -1   3  193.68   18.80
 -12  -1   3  176.18   15.70
 -12   1  -3  186.18   16.80
  12  -1  -3  190.68   14.80
  12   1   3  232.88   17.30
  12  -1   3  192.08   18.20
 -12  -1  -3  228.08   18.10
  12   1  -3  220.68   15.10
 -12  -1  -3  175.88   16.30
  12  -1   3  220.68   19.20
  12  -1   3  222.98   16.70
 -12   1   3  208.58   16.60
 -12   1   3  223.38   16.70
  12   1  -3  216.58   16.00
  12   1  -3  212.28   19.90
 -12  -1  -3  205.18   16.20
  12  -1   3  180.58   13.40
  12   1  -3  202.28   15.10
 -12   1   3  189.98   16.10
 -12  -1  -3  208.08   17.10
  12   1  -3  194.98   14.90
  12  -2  -3  162.38   14.00
  12   2   3  130.99   19.20
 -12   2  -3  133.29   19.20
 -12  -2   3   96.59   15.90
  12  -2  -3  127.49   12.30
  12   2   3  107.89   16.10
  12   2   3  102.39   13.80
 -12   2  -3  113.09   14.90
  12  -2  -3  155.48   23.40
 -12  -2   3  106.79   12.10
  12  -2  -3  124.79   11.50
  12  -2   3  125.49   13.20
 -12   2   3  123.89   14.60
  12   2  -3  142.89   12.50
 -12   2   3  133.99   14.80
 -12  -2  -3  127.69   14.70
 -12   2   3  134.99   14.70
  12   2  -3  140.29   12.70
  12  -2   3  111.69   10.80
  12   2  -3  114.59   16.80
  12   2  -3  129.29   12.60
 -12  -2  -3  158.48   13.50
  12  -2   3  104.49   15.30
 -12  -2  -3  162.18   14.90
  12   3   3  150.58   17.70
  12   3   3  149.88   18.20
 -12   3  -3  137.69   17.30
  12  -3  -3  139.89   12.80
 -12   3  -3  156.78   21.70
  12   3   3  130.99   15.50
 -12  -3   3  128.79   16.80
 -12  -3  -3  133.79   14.50
 -12  -3  -3  185.38   16.20
  12   3  -3  153.68   13.60
 -12   3   3  166.18   16.20
 -12   3   3  163.68   18.30
  12  -3   3  114.19   12.60
  12   3  -3  167.58   13.60
 -12   3   3  170.28   17.80
  12   3  -3  156.68   18.30
  12  -3   3  135.89   17.30
  12   3  -3  161.88   14.10
 -12   4  -3   70.29   12.90
  12   4   3   50.79   11.90
  12   4   3   58.39   12.10
  12  -4  -3   71.39   11.10
  12   4   3   68.79   11.40
 -12   4  -3   41.70   14.70
  12  -4  -3   62.49   10.60
 -12  -4   3   57.09   14.10
 -12  -4  -3   70.59   12.00
  12   4  -3   54.19    9.00
  12   4  -3   74.59   12.80
  12  -4   3   67.09   10.90
 -12   4   3   58.99   12.70
 -12  -4  -3   65.99   10.00
  12  -5  -3   91.89   13.10
 -12   5  -3  110.49   15.80
  12   5   3   69.39   14.80
 -12  -5   3   85.19   16.50
  12   5   3   69.19   15.70
 -12  -5   3   74.69   13.50
  12   5   3   80.99   14.00
 -12   5  -3   69.09   17.70
  12   5  -3   91.79   15.10
  12  -5   3  104.99   13.90
  12   5  -3   86.89   10.70
 -12  -5  -3  102.79   16.80
 -12  -5  -3   91.29   14.90
 -12   5   3   77.59   15.10
 -12  -6   3   -1.20   10.90
 -12   6  -3   61.39   15.40
 -12  -6   3   15.80   13.50
  12  -6  -3   18.20   13.90
  12   6   3   15.00   13.10
 -12   6  -3    5.40   25.10
  12   6   3   -3.00   17.30
  12   6  -3    8.50   10.80
 -12   6   3   28.00   15.40
 -12  -6  -3   14.20    9.30
 -12  -6  -3   13.40   13.90
 -13   0   3   45.70    8.80
 -13   0  -3   46.40    9.20
  13   0   3   48.70   10.70
 -13   0  -3   47.70   11.00
  13   0  -3   25.20   12.40
 -13   0   3   45.80   12.00
  13   0  -3   34.30    6.70
  13   0   3   36.30    8.70
  13   0  -3   38.60    8.70
  13   0   3   49.00    7.50
 -13   0  -3   35.30    8.30
 -13   0  -3   23.70   10.60
 -13  -1   3   30.50    7.70
  13   1   3   36.90    8.70
 -13  -1   3   29.30   11.50
 -13   1  -3   30.60    9.40
 -13   1  -3   36.70   11.50
  13  -1  -3   28.40    7.00
  13  -1  -3   35.00    9.00
  13  -1  -3   26.00    6.80
  13   1   3   27.30    9.80
  13   1  -3   40.60    6.80
  13  -1   3   25.90    5.70
 -13   1   3   36.00    8.80
  13  -1   3   18.40    7.70
 -13  -1  -3   40.50    8.10
  13   1  -3   33.20    7.80
  13  -1   3   43.50   10.20
 -13   1   3   33.30    8.70
  13   1  -3   40.80   12.50
 -13   1   3   30.20    8.60
 -13  -1  -3   40.70   11.10
  13   1  -3   44.00    8.50
 -13   2  -3   25.80   12.30
 -13   2  -3   41.20   10.40
  13  -2  -3   28.70    8.40
 -13  -2   3   30.00   11.80
  13   2   3   30.70    8.40
  13   2   3   26.90   10.50
  13   2   3   22.70   12.40
 -13  -2   3   20.00    8.10
  13  -2  -3   45.20    7.90
 -13  -2  -3   42.00   10.60
  13   2  -3   34.00   12.70
 -13   2   3   37.80    9.50
  13   2  -3   26.80   11.50
  13   2  -3   26.40    7.40
 -13  -2  -3   34.50    7.70
 -13   2   3   29.20   10.40
  13   2  -3   23.50    8.10
 -13   2   3   46.60   10.30
  13  -2   3   27.30    6.50
  13  -2   3   25.10   10.00
  13   3   3   29.20   12.50
  13   3   3    9.40   12.60
 -13  -3   3   17.90   13.90
  13   3   3   17.60    8.80
  13  -3  -3   23.60    7.70
 -13   3  -3   20.00   13.40
  13   3  -3   22.80    8.40
 -13  -3  -3   20.30    7.90
  13   3  -3   24.50    8.00
 -13   3   3   12.30   10.80
 -13   3   3   18.60   12.40
  13   3  -3   18.70    7.90
  13  -3   3   27.70    7.80
  13   3  -3    7.60   11.30
  13  -3   3   13.60    9.30
 -13  -3  -3   14.50   10.20
  13   4   3    3.10   10.10
 -13  -4   3   14.00   12.80
  13  -4  -3   21.00   11.50
  13   4   3   16.20   14.00
 -13   4  -3   20.60   15.90
  13   4   3   18.00   13.00
  13  -4   3   37.60   11.30
 -13   4   3   24.60   12.40
  13   4  -3   11.10    8.40
 -13  -4  -3   31.20    7.90
 -13  -4  -3    9.20   11.90
  13   4  -3   14.20    8.10
  13   5   3   23.30   15.20
  13  -5  -3   15.40   15.50
 -13   5  -3   12.60   19.40
 -13  -5   3   21.90   14.40
  13   5   3    0.30   12.00
 -13  -5  -3   11.20   10.20
  13  -5   3   13.90   12.70
 -13   5   3   18.70   14.90
  13   5  -3    4.70    8.60
 -13  -5  -3   19.50   14.20
 -14   0   3   67.59   11.70
 -14   0   3   62.69   14.70
  14   0   3   61.59   11.00
  14   0   3   51.29    7.70
 -14   0  -3   78.59   14.30
  14   0  -3   56.89   10.50
 -14   0  -3   68.19   13.10
  14   0   3   72.19   13.30
  14   0  -3   41.60    8.90
 -14   1  -3  504.15   35.80
  14   1   3  520.45   35.50
  14  -1  -3  511.15   31.90
  14   1   3  501.55   32.80
 -14  -1   3  460.55   35.20
 -14  -1   3  448.16   31.90
 -14   1  -3  434.86   31.70
 -14   1   3  525.25   35.90
  14   1  -3  446.36   30.00
  14   1  -3  498.25   30.30
  14  -1   3  509.95   31.80
  14  -1   3  464.45   28.90
  14  -1   3  501.25   34.20
  14   1  -3  467.45   31.10
  14   2   3   49.50   13.50
 -14  -2   3   42.70   11.20
 -14   2  -3   47.50   15.50
  14   2   3   47.00   11.50
 -14  -2   3   64.69   14.70
 -14  -2  -3   73.09   13.00
 -14  -2  -3   53.49   10.10
  14   2  -3   53.09   10.50
  14   2  -3   55.59   10.50
 -14   2   3   56.89   13.50
  14   2  -3   45.00    9.70
  14  -2   3   63.79   13.70
  14  -2   3   55.29    8.70
  14   2  -3   40.10   18.50
  14   3   3  319.57   29.90
 -14  -3   3  339.37   29.80
 -14   3  -3  350.96   34.80
  14  -3  -3  356.46   27.50
  14   3  -3  340.07   25.70
 -14   3   3  314.47   29.20
 -14  -3  -3  333.77   25.70
 -14  -3  -3  368.36   27.20
  14   3  -3  343.77   25.90
  14  -3   3  381.56   28.40
 -15   0   3    9.40   13.00
  15   0   3   15.40   13.40
  15   0   3   15.90   10.20
  15   0  -3   16.10   11.40
 -15   0  -3   10.90   12.50
 -15   1  -3   48.40   15.60
  15   1   3   57.29   15.50
 -15  -1   3   39.10   16.00
  15   1   3   51.79   12.20
  15  -1  -3   42.10   12.00
 -15  -1  -3   47.20   14.20
  15  -1   3   88.19   15.30
  15   1  -3   54.39   12.50
 -15   1   3   37.60   15.60
  15  -1   3   45.90   11.10
   0   0  -4  407.26   21.30
   0   0  -4  398.06   21.70
   0   0   4  386.46   22.00
   0   0   4  381.96   21.70
   0   0   4  403.46   21.70
   0   0   4  348.07   21.20
   0   0  -4  439.96   22.30
   0  -1  -4    1.00    1.80
   0   1   4    0.40    1.80
   0  -1  -4   -0.50    1.40
   0   1  -4    0.90    1.40
   0  -1   4   -0.80    1.30
   0   1  -4    0.20    1.80
   0   1   4    0.60    1.10
   0  -1   4   -0.40    1.40
   0  -1   4    5.10    2.60
   0  -1   4    1.00    1.00
   0   1   4   -1.70    1.50
   0  -2  -4  323.97   17.80
   0   2   4  360.46   19.00
   0   2  -4  300.87   18.80
   0   2  -4  345.67   18.60
   0  -2  -4  350.36   19.10
   0  -2   4  313.87   18.20
   0  -2   4  330.27   18.40
   0  -2  -4  319.27   18.70
   0   2  -4  335.67   18.00
   0   2   4  318.47   18.50
   0  -2   4  345.37   19.50
   0   2  -4  301.67   18.30
   0  -3   4    1.20    2.10
   0   3  -4    3.00    2.00
   0  -3  -4   -1.70    1.70
   0   3  -4   -1.90    2.50
   0  -3   4    0.80    3.90
   0   3   4   -1.40    2.30
   0  -3  -4   -0.80    2.40
   0  -3  -4    5.80    2.70
   0   3  -4   -2.70    2.10
   0  -3  -4   -2.80    1.50
   0   3   4    1.00    2.30
   0   4   4  137.39    9.60
   0   4  -4  111.09    8.50
   0  -4   4  109.29    8.50
   0  -4  -4  119.49    8.10
   0  -4  -4  123.49    9.70
   0   4  -4  113.39    9.30
   0  -4   4  128.59   11.10
   0  -4  -4  136.59    8.10
   0   4   4  121.19    9.20
   0   4  -4  131.89    8.70
   0  -4  -4  139.39    9.80
   0  -5   4    0.50    2.80
   0  -5  -4    0.90    4.00
   0   5  -4   -3.60    2.30
   0   5  -4   -3.20    3.70
   0  -5  -4   -3.90    2.70
   0  -5  -4    0.20    2.50
   0   5  -4    2.20    3.20
   0  -5  -4    0.80    2.50
   0   5   4    0.20    4.40
   0  -5   4    0.60    5.90
   0   5  -4   -3.30    4.40
   0   5   4   -3.90    4.00
   0  -5  -4    0.10    4.40
   0  -6   4    6.60    3.60
   0   6  -4   19.60    4.60
   0  -6   4   12.80    4.10
   0  -6  -4   16.30    3.70
   0  -6  -4    9.20    4.20
   0  -6   4   18.80    8.20
   0  -6  -4   18.30    5.80
   0   6   4   12.20    5.00
   0   6  -4   20.60    5.30
   0   6   4   14.20    6.00
   0  -6  -4   26.70    6.00
   0   6  -4   14.60    6.60
   0  -6  -4   16.40    3.60
   0   7  -4   -8.10    6.80
   0  -7  -4    4.10    3.80
   0  -7   4    1.80    4.40
   0   7  -4    8.30    8.40
   0   7  -4   -1.40    4.90
   0  -7  -4   -7.40    4.20
   0   7   4   -9.80    7.10
   0   7   4   -9.10    6.60
   0  -7  -4   -0.40    4.40
   0   8  -4    9.30   11.70
   0   8  -4    6.00   10.00
   0  -8  -4   -0.50    6.50
   0  -8  -4    0.40    5.60
   0   8  -4   -6.50    6.60
   0   8   4   -1.10   10.20
   0   9   4    2.80   14.30
   0   9  -4    0.40   15.80
   0   9  -4   -5.60    9.20
   0  -9  -4   -5.50    7.50
   0  -9   4   -8.50    8.10
   0  -9  -4    5.30    9.60
  -1   0   4 5545.05  272.77
   1   0  -4 5123.19  272.87
  -1   0   4 5447.46  273.17
   1   0  -4 5376.46  272.87
  -1   0  -4 5199.68  272.77
  -1   0   4 4818.82  272.87
   1   0   4 4687.43  272.57
   1   0   4 5207.68  272.87
   1   0   4 5238.78  273.37
  -1   0  -4 5141.99  273.57
  -1   0  -4 4919.11  272.57
   1  -1  -4  528.75   28.50
  -1   1  -4  510.95   29.00
  -1  -1   4  543.75   28.10
  -1  -1   4  560.74   28.00
   1   1   4  494.85   28.90
   1   1   4  520.35   28.30
  -1  -1   4  519.15   28.10
  -1  -1   4  490.15   28.90
   1  -1  -4  540.75   28.60
  -1   1  -4  493.65   27.90
  -1   1  -4  467.55   28.20
   1   1   4  506.85   28.20
  -1   1  -4  555.44   28.40
   1  -1   4  504.75   28.40
   1   1  -4  538.65   28.40
  -1   1   4  551.24   28.30
  -1  -1  -4  488.45   28.40
   1  -1   4  540.75   28.50
   1  -1   4  506.45   28.60
   1   1  -4  516.95   28.00
   1  -1   4  494.85   28.00
  -1   1   4  530.75   28.60
  -1  -1  -4  525.35   29.10
   1   2   4 3322.77  198.28
   1  -2  -4 3757.32  198.18
   1  -2  -4 3400.16  197.88
  -1   2  -4 3637.74  198.38
  -1   2  -4 3861.01  197.88
  -1   2  -4 3618.14  197.88
   1   2   4 3803.52  197.78
  -1   2  -4 3718.23  197.58
   1   2   4 3582.74  197.78
  -1  -2   4 3933.81  198.98
   1  -2  -4 3728.23  198.08
   1  -2  -4 3981.90  197.18
  -1  -2   4 3665.73  197.98
  -1   2   4 3679.33  197.98
  -1  -2  -4 3767.12  197.38
   1   2  -4 3715.23  197.88
   1   2  -4 3590.04  197.88
  -1   2   4 3760.82  198.18
   1  -2   4 4140.99  198.68
   1  -2   4 3885.81  197.88
  -1  -2  -4 3721.43  198.48
   1   2  -4 3605.34  197.48
   1  -2   4 3734.43  197.98
  -1  -2  -4 3915.11  198.08
  -1   3  -4  196.08   12.70
  -1   3  -4  227.28   12.60
  -1  -3   4  218.88   14.30
   1  -3  -4  211.48   13.30
   1  -3  -4  215.08   12.40
  -1   3  -4  213.48   12.40
   1  -3  -4  218.48   12.90
   1   3   4  202.78   12.70
  -1  -3   4  212.78   12.50
   1   3   4  211.08   13.20
  -1   3  -4  185.78   13.30
  -1  -3  -4  207.38   12.80
   1  -3   4  198.68   13.80
  -1   3   4  215.28   13.20
  -1  -3  -4  211.18   12.10
  -1   3   4  213.18   13.10
  -1  -3  -4  198.38   11.90
   1   3  -4  223.98   12.70
  -1  -3  -4  216.48   13.40
   1  -3   4  210.18   12.30
   1   3  -4  205.08   12.60
   1  -3   4  216.68   12.60
   1  -3   4  195.88   12.40
  -1   4  -4 1678.93   92.69
  -1  -4   4 1556.74   92.49
   1   4   4 1706.13   93.09
   1  -4  -4 1666.63   93.19
   1  -4  -4 1750.02   92.19
   1  -4  -4 1866.81   92.99
   1  -4  -4 1833.22   92.09
   1   4   4 1798.42   92.79
  -1  -4   4 1753.32   94.09
  -1   4  -4 1657.13   93.19
  -1  -4  -4 1944.81   93.29
  -1  -4  -4 1738.43   92.19
   1   4  -4 1659.13   92.09
  -1  -4  -4 1701.13   91.89
   1   4  -4 1613.84   92.39
   1   4  -4 1805.22   92.49
   1  -4   4 1636.94   92.49
  -1  -4  -4 1661.63   92.69
   1  -4   4 1697.93   93.69
   1   4  -4 1766.42   92.09
  -1  -4  -4 1733.03   92.29
  -1   4   4 1810.22   93.19
  -1   4   4 1674.13   92.99
   1   5   4   42.10    6.70
   1  -5  -4   40.00    5.00
  -1   5  -4   43.70    7.00
   1  -5  -4   58.79    7.30
  -1  -5   4   58.69    9.30
  -1  -5   4   50.79    6.10
  -1   5  -4   40.20    6.70
   1   5   4   39.30    5.90
   1  -5  -4   48.30    6.70
  -1   5  -4   42.70    6.30
   1  -5  -4   44.10    5.40
   1   5  -4   56.49    5.90
  -1  -5  -4   46.50    4.90
  -1   5   4   57.29    7.10
   1  -5   4   38.60    5.30
  -1  -5  -4   47.70    7.70
   1  -5   4   46.00    8.00
   1   5  -4   47.10    5.00
  -1   5   4   49.50    7.80
  -1  -5  -4   47.00    7.50
  -1  -5  -4   48.90    5.40
   1   5  -4   43.60    6.00
  -1  -5  -4   45.10    5.70
   1   5  -4   43.60    7.20
   1  -5   4   38.30    5.40
   1  -6  -4  626.84   33.50
  -1   6  -4  635.34   34.20
  -1  -6   4  547.65   36.00
   1  -6  -4  618.24   33.00
   1  -6  -4  613.14   33.40
   1   6   4  589.64   34.80
   1  -6  -4  602.54   35.20
  -1  -6   4  529.75   34.10
   1   6   4  552.84   34.60
  -1   6  -4  591.94   35.80
   1   6  -4  660.93   33.10
  -1  -6  -4  640.84   33.80
   1   6  -4  594.34   33.90
   1  -6   4  544.15   33.80
   1   6  -4  577.54   34.80
   1  -6   4  553.04   34.00
  -1   6   4  631.24   34.80
  -1   6   4  634.04   35.40
   1   6  -4  647.94   34.00
  -1   6   4  549.35   34.70
  -1  -6  -4  614.54   33.30
  -1  -6  -4  608.74   33.20
   1   7   4    0.60    7.40
   1  -7  -4    5.80    4.70
   1  -7  -4   13.70    4.60
  -1   7  -4    9.10    8.40
  -1  -7   4    3.10    4.70
  -1  -7   4   11.70    8.70
   1   7   4    5.90    6.80
   1  -7  -4   12.90    3.70
  -1   7  -4   10.00    7.20
   1  -7  -4   14.10    7.60
   1  -7  -4   13.40    6.80
  -1   7  -4   17.60    8.50
   1  -7   4    4.80    4.90
   1   7  -4    5.60    7.70
  -1   7   4   -2.40    7.10
  -1  -7  -4   -2.80    4.80
  -1  -7  -4    1.50    4.20
  -1  -7  -4    9.60    4.40
   1   7  -4    6.80    5.20
   1  -7   4    4.20    3.70
   1  -8  -4  138.59   14.40
  -1   8  -4  170.38   19.70
   1   8   4  154.78   19.10
  -1   8  -4  154.28   22.20
   1  -8  -4  180.18   13.40
  -1   8  -4  199.98   15.70
  -1  -8  -4  144.29   14.20
  -1   8   4  155.98   20.20
   1   8  -4  193.48   15.60
   1  -8   4  126.79   15.40
  -1  -8  -4  180.48   13.60
   1   8  -4  183.38   18.40
   1   8  -4  176.18   21.10
  -1  -8  -4  166.68   14.00
  -1   8   4  122.79   19.50
  -1  -9   4   -7.60    7.30
   1  -9  -4   -9.40    7.10
  -1   9  -4   -0.70   18.60
   1  -9  -4    6.40   12.70
   1   9   4  -21.80   13.40
  -1   9  -4    7.30   10.00
  -1   9  -4  -29.80   16.80
   1   9  -4   12.20    9.10
   1   9  -4  -10.30   16.10
  -1  -9  -4  -11.80    7.20
   1  -9   4    0.30    6.80
  -1  -9  -4    2.80    9.60
   1   9  -4   10.40   15.10
  -1   9   4   -4.10   15.00
  -2   0  -4    3.40    2.40
  -2   0   4    4.40    2.50
   2   0   4    4.70    1.50
  -2   0  -4    8.90    1.70
   2   0   4    5.70    1.90
   2   0  -4    5.00    1.70
  -2   0  -4    4.30    1.50
   2   0   4    4.90    2.00
  -2   0   4    3.90    1.70
   2   0  -4    5.40    1.80
  -2   0   4    3.80    1.30
  -2   0   4    6.90    1.80
  -2   0  -4    8.20    1.80
  -2   1  -4 1688.73  100.89
  -2  -1   4 1853.81  102.39
  -2   1  -4 2024.70  100.79
   2  -1  -4 1937.81  101.19
  -2   1  -4 1833.02  100.69
   2   1   4 2048.79  100.99
   2   1   4 1885.11  101.39
  -2   1  -4 1872.71  101.69
   2  -1  -4 1966.80  100.99
   2   1   4 1845.82  100.89
  -2  -1   4 2068.99  100.59
  -2  -1  -4 1987.00  101.69
   2  -1   4 1909.11  100.79
  -2  -1  -4 1855.31  100.89
   2  -1   4 1892.91  101.29
   2  -1   4 1835.82  101.09
  -2  -1  -4 1781.22  100.89
   2   1  -4 1924.81  100.59
  -2   1   4 1895.21  100.89
  -2   1   4 1840.52  100.99
   2   1  -4 1824.62  100.59
  -2   2  -4    2.70    2.40
  -2   2  -4    3.00    2.80
  -2   2  -4    1.40    1.60
  -2  -2   4    3.30    3.70
   2   2   4    4.90    2.10
   2  -2  -4    2.40    2.10
   2   2   4    5.60    2.30
   2  -2  -4    2.90    2.20
   2  -2  -4    2.60    2.00
  -2  -2   4    1.70    1.90
  -2   2  -4    1.70    1.60
   2   2   4    0.50    1.90
  -2  -2  -4    3.20    1.90
   2  -2   4    1.60    1.30
  -2   2   4    2.10    2.20
  -2  -2  -4    3.90    2.00
   2  -2   4    0.30    2.70
  -2  -2  -4    2.80    2.50
   2  -2   4    4.00    2.40
  -2  -2  -4    1.50    1.30
  -2   2   4   -0.30    1.90
   2  -2   4    0.70    1.80
  -2  -3   4  988.40   54.39
   2  -3  -4 1003.20   54.29
  -2   3  -4  956.70   55.19
   2  -3  -4  986.50   55.09
  -2   3  -4 1033.00   54.39
   2   3   4  996.30   54.29
  -2   3  -4  997.90   54.19
  -2  -3   4 1014.20   55.79
   2  -3  -4 1053.29   54.59
  -2   3  -4  938.81   54.59
   2   3   4 1030.50   55.09
   2   3   4 1034.70   54.59
  -2  -3  -4 1055.39   54.99
  -2  -3  -4  993.10   53.59
   2   3  -4 1068.69   54.49
  -2  -3  -4  992.80   54.39
   2  -3   4 1015.40   54.39
  -2   3   4  967.00   54.79
  -2   3   4  979.70   54.79
   2  -3   4 1039.30   54.59
  -2  -3  -4  991.90   54.29
   2  -3   4  960.20   54.29
  -2  -3  -4 1036.00   54.09
   2  -4  -4    6.70    3.10
   2  -4  -4    3.90    4.00
  -2   4  -4    5.80    2.90
  -2   4  -4    3.70    2.80
  -2  -4   4    8.40    5.10
  -2   4  -4    6.90    3.40
   2   4   4    4.40    3.40
  -2   4  -4    4.50    4.30
   2  -4  -4    5.70    2.30
  -2  -4   4   -2.20    3.00
   2   4   4    6.80    3.20
   2  -4  -4    0.50    2.50
  -2  -4  -4    4.00    1.70
  -2  -4  -4    6.10    3.60
   2  -4   4    3.40    2.70
  -2   4   4    0.20    3.20
  -2  -4  -4    6.70    3.00
   2   4  -4    2.90    2.40
  -2  -4  -4    3.10    2.80
  -2   4   4    4.60    3.30
   2   4  -4    3.10    2.50
   2  -4   4    0.90    2.80
  -2  -4  -4    5.30    2.80
   2  -4   4    2.80    2.30
  -2   5  -4  321.47   20.80
   2   5   4  351.46   20.80
   2  -5  -4  355.16   21.80
   2  -5  -4  353.16   19.60
  -2   5  -4  326.37   22.20
  -2  -5   4  312.47   22.40
  -2   5  -4  342.47   20.40
  -2  -5   4  327.87   20.70
   2  -5  -4  351.56   20.50
   2  -5  -4  357.46   20.80
   2   5   4  315.07   20.80
   2  -5   4  322.17   20.10
   2   5  -4  365.76   19.90
  -2   5   4  342.47   21.50
  -2  -5  -4  326.47   19.20
  -2   5   4  358.96   21.20
   2   5  -4  360.26   20.10
  -2  -5  -4  351.56   20.00
   2  -5   4  367.46   20.20
   2  -5   4  369.86   19.90
  -2  -5  -4  324.57   20.00
  -2   6  -4   11.00    5.70
   2   6   4    4.10    5.20
   2  -6  -4   10.40    3.00
   2   6   4    7.50    5.20
  -2   6  -4   11.00    7.50
   2  -6  -4   -5.00    6.40
   2  -6  -4   11.80    3.90
  -2  -6   4    8.30    7.90
  -2   6  -4    2.30    4.30
   2  -6  -4    3.40    5.30
   2  -6  -4    5.80    3.60
  -2  -6   4    1.90    5.00
  -2   6   4    2.30    5.60
   2   6  -4    3.80    3.60
   2   6  -4    7.30    5.40
  -2  -6  -4    8.90    3.90
  -2  -6  -4    5.40    3.20
   2  -6   4    4.80    4.10
  -2  -6  -4    4.50    4.30
   2   6  -4    6.40    4.30
   2   6  -4   -1.40    4.20
   2  -6   4    4.70    3.60
  -2  -7   4   56.19    8.60
   2  -7  -4   75.29    9.10
  -2   7  -4   76.79   12.10
   2  -7  -4   97.69   12.30
  -2  -7   4   74.69   11.80
   2  -7  -4   89.29    8.30
  -2   7  -4   83.39   10.70
  -2   7  -4   70.79   10.10
   2   7   4   87.59   12.80
   2  -7  -4   88.19   16.40
   2   7   4   73.59   10.00
  -2   7   4   90.09   13.90
  -2  -7  -4   67.19    8.60
  -2  -7  -4   84.89    8.90
   2   7  -4   90.09   10.10
   2   7  -4   81.89   13.10
  -2   7   4   77.59   10.50
  -2  -7  -4   78.49    9.20
   2  -7   4   83.29    8.80
   2  -7   4   66.29    9.50
   2   7  -4   93.09    8.50
   2   8   4   -1.40    9.90
   2  -8  -4   14.70    9.50
   2   8   4    3.40   10.30
  -2  -8   4    4.80    7.30
  -2  -8   4   13.40   11.70
   2  -8  -4    5.90    6.90
  -2   8  -4    5.00   19.00
  -2   8  -4   -3.60   11.10
   2  -8  -4    6.10    5.70
  -2   8  -4   -6.00    6.50
   2  -8   4    4.90    4.60
  -2  -8  -4    5.70    6.10
  -2  -8  -4    5.30    6.40
   2   8  -4   18.00    9.30
   2   8  -4    3.30    6.80
  -2  -8  -4    0.20    5.80
   2   8  -4   10.70    5.50
   2   8  -4  -11.60   10.50
  -2   8   4   16.00   12.70
  -2   8   4   -1.70   10.30
   2   9   4   15.50   14.60
  -2   9  -4   17.40   10.80
  -2   9  -4   -6.10   17.90
   2  -9  -4    3.10    7.10
  -2  -9   4    6.10    8.50
   2   9  -4    5.80    9.20
   2   9  -4   11.70   16.80
  -2   9   4  -12.50   15.10
  -2  -9  -4   21.00    8.10
   2  -9   4    5.70    7.20
   2   9  -4   10.90   15.40
  -2  -9  -4   23.30    8.50
   3   0   4  119.19    8.10
  -3   0  -4  113.29    7.50
  -3   0  -4  126.19    7.10
  -3   0   4  117.19    7.40
  -3   0  -4  117.99    8.60
   3   0  -4  117.89    7.40
   3   0   4  109.09    7.50
   3   0  -4  124.49    7.70
  -3   0   4  128.29    7.30
   3   0   4  119.59    8.10
  -3   0  -4  118.69    7.50
   3  -1  -4    6.90    2.20
  -3  -1   4    2.80    2.90
   3   1   4    4.10    2.00
  -3   1  -4    3.30    1.50
   3   1   4    3.00    1.90
  -3   1  -4   -0.60    2.80
  -3   1  -4    2.60    2.10
   3   1   4    7.10    2.20
  -3   1  -4    4.20    1.50
   3  -1  -4    1.20    1.60
  -3  -1  -4    2.70    1.10
   3   1  -4    4.30    1.60
  -3  -1  -4    0.90    1.80
  -3  -1  -4    2.60    1.60
   3  -1   4    2.40    2.10
  -3   1   4    1.70    1.80
   3   1  -4    2.50    1.40
   3  -1   4    4.90    1.90
  -3  -1  -4    0.70    2.30
   3  -1   4    4.50    2.30
   3   2   4  106.19    7.70
   3  -2  -4  105.79    8.10
  -3   2  -4  105.59    7.70
   3   2   4  112.99    7.30
  -3   2  -4  112.69    7.00
   3  -2  -4  101.79    7.30
  -3   2  -4  103.49    7.10
  -3  -2   4  108.79    7.20
   3  -2  -4  100.89    7.40
  -3   2  -4  100.99    8.40
  -3  -2   4   94.59    8.60
   3   2   4  110.19    7.70
  -3  -2  -4  105.19    8.10
  -3  -2  -4  121.79    7.30
  -3   2   4   99.79    7.70
   3  -2   4   98.39    7.80
   3  -2   4  109.99    7.70
  -3  -2  -4   99.89    6.90
   3  -2   4  108.19    6.80
  -3  -2  -4   93.89    7.10
   3  -2   4  111.29    7.40
  -3   3  -4    4.10    3.70
   3   3   4    9.40    2.80
  -3  -3   4    1.10    2.80
  -3   3  -4    3.80    2.80
  -3   3  -4   -0.10    2.00
   3   3   4    2.90    3.00
   3   3   4   -0.60    2.80
   3  -3  -4    0.60    2.30
   3  -3  -4    2.60    2.30
  -3  -3   4    5.80    4.50
  -3   3  -4    9.40    2.80
   3  -3  -4    1.80    3.00
   3  -3   4    2.50    1.60
   3  -3   4   -1.20    2.60
   3   3  -4    1.40    2.00
   3   3  -4    1.90    2.20
  -3   3   4   -0.30    2.70
  -3  -3  -4   -1.10    3.00
  -3  -3  -4    3.90    2.40
   3  -3   4    2.70    2.70
  -3  -3  -4    1.40    2.30
  -3  -3  -4    2.00    2.20
  -3  -4   4   72.79    9.30
  -3   4  -4   79.49    9.50
   3   4   4   77.49    7.70
  -3   4  -4   74.89    7.00
   3  -4  -4   73.69    6.50
  -3  -4   4   63.79    7.20
  -3   4  -4   71.69    7.50
   3   4   4   80.59    7.00
  -3   4  -4   80.59    7.00
   3  -4  -4   75.19    7.30
   3   4   4   90.99    7.60
   3  -4  -4   87.59    8.80
   3  -4   4   62.59    7.50
  -3  -4  -4   70.89    6.70
  -3  -4  -4   74.09    6.60
  -3  -4  -4   88.29    7.00
   3  -4   4   82.39    7.10
  -3  -4  -4   81.79    7.40
   3  -4   4   78.59    7.20
  -3   4   4   74.89    8.40
   3   4  -4   79.59    6.50
   3   4  -4   74.89    6.40
   3  -5  -4    2.30    2.80
  -3   5  -4    2.80    3.80
   3   5   4    4.60    4.00
  -3  -5   4    7.40    5.80
  -3   5  -4    1.10    3.50
   3  -5  -4    2.00    2.70
   3   5   4   -1.60    4.20
  -3   5  -4   -0.70    4.70
  -3   5  -4    5.90    5.60
   3  -5  -4    3.30    4.00
  -3  -5   4   -2.20    3.60
   3   5   4    5.30    4.40
   3  -5   4   -6.10    3.60
  -3   5   4   -2.40    4.00
  -3  -5  -4    1.70    3.60
   3   5  -4   -2.20    2.60
   3   5  -4    3.70    2.90
  -3   5   4   -3.40    4.80
  -3  -5  -4    5.60    2.10
   3  -5   4    5.00    3.00
  -3  -5  -4   -0.10    2.90
  -3   6  -4   46.50    6.90
  -3   6  -4   30.60    7.00
   3  -6  -4   43.80    5.70
   3  -6  -4   47.20    7.00
   3   6   4   37.70    6.90
   3   6   4   50.59    7.30
   3  -6  -4   54.19    8.70
  -3  -6   4   48.30    9.70
  -3   6  -4   43.60    9.50
   3  -6  -4   47.60    6.80
  -3   6  -4   36.80    6.00
   3   6   4   50.59    7.10
  -3  -6   4   38.90    7.00
  -3  -6  -4   48.00    7.20
   3  -6   4   53.39    8.30
   3   6  -4   61.69    7.20
  -3  -6  -4   48.80    5.70
  -3   6   4   38.40    7.10
   3  -6   4   56.69    7.30
  -3  -6  -4   41.10    6.10
  -3   6   4   47.00    8.30
   3   6  -4   45.10    6.70
   3  -6   4   45.60    6.80
  -3   7  -4   -7.40    7.90
   3   7   4   11.60    6.90
  -3   7  -4   -5.00    5.80
  -3  -7   4   -4.60    5.10
   3   7   4   14.00    7.20
   3   7   4    6.20    7.00
  -3   7  -4   -1.70    9.30
  -3  -7   4   17.70    9.50
   3  -7  -4    4.80    9.00
   3  -7  -4    7.70    4.20
   3  -7  -4   15.00    7.30
  -3   7  -4    9.00    5.60
   3  -7  -4    5.10    4.90
  -3  -7  -4   15.60    5.30
   3  -7   4    5.20    4.60
   3   7  -4   -1.10    4.50
  -3   7   4    0.80    7.40
   3  -7   4    0.30    4.90
  -3  -7  -4    3.40    4.30
  -3   7   4    6.00    7.60
   3   7  -4    4.30    6.10
  -3  -7  -4   10.20    5.30
  -3   8  -4   24.50    8.20
  -3   8  -4   22.30   14.30
  -3  -8   4   10.90    7.80
   3   8   4   33.30   10.00
  -3   8  -4  -10.00   11.90
   3  -8  -4   16.90    7.20
   3  -8  -4   13.20   12.60
   3   8   4   25.70   10.30
   3   8   4   27.10   10.00
   3  -8  -4   15.90    5.60
   3  -8  -4   20.00   10.30
   3   8  -4   11.00    6.40
  -3  -8  -4   23.50    6.80
   3   8  -4   18.50    7.00
   3  -8   4   17.70    6.40
  -3  -8  -4   19.90    7.20
  -3   8   4   27.60   11.20
  -3  -9   4   -7.80    8.40
   3  -9  -4    7.00   13.60
   3   9   4    7.50   11.20
  -3   9  -4   -8.10   18.90
   3  -9  -4   -5.40    6.80
   3   9   4    9.40   14.30
  -3   9  -4   18.00   10.10
   3  -9   4    8.00    6.80
   3   9  -4    4.40   10.30
  -3  -9  -4   14.10    8.60
  -3   9   4   -6.30   15.90
  -3  -9  -4    3.40    9.10
  -4   0  -4 1911.71  101.19
  -4   0  -4 1808.72  100.99
  -4   0   4 1951.10  100.99
   4   0   4 1918.01  101.69
  -4   0   4 1932.91  100.79
   4   0   4 2014.00  101.59
  -4   0  -4 1835.42  100.59
  -4   0  -4 1839.02  101.09
   4   0  -4 1928.11  101.09
   4   0  -4 1882.11  101.29
   4   0   4 1885.81  100.59
   4   0   4 1868.41  101.19
  -4   0  -4 1869.91  101.99
   4   1   4 1912.21  104.49
  -4   1  -4 1957.60  105.09
   4   1   4 2056.79  104.39
   4  -1  -4 1930.91  104.49
  -4  -1   4 1979.10  105.29
   4   1   4 1939.81  104.29
   4  -1  -4 1965.50  104.19
  -4   1  -4 1830.22  103.79
  -4  -1   4 1980.40  103.89
  -4   1  -4 1852.41  104.19
  -4   1  -4 1940.61  104.09
  -4   1  -4 1925.71  103.69
   4  -1   4 1952.50  103.69
  -4   1   4 1979.30  104.09
  -4   1   4 2138.29  104.29
   4  -1   4 1977.00  104.69
   4   1  -4 1959.40  103.69
   4  -1   4 1814.02  103.99
  -4  -1  -4 1871.71  104.19
   4  -1   4 1993.00  104.69
  -4  -1  -4 1992.60  104.79
  -4  -1  -4 2112.69  103.99
  -4   1   4 1905.71  103.59
  -4  -1  -4 1812.42  103.99
   4   1  -4 1981.20  103.79
   4   2   4 1525.65   77.59
  -4   2  -4 1418.66   77.09
  -4   2  -4 1441.86   77.49
  -4  -2   4 1501.05   77.59
   4  -2  -4 1397.66   77.79
   4  -2  -4 1483.35   77.79
   4   2   4 1392.56   77.89
   4  -2  -4 1449.76   78.39
  -4   2  -4 1434.96   78.79
  -4   2  -4 1420.46   77.29
  -4  -2   4 1379.46   78.79
  -4   2  -4 1422.26   77.99
   4   2   4 1442.46   77.89
  -4  -2  -4 1533.85   77.39
   4  -2   4 1451.05   77.59
  -4   2   4 1363.46   77.79
  -4  -2  -4 1561.94   78.09
   4  -2   4 1394.46   77.19
  -4  -2  -4 1455.45   77.39
   4  -2   4 1530.75   78.29
  -4  -2  -4 1385.86   77.49
   4  -2   4 1503.75   78.19
  -4   2   4 1446.06   77.89
  -4  -2  -4 1344.67   77.69
   4   3   4  987.60   59.59
   4  -3  -4 1028.90   60.29
   4  -3  -4 1137.59   59.69
  -4  -3   4 1093.69   61.09
  -4  -3   4 1131.69   59.59
  -4   3  -4 1083.49   58.59
   4   3   4 1139.29   59.29
   4   3   4 1186.58   59.89
  -4   3  -4 1012.80   60.59
   4  -3  -4 1078.79   59.39
  -4   3  -4 1069.99   59.29
  -4   3  -4 1102.09   59.29
  -4   3  -4 1110.09   59.99
  -4  -3  -4 1077.79   59.39
  -4   3   4 1093.69   59.99
   4   3  -4 1125.29   59.29
   4  -3   4 1109.49   59.79
  -4  -3  -4 1088.89   59.19
  -4  -3  -4 1173.18   59.49
   4  -3   4 1134.59   59.99
  -4   3   4 1112.99   59.89
  -4  -3  -4 1092.39   58.99
   4  -3   4 1045.70   58.99
   4  -4  -4  580.94   35.50
  -4   4  -4  595.74   36.90
  -4   4  -4  619.64   35.10
   4   4   4  630.54   34.90
   4   4   4  687.33   35.90
  -4  -4   4  632.84   35.60
  -4  -4   4  587.84   36.90
   4   4   4  647.14   35.80
   4  -4  -4  661.73   35.50
  -4   4   4  642.34   35.80
  -4  -4  -4  652.33   35.00
   4   4  -4  610.14   35.00
   4  -4   4  571.44   34.70
   4   4  -4  623.84   34.80
   4   4  -4  627.04   34.90
  -4   4   4  650.63   36.30
   4  -4   4  665.93   35.80
  -4  -4  -4  628.14   35.10
   4  -4   4  657.13   35.50
   4  -5  -4  451.05   27.50
  -4  -5   4  412.36   27.70
   4  -5  -4  460.15   26.00
   4   5   4  424.56   25.20
  -4   5  -4  437.76   26.50
   4   5   4  515.55   26.90
  -4   5  -4  439.86   25.80
  -4  -5   4  362.46   25.80
   4  -5  -4  441.56   25.20
  -4   5  -4  441.86   25.70
   4   5   4  421.76   26.10
  -4   5  -4  432.96   28.20
   4   5  -4  461.05   25.50
  -4   5   4  416.16   27.00
  -4  -5  -4  435.26   25.40
   4   5  -4  457.05   25.10
   4  -5   4  406.36   25.20
   4  -5   4  474.75   25.60
  -4  -5  -4  449.46   25.50
   4  -5   4  457.85   26.20
  -4   5   4  412.66   26.30
   4   6   4  213.78   14.80
   4  -6  -4  177.58   16.70
   4  -6  -4  166.58   11.90
  -4  -6   4  128.79   15.20
   4  -6  -4  177.98   13.60
   4   6   4  159.98   13.10
  -4   6  -4  183.28   17.40
  -4   6  -4  196.38   15.40
   4  -6  -4  175.58   11.50
  -4  -6   4  129.49   13.20
  -4   6  -4  174.38   13.50
   4   6   4  129.39   13.30
  -4   6  -4  184.58   13.30
  -4   6   4  165.98   15.60
   4  -6   4  156.98   12.00
  -4   6   4  146.59   14.00
   4  -6   4  183.88   13.10
   4  -6   4  185.98   14.00
   4   6  -4  178.58   11.90
  -4  -6  -4  161.58   12.40
   4   6  -4  175.88   12.30
  -4  -6  -4  167.78   12.60
  -4  -7   4  120.49   16.60
   4   7   4  137.79   14.00
   4  -7  -4  127.29   18.30
   4  -7  -4  146.79   14.10
   4   7   4  173.58   15.30
  -4   7  -4  139.69   13.50
   4   7   4  123.49   14.20
  -4   7  -4  152.68   14.10
  -4  -7   4  116.09   13.30
  -4   7  -4  123.39   17.10
   4  -7  -4  141.09   10.80
   4  -7  -4  120.89   11.90
   4  -7   4  146.29   14.20
  -4   7   4  151.58   17.40
  -4   7   4  118.69   15.70
   4   7  -4  136.99   12.20
   4   7  -4  158.98   12.20
   4  -7   4  129.59   12.00
  -4  -7  -4  137.49   12.30
   4  -7   4  158.58   12.80
  -4  -7  -4  134.39   12.60
   4   8   4   33.90   10.40
   4  -8  -4   53.79   14.70
  -4   8  -4   25.20   15.40
  -4  -8   4   62.19   14.10
   4  -8  -4   29.90    6.20
   4  -8  -4   34.40   12.60
  -4  -8   4   29.20    9.30
  -4   8  -4   39.90    8.70
   4   8   4   25.70   11.40
   4   8   4   56.59   10.40
   4  -8   4   27.30    6.70
  -4  -8  -4   47.80    9.20
   4   8  -4   31.40    7.70
   4   8  -4   22.30    7.40
  -4   8   4   54.39   13.20
   4   9   4   54.79   14.80
  -4  -9   4   29.20    9.70
   4  -9  -4   34.50   15.00
   4  -9  -4   37.00    7.90
  -4  -9   4   45.10   15.20
  -4   9  -4   19.10   20.90
  -4   9  -4   48.10   11.50
   4   9  -4   34.00   11.00
  -4   9   4   38.50   17.50
  -4  -9  -4   26.20    9.90
   4  -9   4   35.50    8.50
  -4  -9  -4   32.30   10.70
   4   9  -4   27.50   13.80
   5   0  -4  437.76   25.40
  -5   0   4  445.76   24.70
  -5   0  -4  458.45   25.10
   5   0  -4  475.95   25.20
   5   0   4  446.56   25.30
  -5   0  -4  456.75   26.30
   5   0   4  469.85   24.50
  -5   0  -4  443.86   25.20
  -5   0   4  449.36   25.00
  -5   0  -4  437.26   24.50
   5   0   4  452.75   25.80
   5   0   4  429.86   25.80
  -5   0  -4  443.06   25.10
   5   1   4  780.42   41.10
  -5   1  -4  738.33   41.80
   5   1   4  748.23   40.90
   5  -1  -4  762.52   41.30
  -5  -1   4  754.42   42.00
  -5  -1   4  782.12   40.50
  -5   1  -4  739.63   40.30
  -5   1  -4  706.93   40.70
   5  -1  -4  763.22   40.80
  -5   1  -4  742.03   40.60
   5   1   4  738.13   41.10
  -5   1  -4  733.93   40.10
  -5   1   4  717.23   40.10
   5  -1   4  710.83   41.30
  -5  -1  -4  740.43   40.60
  -5  -1  -4  742.13   40.80
  -5   1   4  729.23   40.60
   5  -1   4  767.52   41.40
   5   1  -4  734.83   40.40
  -5   1   4  717.23   40.70
  -5  -1  -4  752.92   41.30
   5  -1   4  743.33   40.00
  -5  -1  -4  741.13   40.40
   5   2   4  307.67   18.30
   5   2   4  304.87   18.30
  -5  -2   4  299.07   18.00
  -5   2  -4  297.47   18.40
   5   2   4  336.47   18.30
   5  -2  -4  310.37   18.10
  -5   2  -4  327.67   17.90
  -5   2  -4  292.27   19.50
   5  -2  -4  290.97   18.10
   5  -2  -4  322.97   19.10
  -5   2  -4  302.67   17.60
  -5  -2   4  289.17   19.40
  -5   2  -4  312.07   17.30
  -5   2   4  299.77   17.60
   5  -2   4  288.97   18.00
  -5   2   4  294.17   18.20
  -5  -2  -4  321.17   17.70
  -5  -2  -4  321.07   18.40
   5  -2   4  315.37   18.90
   5   2  -4  307.37   17.90
  -5  -2  -4  310.87   17.90
  -5  -2  -4  278.97   18.00
   5  -2   4  303.87   17.30
  -5  -2  -4  308.77   17.90
   5  -2   4  310.17   18.70
  -5   2   4  302.57   18.40
   5   3   4  563.84   29.80
   5   3   4  437.26   29.10
   5  -3  -4  520.85   30.50
   5  -3  -4  509.75   29.20
   5   3   4  551.64   29.00
  -5  -3   4  485.35   30.80
  -5   3  -4  522.35   30.40
  -5   3  -4  505.05   28.80
  -5   3  -4  514.65   28.90
  -5   3  -4  514.35   28.00
  -5  -3   4  499.85   29.20
   5  -3  -4  520.25   29.30
  -5   3  -4  495.75   30.70
   5  -3   4  507.05   29.60
   5   3  -4  516.95   28.90
  -5  -3  -4  553.74   29.00
   5  -3   4  521.05   29.80
  -5  -3  -4  557.34   28.40
   5  -3   4  519.45   28.50
  -5  -3  -4  502.05   28.90
  -5   3   4  517.95   29.80
  -5   3   4  480.45   29.50
  -5  -3  -4  494.75   28.80
  -5   4  -4  102.69    8.80
  -5  -4   4  102.99   11.30
   5  -4  -4  100.79    8.20
   5   4   4  127.59   10.20
  -5  -4   4  112.79    9.70
   5  -4  -4  105.29    9.10
  -5   4  -4  110.39    9.10
   5   4   4   81.19    9.10
  -5   4  -4   95.49   10.10
   5  -4  -4  102.09   10.90
  -5   4  -4   94.59   11.60
   5   4   4  111.49    8.80
  -5  -4  -4  120.59    8.50
  -5  -4  -4  103.99    8.60
   5  -4   4  108.29    9.70
  -5  -4  -4  120.59    8.50
   5   4  -4  105.49    8.10
  -5   4   4   92.19   10.10
   5  -4   4  110.49    9.90
   5   4  -4   97.59    8.70
   5  -4   4  106.19    7.90
   5   4  -4   94.29    9.80
  -5   4   4  104.19    9.90
  -5  -4  -4  107.79    8.60
   5   5   4  229.48   17.30
   5   5   4  267.27   16.30
  -5  -5   4  239.88   18.80
   5  -5  -4  267.77   19.30
  -5   5  -4  239.38   20.00
   5  -5  -4  254.57   16.00
  -5  -5   4  235.68   17.20
   5   5   4  289.57   17.90
   5  -5  -4  283.47   17.30
  -5   5  -4  254.37   17.00
  -5   5  -4  271.57   16.80
  -5   5  -4  246.28   17.90
   5   5  -4  269.77   16.30
   5   5  -4  258.27   17.30
  -5  -5  -4  253.77   16.40
   5  -5   4  223.98   15.70
   5   5  -4  262.77   15.80
  -5  -5  -4  265.17   16.50
   5  -5   4  268.37   17.00
  -5   5   4  241.58   18.00
   5  -5   4  266.27   17.80
  -5   5   4  258.37   18.70
  -5  -6   4   12.30    7.40
  -5   6  -4   12.50    9.20
  -5   6  -4   16.90    5.20
   5  -6  -4   20.20    8.80
   5   6   4   19.10    7.40
  -5  -6   4   11.50    6.00
  -5   6  -4   17.00    5.70
   5  -6  -4   21.90    6.60
   5  -6  -4   18.10    4.80
   5   6   4   18.30    5.90
  -5   6  -4   13.50    7.30
   5   6   4   12.00    6.30
   5  -6   4   14.50    4.60
  -5  -6  -4   22.00    5.40
   5  -6   4   18.40    6.30
   5   6  -4   19.10    6.80
  -5   6   4   13.20    9.50
   5   6  -4   18.50    5.10
   5  -6   4   24.80    7.50
   5   6  -4   16.70    4.40
  -5   6   4   28.20    7.50
  -5  -6  -4   20.00    5.60
  -5   7  -4   82.09   12.20
   5   7   4   91.69   12.70
  -5   7  -4   83.39   14.70
  -5   7  -4   93.69   13.10
   5  -7  -4   90.29   10.90
   5  -7  -4  109.09   13.70
  -5  -7   4   81.39   14.00
   5  -7  -4  106.69    9.30
   5   7   4   79.09   10.90
  -5   7  -4  129.69   16.70
   5   7   4  107.49   15.60
   5  -7  -4   90.39   14.70
  -5  -7   4   68.99   10.30
  -5   7   4  110.39   16.60
   5   7  -4  116.89   14.90
   5  -7   4  116.59   12.50
  -5   7   4   94.79   13.80
   5   7  -4  116.89   11.50
   5  -7   4   83.69   12.00
  -5  -7  -4  106.39   12.20
   5  -7   4  103.29   14.60
   5   7  -4  101.59   10.80
  -5  -7  -4   97.89   11.50
   5  -8  -4    3.20   10.20
  -5   8  -4   12.00    8.30
   5  -8  -4   15.70   15.30
   5   8   4   -8.40    9.40
  -5  -8   4    2.70   11.90
  -5  -8   4    0.50    7.90
   5   8   4  -13.00   10.10
  -5   8  -4  -20.90   15.70
   5   8   4    6.40   10.80
   5  -8  -4    7.00    5.50
   5   8  -4    6.10    7.80
   5   8  -4   19.90   10.70
   5   8  -4   14.90    7.40
   5  -8   4    0.40    5.90
  -5   8   4    7.90   12.90
   5  -8   4    8.70   10.60
  -5  -8  -4   -0.30    7.40
  -5  -8  -4   11.70    8.40
  -5   9  -4   23.00   23.50
  -5  -9   4   30.80   15.40
   5   9   4   27.50   14.30
   5  -9  -4   13.30   15.30
   5  -9  -4   21.00    7.70
  -5  -9   4   24.10    9.90
   5   9   4    4.90   13.00
  -5   9  -4   22.80   11.70
  -5  -9  -4   23.10   11.50
   5   9  -4   46.50   15.90
  -5   9   4   42.50   17.00
  -5  -9  -4   19.90    9.70
   5  -9   4   28.60    8.30
   5   9  -4   29.10   11.00
  -6   0   4  379.36   22.60
   6   0   4  433.26   23.90
   6   0  -4  392.56   23.30
  -6   0  -4  407.26   23.00
   6   0   4  417.96   22.00
   6   0   4  394.76   23.10
  -6   0  -4  394.16   24.20
  -6   0  -4  405.56   22.80
  -6   0  -4  388.86   22.80
  -6   0   4  411.26   22.40
  -6   0  -4  397.16   22.20
   6   0   4  414.96   23.70
  -6   0   4  396.56   22.30
  -6   1  -4  122.49    8.30
   6  -1  -4  126.49    9.00
   6   1   4  127.49    9.20
   6   1   4  124.79    9.00
  -6   1  -4  122.89    8.80
  -6   1  -4  120.69   10.60
  -6   1  -4  116.69    8.90
   6  -1  -4  106.89    8.90
   6  -1  -4  134.79    9.70
  -6  -1   4  124.79    8.90
  -6   1  -4  122.69    8.10
   6   1   4  128.19    9.80
  -6  -1   4  116.49   10.20
  -6  -1  -4  130.19    9.00
   6   1  -4  131.19    8.70
  -6   1   4  120.69    9.00
   6  -1   4  113.69    9.30
   6   1  -4  117.49    8.70
   6  -1   4  116.39    7.60
  -6  -1  -4  123.39    8.50
   6   1  -4  128.49    8.20
  -6   1   4  123.19    8.10
  -6  -1  -4  128.19   10.00
   6   1  -4  125.19    7.90
   6  -1   4  114.29    9.80
   6  -1   4  122.89    9.50
  -6   1   4  127.69    9.00
  -6  -1  -4  114.69    8.60
   6   2   4  331.47   19.70
   6   2   4  323.97   19.70
   6   2   4  309.67   19.40
  -6   2  -4  303.27   19.50
   6  -2  -4  335.47   19.50
   6  -2  -4  318.27   19.20
  -6  -2   4  308.67   20.90
   6  -2  -4  336.57   20.40
  -6   2  -4  330.87   18.90
  -6  -2   4  354.16   19.60
  -6   2  -4  330.77   18.50
  -6   2  -4  318.87   19.00
  -6   2  -4  315.97   21.00
  -6   2   4  333.17   19.70
   6   2  -4  319.27   18.40
  -6   2   4  321.47   18.80
   6  -2   4  330.47   19.40
   6  -2   4  326.07   20.40
   6  -2   4  319.27   20.00
  -6   2   4  306.87   19.60
  -6  -2  -4  332.47   19.10
  -6  -2  -4  317.87   19.50
   6  -2   4  321.27   18.40
  -6  -2  -4  328.97   18.70
  -6  -2  -4  332.47   19.70
   6   2  -4  335.07   19.10
   6   3   4   40.60    6.10
   6  -3  -4   43.20    6.10
  -6   3  -4   41.10    5.30
   6  -3  -4   42.90    6.70
  -6   3  -4   58.69    4.90
   6   3   4   42.10    6.50
  -6  -3   4   51.19    8.40
   6  -3  -4   45.70    6.50
  -6   3  -4   47.70    7.70
  -6  -3   4   49.80    7.10
   6   3   4   55.59    7.10
  -6   3  -4   46.80    7.90
  -6   3  -4   50.69    6.00
  -6  -3  -4   51.49    6.70
   6   3  -4   57.69    5.80
  -6   3   4   48.70    6.50
   6  -3   4   55.99    7.90
   6  -3   4   50.39    7.20
  -6   3   4   47.70    6.60
  -6  -3  -4   45.10    6.10
  -6  -3  -4   62.09    6.30
  -6   3   4   52.59    6.40
   6   3  -4   50.19    5.80
   6  -4  -4  148.79   11.70
   6  -4  -4  148.39   13.80
   6   4   4  153.28   11.50
  -6  -4   4  139.79   12.10
  -6   4  -4  133.79   14.70
   6   4   4  179.38   13.00
  -6  -4   4  152.28   14.20
  -6   4  -4  150.88   11.60
   6   4   4  164.98   11.60
  -6   4  -4  150.38   12.70
   6  -4  -4  153.08   10.90
  -6   4  -4  140.09   11.60
   6   4  -4  154.28   10.60
   6  -4   4  142.99   10.30
  -6   4   4  157.48   13.10
   6   4  -4  171.88   11.60
  -6  -4  -4  170.38   11.30
   6   4  -4  155.48   10.90
  -6   4   4  133.79   12.70
   6  -4   4  163.78   12.80
  -6  -4  -4  154.98   11.50
   6  -4   4  151.38   12.60
  -6  -4  -4  155.38   11.30
   6  -5  -4    7.50    5.10
  -6  -5   4    6.20    5.60
  -6   5  -4   -1.40    4.80
   6  -5  -4    8.60    3.50
   6  -5  -4   -1.60    7.30
  -6   5  -4   12.20    8.10
  -6  -5   4   11.10    7.40
   6   5   4    6.80    5.20
  -6   5  -4    4.00    6.20
  -6   5  -4    2.60    4.40
   6   5   4   11.60    6.00
  -6  -5  -4    3.30    4.50
   6  -5   4    3.20    5.90
   6   5  -4   10.00    5.30
   6   5  -4   12.70    4.30
  -6  -5  -4    5.50    4.60
  -6   5   4    9.90    6.80
   6  -5   4    3.10    3.30
  -6  -5  -4   11.90    5.90
   6  -5   4    8.10    5.40
   6   5  -4    7.00    3.50
  -6   5   4    2.90    6.40
  -6  -6   4   44.80    8.70
   6  -6  -4   56.39   11.60
   6   6   4   79.79   12.20
  -6   6  -4   33.40   11.00
  -6  -6   4   48.20   10.00
  -6   6  -4   42.60    9.50
   6  -6  -4   35.20    7.80
   6   6   4   46.30    7.60
  -6   6  -4   46.20    7.00
   6  -6  -4   49.50    7.80
  -6   6  -4   49.40    8.00
   6   6   4   40.90    8.60
   6  -6   4   44.30    8.80
   6   6  -4   52.79    8.80
  -6   6   4   42.20    9.50
  -6  -6  -4   46.80    7.30
   6   6  -4   53.39    8.60
   6   6  -4   50.99    7.30
  -6  -6  -4   60.79    9.30
  -6   6   4   49.80    9.40
   6  -6   4   43.90    6.20
   6  -7  -4   -5.40    4.50
  -6   7  -4  -11.20    6.90
   6   7   4    1.10    7.60
  -6  -7   4   18.30    9.90
   6  -7  -4    1.30    8.10
  -6   7  -4    1.60   12.80
  -6  -7   4   -1.10   12.50
   6   7   4  -13.00    8.50
   6   7   4    7.10    8.60
   6  -7  -4   -0.30   12.30
   6   7  -4    3.50    5.50
   6   7  -4   -4.60    7.90
  -6   7   4    4.90    9.60
   6  -7   4    1.90    9.60
   6   7  -4    2.00    6.40
   6  -7   4    1.70    7.60
  -6  -7  -4    1.20    6.20
  -6  -7  -4   -0.70    6.80
   6   8   4   19.50   10.50
  -6   8  -4  -12.10   17.50
  -6   8  -4    0.30    9.20
  -6  -8   4   -2.20    8.70
   6   8   4    7.00   10.30
  -6  -8   4   26.40   13.00
   6  -8  -4   10.70   18.40
   6   8   4    7.80   12.30
   6  -8  -4   11.40   10.30
  -6  -8  -4    6.80    9.10
   6  -8   4   -7.30   17.40
   6   8  -4   21.10    9.40
   6  -8   4    1.90   14.30
   6   8  -4   -5.50   11.40
   6   8  -4    8.20    7.70
  -6   8   4   19.60   13.20
  -6  -8  -4   11.60    8.40
   7   0   4   19.30    4.40
   7   0  -4   20.30    3.60
   7   0  -4   22.00    3.60
  -7   0  -4   17.20    3.50
   7   0  -4   20.00    4.20
  -7   0   4   22.50    3.40
  -7   0   4   16.70    3.00
  -7   0  -4   20.50    3.20
  -7   0  -4   15.40    4.90
   7   0   4   21.90    2.90
   7   0   4   13.00    4.70
   7   0   4   13.10    3.80
  -7   0   4   14.20    3.20
  -7   0  -4   18.90    3.70
   7   1   4 2048.99  113.09
  -7  -1   4 2022.70  114.49
   7   1   4 2169.38  113.49
   7   1   4 2113.29  113.39
  -7  -1   4 2086.69  112.09
  -7   1  -4 1940.71  112.79
   7  -1  -4 2178.98  112.69
   7  -1  -4 2178.08  113.79
  -7   1  -4 2128.89  112.39
   7  -1  -4 2008.50  113.09
  -7   1  -4 2052.79  112.99
  -7   1  -4 2145.49  112.49
  -7   1  -4 2098.59  114.19
  -7  -1  -4 2230.18  113.59
  -7   1   4 2087.69  112.29
   7   1  -4 2068.79  113.29
   7  -1   4 1987.20  113.89
   7  -1   4 2157.68  113.79
  -7   1   4 2137.09  112.69
   7   1  -4 2111.59  112.89
  -7  -1  -4 2035.20  112.79
  -7   1   4 2090.69  112.99
   7   1  -4 2169.28  111.99
  -7  -1  -4 2140.89  112.39
  -7  -1  -4 2281.57  112.89
   7   1  -4 2145.09  112.39
   7  -1   4 2093.19  111.99
  -7  -1  -4 2026.00  113.09
   7  -1   4 2085.19  112.99
  -7  -2   4   10.50    5.70
   7  -2  -4   17.30    3.70
   7   2   4   15.10    5.10
   7  -2  -4   14.60    3.20
   7  -2  -4   17.60    4.90
  -7   2  -4   10.40    4.10
   7   2   4   15.50    4.20
  -7   2  -4   18.40    3.90
   7   2   4   17.70    4.30
  -7  -2   4   22.30    5.20
  -7   2  -4   14.10    5.90
  -7   2  -4   13.40    3.20
   7  -2  -4   13.30    4.20
  -7   2  -4   21.80    4.10
   7  -2   4   19.80    5.20
   7  -2   4   19.80    4.30
  -7   2   4   14.10    4.40
  -7  -2  -4   15.00    3.40
   7   2  -4   16.10    2.90
   7  -2   4   14.20    5.30
   7   2  -4   13.60    3.30
   7   2  -4   19.30    3.20
  -7  -2  -4   13.10    4.40
   7  -2   4   12.90    2.70
  -7   2   4   13.10    4.50
  -7  -2  -4   22.00    4.40
  -7  -2  -4   15.20    3.70
   7   2  -4   18.00    3.60
  -7   2   4   15.10    3.70
  -7   3  -4 1339.27   73.39
   7   3   4 1385.06   72.89
   7  -3  -4 1314.77   74.09
  -7   3  -4 1407.26   72.69
   7  -3  -4 1350.66   73.09
   7  -3  -4 1308.67   72.49
   7   3   4 1309.47   72.89
  -7   3  -4 1413.76   71.79
   7   3   4 1316.47   73.19
  -7  -3   4 1231.98   74.49
   7  -3  -4 1348.47   71.99
  -7  -3   4 1341.97   73.09
  -7   3  -4 1267.97   74.59
  -7   3  -4 1331.37   72.59
  -7   3   4 1351.56   73.49
  -7   3   4 1333.57   73.39
   7  -3   4 1274.77   71.89
   7  -3   4 1375.16   73.69
  -7  -3  -4 1206.88   72.49
   7  -3   4 1411.96   73.59
  -7  -3  -4 1334.67   72.79
   7   3  -4 1333.87   72.59
   7   3  -4 1441.96   71.99
  -7   3   4 1337.77   73.19
   7  -4  -4    3.00    3.50
   7   4   4    9.10    5.80
   7  -4  -4   15.50    4.90
  -7  -4   4   10.70    7.20
   7  -4  -4    4.20    3.00
  -7   4  -4   11.20    4.80
  -7   4  -4    5.40    3.90
  -7   4  -4    4.50    5.90
  -7  -4   4   12.50    5.30
   7   4   4   19.20    5.20
   7  -4  -4   15.00    6.00
  -7   4  -4    7.60    7.00
   7   4   4    7.20    5.60
  -7  -4  -4    8.70    4.80
  -7  -4  -4    6.00    4.10
   7  -4   4    7.90    5.70
  -7   4   4   12.80    4.40
  -7  -4  -4   17.10    5.80
   7  -4   4   11.80    3.50
  -7   4   4   16.20    5.80
   7  -4   4    5.00    5.30
   7   4  -4    7.70    4.20
  -7   4   4    9.80    5.50
   7   4  -4    9.40    4.20
   7  -5  -4  509.15   30.20
  -7  -5   4  500.05   34.10
   7  -5  -4  522.15   34.80
   7   5   4  553.54   32.00
  -7   5  -4  590.94   32.20
   7  -5  -4  536.85   31.30
   7   5   4  465.95   32.00
  -7   5  -4  533.85   33.30
  -7   5  -4  581.84   34.80
  -7  -5   4  479.65   32.50
  -7  -5  -4  583.24   31.70
  -7   5   4  528.15   33.60
  -7  -5  -4  570.84   32.20
  -7  -5  -4  533.25   32.10
  -7   5   4  560.14   32.50
  -7   5   4  501.85   34.60
   7   5  -4  631.74   32.00
   7  -5   4  504.65   31.10
   7  -5   4  588.74   32.80
   7  -5   4  613.84   33.70
   7   5  -4  570.94   31.10
   7   5  -4  585.84   32.30
   7  -6  -4    1.30   10.70
   7   6   4    8.00    8.50
   7   6   4    0.80    7.60
   7   6   4   14.00    6.80
   7  -6  -4   15.10    6.90
  -7  -6   4    1.30    6.90
  -7   6  -4   -3.90    5.70
  -7   6  -4    6.10    9.20
   7  -6  -4    8.10    5.00
  -7   6  -4    1.70    9.70
  -7  -6   4    6.20    9.40
  -7   6  -4    0.30    5.90
  -7   6   4   -7.50    6.80
  -7   6   4   33.30    9.10
   7  -6   4   -1.70    4.20
  -7  -6  -4    5.90    6.20
   7   6  -4    9.80    5.40
   7   6  -4    2.80    4.20
  -7  -6  -4    8.20    7.70
   7   6  -4    1.30    7.50
  -7   6   4   21.20    8.50
  -7  -6  -4   13.70    6.10
   7  -6   4   -0.10    8.50
  -7  -7   4  164.78   23.90
   7  -7  -4  235.48   26.60
   7   7   4  141.99   19.20
   7  -7  -4  209.98   18.10
  -7   7  -4  164.18   21.40
  -7   7  -4  172.28   17.30
   7   7   4  201.68   21.00
   7   7   4  170.98   17.50
  -7  -7  -4  198.88   17.40
  -7   7   4  170.78   20.90
   7  -7   4  203.48   18.50
   7   7  -4  203.38   15.00
  -7  -7  -4  124.89   19.80
   7   7  -4  189.68   19.10
   7   7  -4  206.78   16.80
   7  -7   4  165.88   21.50
   7   8   4   30.80   12.80
   7  -8  -4   -2.30   11.30
  -7  -8   4    2.40   13.30
   7   8   4    6.70   11.50
   7  -8  -4    7.20    6.20
  -7   8  -4   -6.20   18.20
  -7  -8   4  -12.80    9.00
  -7   8  -4    4.60   10.10
   7   8   4   -0.10   14.30
   7  -8   4    7.00   11.20
  -7   8   4   22.50   13.50
   7   8  -4   12.10   11.90
   7   8  -4   -0.20    7.90
  -7  -8  -4   10.80   10.10
  -7  -8  -4   -6.70    8.00
   8   0   4  246.68   13.90
   8   0  -4  255.77   16.60
  -8   0  -4  219.48   15.10
  -8   0   4  241.68   14.80
   8   0  -4  240.08   15.20
   8   0  -4  251.97   15.40
   8   0   4  243.48   16.30
  -8   0  -4  261.37   14.90
  -8   0  -4  248.68   15.60
  -8   0  -4  235.08   15.20
  -8   0   4  225.98   14.70
   8   0   4  245.48   17.10
  -8   0   4  257.77   14.70
  -8   0  -4  253.77   17.40
   8  -1  -4  127.09   10.00
  -8  -1   4  121.09   12.00
  -8   1  -4  136.09    9.60
   8  -1  -4  112.49    9.80
   8   1   4  112.29   11.80
  -8  -1   4  125.59    9.00
   8   1   4  112.59   10.20
   8   1   4  126.09   10.80
  -8   1  -4  122.09   10.00
  -8   1  -4  142.39    9.70
   8  -1  -4  135.99   11.90
  -8   1  -4  127.69   12.60
  -8   1  -4  142.29   10.10
   8   1  -4  128.59    9.60
  -8  -1  -4  133.49   10.20
  -8  -1  -4  148.79   10.40
   8   1  -4  137.69   10.70
  -8   1   4  118.19   10.00
   8   1  -4  126.69    9.30
  -8  -1  -4  138.89    9.60
  -8  -1  -4  123.89    9.70
   8  -1   4  122.99   10.60
   8   1  -4  130.39    9.10
   8  -1   4  133.19   11.00
  -8   1   4  132.09   10.20
   8  -1   4  128.09    8.30
  -8  -1  -4  135.49   11.60
  -8   1   4  128.09    9.10
   8  -1   4  131.89   11.80
   8  -2  -4  194.68   15.10
  -8  -2   4  192.48   12.00
   8  -2  -4  179.98   12.40
  -8   2  -4  209.58   12.50
  -8   2  -4  184.08   16.20
   8   2   4  207.08   14.60
  -8   2  -4  156.48   13.60
   8  -2  -4  200.88   13.80
  -8  -2   4  180.08   15.60
   8   2   4  189.18   13.90
  -8   2  -4  190.28   13.20
  -8  -2   4  200.08   14.10
  -8   2  -4  195.78   13.10
   8   2   4  182.48   13.90
   8  -2  -4  191.78   13.00
  -8  -2  -4  181.68   13.10
   8  -2   4  194.98   12.00
  -8  -2  -4  192.28   12.60
   8   2  -4  196.08   12.30
   8   2  -4  209.98   13.40
  -8   2   4  204.48   12.80
  -8  -2  -4  202.68   13.50
  -8  -2  -4  224.28   13.40
   8  -2   4  194.68   13.60
   8  -2   4  203.18   15.40
   8   2  -4  195.48   12.20
  -8   2   4  189.68   13.90
   8  -2   4  175.28   14.40
   8   2  -4  187.38   13.00
  -8  -2  -4  193.78   13.70
   8  -3  -4   59.39    8.50
  -8   3  -4   64.19    9.60
   8   3   4   57.29    8.00
   8  -3  -4   69.69   10.70
   8  -3  -4   73.29    7.10
  -8  -3   4   49.30    9.80
  -8   3  -4   70.89    6.70
   8   3   4   52.39    7.60
  -8  -3   4   59.59    8.20
  -8   3  -4   56.39    7.00
   8  -3  -4   54.29    6.40
  -8   3  -4   63.79    8.00
  -8   3  -4   50.79    9.40
   8   3   4   54.39    8.00
  -8   3   4   64.49    8.30
  -8  -3  -4   50.49    7.60
  -8  -3  -4   72.49    8.70
   8   3  -4   68.49    6.70
   8   3  -4   51.09    6.60
  -8  -3  -4   57.49    7.60
   8  -3   4   57.79    6.00
  -8   3   4   61.89    9.30
   8  -3   4   49.70    8.20
  -8   3   4   61.19    8.10
   8  -3   4   54.39    9.00
   8  -4  -4   90.89    7.90
  -8   4  -4   86.29    9.30
  -8   4  -4   88.39   10.00
   8   4   4   84.39   11.20
  -8  -4   4   93.39   11.60
  -8   4  -4   69.99   11.80
   8  -4  -4   87.69    8.60
   8   4   4   78.69   11.50
   8  -4  -4   99.19   10.30
   8  -4  -4  105.69   13.40
  -8   4  -4  100.19   13.20
  -8  -4   4   90.09   12.60
  -8  -4  -4  107.19   10.00
  -8   4   4   83.49   10.00
  -8   4   4   92.79   12.10
  -8   4   4   78.19   12.20
   8  -4   4   90.99    8.10
   8  -4   4   88.49   11.60
  -8  -4  -4  107.99    9.90
   8   4  -4   90.89    8.80
   8   4  -4   94.59    9.20
   8  -4   4   73.49   11.70
  -8  -4  -4   85.19    9.40
  -8   5  -4    5.80    8.30
   8  -5  -4    8.70    4.60
   8  -5  -4   20.40    9.00
   8  -5  -4    9.00    5.70
  -8  -5   4   13.90    7.00
   8   5   4    9.20    7.40
  -8   5  -4   12.80    5.70
  -8  -5   4   13.10    8.80
   8   5   4   12.80    6.70
  -8   5  -4   -4.00    8.40
   8   5   4    9.30    6.90
  -8   5  -4    0.90    5.70
  -8  -5  -4   15.60    8.00
   8  -5   4    9.70    4.20
   8   5  -4   10.90    5.00
   8  -5   4   -8.40    7.30
  -8   5   4    4.90    6.10
   8  -5   4    6.20    6.60
   8   5  -4   11.40    4.00
  -8  -5  -4   17.70    5.90
  -8  -5  -4   13.40    6.60
  -8   5   4    6.30    7.30
  -8   5   4    2.10    8.10
   8   5  -4   16.50    5.90
   8   6   4   52.59   10.50
   8  -6  -4   21.20   12.10
  -8  -6   4   25.90    9.10
   8   6   4   28.00    9.90
  -8  -6   4   28.40   10.50
  -8   6  -4   39.80    9.20
   8   6   4   27.30    8.70
   8  -6  -4   39.60    9.10
  -8   6  -4   16.50   12.10
  -8   6   4   34.80    9.00
   8   6  -4   25.80    5.50
   8   6  -4   27.40    8.30
  -8  -6  -4   31.70    7.80
  -8  -6  -4   24.70    7.30
  -8  -6  -4   45.40    9.50
   8   6  -4   27.50    7.40
   8  -6   4    7.60   10.40
  -8   6   4   31.40   10.20
   8  -6   4   35.30    8.80
   8   7   4   -7.20   11.30
   8  -7  -4   -5.60    9.80
  -8   7  -4    3.60    8.50
  -8  -7   4    9.80    9.40
   8   7   4   -3.40   11.40
   8   7   4    4.90    9.40
  -8   7  -4  -16.80   15.20
  -8  -7   4   18.50   11.00
   8   7  -4    1.10    6.10
   8   7  -4    3.30   11.40
  -8   7   4   -8.00   11.90
   8  -7   4    7.80   10.50
   8  -7   4  -16.00   13.00
  -8  -7  -4    0.30    8.20
  -8  -7  -4    5.20    8.50
  -8   8  -4    4.60   21.90
   8  -8  -4   20.70    7.60
   8   8   4   32.80   15.30
   8  -8  -4   24.20   13.60
  -8  -8   4    1.70   13.60
  -8  -8   4   17.40   10.40
  -8  -8  -4   15.90    9.90
   8   8  -4   13.20   13.50
   8  -8   4   21.20   13.20
  -8  -8  -4   15.10   12.00
   8   8  -4   23.80    9.30
  -8   8   4    9.20   14.90
   9   0   4   85.29    6.20
   9   0  -4   85.29    7.90
  -9   0  -4   74.19   10.80
   9   0  -4  103.09   10.80
   9   0  -4  100.49    8.50
   9   0   4  101.19    9.50
  -9   0  -4   88.09    8.40
  -9   0   4   83.29    7.80
  -9   0  -4   90.39    8.60
   9   0   4   64.89   10.70
   9   0  -4   72.99    8.10
   9   0   4   77.49    9.80
  -9   0   4   93.79    7.80
  -9   0  -4   81.19   11.60
   9  -1  -4  197.28   13.10
  -9   1  -4  214.28   13.90
  -9   1  -4  201.88   14.00
  -9  -1   4  188.98   12.80
   9  -1  -4  195.28   15.60
   9   1   4  179.18   14.20
   9   1   4  207.38   14.90
  -9  -1   4  201.98   15.90
   9  -1  -4  191.38   13.60
  -9   1  -4  184.68   13.70
  -9   1  -4  195.78   16.10
  -9   1  -4  208.28   13.50
   9   1   4  201.18   15.90
   9  -1   4  195.98   15.70
   9  -1   4  190.08   12.10
  -9  -1  -4  201.18   13.40
  -9   1   4  200.18   14.00
  -9  -1  -4  203.28   15.20
   9   1  -4  204.48   12.90
  -9  -1  -4  186.28   13.90
  -9  -1  -4  223.38   14.20
   9   1  -4  212.98   15.10
  -9   1   4  206.18   13.30
   9   1  -4  196.68   13.20
   9   1  -4  188.38   13.20
  -9  -1  -4  205.28   13.80
   9  -1   4  195.38   14.40
   9  -1   4  202.88   14.80
  -9   1   4  195.68   13.90
   9  -2  -4   67.09   10.50
   9   2   4   66.29    8.70
   9   2   4   54.59    7.70
  -9   2  -4   62.39    7.50
  -9   2  -4   62.79    9.50
   9  -2  -4   60.29    7.30
  -9   2  -4   61.49    8.90
   9  -2  -4   56.39    6.80
  -9   2  -4   55.69    8.50
  -9  -2   4   60.19   10.10
  -9  -2   4   64.29    6.70
  -9   2  -4   50.49    8.00
   9   2   4   63.39    9.00
  -9  -2  -4   67.69    8.30
   9   2  -4   73.09    7.20
  -9   2   4   61.09    7.60
   9   2  -4   59.29    7.10
   9   2  -4   71.29    9.10
  -9  -2  -4   56.49    9.10
   9  -2   4   64.39    9.30
  -9  -2  -4   66.09    8.30
   9  -2   4   49.70    7.00
  -9   2   4   60.79    7.80
   9  -2   4   72.39   10.90
   9  -2   4   65.09    6.10
  -9  -2  -4   70.99    8.20
   9   2  -4   59.49    6.90
  -9   2   4   61.19    7.70
   9  -3  -4  137.59   14.30
   9   3   4  141.39   12.30
   9   3   4  126.59   13.50
  -9   3  -4  116.59   12.50
   9  -3  -4  136.09   10.70
   9  -3  -4  153.18   12.40
  -9  -3   4  127.89   12.40
  -9   3  -4  141.29   10.50
   9   3   4  111.79   13.10
  -9   3  -4  119.99   15.30
  -9  -3   4  126.99   14.20
  -9   3  -4  145.59   12.10
   9  -3  -4  126.09   10.20
  -9   3  -4  148.09   11.70
  -9  -3  -4  111.29   11.60
   9  -3   4  138.49   13.10
  -9   3   4  142.29   13.20
   9  -3   4  168.28   13.70
   9  -3   4  139.59    9.90
   9   3  -4  148.59   10.20
   9   3  -4  134.19   10.50
  -9  -3  -4  144.69   11.60
  -9   3   4  129.79   11.60
  -9   3   4  120.69   13.50
  -9   4  -4   23.20    9.30
  -9   4  -4   21.90    6.10
  -9   4  -4   16.70    7.80
   9  -4  -4   20.30    4.40
   9   4   4   12.10    7.40
   9  -4  -4   21.20    6.20
   9  -4  -4    9.20    8.70
  -9  -4   4   13.90    8.70
   9   4   4   12.70    6.70
   9   4   4   21.80    6.70
  -9   4  -4   20.90    6.90
  -9  -4   4   28.40    7.50
   9  -4  -4   15.50    4.20
  -9   4   4   20.20    8.20
   9  -4   4   17.90    7.10
   9   4  -4   20.60    5.30
  -9  -4  -4   29.50    6.20
  -9  -4  -4   21.80    7.70
  -9   4   4   19.80    6.30
   9  -4   4   13.80    4.20
   9   4  -4   26.80    5.40
  -9  -4  -4   23.80    6.20
  -9   4   4   19.00    7.90
   9  -4   4   26.70    8.30
   9  -5  -4   58.79    7.60
   9  -5  -4   71.59    9.90
   9   5   4   71.59   10.80
   9  -5  -4   80.19   12.40
  -9   5  -4   54.69    9.30
  -9   5  -4   97.69   12.70
  -9  -5   4   55.89   10.30
  -9   5  -4   62.69   12.70
  -9   5  -4   76.69   14.80
   9   5   4   55.39   10.40
   9   5   4   59.19    9.20
   9  -5  -4   74.59   11.70
  -9  -5   4   65.69   11.70
  -9   5   4   60.19    9.50
  -9  -5  -4   63.29    9.10
   9   5  -4   66.19   10.60
   9  -5   4   58.39   11.30
   9   5  -4   73.29    9.70
  -9  -5  -4   71.59   11.20
  -9  -5  -4   73.59   11.80
   9  -5   4   67.59    9.70
   9  -5   4   60.39    8.90
  -9   5   4   50.89   11.20
   9   5  -4   66.39    8.20
  -9   5   4   51.79   10.30
   9   6   4    1.20   10.00
  -9  -6   4    8.80    9.20
   9   6   4    1.40    9.50
   9   6   4    3.60    9.40
  -9   6  -4    9.40    8.40
  -9   6  -4   -3.70   12.20
  -9  -6   4    8.80   10.50
  -9   6   4   16.50   10.40
   9  -6   4   -2.40    8.40
  -9  -6  -4    3.70    9.10
  -9  -6  -4    1.60    8.00
   9   6  -4   -6.20    7.70
  -9  -6  -4   10.40    7.30
   9   6  -4    3.40    5.10
  -9   7  -4   22.00   10.80
   9  -7  -4   17.50   11.40
   9   7   4   30.70   11.80
  -9   7  -4   31.30   17.50
   9   7   4   26.30   13.10
  -9  -7   4   21.00   10.60
  -9  -7   4   20.60   13.00
   9   7   4   23.40   13.90
  -9  -7  -4   28.50    9.90
   9   7  -4   23.70    7.10
  -9   7   4   14.70   12.30
   9  -7   4   31.60   12.80
   9   7  -4   17.30   10.10
  -9  -7  -4   25.00    9.20
  10   0  -4  726.93   43.20
  10   0  -4  775.12   41.80
  10   0   4  705.93   42.90
  10   0   4  768.92   43.50
 -10   0   4  751.72   44.30
  10   0   4  725.73   40.10
  10   0  -4  733.63   41.50
  10   0   4  748.03   42.40
 -10   0  -4  781.82   43.60
 -10   0  -4  676.93   41.30
 -10   0  -4  738.93   42.10
 -10   0   4  742.33   41.30
 -10   0  -4  799.12   42.00
  10   0  -4  693.13   41.70
 -10   1  -4  174.38   13.00
  10   1   4  141.19   13.60
 -10  -1   4  148.79   14.80
 -10   1  -4  173.98   12.60
  10  -1  -4  153.88   12.30
  10  -1  -4  173.08   15.40
  10  -1  -4  156.08   11.50
 -10   1  -4  158.18   16.10
 -10   1  -4  140.99   12.50
  10   1   4  155.18   13.20
 -10  -1   4  147.29   11.50
 -10   1  -4  162.58   13.00
  10  -1  -4  149.69   12.10
  10   1   4  149.09   15.20
  10  -1   4  150.08   13.40
 -10  -1  -4  168.88   13.30
  10   1  -4  140.49   12.10
 -10   1   4  176.08   12.30
 -10   1   4  146.79   12.60
  10   1  -4  165.28   11.70
 -10  -1  -4  164.58   12.20
  10   1  -4  152.08   11.60
  10   1  -4  154.28   11.80
  10  -1   4  158.38   15.40
 -10  -1  -4  152.38   14.40
 -10  -1  -4  169.48   12.60
  10  -1   4  156.78   10.40
 -10   1   4  163.88   12.60
  10  -1   4  166.48   13.40
  10   1  -4  167.18   14.10
 -10  -1  -4  160.78   12.80
  10   2   4  572.54   35.40
 -10  -2   4  535.15   36.40
  10  -2  -4  589.14   33.00
 -10   2  -4  584.44   33.80
 -10   2  -4  542.45   33.80
 -10   2  -4  592.94   34.10
 -10   2  -4  583.04   36.50
  10   2   4  585.64   34.60
 -10  -2   4  538.15   32.50
  10  -2  -4  580.04   35.60
  10  -2  -4  568.14   33.20
 -10   2  -4  613.24   33.20
 -10  -2  -4  655.43   34.00
  10  -2   4  571.84   35.20
 -10   2   4  579.44   34.30
  10   2  -4  585.84   32.80
  10  -2   4  524.25   41.20
  10   2  -4  611.14   32.80
 -10   2   4  592.04   33.30
  10  -2   4  574.04   35.00
 -10   2   4  607.54   34.20
  10  -2   4  554.04   32.20
  10   2  -4  573.94   33.40
 -10  -2  -4  529.75   33.70
 -10   3  -4  109.99    9.70
  10   3   4   82.39   12.50
 -10   3  -4  107.09   16.30
  10  -3  -4  105.29   12.90
 -10  -3   4  108.29   12.70
 -10  -3   4  103.19   13.60
 -10   3  -4   85.29   12.60
 -10   3  -4   88.29   12.10
  10  -3  -4   96.29    9.80
  10  -3  -4   86.69    9.20
  10   3   4   84.89   14.20
  10  -3  -4  108.39   11.90
 -10   3  -4  107.09   11.20
  10   3   4   86.59   12.10
 -10   3   4  106.89   12.70
  10   3  -4  116.09   10.00
  10  -3   4   94.09   13.10
 -10  -3  -4   66.79   11.20
 -10  -3  -4  129.19   12.10
 -10  -3  -4  122.99   11.40
  10   3  -4   87.19    9.10
  10  -3   4   96.79    8.70
  10   3  -4  104.79   12.00
 -10   3   4   92.19   13.10
  10   3  -4   94.49    9.30
 -10   3   4  102.09   11.20
  10  -3   4  106.59   13.10
  10   4   4  246.48   21.70
 -10   4  -4  298.37   21.20
  10  -4  -4  261.57   18.40
  10  -4  -4  291.17   18.40
 -10   4  -4  305.67   22.40
 -10   4  -4  277.27   24.60
  10  -4  -4  322.27   20.90
  10  -4  -4  301.17   24.30
  10   4   4  264.27   21.30
  10   4   4  269.07   21.00
 -10   4  -4  274.87   20.10
 -10  -4   4  296.27   21.40
 -10  -4   4  273.17   22.50
  10   4  -4  297.47   18.50
 -10   4   4  282.97   22.60
  10  -4   4  285.17   22.30
 -10  -4  -4  301.67   20.30
 -10   4   4  251.17   20.00
 -10   4   4  309.17   22.10
  10   4  -4  290.07   19.00
  10  -4   4  324.17   21.60
  10  -4   4  258.97   18.10
  10  -5  -4   42.60    9.40
  10   5   4   43.70   10.30
  10   5   4   30.00    9.80
  10   5   4   31.80   10.50
 -10   5  -4   17.40   13.00
 -10  -5   4   33.90   10.90
 -10   5  -4   47.80    9.90
  10   5  -4   49.10    6.30
 -10  -5  -4   57.69    9.30
 -10  -5  -4   36.10   10.40
 -10  -5  -4   34.60   12.20
 -10   5   4   56.99   11.20
  10   5  -4   49.60    7.80
 -10   5   4   21.80    9.70
  10  -5   4   46.20    8.90
  10  -6  -4  100.99   12.80
  10   6   4   83.79   14.80
 -10   6  -4   85.09   18.80
 -10   6  -4  101.39   13.90
 -10  -6   4   98.59   17.50
  10   6   4   98.69   14.60
  10   6   4   90.99   14.40
 -10  -6   4  115.09   16.70
  10   6  -4  100.89   11.60
  10   6  -4  104.39   16.50
 -10  -6  -4  108.19   15.60
 -10  -6  -4  100.09   15.20
  10  -6   4  124.89   17.20
 -10  -6  -4   92.79   13.70
 -10   6   4  122.79   20.00
 -10  -7   4   26.20   11.30
  10   7   4    4.90   12.40
  10  -7  -4   27.60   12.70
 -10   7  -4   26.00   20.70
 -10  -7   4   -0.50   12.20
 -10   7  -4   11.60   13.00
  10  -7   4   18.30   14.10
  10   7  -4   18.30    8.20
 -10   7   4   33.60   14.00
 -10  -7  -4   21.40   11.40
 -10  -7  -4   15.50    9.30
  10   7  -4   10.70   11.70
 -11   0  -4   11.60    8.20
  11   0   4   19.30    6.40
 -11   0   4   16.00    8.80
 -11   0   4    8.50    4.90
  11   0  -4   14.50    5.40
  11   0  -4   18.50    5.70
 -11   0  -4   20.00    5.50
 -11   0  -4   14.40    5.80
  11   0  -4   14.80    4.90
 -11   0  -4   26.30    6.30
  11   0   4    1.40    6.70
  11   0  -4   23.80    8.40
  11   0   4   16.20    3.30
 -11  -1   4    0.60    4.70
 -11   1  -4    5.50    5.60
 -11  -1   4   -0.60    8.30
  11   1   4   -1.50    6.80
 -11   1  -4    3.40    5.50
  11  -1  -4    0.20    4.60
 -11   1  -4   -0.20    5.90
 -11   1  -4   -1.50    8.60
  11  -1  -4   -1.50    8.20
  11  -1  -4   -5.90    3.90
  11  -1  -4    3.20    5.10
  11   1   4   -1.30    5.30
  11   1   4    0.40    7.80
 -11   1   4    2.00    5.80
 -11   1   4   -0.40    5.10
  11   1  -4    2.30    4.10
  11   1  -4   -2.10    4.70
 -11  -1  -4    9.90    5.50
 -11  -1  -4    2.00    6.90
 -11  -1  -4   -2.00    7.00
 -11  -1  -4    0.40    5.70
 -11  -1  -4    0.90    5.60
  11   1  -4   -0.90    6.80
  11  -1   4   -1.20    5.90
  11   1  -4    6.90    4.30
 -11   1   4    4.10    5.60
  11  -1   4    4.10    3.30
  11  -1   4    0.80    5.30
  11   1  -4    3.40    5.10
  11  -1   4    3.80    7.80
 -11  -2   4   10.80    4.90
  11  -2  -4   21.00    5.30
 -11   2  -4   21.20    5.90
 -11   2  -4   10.50    6.80
 -11   2  -4    8.90    6.20
  11  -2  -4   11.20    9.30
 -11   2  -4   25.30    7.10
 -11   2  -4    6.30    8.90
 -11  -2   4   13.10    7.80
  11   2   4   19.20    7.30
  11  -2  -4    9.20    5.10
  11   2   4   13.60    6.60
  11   2   4   16.30    8.60
 -11  -2  -4   18.30    7.50
  11   2  -4   23.80    4.90
 -11  -2  -4   19.10    6.40
  11   2  -4   11.00    7.50
 -11  -2  -4   23.10    6.40
  11  -2   4   15.20    4.00
 -11   2   4   10.40    7.30
  11   2  -4   10.20    5.20
 -11   2   4   19.10    6.20
 -11   2   4   10.50    7.40
  11  -2   4    8.70    5.60
  11   2  -4   15.10    6.10
  11   2  -4   14.00    4.90
  11  -2   4   20.40    8.60
  11  -2   4   11.10    6.90
 -11  -3   4   -2.40    8.40
 -11   3  -4   -8.10    9.80
  11  -3  -4   -1.70    4.50
  11   3   4    5.40    8.20
  11   3   4   -5.10    6.20
  11   3   4   -1.40    8.80
  11  -3  -4    1.10    7.10
 -11   3  -4  -11.60    7.60
  11  -3  -4   -8.90   10.90
  11  -3  -4   -2.60    4.80
 -11   3  -4    4.50   10.90
  11  -3   4    4.10    7.60
 -11  -3  -4   -2.00    6.90
 -11  -3  -4   12.30    6.80
  11   3  -4    3.60    4.70
  11  -3   4    1.80    3.90
 -11   3   4   -7.30    7.20
 -11   3   4    4.00    8.10
 -11  -3  -4    2.00    7.80
 -11   3   4   -2.60    5.90
  11  -3   4    7.20   14.30
  11   3  -4   -7.60    7.70
  11   3  -4    1.10    5.30
  11  -4  -4   12.00    7.50
  11   4   4   11.40    8.20
  11  -4  -4    9.50    5.40
 -11   4  -4    9.40    8.40
 -11  -4   4   15.90    8.90
 -11  -4   4    2.40    9.20
  11   4   4   21.10    9.20
  11   4   4    0.20    9.70
 -11   4  -4   -0.50   11.90
 -11  -4  -4   13.90   10.00
 -11   4   4   12.70    8.30
 -11   4   4   16.20    9.00
  11   4  -4   13.30    5.40
 -11  -4  -4   19.30    6.90
  11  -4   4    8.40    5.80
  11  -4   4    3.30    8.10
 -11  -5   4   -3.40    9.70
  11   5   4    3.70   11.20
  11  -5  -4   -2.00    6.50
  11  -5  -4    3.20    8.10
  11   5   4   -9.30   10.30
 -11  -5   4    1.40   12.10
 -11   5  -4  -10.90    9.30
 -11   5  -4   -3.50   14.10
 -11  -5  -4   -4.20   10.20
 -11   5   4   19.40   10.70
  11   5  -4    5.40    6.70
  11  -5   4    3.30    8.60
  11   5  -4    6.50    5.40
 -11  -5  -4    7.60    7.40
 -11  -6   4   15.30   12.40
  11  -6  -4    0.50   10.70
 -11  -6   4   -1.50   11.20
  11   6   4    0.20   18.90
  11   6   4   -1.70   11.50
 -11   6  -4   22.10   17.50
 -11   6  -4   11.10   13.00
  11   6  -4    9.30    6.60
 -11  -6  -4   14.40    9.40
  11  -6   4   -9.00   11.10
 -11  -6  -4  -13.20   12.30
 -11   6   4   32.90   13.30
  11   6  -4    4.10    8.90
 -11  -6  -4   17.10    9.60
  12   0  -4   28.30   10.90
 -12   0   4   28.80    9.80
  12   0   4   22.20    9.20
 -12   0  -4   29.00    7.10
  12   0  -4   34.80    5.70
 -12   0   4   10.30    6.30
 -12   0  -4   26.10    8.70
  12   0   4   23.10    8.50
 -12   0  -4   22.30    6.90
 -12   0  -4   14.80    7.80
  12   0   4   27.20    7.70
  12   0  -4   17.60    5.80
  12   0   4   19.70    4.20
 -12   0  -4   42.60   10.40
 -12   1  -4  199.68   16.00
 -12  -1   4  202.38   19.30
 -12  -1   4  176.38   14.80
  12  -1  -4  201.48   21.00
  12   1   4  238.18   19.10
  12   1   4  205.08   16.90
 -12   1  -4  191.88   16.90
 -12   1  -4  154.38   25.50
  12  -1  -4  182.88   15.00
  12   1   4  145.19   18.10
  12  -1  -4  219.28   15.00
 -12   1   4  197.18   16.00
 -12  -1  -4  186.48   16.00
  12   1  -4  187.18   15.30
  12   1  -4  184.58   14.70
 -12  -1  -4  169.78   18.10
 -12  -1  -4  210.58   16.80
 -12  -1  -4  211.68   17.40
  12  -1   4  198.78   16.50
  12   1  -4  192.18   15.20
  12   1  -4  208.88   20.10
  12  -1   4  183.48   13.00
  12  -1   4  203.68   19.80
 -12   1   4  189.98   16.00
  12   1  -4  187.88   14.40
 -12  -2   4   18.80    6.30
 -12   2  -4   16.00   12.00
 -12   2  -4   24.30    6.90
  12  -2  -4   23.40    6.20
  12   2   4   16.20    7.50
  12  -2  -4   27.90    6.10
  12   2   4   24.40   10.80
  12   2   4   24.50   10.10
 -12  -2   4   10.20    9.80
 -12   2  -4   24.70    8.50
  12   2  -4   17.10    6.50
  12   2  -4   25.00    6.60
  12  -2   4   16.80    5.00
 -12  -2  -4   26.50    7.20
  12   2  -4   22.90    9.90
  12   2  -4   21.30    6.00
 -12   2   4   30.30    7.90
 -12  -2  -4   31.20    8.90
  12  -2   4   20.80    7.20
  12  -2   4   29.50    9.30
 -12   2   4   12.70    8.40
 -12   2   4   12.60    8.60
  12   3   4  131.09   18.90
  12   3   4  101.39   15.50
 -12   3  -4   93.29   15.80
  12   3   4  116.09   17.90
  12  -3  -4   95.39   11.60
 -12  -3   4  102.79   16.00
  12  -3  -4  114.49   15.10
 -12   3  -4  120.69   17.10
  12   3  -4  133.19   18.20
 -12   3   4  105.69   14.40
  12   3  -4  111.39   11.80
 -12   3   4  118.79   15.50
  12   3  -4   97.79   11.10
  12  -3   4   96.49   11.70
  12   3  -4  115.49   12.80
  12  -3   4  144.89   17.00
 -12   3   4  116.09   13.70
 -12  -3  -4  138.99   14.60
 -12  -3  -4  120.79   14.30
 -12   4  -4   35.30   10.90
  12   4   4   15.20   11.80
  12  -4  -4   25.10    9.60
  12  -4  -4    8.40    6.60
  12   4   4   28.90   12.00
 -12  -4   4    2.80   11.30
 -12   4  -4   -5.90   13.60
  12   4   4   -2.30    9.10
 -12  -4  -4   22.30   10.90
 -12   4   4   11.00   10.00
  12  -4   4   15.50    9.70
  12   4  -4   11.20    6.40
 -12  -4  -4   19.00    8.00
 -12   5  -4   55.89   14.10
 -12  -5   4   57.49   13.60
  12  -5  -4   52.89   10.80
  12   5   4   21.00   15.30
 -12  -5   4   52.29   15.10
 -12   5  -4   45.80   19.40
  12   5   4   34.80   12.00
  12   5   4   35.70   14.60
  12   5  -4   45.00    7.50
  12   5  -4   36.40    8.90
 -12  -5  -4   36.50   12.10
  12  -5   4   41.40   11.50
 -12   5   4   39.40   13.20
 -12  -5  -4   66.19   10.80
  13   0  -4  323.67   32.80
 -13   0  -4  361.96   23.70
 -13   0  -4  341.47   27.60
  13   0  -4  321.17   23.00
  13   0   4  326.17   24.40
  13   0  -4  360.46   23.30
  13   0   4  380.56   28.30
 -13   0   4  331.77   24.10
 -13   0  -4  379.46   24.80
 -13   0  -4  339.47   23.90
  13   0   4  293.87   20.50
  13  -1  -4   62.49    9.00
  13   1   4   57.79   12.70
 -13  -1   4   31.50   22.90
 -13  -1   4   49.40    8.90
 -13   1  -4   61.39    9.20
  13   1   4   66.69   10.80
 -13   1  -4   33.40    9.80
 -13   1  -4   57.19   13.90
  13   1  -4   68.49   14.20
  13  -1   4   55.39    9.40
  13   1  -4   65.39    9.30
  13   1  -4   59.79    8.20
  13  -1   4   61.09    9.20
  13   1  -4   36.20    8.20
  13  -1   4   80.69   13.40
 -13   1   4   52.29    9.80
 -13  -1  -4   76.59   12.70
 -13  -1  -4   62.69    9.80
 -13   2  -4  279.97   27.90
 -13  -2   4  260.97   24.80
 -13   2  -4  270.47   23.80
 -13  -2   4  244.48   20.30
  13   2   4  310.67   25.10
  13  -2  -4  235.18   19.50
 -13  -2  -4  291.17   21.30
 -13   2   4  269.27   22.80
 -13   2   4  274.57   22.90
  13   2  -4  259.37   26.10
  13   2  -4  277.57   20.60
  13  -2   4  247.48   20.60
  13  -2   4  253.27   18.30
 -13   2   4  270.97   22.70
  13   2  -4  274.17   19.40
  13   2  -4  267.67   19.80
  13  -2   4  256.87   23.40
 -13  -2  -4  316.47   22.00
  13   3   4   34.70   13.20
 -13  -3   4   37.20   14.80
 -13   3  -4   24.10   15.10
  13   3   4   17.80    9.50
  13  -3  -4   27.10    8.20
  13  -3  -4   30.00   10.40
 -13  -3  -4   40.10   11.30
  13  -3   4   28.60   11.50
 -13  -3  -4   31.90    8.40
  13   3  -4   31.50    8.40
  13  -3   4   38.50   11.60
 -13   3   4   35.10   12.00
  13   3  -4   32.60    9.20
 -13   3   4   12.30   13.00
  13   3  -4   46.60   13.30
  13   3  -4   34.00    8.00
 -13  -4   4  149.69   22.10
  13   4   4  195.68   26.80
  13   4   4  139.69   21.00
 -13   4  -4  148.19   22.10
  13  -4  -4  195.58   19.80
 -13  -4  -4  171.48   18.10
 -13  -4  -4  193.28   19.60
  13   4  -4  174.28   17.30
 -13   4   4  135.59   18.80
  13  -4   4  172.18   20.70
  13   4  -4  156.18   16.80
 -14   0  -4   76.89   11.40
 -14   0   4   84.79   16.80
 -14   0  -4  107.79   15.50
 -14   0   4   60.99   12.80
  14   0   4   67.09   14.50
  14   0   4   78.09   11.80
  14   0  -4   80.99   12.00
 -14  -1   4   -1.80   12.90
  14   1   4    8.20   12.80
  14   1   4    7.20    9.70
 -14   1  -4    9.60   14.20
 -14  -1   4   16.40   11.70
 -14   1  -4   -1.40   12.00
 -14  -1  -4    4.70   11.30
 -14   1   4    2.00    9.90
 -14  -1  -4   -0.90    8.50
 -14   1   4   -5.90   11.80
  14   1  -4   11.50    8.40
  14  -1   4  -12.00   10.10
  14  -1   4   23.10   11.40
  14  -1   4    3.20    8.40
  14   1  -4    1.10    8.50
  14  -2  -4   80.99   13.10
 -14  -2   4   72.09   15.50
  14   2   4   44.10   14.70
 -14   2  -4   55.79   16.70
  14   2   4   56.29   12.30
  14   2  -4   54.79    9.10
  14  -2   4   63.49   13.20
  14  -2   4   57.69    9.20
  14   2  -4   38.90   11.00
 -14  -2  -4   84.39   13.80
 -14   2   4   47.50   13.00
  14   2  -4   60.49   10.70
 -14  -2  -4   53.89    9.90
 -14   3  -4  -24.70   16.20
 -14  -3   4   -7.10   13.20
  14   3   4   12.40   13.90
  14   3   4   -8.00   10.30
  14  -3  -4   14.30   11.50
 -14   3   4  -19.30   13.70
  14   3  -4   -3.80    9.40
 -14  -3  -4  -11.20   11.90
  14   3  -4   -4.20    8.50
 -14  -3  -4    2.10    8.90
  14  -3   4   -3.80   11.90
 -15   0  -4  169.38   20.90
  15   0   4  188.18   26.20
  15   0   4  157.28   21.00
 -15   0   4  146.99   22.60
  15   1   4   11.70   12.00
  15  -1   4   19.30   10.70
  15   1  -4   26.50   11.30
   0   0  -5    0.30    1.60
   0   0   5   -0.20    2.00
   0   0   5    3.60    2.30
   0   0   5    1.70    1.10
   0   0  -5    1.50    2.10
   0   0   5    1.40    1.90
   0   0  -5    1.30    1.10
   0   1  -5  406.16   24.30
   0   1   5  443.26   24.50
   0  -1   5  434.36   24.70
   0  -1  -5  461.15   24.80
   0   1   5  443.56   25.10
   0   1   5  444.56   24.20
   0  -1   5  454.85   24.50
   0  -1  -5  458.35   25.20
   0  -1   5  457.15   23.90
   0  -1   5  413.56   25.00
   0   1  -5  447.66   25.20
   0   2   5    3.90    2.70
   0   2  -5    3.20    2.50
   0  -2  -5    2.00    2.10
   0  -2  -5    1.30    1.50
   0  -2  -5    3.00    2.50
   0   2  -5    1.90    2.00
   0  -2   5    3.40    3.70
   0   2   5    3.50    2.10
   0   2  -5    2.00    1.50
   0  -2   5    0.30    1.90
   0   2  -5    3.20    2.10
   0  -2   5    4.10    2.10
   0   3  -5  194.18   13.20
   0  -3  -5  187.38   13.10
   0  -3   5  198.98   14.10
   0  -3  -5  214.18   13.50
   0   3   5  207.08   12.90
   0  -3   5  199.38   12.30
   0   3  -5  213.68   12.50
   0  -3  -5  200.28   12.20
   0   3   5  204.08   13.30
   0   3  -5  213.98   12.00
   0  -3  -5  202.68   13.20
   0   3  -5  217.48   12.70
   0   4  -5    3.60    2.70
   0   4  -5    4.30    3.10
   0  -4  -5    4.00    3.70
   0   4   5   -2.50    3.20
   0   4   5    1.00    3.50
   0  -4  -5   -0.50    2.50
   0   4  -5    1.90    3.50
   0  -4  -5    2.40    4.00
   0  -4   5    7.30    5.70
   0  -4   5    5.40    3.20
   0  -4  -5    3.90    2.20
   0   5  -5   31.20    6.30
   0   5  -5   40.30    5.00
   0   5   5   52.79    7.70
   0   5  -5   35.30    5.30
   0   5  -5   50.09    6.20
   0  -5  -5   47.40    5.60
   0  -5  -5   61.69    8.50
   0  -5  -5   48.30    5.80
   0  -5  -5   46.70    5.50
   0  -5   5   42.20    6.10
   0  -5   5   53.49    9.50
   0  -5  -5   63.39    8.70
   0   5   5   34.70    5.90
   0   6  -5    2.70    6.40
   0  -6  -5   13.90    6.40
   0   6   5    7.50    6.20
   0  -6  -5    0.00    3.50
   0   6  -5    7.10    5.50
   0  -6  -5    5.10    5.90
   0  -6  -5   -0.80    3.80
   0   6  -5    1.10    4.00
   0  -6   5   -0.20    7.80
   0  -6   5    1.80    3.50
   0   6   5    6.20    5.50
   0  -6  -5    5.60    4.10
   0   6  -5    0.40    3.10
   0  -7  -5    3.30    4.10
   0  -7   5    4.60    4.60
   0   7  -5   -0.90    9.00
   0  -7  -5    4.70    4.80
   0  -7  -5   14.20    7.90
   0  -7  -5    2.10    4.80
   0  -7  -5    1.20    7.30
   0   7   5   10.90    7.70
   0   7  -5    4.70    5.40
   0   7  -5  -11.80    7.30
   0   7   5    9.90    8.20
   0  -8  -5    0.60    5.50
   0  -8  -5   16.00    6.90
   0  -8  -5    3.50    6.20
   0  -8   5    3.30    6.70
   0   8  -5   -2.00    7.20
   0   8  -5   11.80   11.10
   0   8   5   -4.80   10.50
   0   8  -5   -5.80   12.00
   0  -9  -5   -3.50   10.90
   0   9  -5   14.60   17.60
   0   9  -5    8.40   10.20
   0  -9   5  -12.30    8.30
   0  -9  -5  -12.10    7.50
   0   9   5  -14.50   14.90
   1   0   5 1612.54   88.09
   1   0  -5 1618.94   87.79
  -1   0   5 1652.93   87.69
   1   0   5 1546.35   87.19
   1   0   5 1720.03   87.59
  -1   0   5 1748.33   87.39
  -1   0  -5 1600.14   87.19
   1   0  -5 1648.73   87.59
  -1   0  -5 1572.44   87.49
  -1   0  -5 1588.44   88.39
  -1   0   5 1723.93   87.99
   1  -1  -5  110.09    8.00
  -1   1  -5  120.79    8.70
   1   1   5  116.19    7.40
  -1  -1   5  125.09    6.90
   1   1   5  106.49    8.30
   1   1   5  121.59    7.80
  -1   1  -5  127.59    7.70
   1  -1  -5  113.49    7.80
  -1   1  -5  111.79    7.40
  -1  -1   5   83.49   10.70
  -1   1  -5  110.89    7.00
  -1  -1   5  109.59    7.40
   1  -1   5  117.89    7.20
   1   1  -5  111.69    7.40
  -1  -1  -5  125.19    8.70
   1   1  -5  115.19    7.90
   1  -1   5  113.59    8.00
   1  -1   5  116.69    8.20
   1  -1   5  111.69    7.80
  -1  -1  -5  130.09    7.80
  -1   1   5  112.99    7.90
  -1   1   5  116.89    7.50
  -1  -2   5 1297.07   66.99
   1   2   5 1248.28   67.99
   1  -2  -5 1303.97   66.39
   1  -2  -5 1304.77   67.69
  -1   2  -5 1195.68   67.99
  -1   2  -5 1232.38   66.79
   1  -2  -5 1241.28   67.69
   1   2   5 1264.57   67.19
  -1  -2   5 1213.38   68.39
  -1   2  -5 1329.97   67.49
  -1   2  -5 1145.99   67.19
   1   2   5 1279.97   67.29
   1  -2   5 1257.37   67.49
  -1  -2  -5 1258.17   68.09
   1  -2   5 1306.17   67.39
  -1  -2  -5 1318.57   66.69
  -1   2   5 1215.18   67.79
  -1  -2  -5 1344.97   67.59
  -1   2   5 1184.38   67.29
   1   2  -5 1219.88   67.49
   1   2  -5 1154.38   66.89
   1  -2   5 1230.98   67.89
  -1  -3   5   28.40    3.60
   1   3   5   22.80    4.20
   1  -3  -5   22.90    3.80
   1  -3  -5   24.10    4.10
   1  -3  -5   20.00    2.70
  -1   3  -5   21.40    3.20
  -1   3  -5   21.30    4.60
   1  -3  -5   18.10    3.00
  -1  -3   5   31.00    6.20
   1   3   5   26.10    3.80
  -1   3  -5   23.10    3.70
  -1   3  -5   24.00    3.70
   1   3  -5   28.70    4.30
   1   3  -5   28.40    4.20
  -1  -3  -5   24.70    3.90
  -1   3   5   20.70    3.90
   1  -3   5   32.80    6.10
  -1  -3  -5   27.10    3.30
   1   3  -5   20.50    3.00
  -1  -3  -5   24.00    3.30
  -1   3   5   25.90    4.00
   1  -3   5   20.90    3.20
  -1  -3  -5   18.20    4.10
   1  -3   5   27.10    3.60
   1  -4  -5  590.74   34.40
  -1  -4   5  573.44   35.20
  -1   4  -5  662.43   33.30
  -1   4  -5  571.04   33.60
  -1   4  -5  623.74   33.50
   1  -4  -5  603.14   33.10
   1   4   5  594.34   34.20
   1  -4  -5  660.13   34.20
  -1  -4   5  525.95   33.30
   1   4   5  628.94   33.80
   1  -4  -5  610.84   32.70
  -1   4  -5  555.34   34.30
  -1   4   5  587.14   34.20
   1   4  -5  565.24   33.60
  -1   4   5  594.14   34.00
   1   4  -5  638.14   33.50
   1  -4   5  512.45   33.40
   1   4  -5  583.34   33.10
  -1  -4  -5  571.04   32.80
  -1  -4  -5  598.74   32.70
   1  -4   5  669.73   33.20
  -1  -4  -5  685.93   34.50
  -1  -4  -5  604.64   33.90
   1  -5  -5   14.40    5.30
   1  -5  -5   -1.30    4.20
  -1   5  -5    0.20    2.20
   1  -5  -5    0.00    2.90
  -1   5  -5    1.70    3.40
   1   5   5   -3.10    4.00
  -1   5  -5    1.30    4.90
  -1  -5   5   -3.50    6.40
   1   5   5    4.00    4.50
  -1   5  -5   -2.20    4.00
   1  -5  -5   -2.90    2.60
  -1  -5   5    0.30    3.20
  -1   5  -5    3.30    3.50
   1   5  -5    3.40    3.50
   1   5  -5   -0.50    4.00
   1   5  -5    2.50    3.60
  -1  -5  -5    1.00    3.10
  -1  -5  -5    3.20    2.70
  -1  -5  -5    2.60    4.70
   1  -5   5    3.90    3.30
   1  -5   5   -2.40    2.70
   1  -5   5    6.90    6.50
  -1   5   5   -0.30    4.40
  -1  -5  -5    0.70    3.30
  -1   5   5   -2.30    3.90
  -1  -5  -5   -0.20    4.60
   1   5  -5   -1.50    2.70
  -1   6  -5  205.78   14.10
  -1   6  -5  189.88   16.80
  -1  -6   5  159.58   13.50
  -1  -6   5  162.68   16.70
   1   6   5  201.18   15.20
   1   6   5  190.98   15.60
   1  -6  -5  222.98   16.60
   1  -6  -5  213.88   12.70
   1  -6  -5  202.68   12.90
   1  -6  -5  194.68   12.90
  -1   6  -5  205.08   14.90
   1  -6  -5  205.18   15.80
   1   6  -5  180.08   13.80
  -1   6   5  173.98   15.10
  -1  -6  -5  186.28   13.30
  -1  -6  -5  192.28   13.10
  -1   6   5  207.98   16.10
  -1  -6  -5  203.18   12.50
  -1  -6  -5  205.98   15.20
   1   6  -5  181.68   15.60
  -1  -6  -5  237.08   15.90
   1   6  -5  207.28   13.70
   1  -6   5  174.98   13.50
   1   6  -5  196.88   12.60
   1  -6   5  170.18   13.20
   1  -7  -5    7.70   11.70
   1   7   5    4.20    7.70
  -1   7  -5    0.10    5.30
   1  -7  -5    9.20    4.70
   1  -7  -5   10.70    7.60
   1  -7  -5    4.90    4.00
   1  -7  -5    0.50    4.80
  -1  -7   5   -4.30    5.00
   1   7   5    2.20    7.20
  -1   7  -5   -3.10    9.00
  -1   7  -5    2.30    8.40
  -1  -7   5   -0.90    8.10
   1   7  -5    1.90    8.60
  -1   7   5   -1.70    7.20
   1   7  -5    3.10    5.90
  -1   7   5    9.40   10.30
   1   7  -5    5.60    4.10
  -1  -7  -5    3.60    5.10
  -1  -7  -5   -5.80    4.30
  -1  -7  -5    6.40    4.50
   1  -7   5    2.50    3.80
   1   7  -5   -4.40    6.80
   1  -8  -5   58.99   11.20
   1  -8  -5   50.49    7.60
   1  -8  -5   38.30    8.10
  -1  -8   5   30.10    8.80
  -1   8  -5   36.30   13.70
   1   8   5   40.80   11.90
  -1   8  -5   54.09   12.50
   1  -8  -5   55.39   12.00
  -1   8  -5   43.40    9.00
   1   8   5   38.90   11.80
  -1  -8  -5   43.60    7.70
   1   8  -5    7.20   12.00
   1   8  -5   31.00   11.10
  -1  -8  -5   52.99    7.80
   1   8  -5   55.19    8.80
  -1   8   5   42.00   12.30
  -1  -8  -5   47.50    8.00
   1  -8   5   31.10    6.90
   1   9   5   -8.00   15.10
  -1   9  -5   13.50   10.30
   1  -9  -5    1.40    7.80
  -1  -9   5   -6.30    7.30
  -1   9  -5   -8.40   18.80
   1   9  -5   -6.00   16.80
  -1  -9  -5    9.50    7.80
   1   9  -5    9.40    9.60
   1   9  -5   33.80   17.00
  -1  -9  -5    6.80    8.30
  -1   9   5  -12.90   14.30
   1  -9   5   -1.00    7.10
  -2   0   5 2273.87  113.99
  -2   0  -5 2047.90  114.09
   2   0   5 2125.59  114.39
   2   0   5 2065.09  114.69
  -2   0   5 2160.98  114.89
  -2   0  -5 2401.66  114.19
  -2   0   5 2093.09  114.19
  -2   0  -5 2042.70  113.99
   2   0   5 2079.99  113.99
   2   0  -5 2177.88  114.29
  -2   0  -5 2139.29  115.19
   2   0  -5 2119.89  114.19
  -2  -1   5    5.20    1.50
  -2  -1   5    5.80    3.10
   2   1   5    5.90    2.80
  -2  -1   5    3.50    1.90
  -2   1  -5    1.80    1.70
  -2   1  -5    3.20    2.90
  -2   1  -5    4.10    2.10
   2   1   5    0.90    1.80
   2  -1  -5    3.40    2.00
  -2  -1   5    3.30    2.00
  -2   1  -5    1.50    1.60
   2   1   5    1.70    2.30
   2  -1  -5    2.50    2.30
   2  -1   5    3.50    2.30
   2  -1   5    3.20    2.50
   2   1  -5    3.50    1.80
   2   1  -5    1.20    1.80
  -2   1   5    5.10    2.10
  -2  -1  -5    0.40    1.70
  -2  -1  -5    1.50    2.00
   2  -1   5    9.30    2.10
  -2   1   5    4.50    2.30
  -2  -1  -5    4.80    2.80
   2  -2  -5 1595.64   83.49
   2  -2  -5 1669.33   81.99
  -2   2  -5 1542.95   83.89
  -2   2  -5 1620.14   82.59
  -2   2  -5 1491.55   82.99
  -2  -2   5 1429.46   83.99
  -2   2  -5 1678.73   82.99
  -2  -2   5 1619.74   82.69
   2   2   5 1455.85   83.59
   2   2   5 1524.35   82.79
   2  -2  -5 1505.65   82.99
   2   2   5 1539.25   82.89
   2  -2   5 1534.35   83.19
  -2   2   5 1471.35   82.89
   2   2  -5 1541.75   82.69
  -2  -2  -5 1603.14   83.89
   2   2  -5 1449.26   82.29
  -2  -2  -5 1617.84   83.09
   2  -2   5 1486.05   83.19
   2  -2   5 1559.04   83.09
  -2   3  -5    8.30    3.90
   2  -3  -5    5.80    1.60
   2  -3  -5    4.80    2.30
   2   3   5    2.40    2.90
  -2   3  -5    2.60    2.40
   2   3   5    7.20    3.60
  -2   3  -5    6.40    2.50
   2  -3  -5    5.80    2.90
  -2  -3   5    9.40    3.20
   2  -3  -5   11.60    4.00
  -2  -3   5    2.10    4.10
   2   3   5    4.90    2.60
  -2   3  -5    7.30    3.00
   2   3  -5    3.60    2.50
   2  -3   5    9.70    4.40
   2  -3   5    6.70    2.90
  -2  -3  -5    1.50    3.40
  -2  -3  -5    3.40    1.60
  -2  -3  -5    3.40    2.40
  -2   3   5    3.20    2.80
   2  -3   5    7.20    2.90
  -2   3   5    5.50    3.10
   2  -3   5    3.60    1.90
  -2  -3  -5    2.20    2.70
   2   3  -5    9.10    2.80
   2   4   5  695.73   36.40
  -2  -4   5  596.04   37.60
   2  -4  -5  684.53   36.40
   2  -4  -5  683.63   37.20
  -2   4  -5  697.53   36.10
  -2   4  -5  589.84   37.10
  -2   4  -5  668.63   35.80
   2  -4  -5  657.13   35.70
  -2  -4   5  563.14   35.90
  -2   4  -5  636.34   36.30
   2   4   5  637.14   36.00
   2  -4  -5  653.23   35.10
   2   4   5  621.64   36.60
  -2  -4  -5  675.23   35.90
  -2  -4  -5  656.53   35.00
   2   4  -5  608.34   35.70
  -2   4   5  680.93   36.80
   2  -4   5  652.03   35.60
   2  -4   5  691.73   36.00
   2   4  -5  673.43   35.90
  -2  -4  -5  653.33   36.20
  -2  -4  -5  635.64   35.40
   2  -4   5  555.34   36.40
   2  -5  -5    7.70    3.10
  -2  -5   5    6.10    7.30
   2  -5  -5   15.10    9.80
   2   5   5   12.00    4.50
   2   5   5    5.00    4.90
  -2   5  -5    9.70    4.10
   2  -5  -5   17.40    4.50
  -2   5  -5    4.80    6.00
   2   5   5    7.50    4.60
   2  -5  -5    9.20    3.50
  -2  -5   5   10.80    4.20
  -2   5  -5    8.30    4.70
  -2  -5  -5    9.70    3.70
  -2   5   5   11.40    4.40
   2  -5   5   12.40    3.30
  -2  -5  -5   11.10    4.70
   2   5  -5    6.40    3.20
  -2  -5  -5   11.40    3.60
  -2   5   5    8.30    5.20
   2  -5   5    8.70    3.90
  -2  -5  -5   13.60    2.80
  -2  -5  -5    1.40    4.80
   2   5  -5    9.90    3.40
   2  -6  -5  199.58   15.10
   2  -6  -5  195.58   12.50
   2  -6  -5  193.58   13.00
   2  -6  -5  212.08   16.80
  -2   6  -5  212.98   14.60
  -2   6  -5  179.38   17.20
  -2   6  -5  194.28   15.30
   2   6   5  213.28   15.20
  -2  -6   5  163.58   14.20
  -2  -6   5  151.68   16.90
   2   6   5  174.18   15.00
  -2   6  -5  189.88   13.90
   2  -6  -5  196.58   12.30
   2  -6   5  192.88   13.60
  -2   6   5  190.88   15.90
   2  -6   5  191.08   13.40
  -2  -6  -5  193.78   13.10
  -2  -6  -5  200.68   13.30
   2   6  -5  205.58   13.30
  -2  -6  -5  163.48   12.00
   2   6  -5  179.68   12.70
   2  -7  -5    6.70    9.40
   2  -7  -5    7.00    4.60
   2   7   5    4.70    7.80
  -2   7  -5    8.20   10.10
   2   7   5   12.10    8.00
  -2   7  -5    6.80    8.50
   2  -7  -5    9.80    7.70
  -2  -7   5    9.30    9.00
  -2   7  -5    4.50    6.30
   2  -7  -5    5.10    4.00
   2  -7  -5    1.30    5.00
  -2  -7   5    5.60    5.80
  -2   7  -5    4.50    5.40
   2  -7   5    5.70    4.20
   2  -7   5   -0.70    4.50
   2   7  -5    3.00    4.40
  -2  -7  -5    7.30    4.70
  -2   7   5   20.70    8.30
   2   7  -5    6.30    7.90
  -2  -7  -5    8.80    5.30
  -2  -7  -5   13.70    5.00
  -2   8  -5   17.50   10.10
  -2   8  -5   18.90   14.10
   2  -8  -5   52.99   11.60
   2   8   5   62.79   11.80
   2  -8  -5   41.80    7.50
   2  -8  -5   33.10    8.20
  -2   8  -5   48.70    9.00
   2  -8  -5   34.50   12.90
  -2  -8   5   35.70    8.80
  -2   8  -5   69.39   13.50
   2   8   5   29.30   11.80
  -2  -8   5   34.70   13.00
   2   8  -5   25.30   11.60
   2   8  -5    8.30   10.10
   2  -8   5   31.50    6.00
   2   8  -5   51.69    8.50
   2   8  -5   51.49    7.00
  -2  -8  -5   35.70    7.70
  -2   8   5   42.10   12.40
  -2  -8  -5   43.70    7.50
  -2  -8  -5   43.90    7.40
  -2   9  -5  -30.50   18.90
   2   9   5   -8.40   10.40
  -2  -9   5   -1.70    8.50
   2   9   5    8.50   15.40
   2  -9  -5   -6.70    7.10
  -2   9  -5   -0.80    9.20
   2   9  -5  -12.00   17.10
   2   9  -5   -0.20   10.10
  -2   9   5   14.60   16.40
   2  -9   5   -5.00    7.30
  -2  -9  -5   18.10    8.30
  -2  -9  -5   12.60    9.30
  -3   0  -5 3204.08  177.48
  -3   0  -5 3324.87  176.38
  -3   0  -5 3261.87  176.38
  -3   0   5 3541.85  177.18
   3   0  -5 3368.66  176.58
  -3   0  -5 3517.05  176.08
  -3   0   5 3428.36  176.08
   3   0   5 2970.80  176.28
   3   0   5 3410.36  176.78
   3   0  -5 3229.38  176.28
   3   0   5 3280.97  176.98
  -3  -1   5 1651.83   90.19
   3   1   5 1643.04   89.69
   3   1   5 1621.84   89.09
   3   1   5 1720.33   89.29
  -3  -1   5 1680.23   88.59
  -3   1  -5 1786.62   88.89
  -3   1  -5 1544.65   90.09
  -3   1  -5 1652.53   88.89
  -3   1  -5 1591.14   89.09
   3  -1  -5 1657.93   89.49
  -3  -1   5 1730.63   88.49
  -3  -1  -5 1664.73   88.99
   3   1  -5 1677.43   88.79
   3   1  -5 1634.64   88.79
   3  -1   5 1668.43   89.59
  -3  -1  -5 1849.42   88.69
  -3  -1  -5 1717.23   90.09
   3  -1   5 1636.64   89.49
  -3   1   5 1574.64   89.19
  -3   1   5 1649.44   88.99
  -3  -1  -5 1605.24   89.09
  -3   2  -5 2584.74  136.09
  -3  -2   5 2354.06  137.49
  -3   2  -5 2667.03  136.19
  -3  -2   5 2716.23  136.19
   3   2   5 2586.74  136.49
   3   2   5 2664.03  136.29
  -3   2  -5 2492.15  136.49
   3   2   5 2501.65  136.89
   3  -2  -5 2534.95  136.89
   3  -2  -5 2646.14  136.49
  -3   2  -5 2397.06  137.29
   3  -2   5 2492.95  136.69
  -3  -2  -5 2558.14  137.09
   3   2  -5 2481.85  135.69
   3   2  -5 2447.85  135.69
  -3  -2  -5 2656.93  136.39
   3  -2   5 2724.43  136.79
   3  -2   5 2566.14  136.19
  -3   2   5 2615.84  136.79
   3  -2   5 2495.45  136.09
  -3  -2  -5 2565.74  135.89
  -3   2   5 2519.25  136.49
   3  -3  -5  950.80   53.69
  -3   3  -5  990.00   53.29
   3   3   5  962.60   52.69
   3   3   5 1029.50   53.09
  -3   3  -5 1011.60   52.69
  -3   3  -5  880.61   53.99
  -3  -3   5 1007.80   52.99
   3  -3  -5  976.90   52.99
   3   3   5  895.21   53.49
  -3   3  -5 1016.10   52.79
   3  -3  -5 1024.10   53.19
  -3  -3   5  906.31   54.49
  -3  -3  -5  938.21   52.39
   3  -3   5  997.50   53.19
   3  -3   5  977.90   53.19
  -3  -3  -5  938.11   52.79
   3  -3   5  935.51   52.59
  -3  -3  -5 1045.70   52.99
  -3   3   5  939.21   53.39
  -3   3   5  937.41   53.29
  -3  -3  -5 1033.40   53.69
   3  -4  -5 1218.38   62.99
  -3   4  -5 1221.48   63.89
  -3   4  -5 1137.59   64.29
  -3  -4   5 1076.69   63.99
   3  -4  -5 1177.28   63.69
   3   4   5 1290.47   64.39
   3   4   5 1170.18   63.69
  -3  -4   5 1055.49   65.39
  -3   4  -5 1110.79   65.29
   3  -4  -5 1169.38   64.09
   3  -4  -5 1078.39   65.59
   3   4   5 1033.80   64.39
  -3   4  -5 1278.97   63.89
  -3  -4  -5 1336.07   64.49
  -3  -4  -5 1173.78   63.49
  -3  -4  -5 1182.88   63.79
   3  -4   5 1117.09   63.69
   3  -4   5 1220.08   64.09
  -3   4   5 1175.58   64.59
   3   4  -5 1190.28   63.59
   3   4  -5 1200.98   63.79
  -3  -4  -5 1156.78   63.79
   3  -4   5 1259.77   63.89
   3  -5  -5  430.56   24.50
  -3  -5   5  380.16   25.20
  -3   5  -5  426.86   25.10
  -3   5  -5  430.76   25.00
   3   5   5  471.85   25.80
  -3   5  -5  419.16   27.40
   3  -5  -5  442.96   23.90
   3   5   5  414.26   25.00
   3   5   5  381.96   25.70
   3  -5  -5  449.46   27.00
   3  -5  -5  448.36   25.40
  -3   5  -5  417.46   25.80
  -3   5   5  398.96   26.00
   3   5  -5  432.76   24.50
  -3  -5  -5  428.96   24.80
   3  -5   5  448.86   24.60
   3  -5   5  447.96   25.20
  -3  -5  -5  423.86   24.60
   3  -5   5  385.76   24.60
   3   5  -5  431.86   24.60
   3  -6  -5  403.76   25.50
   3   6   5  418.26   24.00
  -3   6  -5  334.87   26.00
   3  -6  -5  395.26   23.20
  -3   6  -5  352.86   23.80
  -3   6  -5  425.76   23.10
  -3   6  -5  378.76   23.00
   3   6   5  373.56   23.00
   3  -6  -5  363.46   21.90
   3  -6  -5  376.66   21.30
   3   6   5  315.37   23.50
   3  -6   5  413.76   22.80
  -3  -6  -5  367.76   22.10
   3  -6   5  398.76   22.00
   3   6  -5  359.26   21.90
  -3   6   5  330.57   24.10
  -3  -6  -5  308.07   20.70
  -3  -6  -5  361.96   22.00
   3  -6   5  324.17   22.00
  -3   6   5  347.67   23.70
  -3   7  -5  139.59   13.60
  -3  -7   5  116.09   13.00
   3  -7  -5  156.18   18.70
  -3   7  -5  171.78   20.30
   3   7   5  152.08   15.10
   3   7   5  168.28   15.10
   3  -7  -5  149.59   15.10
   3  -7  -5  154.98   11.00
   3  -7  -5  139.49   12.30
  -3  -7   5   97.99   15.90
  -3   7  -5  148.09   16.80
  -3   7  -5  150.78   14.50
   3   7   5  113.99   15.10
   3  -7   5  141.19   12.30
  -3  -7  -5  161.28   12.50
  -3  -7  -5  150.28   12.70
  -3  -7  -5  118.79   10.80
  -3   7   5  109.19   15.40
  -3   7   5  128.29   16.40
   3  -7   5  129.89   11.50
   3   7  -5  140.99   13.80
   3   7  -5  149.69   11.90
  -3   8  -5   90.59   14.00
  -3  -8   5   54.19   10.70
   3   8   5   58.59   14.00
   3   8   5  105.39   17.10
   3   8   5  104.19   15.70
  -3  -8   5   78.39   15.50
   3  -8  -5   76.39   15.50
   3  -8  -5  100.59   10.10
  -3   8  -5   85.99   15.00
   3  -8  -5   74.09   10.50
   3  -8  -5   93.79   14.00
  -3   8  -5   59.79   15.90
  -3   8   5   90.09   14.10
  -3  -8  -5   86.89   12.10
   3  -8   5   75.19   11.00
   3   8  -5   70.79   10.00
  -3  -8  -5   94.59   11.50
   3   8  -5   94.99   11.90
  -3  -8  -5   93.79   13.00
   3   9   5   47.80   11.90
  -3   9  -5    2.50   21.70
   3   9   5   52.59   15.70
   3  -9  -5   34.50    8.80
  -3   9  -5   30.80   11.40
  -3  -9   5   16.80   10.40
  -3  -9  -5   48.70   11.00
  -3  -9  -5   35.30    9.90
   3   9  -5   56.09   10.90
   3  -9   5   23.10    7.30
  -3   9   5   26.00   16.50
  -4   0   5  390.36   22.30
   4   0   5  376.86   23.00
   4   0   5  400.76   23.20
  -4   0   5  410.46   22.10
  -4   0  -5  419.66   21.90
   4   0  -5  412.26   22.40
  -4   0  -5  393.06   22.40
  -4   0  -5  388.76   23.80
  -4   0  -5  393.66   22.50
   4   0  -5  404.06   22.70
  -4   0   5  421.76   23.50
   4   0   5  380.16   22.50
   4   1   5 1411.26   72.09
  -4  -1   5 1384.46   71.39
  -4   1  -5 1331.97   71.59
   4  -1  -5 1406.36   71.79
   4  -1  -5 1351.96   72.19
   4   1   5 1256.67   72.19
  -4   1  -5 1298.97   71.79
   4   1   5 1314.57   71.79
  -4   1  -5 1350.16   71.29
  -4  -1   5 1358.26   73.09
  -4   1   5 1320.27   71.79
  -4   1   5 1369.56   71.59
   4  -1   5 1275.97   72.19
   4   1  -5 1367.76   71.39
  -4  -1  -5 1317.77   70.79
   4  -1   5 1325.17   71.29
  -4  -1  -5 1262.37   71.69
   4  -1   5 1334.17   72.29
   4   1  -5 1401.36   71.59
  -4  -1  -5 1343.77   72.69
  -4  -1  -5 1273.87   71.69
  -4  -1  -5 1300.37   71.59
  -4   1   5 1308.07   71.09
   4  -2  -5  326.97   19.10
   4  -2  -5  307.07   18.60
  -4   2  -5  287.17   18.50
  -4   2  -5  292.97   19.70
  -4   2  -5  322.37   18.00
   4   2   5  307.57   18.80
  -4  -2   5  328.57   18.20
   4  -2  -5  308.47   18.30
  -4  -2   5  279.07   19.50
  -4   2  -5  334.57   18.10
   4   2   5  335.27   18.50
   4   2   5  325.27   18.60
  -4  -2  -5  315.67   17.90
  -4   2   5  306.27   18.40
  -4  -2  -5  307.97   18.10
   4  -2   5  318.57   19.00
   4  -2   5  307.87   18.20
   4  -2   5  314.77   18.70
  -4  -2  -5  326.97   19.20
   4   2  -5  318.97   17.40
   4  -2   5  314.27   17.80
  -4   2   5  297.07   18.40
  -4  -2  -5  307.27   18.30
  -4  -2  -5  287.77   18.10
   4   3   5  846.72   43.80
  -4  -3   5  807.82   43.40
   4  -3  -5  795.82   43.50
  -4   3  -5  758.92   43.70
  -4   3  -5  814.72   43.10
   4  -3  -5  839.72   44.50
   4   3   5  719.33   43.70
  -4   3  -5  736.83   44.70
   4  -3  -5  779.32   43.40
   4   3   5  779.72   43.10
  -4  -3   5  683.13   44.70
  -4   3  -5  792.62   43.10
  -4  -3  -5  834.12   43.80
   4  -3   5  797.32   43.80
   4  -3   5  810.52   43.80
  -4   3   5  779.62   43.80
  -4  -3  -5  777.72   43.20
  -4   3   5  800.12   43.70
   4  -3   5  756.82   42.90
  -4  -3  -5  751.72   42.90
  -4  -3  -5  832.02   43.10
  -4  -4   5  152.58   13.70
  -4   4  -5  168.08   12.40
   4  -4  -5  169.88   13.40
   4   4   5  161.58   11.50
   4   4   5  183.08   12.30
   4   4   5  151.98   12.40
  -4   4  -5  144.29   12.20
   4  -4  -5  179.98   11.90
  -4   4  -5  162.38   11.50
  -4   4  -5  150.88   14.10
  -4  -4   5  160.18   12.00
   4  -4  -5  177.98   11.30
   4  -4   5  155.38   10.80
   4   4  -5  170.48   11.20
  -4   4   5  161.28   12.60
   4  -4   5  174.78   12.20
  -4  -4  -5  164.98   11.40
  -4  -4  -5  158.58   11.10
   4  -4   5  168.68   12.10
  -4  -4  -5  163.18   11.40
  -4   4   5  152.78   12.50
   4   4  -5  162.98   11.20
   4   4  -5  165.38   11.10
  -4  -4  -5  180.68   12.20
   4  -5  -5  295.17   17.50
  -4  -5   5  245.88   20.20
   4   5   5  276.37   17.90
   4   5   5  251.57   18.60
   4  -5  -5  300.47   16.60
  -4   5  -5  263.87   21.00
   4  -5  -5  297.67   20.30
   4  -5  -5  314.57   18.50
   4   5   5  329.07   19.40
  -4   5  -5  256.47   18.90
  -4   5  -5  286.87   18.20
  -4   5  -5  296.77   17.90
  -4  -5   5  231.08   18.10
  -4  -5  -5  272.87   17.70
  -4  -5  -5  284.67   17.50
   4   5  -5  293.87   17.50
  -4   5   5  291.57   19.50
   4  -5   5  308.57   18.00
   4   5  -5  288.27   17.30
   4  -5   5  266.27   17.40
  -4   5   5  256.17   18.80
   4  -5   5  298.67   18.60
  -4  -6   5   55.09   10.70
  -4  -6   5   49.20    8.30
  -4   6  -5   51.29   10.90
   4  -6  -5   60.59    6.80
  -4   6  -5   48.40    8.70
  -4   6  -5   61.09    9.10
   4   6   5   76.69   10.20
   4   6   5   43.50    8.50
   4  -6  -5   57.79    8.00
   4  -6  -5   73.79   10.40
  -4   6  -5   49.90    8.20
   4  -6  -5   72.59    9.50
   4   6   5   59.39    9.70
  -4   6   5   51.19    8.20
   4  -6   5   62.89    9.20
   4   6  -5   66.49    8.30
   4  -6   5   49.60    6.60
   4  -6   5   64.79    8.20
  -4  -6  -5   61.99    8.50
  -4  -6  -5   61.49    8.60
   4   6  -5   53.49    7.60
   4  -7  -5   63.79   10.10
   4   7   5   98.69   13.50
   4  -7  -5   81.39    8.00
   4   7   5   78.79   12.50
   4  -7  -5   73.19   13.30
  -4   7  -5   92.09   12.80
  -4  -7   5   53.39   11.70
  -4  -7   5   55.79    9.30
  -4   7  -5   73.49    9.70
   4   7   5   52.79   10.00
  -4   7  -5   71.39   12.10
  -4   7  -5   67.89   13.10
   4   7  -5   82.19   10.80
  -4   7   5   64.39   10.60
   4  -7   5   75.09   12.40
  -4  -7  -5   72.79   11.00
  -4   7   5   58.19   11.30
  -4  -7  -5   83.09   10.10
   4   7  -5   70.09   10.00
   4  -7   5   62.19    8.80
  -4  -8   5   18.30   12.30
   4   8   5   19.20   10.90
   4  -8  -5    3.50   10.90
  -4   8  -5    6.90   15.00
   4  -8  -5   16.90   15.50
   4   8   5   39.00   12.30
  -4  -8   5    1.60    8.10
   4  -8  -5   18.60    5.80
  -4   8  -5   23.70    9.10
   4   8   5   29.90    9.50
   4   8  -5   24.00    8.10
  -4  -8  -5   16.00    8.30
   4  -8   5   11.30    6.80
  -4   8   5   -6.40   11.40
   4   8  -5   29.10    8.20
  -4  -9   5   28.80   13.60
  -4  -9   5   14.60    9.70
   4  -9  -5    2.70   15.40
   4   9   5   24.70   12.50
  -4   9  -5   50.49   12.30
  -4   9  -5  -21.40   21.70
   4  -9  -5   11.60    7.70
   4   9   5   31.10   14.30
  -4  -9  -5    9.20    9.30
  -4  -9  -5   21.20   11.50
   4   9  -5   33.40   14.60
   4  -9   5    9.30    8.10
  -4   9   5  -11.80   16.10
   4   9  -5   15.00   11.10
  -5   0  -5  100.99    6.70
  -5   0  -5   97.39    7.50
  -5   0  -5  106.39    9.40
  -5   0  -5  105.79    7.80
   5   0  -5  101.89    8.00
   5   0   5  110.19    8.30
  -5   0   5  108.09    7.50
   5   0  -5  107.29    7.50
  -5   0   5  110.89    7.30
   5   0   5  100.89    8.70
  -5   0  -5  101.89    7.70
   5   0   5  108.19    8.00
  -5   1  -5 1941.31  109.89
  -5  -1   5 2263.07  109.69
   5  -1  -5 2046.10  109.99
   5   1   5 1980.40  110.39
  -5   1  -5 2118.69  109.89
  -5  -1   5 2096.79  111.39
  -5   1  -5 2017.50  109.59
   5   1   5 2080.39  110.29
   5   1   5 1993.70  110.09
  -5   1  -5 1992.40  111.19
  -5   1  -5 2062.39  109.39
   5  -1  -5 2048.20  110.49
   5  -1   5 2154.88  110.69
   5   1  -5 2060.49  109.79
   5  -1   5 1999.80  109.39
  -5   1   5 2010.20  109.19
   5  -1   5 2087.79  110.59
  -5  -1  -5 1952.30  109.59
  -5   1   5 2102.09  109.79
  -5  -1  -5 2100.49  110.89
  -5   1   5 2024.30  109.99
   5  -1   5 2015.10  109.89
  -5  -1  -5 2060.09  109.99
   5   1  -5 2166.48  109.49
  -5  -1  -5 1983.50  109.99
  -5   2  -5  104.39    7.50
  -5  -2   5  112.09    8.40
   5  -2  -5  111.79    9.30
  -5   2  -5  108.79    7.80
   5   2   5  112.99    8.90
  -5   2  -5  102.69    8.70
  -5   2  -5  108.99    8.00
   5  -2  -5  104.69    8.50
   5   2   5  107.69    8.70
   5  -2  -5   93.49    8.10
  -5  -2   5  101.19   10.30
   5   2   5  114.19    9.00
  -5   2  -5  103.19   10.40
  -5  -2  -5   93.19    8.10
  -5  -2  -5  102.29    8.10
   5  -2   5  108.69    7.30
   5  -2   5  118.19    9.40
   5   2  -5  104.89    7.50
  -5   2   5  103.49    8.60
  -5   2   5  114.19    7.70
   5  -2   5  104.19    8.60
   5   2  -5  115.79    7.10
  -5  -2  -5  100.39    8.10
  -5  -2  -5  109.29    9.40
  -5   2   5   98.29    8.50
   5  -2   5  120.99    9.10
   5  -3  -5 1169.58   63.49
  -5   3  -5 1186.28   63.19
  -5   3  -5 1057.09   64.89
  -5  -3   5 1222.88   63.69
   5   3   5 1087.59   63.69
   5  -3  -5 1227.58   64.79
   5   3   5 1221.08   63.39
  -5   3  -5 1146.19   63.99
  -5   3  -5 1219.68   62.59
  -5  -3   5 1068.59   65.09
   5   3   5 1250.27   63.99
  -5   3   5 1048.40   64.69
  -5  -3  -5 1253.97   63.79
  -5  -3  -5 1189.98   63.49
  -5   3   5 1167.48   63.89
   5  -3   5 1101.79   63.29
  -5  -3  -5 1099.69   63.09
   5  -3   5 1220.88   64.09
  -5  -3  -5 1261.27   63.19
   5  -3   5 1233.88   64.19
   5   3  -5 1027.90   65.49
  -5  -4   5   80.09   11.30
   5  -4  -5  104.19   11.40
   5  -4  -5   97.39    8.20
  -5   4  -5   90.49    8.70
  -5  -4   5  105.79    9.70
   5   4   5  114.49   10.30
   5  -4  -5  102.09    9.10
  -5   4  -5  102.09   10.10
  -5   4  -5   71.59   11.90
   5   4   5   87.39    9.70
   5   4   5   97.89    9.10
  -5   4  -5   97.19    8.80
   5   4  -5   88.89    8.00
   5   4  -5   97.49    8.30
   5  -4   5   88.99   10.60
   5  -4   5  102.89    9.80
   5  -4   5   93.69    7.60
  -5   4   5   87.19    9.60
   5   4  -5  111.69    8.50
  -5  -4  -5   91.69    8.60
  -5  -4  -5   94.59    8.50
  -5   4   5   90.59   10.00
  -5   5  -5  432.96   27.40
  -5  -5   5  379.36   26.60
   5   5   5  508.85   27.70
  -5  -5   5  381.56   28.40
   5   5   5  407.26   27.10
  -5   5  -5  417.96   29.50
   5  -5  -5  444.26   28.70
   5   5   5  442.46   26.30
   5  -5  -5  442.76   25.90
  -5   5  -5  445.96   26.70
  -5   5  -5  487.65   26.70
   5  -5  -5  485.25   27.00
  -5   5   5  451.75   27.80
   5  -5   5  481.05   26.60
   5  -5   5  407.06   25.60
   5   5  -5  435.06   25.70
  -5   5   5  406.96   27.40
   5   5  -5  473.25   26.10
   5   5  -5  447.06   26.60
  -5  -5  -5  457.05   26.10
  -5  -5  -5  479.15   26.40
   5  -5   5  460.25   27.20
   5   6   5   60.89    9.00
   5  -6  -5   54.09    7.00
   5  -6  -5   76.09   12.00
   5   6   5   68.99   11.40
  -5   6  -5   73.39   13.60
  -5   6  -5   54.79    7.60
  -5  -6   5   41.30    9.80
  -5   6  -5   36.20    9.80
  -5   6  -5   67.99   10.40
  -5  -6   5   46.90    8.40
   5  -6  -5   58.79    8.10
   5  -6  -5   41.70   10.70
   5   6   5   57.59    7.90
   5  -6   5   70.39    8.90
  -5  -6  -5   61.79    9.00
  -5   6   5   67.49    9.70
   5   6  -5   76.49   11.50
  -5   6   5   58.39    8.90
   5  -6   5   60.79    8.40
   5   6  -5   52.79    8.10
   5   6  -5   79.69    9.20
  -5  -6  -5   68.19    9.30
  -5   7  -5  117.09   18.90
   5  -7  -5  105.99   16.00
   5   7   5  128.79   14.60
   5   7   5  102.19   16.10
  -5   7  -5  129.09   14.00
   5  -7  -5  123.89   14.50
  -5   7  -5  112.79   13.80
  -5  -7   5   98.09   15.00
   5   7   5  153.48   16.70
  -5   7  -5   81.69   15.80
   5  -7  -5  129.79   12.80
   5  -7  -5  128.19   10.70
   5  -7   5  152.18   16.20
   5  -7   5  143.69   14.20
   5   7  -5  137.09   12.80
  -5  -7  -5  143.09   13.90
  -5   7   5  113.69   17.00
   5   7  -5  156.68   16.70
   5   7  -5  131.79   12.90
  -5  -7  -5  144.09   12.90
  -5   8  -5   36.80   10.00
  -5  -8   5   17.90    8.90
   5   8   5   28.40   10.90
  -5  -8   5   18.90   13.60
  -5   8  -5   37.20   17.10
   5   8   5   15.30   11.10
   5  -8  -5   38.10   11.50
   5  -8  -5   31.60   17.40
   5   8   5    5.40   12.70
   5  -8  -5   16.20    5.90
  -5   8   5    8.40   12.20
   5   8  -5   37.50    9.70
  -5  -8  -5   32.00    9.90
   5   8  -5   15.40    8.20
   5   8  -5   45.10   12.00
  -5  -8  -5   32.20    8.50
   5  -8   5   26.60    7.80
   5  -9  -5   30.30   16.30
  -5   9  -5   -4.30   23.40
   5   9   5   25.00   15.60
  -5  -9  -5   36.60   10.20
   5   9  -5   31.20   11.60
   5   9  -5   45.10   16.50
  -5   9   5   16.20   17.90
  -5  -9  -5   41.00   12.50
   6   0   5    3.90    4.40
  -6   0   5    6.80    2.90
  -6   0  -5    5.40    2.20
  -6   0  -5    6.20    2.90
  -6   0  -5    7.60    3.10
   6   0   5    3.30    3.10
   6   0  -5   -0.70    2.80
  -6   0  -5    3.70    2.70
   6   0   5    5.70    1.70
   6   0  -5    5.80    3.00
  -6   0  -5    3.90    4.20
   6   0   5   11.00    3.40
  -6   0   5    4.20    2.80
   6   1   5  652.53   36.30
  -6   1  -5  622.84   37.60
   6  -1  -5  645.14   36.10
  -6   1  -5  665.03   36.00
  -6   1  -5  629.54   35.70
  -6  -1   5  680.73   35.80
  -6   1  -5  623.04   36.10
   6   1   5  753.72   37.00
  -6  -1   5  639.64   37.70
  -6   1  -5  622.84   35.40
   6  -1  -5  652.33   36.80
   6   1   5  630.44   36.50
   6  -1   5  629.14   36.90
  -6  -1  -5  660.83   35.70
  -6  -1  -5  681.43   37.30
  -6  -1  -5  629.44   36.20
  -6  -1  -5  619.34   36.00
  -6   1   5  645.54   36.10
   6   1  -5  616.44   35.90
  -6   1   5  665.03   35.80
   6  -1   5  626.84   36.90
  -6   1   5  631.64   35.20
   6   1  -5  666.03   35.60
   6  -1   5  648.94   35.20
   6  -2  -5    1.90    3.20
  -6  -2   5    7.40    4.00
   6  -2  -5    4.70    2.90
  -6   2  -5   -0.30    3.40
   6  -2  -5    4.00    4.40
   6   2   5    1.50    3.70
   6   2   5   -1.20    4.30
  -6   2  -5    4.80    4.80
  -6   2  -5    0.80    2.60
  -6   2  -5    2.60    4.10
  -6  -2   5    4.00    4.70
   6   2   5    0.60    3.40
  -6   2  -5    1.40    3.10
  -6   2   5    1.00    3.70
  -6  -2  -5    3.40    3.00
  -6  -2  -5    9.10    4.70
  -6  -2  -5    5.60    3.30
   6  -2   5    3.40    3.20
   6   2  -5    7.20    2.70
   6  -2   5   -3.00    3.90
  -6   2   5   -1.70    2.80
   6  -2   5   -0.10    3.30
   6  -2   5    4.60    2.20
   6   2  -5   -1.60    2.50
   6   2  -5    3.20    2.60
  -6   2   5   -1.60    3.60
  -6  -2  -5   -7.10    3.10
  -6   3  -5  361.16   25.50
   6  -3  -5  381.86   23.30
  -6   3  -5  428.26   23.30
   6   3   5  419.26   24.20
   6  -3  -5  418.06   23.60
  -6   3  -5  384.36   23.10
  -6  -3   5  355.26   25.20
   6   3   5  358.66   23.60
  -6  -3   5  398.46   23.70
   6   3   5  416.96   23.70
  -6   3  -5  399.46   24.20
   6  -3  -5  384.06   25.00
  -6   3  -5  397.96   22.30
  -6   3   5  396.76   23.20
  -6  -3  -5  413.46   22.90
   6  -3   5  383.76   22.60
   6  -3   5  409.46   24.50
  -6  -3  -5  380.26   23.00
   6   3  -5  428.86   23.20
  -6  -3  -5  428.66   23.70
  -6   3   5  402.56   24.10
  -6  -3  -5  365.36   23.20
  -6   3   5  389.16   24.20
   6  -3   5  394.66   24.20
   6  -4  -5    1.40    4.90
   6   4   5    9.00    5.10
  -6   4  -5    4.40    5.20
  -6  -4   5    2.00    7.50
   6  -4  -5    7.10    6.60
  -6   4  -5   -7.90    6.40
   6   4   5    6.50    4.80
  -6   4  -5   -0.70    3.90
   6   4   5    6.20    4.90
   6  -4  -5    6.90    3.40
  -6  -4   5    3.50    5.00
  -6   4  -5    1.70    4.30
  -6   4   5   10.30    5.50
  -6  -4  -5    6.80    3.90
  -6   4   5   -2.80    4.90
   6  -4   5    5.30    5.10
   6   4  -5    0.50    3.40
   6   4  -5    0.20    3.40
  -6  -4  -5    1.70    4.20
   6  -4   5    5.70    3.10
   6  -4   5    2.70    5.20
   6  -5  -5  167.58   11.90
   6  -5  -5  198.18   16.40
  -6   5  -5  150.48   12.70
   6  -5  -5  167.08   13.50
  -6  -5   5  135.19   14.90
   6   5   5  187.58   16.40
  -6  -5   5  146.79   13.80
  -6   5  -5  143.09   13.20
  -6   5  -5  132.89   17.40
  -6   5  -5  152.18   14.80
   6   5   5  137.69   14.30
   6   5   5  174.58   13.20
   6   5  -5  160.48   12.40
   6   5  -5  172.08   11.80
   6  -5   5  171.98   13.70
  -6   5   5  164.68   16.50
   6   5  -5  180.68   13.20
   6  -5   5  157.68   14.30
  -6   5   5  178.18   14.70
   6  -5   5  145.29   11.60
  -6  -5  -5  161.78   12.70
  -6  -5  -5  159.38   12.60
  -6   6  -5    6.50    9.00
   6  -6  -5   16.50    7.50
   6  -6  -5   -8.50   10.50
   6   6   5   12.60    6.90
   6   6   5  -12.90    7.00
  -6   6  -5   10.20    6.10
   6   6   5   20.80    7.30
  -6  -6   5    0.80    6.80
   6  -6  -5   18.30    5.20
  -6   6  -5    6.10    6.60
  -6   6  -5   28.10   10.10
  -6  -6   5    9.80    9.80
  -6   6   5   19.10    8.10
   6   6  -5   14.10    4.90
   6   6  -5   17.10    7.00
   6   6  -5    9.60    5.70
   6  -6   5    0.20    4.20
  -6  -6  -5    6.90    7.30
   6  -6   5   17.80    8.10
  -6  -6  -5    5.00    5.60
  -6   6   5   11.60    8.60
   6  -7  -5   60.19   10.40
  -6  -7   5   17.60   14.10
   6   7   5   54.29   10.40
  -6  -7   5   50.39   15.10
   6  -7  -5   56.29   15.20
  -6   7  -5   51.69    9.40
   6   7   5   43.10   10.00
   6  -7  -5   50.99    7.10
  -6   7  -5   41.70   14.20
  -6  -7  -5   45.50    9.00
   6   7  -5   61.69    9.60
   6   7  -5   41.20   10.10
   6  -7   5   47.40   10.80
   6  -7   5   50.59    9.60
  -6   7   5   59.39   11.60
   6   7  -5   43.40    8.50
  -6  -7  -5   51.19    8.70
  -6  -8   5    1.10    8.90
  -6  -8   5    1.90   12.90
  -6   8  -5    3.70   19.40
  -6   8  -5    2.50    9.40
   6   8   5   18.50   11.10
   6   8   5    8.90   11.90
   6  -8  -5    0.50    6.90
   6  -8  -5    7.90   11.50
   6   8   5   28.00   14.10
  -6   8   5   -8.40   12.90
  -6  -8  -5   19.60   10.30
  -6  -8  -5    6.20    8.50
   6   8  -5   -6.00    8.10
   6   8  -5    1.50   11.80
   6   8  -5   25.60   10.60
   6  -8   5    1.80   13.10
   7   0   5   32.00    5.80
  -7   0   5   34.00    4.00
   7   0   5   23.10    5.10
   7   0  -5   34.20    4.70
  -7   0   5   28.00    4.10
  -7   0  -5   26.30    6.40
  -7   0  -5   30.80    3.70
   7   0  -5   29.60    5.10
  -7   0  -5   26.50    4.40
  -7   0  -5   26.30    4.30
   7   0   5   35.50    3.50
  -7   0  -5   29.50    4.40
   7   0   5   25.00    4.90
  -7   1  -5    1.00    2.90
   7  -1  -5    1.50    3.10
   7  -1  -5   -2.70    2.90
  -7   1  -5    5.00    2.90
   7   1   5    9.40    3.90
  -7   1  -5    6.90    3.70
  -7  -1   5    6.80    5.10
   7   1   5    1.90    4.70
  -7   1  -5    5.30    3.00
   7   1   5    1.10    3.60
  -7   1  -5    0.00    5.30
   7  -1   5    3.10    4.90
   7  -1   5    2.70    3.60
  -7   1   5    5.10    2.50
   7   1  -5    0.10    2.60
  -7  -1  -5    2.00    3.20
   7  -1   5    4.00    4.20
   7   1  -5    2.20    3.50
  -7   1   5    2.60    3.30
  -7   1   5    0.80    3.60
  -7  -1  -5    2.30    2.90
  -7  -1  -5    6.30    3.40
  -7  -1  -5    4.40    5.00
   7  -1   5    4.10    2.00
  -7   2  -5   20.00    3.60
   7   2   5   17.70    4.80
   7  -2  -5   20.70    4.40
  -7   2  -5   26.10    4.40
  -7  -2   5   34.50    5.80
   7   2   5   17.20    4.70
   7   2   5   14.40    5.30
   7  -2  -5   24.10    5.50
  -7  -2   5   29.80    7.20
  -7   2  -5   20.90    5.00
  -7   2  -5   19.80    4.40
  -7   2  -5   27.10    7.40
   7  -2  -5   27.30    4.80
   7   2  -5   15.50    3.90
   7  -2   5   19.00    4.80
  -7  -2  -5   15.20    4.20
   7  -2   5   17.10    4.20
   7  -2   5   20.90    3.30
   7   2  -5   20.40    4.10
  -7  -2  -5   15.90    3.90
  -7  -2  -5   21.10    5.60
  -7   2   5   25.10    5.10
  -7   2   5   20.90    4.00
  -7  -2  -5   21.30    4.70
  -7   2   5   22.00    5.30
   7  -2   5   13.00    5.50
  -7   3  -5   -6.90    6.70
  -7   3  -5    2.40    4.50
   7   3   5   -1.10    5.10
  -7  -3   5   -1.10    5.20
  -7   3  -5    1.20    3.00
   7  -3  -5   -0.90    3.30
  -7   3  -5    1.40    5.50
  -7  -3   5   -2.20    5.10
   7   3   5    0.50    4.40
  -7   3  -5   -1.00    3.60
   7  -3  -5    0.80    3.90
   7   3   5    6.40    4.60
   7  -3  -5    3.40    5.70
  -7  -3  -5    3.20    3.90
  -7   3   5    1.80    5.10
  -7   3   5   -1.40    4.40
  -7  -3  -5    0.00    3.40
  -7   3   5    2.10    4.10
   7  -3   5    2.20    5.50
   7  -3   5   -4.30    4.90
   7  -3   5    1.80    2.70
   7   3  -5   -1.20    4.80
   7   4   5    6.70    5.10
  -7   4  -5    0.40    4.30
  -7   4  -5   -2.00    7.20
   7  -4  -5    4.70    4.90
   7   4   5   -1.10    5.30
  -7  -4   5    4.20    6.40
  -7   4  -5    0.00    5.10
  -7   4  -5    7.50    5.80
   7   4   5   10.70    5.50
   7  -4  -5    2.30    3.50
   7  -4  -5   -3.20    6.30
  -7  -4   5    1.70    5.60
  -7  -4  -5    2.30    4.90
  -7  -4  -5    1.80    5.30
  -7   4   5    1.30    5.20
   7   4  -5    2.90    3.60
  -7  -4  -5    3.80    3.80
   7  -4   5    9.50    5.80
  -7   4   5    4.90    6.00
  -7   4   5   -1.30    4.50
   7  -4   5   10.60    5.70
   7  -4   5    3.20    3.10
   7  -5  -5    5.80    5.80
   7   5   5   12.40    6.20
  -7   5  -5   -0.30    6.20
  -7   5  -5   -2.60    7.30
   7  -5  -5   -1.00    4.00
  -7   5  -5   -6.90    4.70
  -7  -5   5    5.10    7.30
  -7  -5   5    1.30    6.20
   7   5   5   11.60    6.80
   7  -5  -5   16.80    8.70
  -7   5  -5    0.70    9.10
   7   5   5   -4.10    6.10
  -7  -5  -5    4.40    5.30
   7   5  -5   -2.10    5.20
  -7   5   5    0.30    7.40
   7  -5   5    5.90    6.30
   7   5  -5    1.70    4.10
  -7   5   5   -8.70    5.50
  -7   5   5    2.90    6.80
   7  -5   5    1.70    4.00
  -7   6  -5   13.90    7.30
   7  -6  -5    5.00   11.30
   7   6   5    0.50    7.40
  -7   6  -5   -2.70    6.20
   7   6   5   -0.40    8.10
  -7   6  -5  -15.00   10.30
   7  -6  -5    7.90    5.00
  -7  -6   5   -2.20    8.20
   7   6   5   -4.50    7.90
  -7  -6   5   -4.20    7.10
   7  -6  -5   -6.50    7.40
   7  -6   5   -0.20    7.40
   7  -6   5    6.90    9.30
   7   6  -5   -2.30    6.00
   7   6  -5   -2.70    4.50
  -7  -6  -5    4.10    5.70
  -7   6   5   -0.50    8.60
  -7  -6  -5   -6.40    6.20
  -7   6   5    0.30    7.10
   7   6  -5   -8.90    7.10
  -7  -7   5   -4.80    8.50
  -7  -7   5   17.60   10.80
   7   7   5    8.50    9.60
  -7   7  -5  -12.80   14.40
   7   7   5  -14.80    9.90
   7   7   5   -1.50   11.10
  -7   7  -5   -4.90    8.20
   7  -7  -5    5.90    9.30
  -7  -7  -5    9.10    8.20
  -7   7   5   16.00   11.40
   7  -7   5    2.40   11.60
   7   7  -5    5.10    8.10
   7   7  -5  -12.80    8.90
  -7  -7  -5    6.50    8.20
   7  -7   5    2.40    9.80
   7   8   5    7.10   12.50
   7   8   5   -4.70   12.70
   7  -8  -5    1.80    7.00
  -7   8  -5   -8.80   10.00
   7  -8  -5   -1.90   11.80
  -7  -8   5  -17.70    9.20
   7   8   5   -9.30   15.90
  -7   8  -5  -11.60   19.20
  -7  -8   5   10.30   13.30
   7   8  -5   -2.70    8.80
  -7   8   5  -16.80   13.80
  -7  -8  -5   -3.90    8.70
  -7  -8  -5    8.50   10.50
   7  -8   5   -2.10   12.40
   7   8  -5   20.50   13.40
  -8   0  -5   14.40    3.70
  -8   0   5   24.70    4.10
  -8   0  -5   16.40    4.00
  -8   0  -5   21.90    4.70
   8   0  -5   16.70    4.00
  -8   0  -5   20.60    6.50
  -8   0   5   25.60    7.40
  -8   0   5   18.40    4.10
   8   0   5   16.80    4.60
   8   0   5   14.00    4.50
   8   0   5   21.30    6.10
   8   0   5   18.10    2.80
   8   1   5  165.98   14.20
   8   1   5  165.58   12.80
   8  -1  -5  164.38   12.30
  -8   1  -5  177.78   12.30
   8  -1  -5  162.18   11.60
  -8   1  -5  160.98   15.10
  -8   1  -5  158.08   11.50
   8  -1  -5  159.78   12.30
  -8  -1   5  170.58   14.30
   8  -1  -5  169.18   13.90
   8   1   5  160.78   12.50
  -8   1  -5  167.78   11.70
  -8   1  -5  165.68   12.40
  -8  -1  -5  165.08   14.10
   8  -1   5  173.48   10.60
  -8   1   5  163.38   12.40
   8   1  -5  170.38   12.80
  -8  -1  -5  173.18   12.50
  -8  -1  -5  182.08   11.90
   8  -1   5  176.58   14.50
  -8   1   5  163.08   12.00
   8  -1   5  182.08   13.30
   8   1  -5  182.98   11.90
   8  -1   5  167.98   13.10
  -8  -1  -5  177.78   12.10
  -8   1   5  169.88   11.10
   8   2   5    3.50    5.80
   8   2   5    4.40    4.40
   8  -2  -5    6.50    4.30
  -8   2  -5    6.40    4.30
  -8   2  -5   10.70    4.80
  -8  -2   5    8.70    5.50
  -8   2  -5    3.30    7.00
  -8   2  -5   10.70    3.80
   8   2   5    7.60    4.80
   8  -2  -5   10.40    5.60
  -8  -2   5    8.40    6.70
  -8   2  -5    6.50    3.90
   8  -2  -5   15.80    4.10
   8  -2  -5   16.90    4.30
   8  -2   5    4.50    3.50
  -8  -2  -5    3.80    4.30
  -8   2   5   11.40    5.50
  -8  -2  -5    9.40    4.60
  -8   2   5    5.10    4.70
  -8  -2  -5    5.30    5.20
  -8   2   5    7.60    3.80
   8  -2   5    7.50    4.90
   8  -2   5    8.30    4.40
   8   2  -5    4.90    3.50
   8   2  -5   12.70    4.30
  -8  -2  -5   15.20    4.90
   8  -2   5    1.30    5.40
   8   3   5  105.19   12.20
   8   3   5   85.39   10.40
  -8   3  -5  107.29    8.50
  -8  -3   5   80.69   11.90
  -8   3  -5  110.39    9.40
  -8   3  -5   86.29   10.80
   8  -3  -5  108.79   10.00
  -8  -3   5  118.39   10.80
   8  -3  -5  114.19    9.00
  -8   3  -5   94.29    9.80
   8  -3  -5   81.89   12.40
  -8   3  -5   99.59   13.10
   8   3   5   98.19   10.70
  -8  -3  -5  108.39    9.60
   8  -3   5   84.99   10.80
  -8   3   5  104.59   10.00
  -8  -3  -5   90.69    9.50
  -8   3   5   91.09   11.40
   8  -3   5   83.29    7.90
   8  -3   5  118.59   12.00
  -8   3   5   81.49   11.30
   8   3  -5   87.79    8.40
   8   4   5   -0.20    5.70
  -8   4  -5    9.80    9.10
  -8  -4   5    3.10    6.70
  -8   4  -5   13.70    7.30
   8  -4  -5    1.50    5.00
   8  -4  -5    3.60    7.70
  -8   4  -5   -4.50    5.30
   8   4   5   -1.00    6.40
   8   4   5   -8.70    6.30
  -8   4  -5   -2.30    4.50
   8  -4  -5    2.60    4.20
   8  -4  -5    2.30    3.60
  -8  -4   5    0.60    8.10
  -8  -4  -5    1.90    5.10
   8  -4   5   -6.90    6.30
  -8   4   5    4.90    5.00
  -8  -4  -5   -8.20    5.90
   8   4  -5    1.40    3.50
  -8   4   5  -17.30   10.60
   8  -4   5   10.60    8.00
  -8   4   5   -0.50    6.80
   8  -4   5   -2.30    3.30
   8   4  -5   -1.50    4.00
  -8  -5   5   26.30    9.80
   8   5   5   46.20    8.90
  -8  -5   5   38.60    8.70
   8   5   5   47.10    8.50
   8  -5  -5   63.69    8.40
  -8   5  -5   42.10    9.40
   8   5   5   35.60    8.40
  -8   5  -5   26.70    6.60
  -8   5  -5   33.20    7.30
   8  -5  -5   29.60    7.30
   8  -5  -5   35.10    5.30
   8  -5  -5   23.20   11.70
  -8   5  -5   26.60   11.00
  -8  -5  -5   45.70    8.00
   8  -5   5   23.30    8.90
   8  -5   5   50.39    9.00
  -8   5   5   47.50    9.70
   8   5  -5   37.30    6.00
  -8   5   5   36.10    9.20
  -8   5   5   27.00    7.30
   8   5  -5   38.90    6.50
   8  -5   5   41.90    5.70
   8   5  -5   61.99    9.30
  -8  -5  -5   40.60    7.30
  -8   6  -5   -5.30   11.30
   8  -6  -5   -8.60    7.80
   8   6   5   12.60    8.70
   8   6   5   -2.50    8.30
  -8   6  -5   -9.40    7.00
  -8  -6   5    3.10    9.70
   8   6   5    6.40    9.10
  -8  -6   5   -2.50    8.10
   8   6  -5  -12.10    6.80
   8  -6   5   -7.90   10.60
   8   6  -5    0.70    6.60
  -8  -6  -5    6.40    6.80
  -8   6   5   13.40    8.80
  -8   6   5    1.90    8.50
  -8  -6  -5    6.70    6.70
   8   6  -5   -0.40    5.20
   8  -6   5    5.50    8.40
   8   7   5   42.80   13.00
  -8  -7   5    7.80    9.90
   8   7   5    5.90   11.40
  -8   7  -5  -10.20   17.30
  -8   7  -5   13.20    9.30
   8   7   5   -1.70   12.30
   8  -7  -5   13.10   10.80
  -8  -7   5   23.00   12.60
  -8   7   5   24.20   12.60
   8   7  -5   16.80    7.20
   8  -7   5    3.60   11.40
  -8  -7  -5   16.30    9.40
   8   7  -5   12.90    9.70
  -8  -7  -5   24.10    8.50
   8  -7   5   20.80   14.50
  -8  -8   5    4.60   10.30
  -8   8  -5  -18.30   21.10
   8   8   5   26.30   15.70
   8  -8  -5   10.80   14.40
  -8  -8   5   12.30   13.50
   8   8   5   -7.60   14.60
   8  -8  -5    3.70    7.20
  -8  -8  -5    5.20    9.10
   8   8  -5    1.10    9.70
   8   8  -5   28.00   14.10
  -8  -8  -5   13.50   12.30
   8  -8   5   19.60   14.00
   9   0   5   17.50    6.70
   9   0   5   15.10    5.10
  -9   0   5   12.50    3.60
  -9   0  -5   14.00    4.50
   9   0   5   20.40    3.10
  -9   0  -5   22.20    5.20
  -9   0   5   22.60    7.50
  -9   0  -5   10.10    7.00
   9   0  -5   17.70    4.20
   9   0  -5   14.60    4.80
   9   0  -5   24.10    6.30
   9   0   5   19.30    5.60
  -9   0  -5   16.40    4.70
  -9   0  -5   14.60    4.20
   9  -1  -5  958.70   53.59
   9  -1  -5  957.70   55.39
   9  -1  -5 1035.30   54.29
  -9   1  -5  981.60   53.69
  -9  -1   5  962.60   56.39
  -9   1  -5 1008.00   53.59
  -9  -1   5  941.61   52.79
  -9   1  -5  951.70   55.99
   9   1   5  954.20   54.39
   9   1   5  979.50   55.39
   9  -1  -5  961.30   54.19
  -9   1  -5  960.70   54.09
   9   1   5  946.31   54.59
  -9   1  -5  950.50   53.89
  -9  -1  -5 1029.80   53.49
  -9  -1  -5  929.91   53.89
  -9   1   5  974.90   53.29
  -9   1   5  945.21   53.89
  -9   1   5  986.50   53.49
   9  -1   5 1056.59   55.59
   9  -1   5 1005.90   54.39
  -9  -1  -5  957.70   54.19
   9   1  -5 1010.90   53.89
   9  -1   5  943.41   54.89
   9  -1   5  934.71   52.59
  -9  -1  -5  991.90   55.19
  -9   2  -5   24.60    5.80
  -9  -2   5   12.80    7.10
  -9   2  -5   23.10    8.00
   9  -2  -5   26.90    6.90
   9  -2  -5   24.40    4.70
   9   2   5   13.10    5.30
  -9   2  -5   16.60    6.00
   9  -2  -5   12.30    4.30
   9   2   5   12.90    5.60
  -9   2  -5   24.60    5.80
  -9   2  -5   24.10    4.80
   9  -2  -5   16.80    5.40
   9   2   5    7.70    6.80
  -9  -2  -5   14.70    5.80
   9   2  -5   21.00    6.20
  -9  -2  -5   15.60    4.70
   9  -2   5   17.70    5.50
   9  -2   5   25.30    7.60
   9  -2   5   13.20    3.40
  -9   2   5   19.20    6.00
   9  -2   5   11.50    5.70
  -9  -2  -5   19.10    4.90
   9   2  -5    9.90    3.90
   9   2  -5   21.90    5.10
  -9   2   5   25.90    6.40
   9   2  -5   22.30    4.10
  -9  -2  -5   12.80    5.20
   9  -3  -5  586.84   33.40
   9   3   5  507.95   36.40
   9  -3  -5  596.04   34.10
  -9  -3   5  555.24   37.00
  -9  -3   5  619.24   35.20
  -9   3  -5  611.14   34.40
  -9   3  -5  549.45   34.90
   9  -3  -5  589.44   36.70
   9   3   5  589.74   35.90
   9   3   5  618.14   35.20
  -9   3  -5  657.33   33.50
  -9   3  -5  610.64   34.50
  -9  -3  -5  531.45   34.40
  -9   3   5  612.24   36.20
   9  -3   5  599.34   35.60
   9  -3   5  588.34   36.70
  -9   3   5  586.34   34.10
  -9   3   5  636.04   35.50
   9   3  -5  584.34   34.00
  -9  -3  -5  593.24   34.80
   9  -3   5  578.84   33.20
  -9  -4   5   14.70    8.80
   9  -4  -5   16.20    4.70
   9  -4  -5   24.30    6.90
   9   4   5   18.90    8.80
  -9  -4   5   26.50    8.20
   9   4   5    3.70    7.10
   9   4   5    8.20    6.90
  -9   4  -5    9.30    9.20
  -9   4  -5    8.10    7.30
   9  -4  -5   25.50    9.70
  -9   4  -5   11.90    5.60
  -9   4  -5   14.40    4.50
   9  -4  -5   24.50    5.30
   9  -4   5   17.00    7.70
   9  -4   5   10.40    7.60
   9   4  -5   19.30    4.60
  -9   4   5    7.50    9.50
   9   4  -5   21.20    5.80
   9  -4   5   15.00    4.50
  -9   4   5   10.10    6.90
  -9  -4  -5   22.80    6.30
  -9   4   5   25.00    8.00
   9   5   5  235.98   19.60
  -9  -5   5  209.18   20.80
   9   5   5  264.77   19.80
  -9  -5   5  231.98   19.50
  -9   5  -5  239.28   19.10
  -9   5  -5  241.98   23.50
   9  -5  -5  249.68   18.70
   9   5   5  198.98   20.50
   9  -5  -5  191.98   16.00
  -9  -5  -5  243.48   17.60
   9  -5   5  213.48   21.20
  -9   5   5  246.28   19.70
   9  -5   5  251.57   19.80
   9   5  -5  250.27   17.00
  -9   5   5  233.68   23.20
  -9  -5  -5  278.67   18.20
   9   5  -5  242.18   17.50
  -9  -5  -5  236.88   17.10
   9  -5   5  212.48   16.10
  -9   5   5  240.78   20.50
   9   5  -5  226.48   16.10
   9   6   5   14.30   10.40
   9   6   5   17.40   10.10
   9  -6  -5   23.60    9.00
   9   6   5   25.30   11.70
  -9  -6   5   11.90   10.30
  -9   6  -5   12.60   13.70
  -9  -6   5   13.30   12.40
  -9   6  -5   20.70    8.90
  -9  -6  -5    2.40    8.40
   9   6  -5   12.40    6.10
  -9  -6  -5    0.70    7.60
  -9   6   5    3.10   11.00
   9  -6   5   27.00   10.40
   9   6  -5   10.50    7.50
   9   7   5   70.99   14.40
  -9  -7   5   56.29   15.10
  -9   7  -5   49.10   21.30
   9  -7  -5   73.19   13.40
  -9   7  -5   83.29   13.20
   9   7   5   56.89   16.30
  -9  -7   5   48.10   12.00
   9   7   5  102.99   14.70
   9   7  -5   66.39    9.10
  -9  -7  -5  117.19   18.40
  -9   7   5   81.29   15.10
   9   7  -5   57.79   11.30
  -9  -7  -5   66.39   11.50
 -10   0   5  171.88   15.40
  10   0   5  166.68   10.70
 -10   0  -5  162.18   13.40
 -10   0   5  161.78   12.30
 -10   0  -5  169.28   16.20
 -10   0  -5  185.98   13.10
  10   0  -5  177.28   13.40
  10   0  -5  183.78   16.20
  10   0  -5  161.48   12.60
  10   0   5  150.78   14.40
 -10   0  -5  172.68   13.10
  10   0   5  177.78   16.60
  10   1   5  353.86   23.80
  10   1   5  318.37   24.50
  10  -1  -5  359.16   22.80
 -10  -1   5  355.16   21.40
  10  -1  -5  379.46   23.10
  10   1   5  344.57   25.30
 -10   1  -5  374.56   22.60
  10  -1  -5  339.57   22.10
 -10  -1   5  353.56   25.60
 -10   1  -5  360.96   25.50
 -10   1  -5  381.86   23.20
 -10   1  -5  381.66   22.80
  10  -1  -5  356.26   25.00
 -10   1  -5  361.26   23.00
 -10  -1  -5  351.86   23.10
 -10  -1  -5  381.86   24.60
  10   1  -5  377.86   24.50
 -10  -1  -5  378.26   22.90
 -10   1   5  361.26   22.90
  10  -1   5  374.96   21.50
 -10   1   5  392.86   22.50
  10  -1   5  358.26   24.10
 -10  -1  -5  420.36   23.10
  10   1  -5  362.46   22.20
  10  -1   5  339.57   23.80
  10   2   5  145.49   13.80
  10  -2  -5  135.39   15.80
  10   2   5  133.59   13.30
  10   2   5  165.88   16.00
 -10  -2   5  123.49   14.70
 -10   2  -5  130.19   12.80
 -10   2  -5  134.19   12.20
  10  -2  -5  123.29   10.80
 -10   2  -5  127.89   12.60
  10  -2  -5  136.19   11.60
 -10   2  -5  148.59   11.70
  10  -2   5  120.39    9.80
  10  -2   5  123.59   12.50
 -10  -2  -5  131.79   11.80
  10   2  -5  144.79   14.30
 -10  -2  -5  132.19   12.60
 -10   2   5   98.69   13.10
 -10  -2  -5  134.99   12.00
  10  -2   5  116.29   13.50
  10   2  -5  135.19   10.70
  10  -2   5  144.79   15.40
 -10  -2  -5  144.29   14.10
  10   2  -5  130.19   11.00
 -10   2   5  150.58   13.20
  10   2  -5  145.99   10.60
 -10   2   5  144.09   11.70
  10  -3  -5  206.58   15.20
  10  -3  -5  223.58   15.60
  10  -3  -5  230.58   20.00
  10   3   5  220.98   18.00
 -10  -3   5  194.98   19.10
 -10   3  -5  250.17   15.60
  10   3   5  191.48   17.60
 -10  -3   5  238.78   17.60
  10   3   5  201.48   19.60
 -10   3  -5  222.28   16.70
 -10   3  -5  215.98   18.00
 -10   3  -5  243.48   17.40
 -10   3  -5  179.88   20.80
  10  -3  -5  249.97   17.30
  10   3  -5  252.67   17.50
 -10  -3  -5  221.28   16.40
  10  -3   5  199.08   18.10
  10   3  -5  201.68   15.50
  10   3  -5  232.68   14.70
  10  -3   5  222.08   14.60
  10  -3   5  237.48   18.90
 -10   3   5  238.68   16.80
 -10  -3  -5  200.68   16.80
 -10   3   5  206.88   18.20
  10   4   5   74.69   10.90
 -10  -4   5   89.99   13.30
 -10   4  -5   70.59   14.70
  10   4   5   92.89   14.40
 -10   4  -5   86.29   13.20
  10  -4  -5   93.79   12.20
 -10  -4   5   56.39   12.20
  10  -4  -5   67.99    9.60
  10   4   5   94.09   12.40
 -10   4  -5   53.79   16.60
 -10   4   5   63.29   11.90
 -10  -4  -5   71.29   11.30
 -10   4   5   78.49   12.10
  10  -4   5   67.69   12.30
  10  -4   5   93.99   14.20
  10  -4   5   67.79    9.30
 -10   4   5   55.19    9.60
  10   4  -5   75.49    8.90
 -10   5  -5  105.49   16.60
  10  -5  -5   60.99   10.50
  10   5   5   88.39   12.00
  10  -5  -5   82.29   13.60
 -10   5  -5   89.49   12.50
  10   5   5   82.09   13.40
  10   5   5   68.19   11.70
  10  -5   5  117.49   15.70
 -10   5   5   87.89   12.70
 -10  -5  -5  101.39   13.50
  10   5  -5   75.89   10.50
 -10   5   5   69.69   12.20
  10   5  -5   99.39   11.60
 -10   6  -5   20.60   11.80
  10   6   5   36.00   11.40
 -10   6  -5   28.70   16.60
 -10  -6   5   32.10   11.70
 -10  -6   5   37.80   13.60
  10   6   5   25.70   16.80
  10  -6  -5   37.30   10.70
  10   6   5   24.90   13.50
 -10  -6  -5   39.80    9.70
  10   6  -5   38.00    8.80
  10  -6   5   39.20   11.90
 -10   6   5   18.60   12.60
  10   6  -5   25.80    7.40
 -10  -6  -5   29.60    9.10
  10   7   5    2.20   16.60
 -10   7  -5   21.10   13.60
 -10  -7   5   10.00   15.00
 -10  -7   5   22.40   12.30
  10  -7  -5  -12.40   12.30
  10   7   5    3.70   12.40
  10   7  -5    6.80    8.20
 -10  -7  -5   11.10   10.20
 -10   7   5   42.80   23.00
  10   7  -5    3.70   10.30
 -10  -7  -5   36.10   11.90
  11   0   5  370.76   23.50
 -11   0  -5  334.37   25.50
 -11   0   5  343.87   25.10
  11   0   5  331.97   19.70
  11   0   5  319.37   23.70
  11   0  -5  334.67   21.40
 -11   0  -5  343.87   21.90
 -11   0  -5  317.27   22.50
  11   0   5  383.26   24.90
 -11   0   5  331.77   21.20
  11   0  -5  328.87   24.70
 -11   0  -5  373.56   25.30
  11   0  -5  332.87   22.10
  11   1   5  526.55   32.30
 -11   1  -5  508.45   29.00
  11  -1  -5  441.76   31.40
 -11   1  -5  439.76   28.70
  11  -1  -5  448.36   27.80
 -11   1  -5  469.75   28.70
  11  -1  -5  460.45   28.30
 -11   1  -5  502.65   28.60
 -11   1  -5  450.75   36.90
  11   1   5  464.35   29.00
  11   1   5  434.56   29.70
 -11  -1   5  447.36   31.80
 -11  -1  -5  453.75   28.80
  11   1  -5  436.56   30.30
  11  -1   5  490.35   31.30
 -11  -1  -5  463.15   30.40
  11   1  -5  420.96   28.40
  11  -1   5  454.55   26.50
 -11   1   5  493.85   28.00
 -11  -1  -5  520.75   29.10
  11  -1   5  481.15   29.30
 -11  -1  -5  480.85   28.70
  11  -1   5  442.96   30.00
 -11   1   5  497.35   28.20
 -11  -1  -5  427.46   32.10
 -11   1   5  469.35   28.30
  11   1  -5  457.35   27.90
 -11   2  -5  234.08   19.00
  11   2   5  255.77   19.60
  11  -2  -5  252.07   17.80
  11  -2  -5  294.57   19.50
  11  -2  -5  286.87   23.10
  11  -2  -5  267.17   18.30
 -11   2  -5  252.57   23.40
 -11   2  -5  269.77   19.80
  11   2   5  275.97   20.80
 -11   2  -5  288.57   19.90
 -11   2  -5  304.57   18.90
 -11  -2   5  239.18   21.70
  11   2  -5  255.87   20.90
 -11  -2  -5  225.88   19.30
 -11   2   5  238.18   19.90
  11  -2   5  244.58   20.60
  11  -2   5  252.57   19.10
  11  -2   5  302.77   22.10
  11   2  -5  265.37   17.40
  11  -2   5  253.67   16.60
 -11   2   5  283.37   19.10
 -11  -2  -5  285.17   19.10
  11   2  -5  245.48   17.80
 -11   2   5  276.77   19.80
 -11   3  -5  279.47   22.90
 -11   3  -5  331.37   20.50
 -11   3  -5  344.97   27.50
  11   3   5  336.67   23.50
  11   3   5  296.07   22.60
 -11   3  -5  279.77   29.30
 -11  -3   5  263.87   24.30
  11  -3  -5  329.87   22.30
  11  -3  -5  306.07   20.20
 -11   3   5  339.87   23.30
  11   3  -5  308.87   22.90
 -11   3   5  274.27   23.60
  11  -3   5  294.87   19.70
 -11  -3  -5  324.47   21.80
 -11   3   5  299.07   21.50
  11   3  -5  330.57   19.70
  11  -3   5  327.77   23.80
  11  -4  -5  123.69   12.60
  11   4   5  104.89   18.20
 -11  -4   5  149.39   17.80
 -11   4  -5  134.09   17.20
 -11  -4   5  125.89   25.40
 -11   4  -5  124.99   17.60
  11  -4  -5  134.89   15.00
  11   4   5  105.39   16.10
  11   4   5  111.19   15.10
 -11  -4  -5  148.29   15.10
 -11   4   5  125.19   16.20
  11  -4   5  112.19   12.40
 -11   4   5  122.19   17.80
  11   4  -5  128.59   11.80
 -11   4   5  148.69   17.10
  11  -4   5  159.08   17.40
  11   5   5  132.79   20.40
 -11  -5   5  162.88   19.20
  11   5   5  141.49   21.70
  11  -5  -5  189.98   17.90
  11   5   5  151.88   22.60
 -11   5  -5  163.78   21.00
 -11  -5   5  155.28   20.50
 -11   5  -5  138.49   20.90
 -11   5   5  129.69   20.90
  11  -5   5  214.88   19.90
 -11  -5  -5  187.98   17.50
  11   5  -5  145.39   14.00
  11   5  -5  168.28   14.40
 -11   6  -5   17.80   13.70
 -11  -6   5   23.10   13.40
  11   6   5   14.70   12.30
 -11  -6   5   22.50   12.70
 -11   6  -5   24.00   18.00
  11  -6  -5   46.70   12.00
  11   6   5   60.39   16.30
  11  -6   5   52.69   13.80
 -11  -6  -5   57.79   12.50
  11   6  -5   40.00   16.30
 -11   6   5   42.80   14.10
  11   6  -5   42.10   14.00
  12   0  -5  320.57   26.60
  12   0   5  321.07   19.70
 -12   0  -5  357.46   23.30
  12   0  -5  296.37   21.70
 -12   0  -5  386.66   23.30
  12   0   5  356.46   26.40
 -12   0  -5  332.17   26.60
 -12   0   5  313.67   22.00
 -12   0   5  333.87   25.80
 -12   0  -5  365.46   23.00
  12   0  -5  306.57   22.40
  12   0   5  330.77   23.70
  12   1   5   20.70    7.40
  12  -1  -5   23.00    7.80
 -12  -1   5   24.00    6.50
 -12   1  -5   15.40   11.00
  12  -1  -5   29.50    7.60
  12  -1  -5   17.20    6.20
 -12   1  -5    9.90    7.70
 -12  -1   5   20.80   10.70
 -12   1  -5   29.70    8.10
  12   1   5   27.60   11.40
  12  -1  -5   25.70   11.80
  12   1   5   13.30    9.30
 -12  -1  -5   36.00    8.40
 -12  -1  -5   23.40    8.60
  12   1  -5   27.60   10.00
 -12   1   5   30.00    7.60
 -12   1   5   24.60    7.20
  12   1  -5   18.70    6.90
  12  -1   5   22.00    7.20
  12  -1   5   20.40    5.20
 -12  -1  -5   37.60   10.00
 -12  -1  -5   19.30   10.40
  12  -1   5   45.90   10.80
 -12   2  -5  269.27   21.80
 -12   2  -5  241.48   25.80
 -12  -2   5  247.08   22.30
  12   2   5  229.68   20.10
 -12   2  -5  248.98   21.60
  12   2   5  302.17   25.30
  12  -2  -5  273.87   20.00
 -12   2  -5  277.17   21.20
  12   2   5  272.97   22.70
  12  -2  -5  231.48   18.50
  12  -2   5  259.87   19.90
  12   2  -5  254.07   17.20
 -12  -2  -5  263.67   20.00
  12  -2   5  243.08   17.00
  12  -2   5  293.47   22.60
 -12   2   5  279.37   20.20
  12   2  -5  223.48   19.40
  12   2  -5  229.68   22.70
 -12   2   5  274.87   20.60
  12   2  -5  257.67   18.00
 -12   2   5  224.38   20.90
 -12   3  -5   23.20    7.80
  12   3   5   26.60   11.40
 -12   3  -5    9.40   13.20
  12  -3  -5   24.50    7.10
 -12  -3   5   10.40   11.80
  12  -3  -5   19.70    8.40
  12   3   5   11.60    8.80
 -12   3  -5   44.30   10.90
  12   3   5   13.10   11.90
 -12   3   5   22.90    9.10
 -12   3   5   35.80   10.90
 -12   3   5    7.40   11.90
  12  -3   5   12.90    9.90
  12  -3   5   12.00    6.50
  12   3  -5   20.50    6.30
 -12  -3  -5   36.20    8.50
  12   3  -5    1.70   10.80
  12   4   5  131.39   16.40
  12  -4  -5  120.19   13.90
 -12   4  -5  150.08   20.50
  12  -4  -5  136.69   16.90
  12   4   5  157.68   23.70
 -12  -4   5  111.49   19.40
 -12   4  -5  118.19   20.00
  12  -4   5  157.38   19.30
 -12   4   5  147.09   20.80
  12   4  -5  143.29   14.60
 -12  -4  -5  161.78   16.70
  12   5   5    8.90   15.40
 -12   5  -5   18.80   17.80
 -12  -5   5   17.50   12.20
 -12  -5   5   19.10   14.40
 -12   5  -5   20.10   14.20
  12  -5  -5   24.10   10.10
  12   5   5    9.50   11.30
 -12   5   5    8.60   13.30
  12  -5   5   27.70   11.70
 -12  -5  -5   33.90    9.00
  12   5  -5    2.10    7.10
 -13   0  -5   44.30   17.70
 -13   0  -5   71.79   10.50
 -13   0   5   67.89   10.10
 -13   0  -5   82.79   12.70
 -13   0   5   62.19   13.70
  13   0  -5   69.69   10.10
  13   0   5   66.79   13.10
  13   0   5   62.09   10.60
 -13   0  -5   61.99   11.20
 -13   1  -5    2.90   13.00
  13   1   5   28.00    9.40
 -13   1  -5    2.00    9.70
 -13  -1   5   10.40   11.90
 -13  -1   5   15.50    7.80
 -13   1  -5   11.60    8.00
  13   1   5   13.70   11.10
  13  -1  -5   19.00    8.70
  13  -1   5    6.70    7.50
  13   1  -5   17.70    8.10
 -13   1   5    4.00   10.60
  13   1  -5   33.80   13.60
  13  -1   5   15.60    6.10
 -13  -1  -5    1.00   11.20
 -13  -1  -5   24.00    8.60
  13  -1   5   27.80   11.20
 -13  -1  -5   17.40    9.90
 -13   1   5    8.10    8.30
 -13  -1  -5    6.10   10.30
  13   2   5   57.89   15.10
 -13  -2   5   49.30   13.60
 -13   2  -5   72.99   10.50
 -13   2  -5   50.39   15.60
  13  -2  -5   67.59   11.20
  13   2   5   53.89   10.70
  13   2  -5   51.09   14.50
 -13  -2  -5   85.09   12.20
 -13   2   5   53.29   11.90
 -13   2   5   67.89   11.90
 -13  -2  -5   55.99   10.90
  13  -2   5   55.79    9.50
  13   2  -5   54.59    8.10
  13  -2   5   72.29   12.80
 -13   2   5   49.40   12.00
  13   2  -5   60.69   10.80
  13  -2   5   50.09    8.00
  13  -3  -5   23.80    9.80
  13   3   5   19.50   14.90
 -13  -3   5   20.70   13.00
 -13   3  -5    4.90   15.20
  13  -3  -5    7.40    8.80
  13   3  -5   16.20    7.50
  13   3  -5    5.30    9.80
 -13  -3  -5   26.90    9.60
  13  -3   5   34.40   11.50
 -13   3   5   12.00   11.60
  13   3  -5   22.00   14.40
 -13   3   5   16.40   14.00
  13   4   5   20.00   11.70
  13   4   5   29.70   17.70
  13  -4  -5   32.20   10.60
 -13   4  -5   31.20   14.80
 -13   4  -5    9.20   18.50
 -13  -4   5    2.60   13.80
 -13   4   5   21.60   14.90
  13  -4   5   56.39   14.00
 -13  -4  -5   30.20   10.40
  13   4  -5   29.90    8.70
 -14   0  -5   13.70    9.50
  14   0   5   23.50   14.70
 -14   0  -5   -3.00   14.30
 -14   0   5   -1.30   11.20
 -14   0  -5    8.90   11.00
  14   0   5   19.90    9.70
  14  -1  -5   28.60   11.70
 -14   1  -5  -11.50   14.80
 -14   1  -5   21.10   10.20
  14   1   5   16.10   10.20
 -14  -1   5    8.40   13.10
  14   1   5   24.60   14.80
 -14  -1  -5   13.40   11.60
 -14   1   5    3.60   12.40
  14  -1   5   10.10    8.70
 -14  -1  -5    9.00    9.20
  14  -1   5   29.30   13.40
 -14   2  -5   10.60   16.70
  14  -2  -5    2.50   10.70
 -14  -2   5   17.90   13.10
  14   2   5   31.50   14.80
  14   2   5   24.50   10.90
 -14   2   5   12.80   12.80
 -14  -2  -5    6.40   12.20
  14  -2   5   -0.30   11.70
 -14  -2  -5   19.30    9.80
  14  -2   5   -1.40    8.10
  14   3   5   -2.30   18.00
 -14   3  -5   -1.60   18.90
  14  -3  -5    1.70   10.90
  14   3   5  -21.30   10.70
 -14  -3   5    4.80   14.70
 -14  -3  -5   29.80   12.30
 -14   3   5   -5.70   14.20
   0   0   6 5830.72  290.17
   0   0  -6 5689.63  290.17
   0   0   6 5228.28  289.57
   0   0   6 5155.98  290.57
   0   0   6 5545.35  290.27
   0   0  -6 5408.56  290.87
   0  -1   6    2.50    2.60
   0   1   6    3.90    2.30
   0   1  -6    3.00    3.10
   0   1   6    2.40    2.60
   0  -1  -6   -0.50    2.40
   0  -1  -6    4.80    2.80
   0   1   6    2.70    2.40
   0   1   6    4.60    1.90
   0   1  -6    6.70    2.30
   0  -1   6    3.40    2.70
   0   2   6 4234.98  222.98
   0   2  -6 4404.86  222.58
   0  -2  -6 4519.65  223.18
   0  -2   6 4151.98  222.08
   0   2  -6 4254.47  223.08
   0   2   6 4174.38  221.88
   0   2  -6 4113.59  221.58
   0   2  -6 3906.41  221.98
   0   2   6 4089.39  222.18
   0  -2   6 4418.56  222.28
   0  -2   6 3774.22  222.98
   0  -2  -6 4202.58  222.68
   0   3  -6    3.60    2.80
   0  -3  -6    0.20    3.40
   0  -3   6    3.80    2.40
   0   3   6   -1.50    3.60
   0  -3   6    4.30    4.80
   0  -3  -6    5.30    3.50
   0  -3  -6    2.00    2.10
   0   3  -6    4.50    3.80
   0   3  -6    2.70    2.20
   0   3   6    6.10    3.10
   0  -3  -6    0.60    2.30
   0   3  -6    3.20    2.60
   0  -4   6 1796.52  102.19
   0   4   6 1746.63  103.29
   0   4  -6 1832.22  102.29
   0   4  -6 1826.12  102.99
   0  -4  -6 2014.90  101.99
   0  -4  -6 2031.80  101.69
   0  -4  -6 2063.39  103.39
   0   4   6 1970.40  102.79
   0  -4   6 1653.93  103.69
   0  -4  -6 1940.81  103.19
   0   4  -6 1980.40  101.89
   0   4  -6 2025.50  102.59
   0   5   6    2.70    4.60
   0   5  -6    2.20    5.20
   0  -5  -6   -4.60    3.20
   0   5  -6   -2.60    3.60
   0   5  -6    4.10    4.30
   0  -5  -6   -0.40    5.10
   0   5  -6    0.90    3.50
   0  -5  -6    5.50    2.90
   0  -5   6    9.40    7.40
   0  -5  -6    1.00    5.70
   0   5   6    6.70    5.10
   0  -5   6   -1.90    3.20
   0   6  -6  718.83   37.40
   0  -6  -6  653.43   38.80
   0   6  -6  621.04   37.80
   0  -6   6  554.24   36.90
   0  -6   6  561.34   39.60
   0  -6  -6  677.43   36.50
   0  -6  -6  716.93   36.70
   0   6  -6  626.74   38.80
   0   6   6  693.13   38.40
   0   6   6  639.34   38.50
   0   6  -6  672.63   36.00
   0  -6  -6  669.73   36.40
   0   7  -6   -1.80    9.90
   0  -7  -6    3.40    4.90
   0  -7  -6   -8.70    7.80
   0   7  -6   -3.40    8.60
   0  -7   6   -2.90    5.20
   0  -7  -6   -3.70    9.90
   0  -7  -6   -1.50    5.20
   0  -7  -6   -5.10    5.00
   0   7   6   -0.10    8.60
   0   7  -6    3.60    5.70
   0  -7   6    5.40    9.50
   0   7   6    9.30    8.50
   0  -8  -6  201.48   15.10
   0  -8   6  172.18   15.90
   0   8  -6  185.38   17.00
   0   8  -6  198.68   22.60
   0   8  -6  202.38   25.40
   0  -8  -6  137.69   16.40
   0  -8  -6  213.08   15.30
   0   8   6  197.58   22.50
   0  -9   6   -9.80    8.00
   0  -9  -6   -4.50    7.70
   0   9  -6  -20.50   20.80
   0   9  -6   -1.20   10.70
   0   9  -6   -0.40   18.60
   0   9   6   -6.60   15.70
  -1   0   6  842.82   50.29
   1   0   6  810.02   49.10
   1   0   6  934.11   49.99
  -1   0   6  882.31   49.50
  -1   0  -6  864.51   48.80
   1   0   6 1003.00   49.40
   1   0  -6  964.30   49.80
  -1   0  -6  888.11   49.20
  -1   0  -6  927.21   50.39
   1   0  -6  922.91   49.30
   1   0   6  869.81   48.80
  -1   0   6  999.90   49.20
   1   1   6  695.13   39.00
   1   1   6  682.73   37.90
  -1   1  -6  686.23   39.30
  -1   1  -6  648.34   38.00
   1   1   6  724.13   38.30
  -1   1  -6  688.73   37.60
  -1   1  -6  754.12   38.40
   1  -1  -6  718.33   38.70
  -1  -1   6  768.62   37.50
  -1  -1   6  744.53   38.00
  -1  -1   6  689.93   38.10
  -1  -1   6  645.04   38.80
   1  -1  -6  688.83   38.50
   1  -1   6  632.04   38.40
  -1   1   6  681.73   37.50
   1   1  -6  681.63   38.00
   1   1  -6  734.13   38.70
  -1   1   6  696.53   38.10
  -1  -1  -6  681.13   39.20
  -1   1   6  625.54   38.50
  -1  -1  -6  732.83   38.40
   1  -1   6  707.53   38.70
   1  -1   6  739.13   38.40
  -1   2  -6  640.14   37.40
  -1  -2   6  593.24   37.50
  -1  -2   6  685.63   35.90
  -1  -2   6  673.93   36.00
  -1   2  -6  634.74   36.30
  -1   2  -6  717.03   36.70
  -1  -2   6  688.73   36.00
   1   2   6  671.63   37.30
  -1   2  -6  676.93   35.80
   1   2   6  696.33   36.30
   1  -2  -6  651.23   36.90
   1   2   6  658.03   36.40
   1  -2  -6  664.73   37.00
   1   2  -6  640.94   36.00
   1  -2   6  600.24   37.00
  -1  -2  -6  682.23   36.80
  -1  -2  -6  671.63   37.40
   1  -2   6  674.63   36.50
  -1  -2  -6  646.04   35.50
   1   2  -6  652.33   36.80
  -1   2   6  657.53   37.10
   1  -2   6  690.83   36.70
  -1   2   6  645.94   36.40
  -1  -3   6  354.46   21.80
   1   3   6  381.46   22.30
   1   3   6  367.66   23.10
  -1   3  -6  377.66   23.30
  -1   3  -6  397.06   21.70
  -1   3  -6  365.76   22.20
   1  -3  -6  419.56   21.10
   1  -3  -6  384.16   23.00
   1  -3  -6  387.26   22.30
  -1  -3   6  332.47   23.60
   1   3   6  417.46   22.20
   1  -3  -6  405.26   22.90
   1  -3   6  420.86   22.30
   1  -3   6  400.76   22.10
   1   3  -6  393.36   22.40
  -1   3   6  377.76   23.00
  -1  -3  -6  384.46   21.30
   1   3  -6  399.56   21.30
  -1   3   6  397.86   22.50
  -1  -3  -6  400.46   23.30
  -1  -3  -6  404.06   21.80
  -1  -3  -6  380.26   22.70
   1   3  -6  367.36   22.70
   1  -3   6  362.36   23.40
   1   3  -6  366.16   21.70
  -1   4  -6  289.47   16.70
  -1   4  -6  243.68   17.90
   1   4   6  215.58   20.80
   1  -4  -6  269.17   15.40
  -1   4  -6  283.47   16.10
   1  -4  -6  275.97   16.20
  -1   4  -6  283.67   17.00
   1  -4  -6  308.37   17.60
   1  -4  -6  275.07   17.70
  -1  -4   6  250.77   16.30
   1   4   6  273.47   16.90
  -1  -4   6  218.38   18.10
  -1  -4  -6  306.17   18.10
   1   4  -6  279.17   16.60
   1  -4   6  280.87   15.70
  -1  -4  -6  268.47   15.70
  -1  -4  -6  267.87   15.60
  -1  -4  -6  270.87   17.40
   1  -4   6  233.18   18.40
   1   4  -6  260.97   16.20
   1   4  -6  232.58   17.00
   1   4  -6  307.87   15.90
  -1   4   6  254.87   17.50
  -1   4   6  264.77   17.20
  -1   5  -6  109.89   12.40
   1  -5  -6  144.19   11.70
  -1  -5   6  118.29    9.80
   1  -5  -6  130.79    9.40
   1   5   6  129.59   11.20
  -1   5  -6  131.29   10.10
   1   5   6  108.29   11.20
   1  -5  -6  121.99    8.70
  -1  -5   6  101.09   12.90
  -1   5  -6  133.29   10.30
  -1   5  -6  101.09   10.80
   1   5  -6  105.79   11.20
  -1  -5  -6  143.69   12.20
   1   5  -6  131.29   10.10
  -1  -5  -6  139.59    9.80
   1   5  -6  132.69    9.90
  -1   5   6  116.49   11.50
   1  -5   6  123.19    9.70
  -1  -5  -6  133.39   12.10
   1  -5   6  114.39   12.50
   1   5  -6  121.79    9.20
  -1   5   6  101.99   11.20
  -1  -5  -6  130.79    9.00
  -1  -5  -6  130.99    9.20
   1  -6  -6   86.59   11.40
   1   6   6   73.79   11.50
   1  -6  -6   69.09    8.10
   1  -6  -6   61.89    7.60
  -1  -6   6   70.69   12.20
  -1   6  -6   84.49    9.80
   1  -6  -6   72.79    8.20
   1  -6  -6   87.09   13.40
  -1   6  -6   66.49   10.50
  -1   6  -6   61.39    8.60
  -1  -6   6   55.79    8.50
  -1   6  -6   80.59    9.50
   1   6   6   61.29    8.90
   1   6  -6   83.29    8.80
   1   6  -6   61.49   10.00
  -1  -6  -6   63.59    7.90
   1   6  -6   49.10    8.80
   1   6  -6   64.09    7.90
   1  -6   6   70.49    8.50
  -1  -6  -6   77.09    7.80
  -1   6   6   75.49   11.50
  -1  -6  -6   72.69    8.40
  -1  -6  -6   84.69   12.30
  -1   6   6   60.29    8.90
  -1  -6  -6   65.09    9.80
   1  -7  -6   37.70    9.10
   1   7   6   11.90    8.90
   1  -7  -6   21.80   10.20
  -1   7  -6   25.00   10.70
  -1   7  -6   28.60    7.00
   1  -7  -6   28.60    6.00
   1  -7  -6   32.80    6.30
  -1  -7   6   27.80   10.70
   1  -7  -6   27.90    5.80
  -1  -7   6   21.90    7.00
  -1   7  -6   25.80    9.40
  -1   7  -6   14.50    7.20
   1   7  -6    7.50    8.30
  -1  -7  -6   28.30    6.10
  -1  -7  -6   42.00    8.90
   1   7  -6   23.90    6.70
  -1  -7  -6   30.00    6.00
   1  -7   6   18.20    5.20
   1   7  -6   26.10    5.60
  -1   7   6   27.40    9.00
   1   7  -6   26.90   10.20
  -1   7   6   33.50    9.70
  -1  -7  -6   23.40    8.70
  -1  -7  -6   28.40    6.10
   1  -8  -6    7.30   10.80
   1  -8  -6   11.70    6.20
  -1   8  -6   21.80    9.70
   1  -8  -6    3.90    7.80
  -1  -8   6   -3.60    7.40
   1  -8  -6    1.40   13.10
   1  -8  -6   12.50    6.50
   1   8   6   20.10   11.60
  -1   8  -6   26.90   14.50
  -1   8  -6    1.60   13.30
  -1   8  -6   13.00    7.60
   1   8  -6   -0.10   11.90
   1  -8   6   -3.50    6.90
  -1   8   6   10.40   11.30
  -1  -8  -6   21.50    7.10
   1   8  -6   25.60    8.30
   1   8  -6    6.20   13.00
  -1  -8  -6    3.50    6.70
  -1  -8  -6   15.80    7.30
  -1   9  -6  -10.50    9.70
  -1  -9   6   -5.40    7.90
  -1   9  -6   11.40   20.30
   1   9   6    8.00   16.50
   1  -9  -6  -10.40    8.20
  -1  -9  -6   18.40    8.40
  -1  -9  -6   11.10   10.40
   1   9  -6   -4.10   29.40
   1   9  -6   19.60   10.30
   1  -9   6    5.70    8.00
  -1   9   6  -23.40   16.70
  -2   0   6  754.62   38.40
  -2   0  -6  694.53   38.60
   2   0  -6  688.83   38.70
   2   0   6  687.83   39.30
  -2   0  -6  675.63   39.80
   2   0   6  736.43   39.00
   2   0   6  647.24   38.30
  -2   0  -6  703.53   38.40
  -2   0   6  716.73   38.70
  -2   0   6  729.43   39.30
   2   0  -6  729.63   38.70
  -2   1  -6  270.97   14.10
  -2  -1   6  223.98   14.80
  -2  -1   6  252.37   13.30
  -2   1  -6  207.78   13.80
   2   1   6  225.58   13.80
   2  -1  -6  226.68   14.00
  -2   1  -6  211.08   15.30
   2   1   6  216.48   14.70
  -2  -1   6  236.68   13.60
   2  -1  -6  245.78   14.50
  -2  -1   6  227.48   13.50
  -2   1  -6  233.38   13.50
   2   1   6  247.48   14.20
  -2  -1  -6  231.48   13.70
  -2   1   6  236.38   13.80
  -2  -1  -6  215.68   15.20
   2  -1   6  222.08   14.30
   2  -1   6  220.28   14.30
   2   1  -6  227.88   13.90
  -2   1   6  242.58   14.30
   2   1  -6  243.58   13.80
  -2  -1  -6  241.18   14.10
  -2   2  -6  588.44   34.30
   2   2   6  607.94   32.90
  -2   2  -6  663.53   33.10
  -2   2  -6  603.34   32.40
   2   2   6  576.04   33.80
  -2  -2   6  628.64   32.60
  -2  -2   6  550.94   34.10
  -2   2  -6  571.74   32.90
   2   2   6  643.44   33.00
   2  -2  -6  582.24   33.50
   2  -2   6  610.24   33.30
  -2   2   6  588.14   32.90
   2   2  -6  597.94   32.90
   2  -2   6  604.94   32.60
  -2  -2  -6  513.65   33.00
   2  -2   6  598.34   33.20
  -2  -2  -6  580.84   34.10
   2   2  -6  580.74   32.30
  -2  -2  -6  633.94   33.20
   2  -2   6  533.05   33.10
   2  -3  -6   99.89    6.70
   2  -3  -6  119.69    8.80
  -2  -3   6   92.99   10.10
   2   3   6  117.99    8.60
  -2   3  -6  100.59   10.20
   2  -3  -6  123.99    9.90
  -2   3  -6   99.59    8.70
   2  -3  -6  113.29    8.60
   2   3   6  124.19    8.90
   2   3   6   99.19    9.30
  -2   3  -6  103.49    7.80
  -2   3  -6  127.49    8.60
  -2  -3   6  112.69    8.40
  -2  -3  -6  112.09    7.50
   2   3  -6  116.49    8.60
  -2  -3  -6  112.39    7.40
  -2   3   6  113.29    9.40
  -2  -3  -6  111.89   10.10
   2   3  -6  121.99    8.60
  -2  -3  -6  121.49    9.20
   2   3  -6  105.59    7.70
   2  -3   6   93.79    9.80
   2  -3   6  103.19    8.40
   2  -3   6  120.79    9.00
  -2   3   6  110.29    8.90
   2   4   6  409.36   22.10
   2  -4  -6  366.36   20.40
  -2   4  -6  380.06   21.80
  -2   4  -6  337.07   23.20
  -2  -4   6  345.97   21.70
  -2   4  -6  374.16   22.20
   2  -4  -6  372.56   21.50
   2  -4  -6  385.26   22.20
  -2  -4   6  319.17   23.60
  -2   4  -6  408.76   21.60
   2   4   6  378.46   21.80
  -2  -4  -6  366.76   20.50
   2  -4   6  378.56   21.50
  -2   4   6  347.87   22.70
   2   4  -6  388.76   21.80
   2   4  -6  344.67   20.90
   2   4  -6  339.97   21.70
   2  -4   6  311.57   22.80
  -2  -4  -6  362.96   21.00
  -2  -4  -6  389.96   22.40
  -2   4   6  379.16   22.50
  -2  -4  -6  397.36   23.10
   2  -4   6  382.76   21.60
  -2   5  -6   22.30    5.10
   2  -5  -6   23.30    5.50
  -2  -5   6   19.80    8.10
   2   5   6   16.10    5.60
  -2  -5   6   23.20    5.90
   2  -5  -6   24.90    3.70
   2  -5  -6   23.60    4.50
   2   5   6   27.70    5.80
  -2   5  -6   17.30    5.70
   2  -5  -6   26.10    7.10
  -2   5  -6   23.50    7.40
  -2   5  -6   22.20    4.70
   2   5   6   25.40    5.50
  -2  -5  -6   26.50    4.80
   2   5  -6   25.00    4.40
   2   5  -6   17.30    5.20
  -2   5   6   18.20    5.60
  -2  -5  -6   23.50    3.50
   2  -5   6   21.80    4.50
  -2  -5  -6   20.00    4.50
  -2  -5  -6   24.30    6.20
   2   5  -6   23.50    4.40
   2   5  -6   24.30    4.30
  -2  -5  -6   21.70    6.40
   2  -5   6   17.90    4.10
  -2   5   6   19.00    5.80
   2  -6  -6  177.68   12.40
  -2   6  -6  167.28   13.20
  -2  -6   6  132.59   13.10
   2  -6  -6  201.88   14.70
   2  -6  -6  163.78   17.10
   2   6   6  184.28   19.80
   2   6   6  162.28   14.30
  -2  -6   6  138.69   16.10
  -2   6  -6  161.68   17.30
  -2   6  -6  148.89   18.20
   2   6   6  133.59   14.40
   2  -6  -6  174.48   11.40
  -2   6  -6  179.18   14.90
  -2  -6  -6  173.88   12.50
  -2  -6  -6  169.08   12.60
  -2  -6  -6  154.18   11.10
   2   6  -6  168.28   12.10
  -2  -6  -6  166.48   14.80
   2   6  -6  166.88   12.40
   2   6  -6  137.59   14.10
   2  -6   6  136.69   12.00
  -2  -6  -6  201.28   14.90
   2   6  -6  168.28   12.80
  -2   6   6  165.88   15.30
  -2   6   6  154.28   15.00
  -2   7  -6  -10.20    5.90
  -2  -7   6   -2.70    5.80
   2   7   6    4.40    8.50
   2  -7  -6    4.60    4.70
   2   7   6    1.20    8.30
   2   7   6   -5.90    7.00
  -2   7  -6  -10.70   10.80
   2  -7  -6   -6.30    8.30
  -2  -7   6    2.90    9.70
   2  -7  -6    6.00    4.90
  -2   7  -6   -9.20    9.50
   2  -7  -6    1.80    5.60
   2  -7  -6  -16.90   10.00
  -2   7  -6    9.40    7.00
   2   7  -6    1.80    5.40
  -2  -7  -6    2.40    4.70
   2   7  -6    2.30    8.70
  -2  -7  -6    0.90    5.30
  -2  -7  -6    2.60    5.40
   2  -7   6   -3.80    3.90
  -2   7   6   -5.00    8.30
   2  -8  -6   44.70   14.30
  -2   8  -6   44.10   10.00
   2   8   6   56.69   12.30
   2   8   6   52.89   10.80
   2  -8  -6   70.69    9.90
  -2  -8   6   39.90   13.70
  -2   8  -6   80.49   16.10
  -2  -8   6   36.90    9.20
  -2   8  -6   20.20   15.40
   2  -8  -6   80.79   13.30
  -2   8  -6   53.89   13.40
   2  -8  -6   39.10    9.50
   2   8  -6   54.39   10.30
  -2   8   6   61.79   12.80
   2   8  -6   64.49    9.50
  -2  -8  -6   48.20    8.40
   2   8  -6   57.69   14.00
  -2  -8  -6   47.40    8.30
  -2  -8  -6   39.00    8.60
   2  -8   6   47.80    9.00
   2   8  -6   41.60   12.00
  -2   9  -6    7.00   21.20
  -2   9  -6   21.90   10.00
   2  -9  -6   -5.10    8.20
   2   9   6    1.60   10.90
  -2  -9   6   -7.40    8.40
   2   9   6    1.90   15.80
  -2   9   6    3.80   15.90
  -2  -9  -6   -4.10    9.10
   2   9  -6    2.40   10.90
   2  -9   6  -10.70    6.30
   2   9  -6    4.00   17.80
  -2  -9  -6    5.00   12.00
   3   0   6  404.36   24.20
   3   0  -6  404.36   23.50
   3   0   6  403.86   23.50
   3   0  -6  437.16   24.00
   3   0   6  436.86   24.20
  -3   0  -6  385.76   23.50
  -3   0   6  401.46   24.40
  -3   0   6  444.26   23.60
  -3   0  -6  464.85   23.50
  -3   0   6  450.15   23.40
  -3   0  -6  392.56   23.40
  -3   0  -6  399.46   25.20
   3  -1  -6 1328.07   71.99
  -3   1  -6 1239.48   71.39
  -3   1  -6 1305.07   71.19
   3   1   6 1338.17   71.49
   3   1   6 1286.27   72.09
   3   1   6 1411.26   71.79
  -3  -1   6 1271.37   72.49
   3  -1  -6 1251.07   71.39
  -3  -1   6 1373.06   70.89
  -3  -1   6 1392.96   70.79
  -3   1  -6 1239.28   72.79
  -3   1  -6 1479.15   71.39
  -3   1   6 1251.87   71.69
   3   1  -6 1294.77   71.29
   3  -1   6 1387.06   72.09
   3   1  -6 1308.37   71.19
  -3  -1  -6 1281.87   72.69
  -3  -1  -6 1290.57   71.39
  -3   1   6 1333.67   71.29
   3  -1   6 1301.27   71.99
  -3  -1  -6 1297.47   71.49
  -3  -1  -6 1526.15   71.09
  -3   2  -6  304.57   17.00
   3   2   6  296.17   17.50
   3  -2  -6  297.97   17.40
   3   2   6  297.87   17.50
  -3   2  -6  265.87   18.90
  -3   2  -6  324.17   17.30
  -3   2  -6  274.07   17.50
   3   2   6  286.87   18.10
   3  -2  -6  306.67   18.30
  -3  -2   6  271.57   18.70
  -3  -2   6  318.97   17.10
  -3   2   6  286.67   17.90
   3   2  -6  295.37   16.80
   3  -2   6  269.27   17.90
   3  -2   6  290.67   17.20
   3  -2   6  300.07   17.80
   3   2  -6  296.77   16.80
  -3   2   6  319.27   17.60
  -3  -2  -6  266.67   18.60
  -3  -2  -6  274.07   17.40
   3  -3  -6  779.52   43.30
  -3  -3   6  655.63   44.40
  -3   3  -6  706.73   44.30
   3  -3  -6  772.32   41.80
   3   3   6  822.42   43.00
  -3   3  -6  754.72   43.20
  -3   3  -6  826.82   43.00
   3  -3  -6  842.22   43.40
  -3   3  -6  805.92   42.70
   3   3   6  825.42   43.20
  -3  -3   6  777.22   43.00
   3   3   6  790.22   43.90
   3  -3  -6  790.42   44.10
  -3  -3  -6  773.52   43.20
   3  -3   6  688.33   42.60
  -3  -3  -6  780.42   44.00
   3  -3   6  846.42   43.60
  -3   3   6  798.42   43.40
   3   3  -6  774.32   42.60
  -3   3   6  783.62   44.10
  -3  -3  -6  756.82   42.40
   3  -3   6  797.12   43.30
   3   4   6  120.39    9.90
  -3   4  -6   90.69   12.40
   3   4   6  116.09   11.00
   3   4   6  139.59   10.60
   3  -4  -6  134.19    8.00
   3  -4  -6  121.09   10.00
  -3   4  -6  133.89    9.70
  -3  -4   6  110.59    9.90
   3  -4  -6  132.29    9.60
   3  -4  -6  125.69   12.00
  -3  -4   6   99.29   12.00
  -3   4  -6  130.49   10.80
  -3   4  -6  115.69    9.80
  -3  -4  -6  125.09    8.90
   3  -4   6  139.69   10.30
   3  -4   6  115.29    9.00
   3   4  -6  127.29    9.50
  -3  -4  -6  120.39    9.60
  -3  -4  -6  117.99    7.70
  -3  -4  -6  134.29   11.60
   3  -4   6  127.59   10.10
  -3   4   6  129.79   10.60
  -3   4   6  109.49   11.00
  -3  -4  -6  137.19   10.40
  -3   5  -6  297.27   17.80
  -3   5  -6  248.28   20.30
  -3  -5   6  242.28   17.60
   3   5   6  261.17   17.60
   3  -5  -6  286.27   15.90
  -3  -5   6  212.48   19.40
   3   5   6  312.87   18.40
  -3   5  -6  263.97   18.30
   3  -5  -6  292.07   20.20
   3  -5  -6  255.47   16.80
   3  -5  -6  281.67   18.10
   3   5   6  240.18   18.30
  -3  -5  -6  279.47   18.20
   3  -5   6  268.27   17.60
  -3   5   6  268.87   18.90
  -3  -5  -6  324.07   19.00
  -3  -5  -6  284.57   17.30
   3   5  -6  255.27   17.00
  -3  -5  -6  285.47   16.90
  -3  -5  -6  254.67   15.40
   3  -5   6  298.07   17.10
   3  -5   6  261.97   17.00
   3   5  -6  251.57   20.10
  -3  -6   6   36.30   10.20
   3   6   6   40.20    7.80
   3   6   6   27.60    8.20
   3  -6  -6   47.40    7.80
  -3   6  -6   31.50    6.30
  -3   6  -6   26.80    8.30
  -3   6  -6   16.80    9.80
   3  -6  -6   42.50    9.40
  -3  -6   6   20.20    6.40
   3   6   6   22.60    6.50
  -3   6  -6   21.70    6.10
   3  -6  -6   37.60    5.80
   3  -6  -6   46.00    6.10
   3  -6   6   32.80    5.90
   3   6  -6   36.90    5.80
  -3  -6  -6   36.70    5.90
   3  -6   6   27.90    5.60
  -3  -6  -6   36.30    6.50
   3   6  -6   41.90    5.70
  -3  -6  -6   35.60    4.40
  -3  -7   6   49.40   12.60
  -3   7  -6   53.99    8.70
   3  -7  -6   67.99    8.50
   3  -7  -6   34.90   12.70
   3   7   6   59.79    9.60
   3  -7  -6   51.29    7.40
   3   7   6   81.39   12.80
  -3   7  -6   49.80    8.30
   3  -7  -6   62.79    7.90
  -3   7  -6   63.49   21.50
   3  -7  -6   67.79   11.90
  -3   7  -6   56.99   11.40
   3   7   6   38.60   10.40
  -3  -7   6   46.60    9.00
  -3  -7  -6   67.29   10.20
   3  -7   6   56.99    8.40
   3   7  -6   77.69   10.40
   3   7  -6   49.99    7.80
  -3   7   6   31.00   10.70
   3  -7   6   39.30    7.80
  -3  -7  -6   76.89    9.80
  -3  -7  -6   43.90    6.00
  -3   7   6   61.89   10.80
   3  -8  -6    7.10    6.40
  -3   8  -6   -3.80   14.70
  -3  -8   6  -10.70    7.70
   3   8   6   17.70   10.80
  -3   8  -6    0.90    7.70
   3   8   6  -13.90   19.50
   3  -8  -6   -5.10   11.50
   3  -8  -6   -4.70   15.00
   3   8   6   18.30    9.80
  -3  -8   6   34.30   12.90
   3   8  -6   11.10    7.10
   3   8  -6   16.30    7.90
  -3   8   6   11.00   12.20
  -3  -8  -6   -2.90    8.80
   3  -8   6    7.70    6.10
  -3  -8  -6    9.30    7.80
  -3  -8  -6   -1.00    7.70
  -3  -9   6   26.20   15.00
   3  -9  -6    5.40    8.50
  -3   9  -6  -11.40   10.90
   3   9   6   43.40   11.40
  -3   9  -6   -6.30   22.50
   3  -9  -6   13.50   16.20
  -3  -9   6   -9.40    9.70
   3   9   6   25.40   15.50
   3  -9   6   12.80    8.00
  -3   9   6   21.70   16.10
   3   9  -6   18.90   11.50
  -3  -9  -6   23.50   11.50
  -3  -9  -6    2.20    9.20
   4   0   6   12.30    4.00
   4   0  -6   22.00    4.00
  -4   0   6   13.10    4.10
  -4   0  -6   11.20    2.90
   4   0   6   14.40    3.00
  -4   0  -6   13.80    3.20
   4   0   6   15.70    3.60
  -4   0  -6   14.10    2.50
  -4   0   6   19.80    3.10
  -4   0  -6    9.00    4.20
   4   0  -6   13.00    2.90
  -4   0   6   14.60    3.00
   4   1   6  186.98   13.30
  -4  -1   6  197.68   14.30
  -4   1  -6  203.28   12.50
   4   1   6  212.28   13.50
  -4  -1   6  225.68   12.80
   4   1   6  189.18   12.80
   4  -1  -6  197.08   12.80
  -4   1  -6  227.58   12.40
  -4   1  -6  201.88   13.00
  -4   1  -6  177.18   14.60
   4  -1  -6  198.98   13.40
  -4  -1  -6  208.58   12.80
  -4   1   6  189.58   12.80
  -4  -1  -6  212.78   14.60
   4  -1   6  218.38   13.90
   4   1  -6  216.38   12.40
  -4   1   6  209.48   12.60
   4  -1   6  193.38   13.30
  -4  -1  -6  218.88   11.80
   4   1  -6  197.38   12.60
  -4  -1  -6  200.48   12.70
  -4  -2   6    6.70    3.40
   4  -2  -6    6.10    3.10
  -4   2  -6   10.70    3.40
   4   2   6    6.10    4.00
  -4   2  -6    6.80    3.10
   4   2   6    5.50    3.50
   4  -2  -6    5.00    3.40
   4   2   6    7.20    3.60
  -4   2  -6    4.80    2.80
  -4   2  -6    2.10    4.50
  -4  -2   6    7.10    5.20
  -4  -2  -6    7.50    3.20
   4   2  -6   10.20    2.90
  -4  -2  -6    9.90    4.70
   4  -2   6    5.50    3.20
  -4  -2  -6    1.80    3.10
   4  -2   6   -0.20    4.10
   4  -2   6    3.60    2.30
  -4   2   6    7.60    3.50
  -4  -2  -6    7.30    3.10
   4  -2   6    3.90    3.10
   4   2  -6   12.30    2.70
   4   3   6  149.19   11.20
  -4   3  -6  132.89   10.90
  -4   3  -6  117.39   13.00
   4  -3  -6  165.98   11.00
   4   3   6  129.19   11.20
   4  -3  -6  136.69   11.50
  -4   3  -6  158.18   10.60
  -4  -3   6  127.89   12.60
  -4   3  -6  161.78   10.30
  -4  -3   6  148.09   10.60
   4   3   6  152.48   10.80
   4  -3  -6  154.38   12.00
  -4  -3  -6  163.78   12.40
  -4  -3  -6  138.39   10.40
  -4   3   6  144.19   11.20
   4  -3   6  161.88   11.90
   4  -3   6  148.79   11.00
  -4  -3  -6  143.39   10.90
  -4  -3  -6  144.59   13.10
   4   4   6    6.20    4.50
  -4   4  -6   -0.60    3.40
   4   4   6   -1.80    4.80
  -4  -4   6   -2.00    4.40
   4  -4  -6    0.10    3.00
  -4  -4   6   -1.50    5.90
   4  -4  -6    1.80    4.30
   4  -4  -6    7.50    5.60
   4   4   6    1.70    4.30
  -4   4  -6    2.70    3.90
  -4   4  -6    4.30    6.40
  -4   4  -6    7.20    5.10
  -4  -4  -6   -2.40    4.30
   4   4  -6    3.20    3.50
   4   4  -6   -4.60    3.10
  -4   4   6    1.80    4.60
  -4  -4  -6   -3.50    3.70
  -4  -4  -6    1.70    5.10
   4  -4   6   -0.60    2.50
  -4   4   6    5.30    4.40
  -4  -4  -6   -1.80    3.80
   4  -4   6    3.50    4.40
   4  -4   6    3.60    4.20
  -4  -5   6   78.79   12.30
  -4  -5   6   71.99    9.90
  -4   5  -6  103.39   10.00
   4  -5  -6   94.39    7.30
   4   5   6   86.79   10.80
   4  -5  -6  111.69   10.20
   4  -5  -6  100.09   13.60
  -4   5  -6  107.19    9.80
   4  -5  -6   86.69    8.60
   4   5   6   92.69   10.00
  -4   5  -6   86.39   14.40
  -4   5  -6   90.59   11.10
   4   5   6   77.59   10.90
   4  -5   6   86.79    8.40
   4   5  -6   91.59    8.80
   4  -5   6   86.99   10.40
  -4  -5  -6  101.99   10.80
   4  -5   6   99.09    9.80
  -4  -5  -6   92.59    8.90
  -4  -5  -6   86.49    9.30
   4   5  -6   89.39    8.80
  -4   5   6   88.39   11.60
  -4   5   6  109.79   11.60
   4  -6  -6    3.40    3.70
  -4   6  -6   -0.40    9.30
   4  -6  -6    4.00    4.50
   4   6   6    2.80    7.10
   4   6   6   -4.80    6.30
   4  -6  -6    3.90    6.00
  -4  -6   6   -3.30    8.10
   4   6   6    3.90    6.50
   4  -6  -6   10.90    9.10
  -4   6  -6   12.90    7.90
  -4  -6   6    1.90    5.80
  -4   6  -6   -0.70    5.70
  -4   6  -6    2.50    5.60
   4  -6   6    7.60    6.30
   4   6  -6    1.10    4.10
  -4  -6  -6   -1.70    4.80
   4  -6   6    1.70    4.70
  -4   6   6    2.70    7.10
  -4  -6  -6    7.70    5.30
   4   6  -6    0.40    4.70
  -4   6   6    4.30    7.70
   4  -7  -6   55.99    7.80
   4   7   6   29.40    9.10
   4  -7  -6   45.60    7.60
   4  -7  -6   59.69    9.90
  -4  -7   6   42.30   11.50
   4   7   6   47.80    9.90
  -4   7  -6   47.50   12.20
  -4   7  -6   50.29    8.90
  -4   7  -6   40.60   13.40
   4   7   6   32.60   10.80
  -4  -7   6   33.80    9.00
  -4   7  -6   36.30    8.50
   4  -7  -6   39.10   13.00
  -4   7   6   46.90   10.50
   4   7  -6   39.60    8.00
   4  -7   6   58.49    8.70
   4   7  -6   43.70    7.00
  -4  -7  -6   42.60    7.90
  -4   8  -6   -3.60    8.70
   4  -8  -6   13.60   11.40
   4   8   6   -7.30   10.70
  -4   8  -6  -21.50   15.80
   4   8   6  -12.20   10.80
  -4  -8   6    4.10   12.80
   4  -8  -6   -1.20    5.80
  -4  -8   6  -10.10    8.10
   4  -8  -6  -13.60   17.00
  -4   8   6   -0.90   12.40
   4   8  -6   -0.50    7.60
   4   8  -6    5.40    8.80
   4  -8   6    7.90    6.30
  -4  -8  -6   10.20    8.80
  -4   9  -6    5.80   24.00
   4  -9  -6    9.60   15.90
   4   9   6  -18.80   16.30
  -4   9  -6    1.10   18.90
   4   9  -6   22.30   14.90
   4   9  -6    4.80   10.80
  -4  -9  -6   22.20    9.50
  -4   9   6    4.60   17.80
   5   0   6 1638.84   89.59
  -5   0  -6 1660.23   88.89
   5   0  -6 1694.63   88.79
   5   0   6 1582.04   88.89
   5   0  -6 1647.64   89.19
  -5   0  -6 1632.84   88.69
  -5   0  -6 1702.23   88.19
  -5   0  -6 1571.04   88.79
  -5   0  -6 1625.14   90.29
  -5   0   6 1693.13   88.59
  -5   0   6 1647.84   89.99
  -5   0   6 1687.83   88.29
   5   0   6 1702.23   89.59
   5  -1  -6   54.09    7.10
  -5  -1   6   67.39    6.10
   5   1   6   65.99    7.80
  -5  -1   6   57.29    7.90
   5   1   6   67.39    7.00
   5   1   6   61.29    6.70
  -5   1  -6   57.69    6.20
  -5   1  -6   61.59    6.80
  -5   1  -6   53.69    5.70
  -5   1  -6   49.00    7.80
  -5   1  -6   57.69    6.20
   5  -1  -6   58.29    6.20
  -5  -1  -6   52.59    6.20
   5  -1   6   67.69    7.00
   5  -1   6   66.79    8.10
  -5  -1  -6   62.49    6.50
   5   1  -6   58.09    5.70
   5  -1   6   67.39    6.90
  -5  -1  -6   52.09    5.90
  -5   1   6   48.60    6.30
  -5   1   6   61.89    6.30
  -5  -1  -6   62.29    8.60
  -5  -1  -6   61.79    4.60
   5   1  -6   64.19    6.40
   5   2   6 1135.09   66.99
   5  -2  -6 1164.58   67.29
  -5   2  -6 1250.07   66.19
   5   2   6 1264.37   66.79
   5  -2  -6 1063.69   68.89
  -5  -2   6 1135.39   67.99
  -5   2  -6 1188.28   66.79
   5   2   6 1255.37   66.79
  -5  -2   6 1244.38   66.19
  -5   2  -6 1270.37   66.39
  -5   2  -6 1128.09   68.19
   5  -2  -6 1288.77   66.69
  -5   2   6 1280.17   66.59
   5   2  -6 1204.18   66.09
  -5  -2  -6 1235.98   66.59
  -5   2   6 1243.88   66.89
   5   2  -6 1296.97   65.79
   5  -2   6 1190.28   67.59
   5  -2   6 1268.27   66.59
   5  -2   6 1212.28   65.99
  -5  -2  -6 1305.27   67.79
  -5  -2  -6 1215.58   66.39
   5  -2   6 1312.67   67.49
   5  -3  -6   31.50    6.50
   5  -3  -6   38.30    5.60
   5   3   6   37.60    5.80
  -5   3  -6   33.30    5.40
  -5   3  -6   35.10    5.10
   5  -3  -6   44.20    6.70
  -5  -3   6   47.80    6.20
  -5   3  -6   42.40    6.10
  -5   3  -6   38.80    5.20
   5   3   6   50.49    7.40
  -5  -3   6   41.20    8.30
  -5   3  -6   33.80    7.80
   5   3   6   30.90    6.60
  -5  -3  -6   45.10    6.80
  -5  -3  -6   42.40    6.00
   5   3  -6   38.30    5.70
  -5   3   6   37.10    6.10
   5  -3   6   37.70    5.90
   5  -3   6   41.80    5.20
  -5  -3  -6   37.70    6.50
   5  -3   6   55.39    8.70
  -5   3   6   43.20    6.30
  -5  -3  -6   36.80    6.40
  -5   4  -6  559.14   32.60
   5   4   6  507.65   33.20
   5   4   6  641.94   33.60
   5  -4  -6  544.55   32.40
  -5   4  -6  560.64   33.30
  -5  -4   6  599.34   33.10
   5  -4  -6  563.04   32.90
  -5  -4   6  489.45   34.60
   5  -4  -6  590.24   34.50
   5   4   6  583.24   32.60
  -5   4  -6  624.14   32.60
  -5   4  -6  513.15   35.00
  -5   4  -6  600.64   31.40
  -5  -4  -6  567.04   32.60
  -5   4   6  513.25   33.20
  -5   4   6  557.64   33.50
   5   4  -6  562.54   32.40
  -5  -4  -6  567.34   32.30
   5  -4   6  598.04   33.20
   5  -4   6  538.85   32.00
  -5  -4  -6  566.24   32.10
   5  -4   6  587.34   33.20
   5   4  -6  556.04   32.20
  -5  -4  -6  630.54   33.20
  -5  -5   6   16.10    6.00
   5   5   6   24.60    6.00
  -5   5  -6   16.40    8.60
  -5   5  -6   20.50    5.80
   5  -5  -6   21.00    7.50
   5   5   6   20.30    6.70
   5  -5  -6   13.60    5.90
  -5  -5   6   22.70    8.90
  -5   5  -6   18.70    7.00
   5  -5  -6   15.50    4.70
  -5   5  -6   20.10    5.50
   5   5   6   18.80    6.10
   5  -5   6   18.70    4.20
  -5  -5  -6   15.60    5.50
  -5  -5  -6   17.00    5.70
   5  -5   6   24.10    6.30
   5   5  -6   14.70    4.80
  -5   5   6   21.60    6.80
   5  -5   6   19.50    6.10
  -5   5   6   24.50    6.60
   5   5  -6   12.90    4.40
   5   6   6  175.88   15.30
  -5  -6   6  126.79   16.10
   5  -6  -6  165.68   13.40
  -5   6  -6  148.59   20.60
  -5   6  -6  151.98   17.20
  -5   6  -6  195.88   14.90
  -5  -6   6  154.18   15.10
   5   6   6  220.58   16.50
  -5   6  -6  187.58   15.30
   5  -6  -6  187.28   12.00
   5  -6  -6  191.98   15.20
   5   6   6  150.38   16.30
   5  -6  -6  204.68   20.00
   5  -6   6  185.78   16.30
  -5   6   6  128.89   16.70
   5   6  -6  172.28   14.00
  -5   6   6  164.78   16.90
  -5  -6  -6  191.18   13.50
   5  -6   6  157.58   13.20
  -5  -6  -6  195.98   15.60
   5   6  -6  170.28   13.20
   5   6  -6  178.08   15.30
  -5   7  -6   10.20   12.90
   5   7   6    6.00   10.50
   5  -7  -6    8.70    5.10
   5  -7  -6    3.50    8.50
  -5   7  -6    4.40    7.30
   5  -7  -6    8.00   13.90
   5   7   6    6.50    9.70
  -5  -7   6  -11.30    8.50
   5   7   6    2.40    8.10
  -5   7  -6    8.90   11.80
  -5  -7  -6   -0.90    6.90
   5  -7   6   11.70    9.20
   5   7  -6    3.70    7.60
   5   7  -6   24.80    8.60
  -5   7   6   11.40    9.80
   5   7  -6    8.40    5.70
  -5  -7  -6   15.30    6.70
   5  -7   6   14.30    8.00
  -5   8  -6   53.49   11.10
   5   8   6   50.29   12.10
  -5  -8   6   35.40   11.00
  -5  -8   6   23.40   14.00
  -5   8  -6   22.40   18.20
   5  -8  -6   28.90    7.20
   5   8   6   43.70   12.50
   5  -8  -6   13.00   23.00
   5  -8  -6   42.20   12.90
   5   8  -6   37.40    8.80
   5  -8   6   46.80    8.40
   5   8  -6   62.39   11.10
  -5  -8  -6   36.80    9.20
   5   8  -6   56.99   12.50
  -5   8   6   34.60   13.70
  -5  -8  -6   37.30   10.20
  -6   0  -6  387.36   22.90
  -6   0   6  399.56   24.40
   6   0   6  388.46   23.60
  -6   0  -6  400.26   22.90
   6   0   6  374.16   23.10
  -6   0   6  427.46   22.20
  -6   0   6  380.46   22.60
   6   0   6  395.06   24.20
  -6   0  -6  397.76   22.00
  -6   0  -6  383.96   24.90
   6   0  -6  404.86   22.80
   6   0  -6  391.86   23.50
  -6   1  -6 1549.34   84.69
  -6   1  -6 1444.16   86.49
   6   1   6 1501.55   85.09
  -6   1  -6 1499.25   85.59
   6  -1  -6 1638.24   84.99
  -6   1  -6 1561.34   84.99
   6   1   6 1511.55   85.89
  -6  -1   6 1657.93   84.49
   6   1   6 1688.33   85.69
  -6  -1   6 1529.45   86.59
  -6   1  -6 1574.94   84.29
   6  -1  -6 1573.84   87.09
   6  -1   6 1556.14   84.19
   6  -1   6 1564.04   85.89
  -6   1   6 1637.74   84.59
  -6  -1  -6 1521.85   84.89
   6   1  -6 1542.65   84.89
   6   1  -6 1667.03   84.49
   6  -1   6 1582.34   85.69
  -6  -1  -6 1640.44   86.39
   6  -1   6 1499.65   84.89
  -6  -1  -6 1528.55   84.89
  -6  -1  -6 1683.23   84.79
  -6   1   6 1600.14   84.99
  -6   2  -6  300.07   17.40
  -6  -2   6  269.47   19.70
  -6   2  -6  263.97   17.80
   6  -2  -6  292.97   19.00
   6   2   6  259.77   18.20
  -6   2  -6  270.87   20.20
  -6  -2   6  296.57   17.60
   6   2   6  297.47   18.60
   6  -2  -6  258.67   17.60
  -6   2  -6  280.17   17.00
   6  -2  -6  280.67   18.10
  -6   2  -6  293.67   17.10
   6   2   6  285.67   18.00
  -6  -2  -6  265.77   17.60
   6   2  -6  292.77   16.70
  -6  -2  -6  314.47   17.60
   6  -2   6  280.67   18.80
  -6   2   6  274.27   18.00
  -6  -2  -6  282.37   19.10
   6   2  -6  287.07   17.20
   6  -2   6  290.17   16.70
   6  -2   6  290.17   18.30
  -6  -2  -6  276.47   17.60
   6  -2   6  295.27   17.90
  -6   2   6  281.27   16.90
  -6   2   6  307.27   17.90
   6   3   6 1100.29   57.99
  -6   3  -6  988.80   57.79
  -6  -3   6  926.81   59.29
   6  -3  -6 1022.90   58.89
  -6   3  -6 1058.69   56.59
  -6  -3   6 1066.09   57.49
   6  -3  -6 1074.29   57.69
  -6   3  -6 1028.00   57.19
  -6   3  -6 1118.09   57.39
  -6   3  -6  956.90   59.49
   6   3   6  940.91   57.69
   6   3   6 1139.39   57.89
   6  -3  -6 1072.29   57.79
  -6   3   6 1045.20   57.09
   6  -3   6 1065.19   58.49
  -6  -3  -6 1115.99   58.19
   6  -3   6 1057.19   58.19
   6   3  -6 1048.40   57.29
  -6  -3  -6 1023.70   57.49
   6  -3   6  990.60   56.79
  -6   3   6 1096.19   57.99
  -6  -3  -6 1091.79   57.09
  -6   3   6  995.40   58.09
  -6  -4   6  123.19   11.50
   6  -4  -6  138.69   13.60
   6  -4  -6  115.69   10.70
  -6   4  -6  119.59   10.80
  -6  -4   6  102.89   13.50
   6   4   6  123.99   12.00
  -6   4  -6  107.49   14.50
   6   4   6   99.09   11.60
  -6   4  -6  119.19   10.30
  -6   4  -6  126.79   12.00
   6   4   6  131.39   11.20
   6  -4  -6  126.89    9.90
   6  -4   6  112.99   11.90
   6   4  -6   93.09    9.40
   6  -4   6  113.59   11.40
  -6   4   6  115.59   12.00
  -6  -4  -6  106.39    9.80
  -6  -4  -6  110.69   10.30
   6  -4   6  113.59    9.20
  -6   4   6  115.49   12.00
   6  -5  -6  480.95   29.90
   6  -5  -6  449.56   27.40
  -6   5  -6  457.15   29.30
   6   5   6  479.85   28.20
  -6   5  -6  482.35   28.00
   6   5   6  437.36   29.00
  -6  -5   6  430.86   28.60
   6  -5  -6  448.76   30.90
  -6   5  -6  386.06   30.10
  -6   5   6  485.05   29.60
   6  -5   6  492.65   29.00
  -6   5   6  445.36   29.60
   6   5  -6  471.15   27.30
   6  -5   6  418.46   27.00
   6   5  -6  468.45   27.60
  -6  -5  -6  465.25   27.50
  -6  -5  -6  521.45   28.10
   6  -5   6  519.25   28.90
  -6   6  -6   22.30    7.10
  -6   6  -6   47.10   10.60
   6  -6  -6   33.30    5.40
   6   6   6   25.80    9.20
  -6   6  -6   42.60    7.70
  -6   6  -6   21.60   12.30
  -6  -6   6   30.90   10.70
   6   6   6   28.70    8.30
   6   6   6   43.80    9.30
   6  -6  -6   33.10   11.30
  -6  -6   6   28.70    8.90
   6  -6  -6   36.60    8.40
   6  -6  -6   23.30    6.00
  -6   6   6   29.00    9.80
   6   6  -6   28.80    7.30
   6  -6   6   41.00    8.80
  -6   6   6   40.30    9.70
   6  -6   6   28.30    5.70
   6   6  -6   26.70    6.00
   6   6  -6   31.60    6.90
   6  -6   6   32.30    8.30
  -6  -6  -6   34.20    7.00
  -6  -6  -6   30.20    7.50
   6  -7  -6  165.98   12.80
  -6   7  -6  165.68   17.10
   6  -7  -6  215.58   34.90
  -6   7  -6  131.09   19.30
  -6  -7   6  123.19   17.70
   6  -7  -6  179.18   17.30
  -6  -7   6  130.69   19.30
   6  -7   6  214.58   19.70
   6   7  -6  168.48   17.90
  -6  -7  -6  179.88   15.20
   6   7  -6  142.99   14.10
  -6   7   6  171.38   19.80
  -6  -7  -6  187.28   16.50
   6   7  -6  167.08   16.90
   6  -7   6  142.89   19.70
   6  -8  -6    4.90   12.20
  -6  -8   6   20.60   15.30
   6   8   6   -2.60   12.80
  -6  -8   6  -13.40    9.40
   6  -8  -6    7.60    6.30
  -6   8  -6  -16.70   18.80
  -6   8  -6   14.90   10.60
   6  -8   6   23.80   13.30
   6   8  -6   -6.40    8.50
   6   8  -6   10.80   11.40
   6   8  -6   11.40   14.90
  -6   8   6   13.00   13.80
  -6  -8  -6    6.80   10.90
  -6  -8  -6   13.50    9.30
  -7   0  -6    8.30    3.70
  -7   0   6    1.30    3.00
   7   0   6    5.30    3.90
   7   0  -6   12.20    4.60
  -7   0  -6    3.70    2.60
  -7   0  -6    0.10    5.70
  -7   0   6   16.30    5.30
   7   0  -6    5.10    3.40
  -7   0  -6    2.50    3.30
   7   0   6    6.20    4.10
   7   0   6    2.60    5.20
  -7   0   6    6.30    3.40
  -7   0  -6   -0.80    3.40
  -7   1  -6 1083.49   55.99
   7  -1  -6  960.50   56.69
   7   1   6 1139.99   57.09
   7   1   6 1060.79   56.69
  -7   1  -6 1016.50   55.19
  -7   1  -6 1024.50   55.89
  -7  -1   6  998.20   57.89
  -7   1  -6 1003.50   55.59
  -7   1  -6  978.40   57.89
   7  -1  -6 1038.70   55.89
   7   1   6  987.50   56.09
  -7  -1  -6  998.30   55.89
   7  -1   6 1005.90   54.89
   7  -1   6  993.80   56.09
   7   1  -6  933.61   55.89
  -7   1   6 1024.10   55.39
   7   1  -6 1061.19   55.39
  -7  -1  -6 1057.39   57.39
   7  -1   6  998.00   56.69
   7  -1   6 1060.09   57.29
  -7   1   6  999.00   55.89
  -7  -1  -6 1010.60   55.89
  -7  -1  -6 1007.00   55.49
  -7   1   6  979.00   54.89
  -7   2  -6   -1.30    4.00
  -7  -2   6    7.20    5.00
  -7   2  -6    7.80    6.90
  -7   2  -6    4.90    3.70
   7   2   6    7.40    5.60
  -7   2  -6   -3.50    3.60
  -7  -2   6    1.90    5.80
   7  -2  -6    4.10    3.80
   7  -2  -6    0.00    3.80
   7   2   6   -0.80    4.40
   7   2   6    0.70    4.70
  -7   2  -6    4.90    3.40
   7  -2  -6    5.70    5.40
  -7   2   6    5.40    3.40
   7  -2   6    4.60    5.30
   7  -2   6    0.60    4.40
  -7  -2  -6   -4.70    3.80
   7  -2   6   -1.20    2.70
   7   2  -6    4.00    3.70
  -7  -2  -6   -0.60    3.50
   7   2  -6    3.60    3.20
  -7  -2  -6   -4.20    3.90
  -7   2   6    3.50    4.20
   7  -2   6    7.70    4.70
   7   2  -6    5.40    3.20
  -7   2   6    5.00    4.80
  -7  -2  -6    1.30    5.40
  -7   3  -6  619.84   33.80
  -7  -3   6  617.14   35.30
  -7   3  -6  569.04   37.70
  -7   3  -6  631.24   34.70
   7  -3  -6  585.64   35.00
  -7   3  -6  606.14   35.30
   7  -3  -6  596.74   35.00
   7   3   6  586.44   35.30
  -7   3  -6  605.24   34.60
   7  -3  -6  583.74   36.60
   7   3   6  634.84   35.60
  -7  -3   6  574.74   37.00
   7   3   6  636.84   35.50
   7   3  -6  622.74   34.60
  -7  -3  -6  607.04   34.80
  -7   3   6  571.14   34.40
   7  -3   6  648.74   36.30
  -7  -3  -6  618.54   34.30
  -7  -3  -6  659.63   35.60
   7  -3   6  581.94   33.90
   7  -3   6  584.44   35.70
  -7   3   6  621.94   35.30
  -7   3   6  599.24   35.80
  -7   4  -6    6.80    8.80
  -7  -4   6   -0.30    7.40
  -7  -4   6    6.30    5.60
   7   4   6   -9.60    5.80
  -7   4  -6    5.20    5.90
  -7   4  -6    2.30    4.80
   7  -4  -6   12.90    4.00
   7   4   6    8.80    6.40
   7   4   6    0.10    5.70
   7  -4  -6    3.10    6.20
  -7   4  -6    4.70    3.50
  -7   4  -6   -1.80    5.00
   7  -4  -6   12.60    7.20
  -7  -4  -6   -2.80    4.60
  -7   4   6   -1.90    5.10
  -7  -4  -6    2.70    4.10
   7   4  -6   -1.60    3.80
   7  -4   6   -2.50    6.00
  -7   4   6   -0.20    6.00
   7  -4   6    3.80    5.60
   7  -4   6    2.60    3.40
  -7   4   6   -4.60    6.30
   7  -5  -6  233.18   20.50
   7   5   6  240.08   17.30
  -7   5  -6  245.98   16.30
  -7  -5   6  208.48   17.20
  -7  -5   6  171.08   18.40
  -7   5  -6  235.58   18.80
  -7   5  -6  165.18   21.50
   7  -5  -6  216.68   16.50
  -7   5  -6  203.18   16.50
   7  -5  -6  208.58   15.30
   7   5   6  221.98   18.00
   7  -5   6  207.68   14.60
  -7  -5  -6  217.08   15.90
  -7   5   6  203.78   18.10
  -7   5   6  215.18   17.00
  -7  -5  -6  212.08   15.40
   7   5  -6  204.58   15.40
  -7   5   6  186.88   19.10
   7   5  -6  203.88   15.00
   7  -5   6  221.28   26.10
   7  -5   6  238.18   18.20
   7   6   6   -7.70    8.70
  -7   6  -6    7.20   11.70
  -7  -6   6    4.20    7.70
   7  -6  -6   -4.50    7.90
  -7   6  -6   -0.90    7.10
  -7  -6   6    7.60    9.50
   7  -6  -6   -1.10   12.70
   7   6   6    1.90    8.00
   7   6   6   -8.10    8.10
  -7   6   6    4.30    9.00
   7  -6   6   -0.30    9.10
  -7  -6  -6  -11.10    6.10
   7   6  -6    2.10    5.40
   7   6  -6    3.60    6.70
  -7  -6  -6   -9.20    6.70
   7  -6   6    2.40    8.30
  -7   7  -6   53.49   10.90
  -7   7  -6   44.20   15.40
  -7  -7   6   54.99   13.10
   7  -7  -6   63.99   12.20
  -7  -7   6   30.90   10.30
   7   7   6   67.09   12.80
   7   7   6   53.39   11.90
   7   7   6   44.00   13.30
   7  -7  -6   64.69    9.10
   7  -7   6   66.89   13.40
   7   7  -6   42.60    8.20
  -7   7   6   52.49   13.00
  -7  -7  -6   48.00    9.70
   7  -7   6   69.19   12.20
  -7  -7  -6   62.49   10.80
   7   7  -6   49.80   11.10
   7  -8  -6   -3.30   12.80
   7   8   6  -15.80   13.10
  -7   8  -6   32.50   21.10
  -7  -8   6  -13.00   10.40
  -7   8  -6   12.90   11.80
  -7  -8   6   13.70   14.00
   7   8   6    4.50   14.70
   7  -8  -6   11.60    8.50
  -7   8   6    6.40   14.50
   7   8  -6   -6.00    9.20
  -7  -8  -6   10.80    9.80
   7  -8   6    4.10   12.70
  -7  -8  -6   12.40   12.00
   7   8  -6  -15.80   12.70
  -8   0   6   58.69    6.70
   8   0  -6   56.09    7.40
   8   0   6   57.19    8.70
  -8   0  -6   57.19    7.50
   8   0  -6   57.89    7.80
  -8   0  -6   56.59    9.10
   8   0   6   50.59    6.80
   8   0  -6   67.99    7.40
  -8   0   6   61.49    9.40
  -8   0  -6   51.79    6.30
   8   0   6   76.99    8.70
  -8   0  -6   47.40    7.20
  -8   0  -6   51.49    7.50
   8   1   6  845.22   48.10
  -8   1  -6  868.11   47.80
   8   1   6  826.92   48.50
   8  -1  -6  886.61   49.20
  -8   1  -6  842.42   47.40
   8   1   6  858.21   49.20
  -8  -1   6  806.22   49.90
   8  -1  -6  830.62   48.40
  -8   1  -6  902.31   47.20
  -8   1  -6  819.62   47.80
   8  -1  -6  904.71   47.90
   8  -1   6  847.02   46.70
  -8   1   6  890.51   47.30
  -8   1   6  854.51   48.00
  -8  -1  -6  881.11   49.50
   8   1  -6  827.52   48.10
  -8  -1  -6  810.72   47.60
   8  -1   6  889.11   48.30
   8  -1   6  899.21   49.50
   8  -1   6  860.11   48.70
   8   1  -6  877.21   47.70
   8   1  -6  888.71   47.40
  -8  -1  -6  840.32   47.90
  -8   1   6  842.82   46.80
  -8   2  -6   37.20    6.40
   8   2   6   38.70    7.70
   8  -2  -6   42.70    6.10
   8   2   6   35.60    6.50
   8  -2  -6   42.60    6.20
  -8  -2   6   36.90    8.20
  -8   2  -6   32.60    5.50
  -8  -2   6   52.49    7.10
   8   2   6   38.60    6.40
   8  -2  -6   36.60    7.60
  -8   2  -6   42.00    5.90
  -8   2  -6   40.50    9.10
  -8   2  -6   43.60    6.20
   8   2  -6   41.10    6.90
  -8  -2  -6   43.80    6.30
  -8  -2  -6   29.00    5.90
  -8  -2  -6   38.90    8.10
   8  -2   6   34.60    4.50
   8  -2   6   41.50    6.60
  -8   2   6   25.80    6.80
   8  -2   6   33.50    7.60
  -8   2   6   41.80    5.50
   8   2  -6   37.60    5.30
  -8   2   6   35.70    6.30
  -8  -2  -6   48.20    7.40
   8  -2   6   43.80    6.70
   8   2  -6   45.20    6.40
  -8   3  -6  580.34   33.40
   8  -3  -6  617.64   34.00
   8  -3  -6  544.75   35.60
   8   3   6  532.85   34.20
  -8   3  -6  610.24   32.60
   8   3   6  574.54   34.50
  -8   3  -6  512.65   33.90
  -8  -3   6  619.54   34.10
   8  -3  -6  568.94   33.40
  -8   3  -6  553.34   37.10
   8   3   6  563.04   34.90
  -8  -3   6  559.34   36.20
  -8   3  -6  592.64   33.50
   8  -3   6  579.44   34.70
  -8  -3  -6  609.04   34.20
   8  -3   6  556.14   32.50
   8  -3   6  622.34   35.40
  -8   3   6  606.44   34.30
  -8  -3  -6  570.94   33.70
  -8  -3  -6  531.75   33.60
   8   3  -6  584.94   33.30
  -8  -3  -6  628.84   33.10
  -8   3   6  566.34   33.20
  -8   3   6  570.64   34.80
   8  -4  -6    9.30    8.40
   8   4   6    4.20    6.50
  -8  -4   6    6.70    7.90
   8  -4  -6   22.20    5.20
  -8   4  -6    4.70    5.30
   8   4   6   11.00    6.60
   8  -4  -6    5.30    5.60
  -8   4  -6    9.00    4.30
  -8   4  -6    6.70    9.70
  -8   4  -6   -3.70    7.00
  -8   4  -6   17.50    6.00
   8   4   6   13.20    7.70
  -8  -4   6   -0.80    7.10
  -8   4   6    8.80    5.80
   8  -4   6   13.00    7.10
   8  -4   6   11.90    4.30
  -8   4   6   15.60    7.00
   8   4  -6    6.10    4.00
   8  -4   6   15.40    7.00
  -8  -4  -6   15.30    5.80
  -8   4   6   14.60    7.60
   8  -5  -6  276.17   19.70
  -8   5  -6  296.27   25.00
   8   5   6  201.78   20.20
   8   5   6  297.07   21.20
  -8   5  -6  278.07   24.90
  -8   5  -6  255.37   19.00
   8  -5  -6  254.77   18.10
   8  -5  -6  312.77   24.10
  -8  -5   6  267.17   20.20
  -8   5  -6  275.07   19.90
   8  -5  -6  236.18   17.30
   8   5   6  284.87   21.00
  -8   5   6  259.87   19.80
  -8   5   6  276.17   21.30
   8   5  -6  245.48   18.20
   8  -5   6  226.88   17.40
   8   5  -6  262.17   17.80
  -8  -5  -6  243.08   18.60
   8  -5   6  276.77   20.60
   8  -5   6  252.87   21.20
  -8  -5  -6  288.77   18.40
  -8   5   6  257.67   22.20
   8   6   6   18.80    9.50
  -8   6  -6    0.10   12.70
   8  -6  -6    2.50    5.40
  -8  -6   6   -2.30   12.30
  -8   6  -6   -6.30    8.40
   8  -6  -6    3.90    8.40
   8   6   6   -8.40   10.40
   8   6   6   -0.40    8.70
  -8  -6  -6    4.20    7.70
   8   6  -6    0.80   10.60
   8  -6   6   23.80   11.60
  -8  -6  -6   -3.20    7.10
  -8   6   6  -17.50    9.30
  -8   6   6   -5.00   13.60
   8  -6   6   -5.10    8.90
  -8   7  -6   74.19   19.40
   8   7   6   70.99   16.40
  -8   7  -6  103.29   13.90
   8   7   6   68.19   14.00
   8  -7  -6  111.29   15.00
  -8  -7   6   78.19   13.70
  -8  -7   6   69.09   16.40
  -8  -7  -6  130.69   17.30
   8   7  -6   88.39   11.90
   8   7  -6   89.09   13.40
  -8   7   6   92.99   15.00
   8  -7   6   73.49   17.30
  -8  -7  -6   69.39   11.30
   9   0  -6  354.46   20.90
   9   0   6  402.26   24.20
   9   0   6  318.97   21.90
  -9   0   6  331.47   23.30
  -9   0  -6  317.07   20.70
  -9   0  -6  351.46   20.20
   9   0   6  329.37   21.60
  -9   0  -6  309.27   21.10
  -9   0  -6  327.07   20.80
   9   0  -6  332.97   22.70
   9   0  -6  354.46   20.80
  -9   0  -6  338.27   24.00
   9   0   6  315.37   19.00
   9   1   6   26.30    6.00
  -9   1  -6   31.20    6.40
  -9   1  -6   36.90    5.80
   9  -1  -6   26.20    5.80
   9  -1  -6   37.40    5.70
   9  -1  -6   34.30    7.80
  -9   1  -6   45.80    7.40
  -9  -1   6   27.70    8.30
  -9   1  -6   32.50    9.00
   9   1   6   39.30    7.40
  -9   1  -6   34.30    5.70
   9  -1  -6   32.10    5.90
   9   1   6   34.20    8.70
   9   1  -6   35.60    5.50
   9  -1   6   33.10    6.50
  -9   1   6   32.90    6.30
  -9   1   6   34.60    5.20
   9  -1   6   36.70    7.20
   9  -1   6   41.70    7.70
   9   1  -6   42.40    5.90
  -9  -1  -6   30.70    8.30
  -9   1   6   43.20    6.10
   9   1  -6   41.20    7.20
  -9  -1  -6   34.80    6.00
  -9  -1  -6   41.50    6.50
   9  -1   6   39.40    5.40
  -9  -1  -6   40.40    6.40
   9  -2  -6  263.47   17.00
   9  -2  -6  252.67   17.00
  -9  -2   6  230.08   19.30
  -9   2  -6  237.88   16.50
  -9   2  -6  245.48   16.70
  -9   2  -6  222.48   21.00
   9  -2  -6  244.48   19.70
  -9   2  -6  267.47   16.30
   9   2   6  246.68   18.00
   9  -2  -6  243.58   16.10
  -9   2  -6  265.87   17.70
   9   2   6  237.58   19.30
  -9  -2  -6  253.97   19.00
   9  -2   6  232.28   15.10
   9   2  -6  233.88   18.10
   9  -2   6  241.98   17.90
  -9  -2  -6  222.08   17.40
  -9   2   6  255.67   18.20
  -9   2   6  227.68   16.80
  -9   2   6  252.47   17.30
   9   2  -6  249.38   15.90
  -9  -2  -6  234.38   16.70
   9   2  -6  260.57   16.60
   9  -3  -6   27.80    6.20
  -9   3  -6   34.20    7.10
   9   3   6   15.00    7.10
   9  -3  -6   18.60    4.90
  -9  -3   6   18.70    7.30
  -9  -3   6   21.60    8.80
  -9   3  -6   31.20    5.40
  -9   3  -6   17.20    5.40
  -9   3  -6   13.20   10.10
   9  -3  -6   16.70    5.10
   9  -3  -6   25.80    8.00
   9   3   6   17.50    6.30
   9   3   6   27.30    8.70
  -9   3  -6   31.40    7.90
   9  -3   6   23.40    8.20
   9  -3   6   22.60    4.50
  -9   3   6   19.70    6.70
  -9   3   6   17.00    6.00
  -9  -3  -6   32.00    6.90
  -9  -3  -6   15.30    6.40
   9  -3   6   22.90    7.30
  -9   3   6   17.60    8.30
   9   3  -6   12.30    4.60
  -9   4  -6   93.49   12.20
   9   4   6  105.09   13.20
  -9   4  -6  116.69   18.40
   9  -4  -6  124.89   17.40
   9  -4  -6  100.19   11.10
   9   4   6  108.99   14.00
   9  -4  -6  100.49   12.50
  -9   4  -6  119.79   13.20
  -9  -4   6  120.39   13.30
  -9  -4   6   90.69   15.30
   9   4   6  112.79   13.70
  -9   4  -6   81.09   11.30
  -9   4  -6  125.99   10.30
   9  -4  -6  105.49   10.40
   9  -4   6  106.19   10.20
   9  -4   6  135.79   15.00
  -9   4   6   95.89   13.60
  -9  -4  -6  102.39   11.90
   9  -4   6  100.79   14.70
  -9   4   6   98.29   14.50
  -9   4   6  102.89   13.40
   9   4  -6  115.79   10.60
  -9   5  -6    1.90   12.70
   9  -5  -6    4.90    5.50
   9   5   6   -4.00    9.70
  -9  -5   6   13.80    9.00
   9   5   6    2.10   10.20
   9  -5  -6    1.10    7.60
  -9   5  -6    4.20    8.10
  -9  -5   6   18.40   10.50
   9   5   6   11.20    8.10
   9  -5   6    8.60    8.90
  -9   5   6   21.50    9.60
   9   5  -6    6.40    5.70
  -9  -5  -6   23.60    7.50
   9  -5   6   21.90   10.60
  -9   5   6    4.70    8.80
  -9  -6   6   18.90   12.40
   9   6   6   33.30   11.20
   9   6   6   38.80   13.10
  -9  -6   6   37.80   11.00
  -9   6  -6   33.90   15.20
  -9   6  -6    6.30    9.60
   9  -6  -6   17.60    9.30
   9   6   6   44.50   12.50
  -9  -6  -6   32.80    9.80
  -9  -6  -6   26.40    9.30
   9   6  -6   26.70    7.60
   9  -6   6   26.70   11.00
  -9   6   6   44.60   12.10
  -9   7  -6    2.50   12.60
  -9  -7   6   -7.40   12.40
  -9   7  -6   -2.00   18.50
  -9  -7   6    0.80   10.90
   9   7   6    1.90   12.00
   9   7   6    8.70   14.50
   9  -7  -6   12.70   12.90
   9   7  -6   -0.10    7.90
  -9  -7  -6   -7.30    9.00
  -9  -7  -6   15.40   11.20
  -9   7   6   34.20   14.30
   9   7  -6    2.30    9.60
 -10   0  -6    5.00    5.50
 -10   0   6   -3.70    4.00
 -10   0  -6    5.80    8.20
  10   0  -6    1.30    6.90
  10   0   6    2.30    3.00
  10   0  -6    2.30    4.20
 -10   0  -6   -4.00    5.10
 -10   0  -6   -4.20    4.70
  10   0  -6    2.90    5.10
  10   0   6    3.80    6.40
  10   0  -6    5.70    5.50
  10   0   6   -8.80    8.80
  10   0   6    2.20    5.90
 -10   0  -6    3.80    4.80
 -10   0   6    1.80    7.40
 -10  -1   6   71.79   12.10
  10  -1  -6   64.29    8.40
 -10   1  -6   75.49    9.30
 -10   1  -6   95.29   14.90
 -10   1  -6   62.69   10.20
  10   1   6   95.29   13.70
  10  -1  -6   68.89   10.00
 -10   1  -6   80.19    8.50
  10   1   6   62.79    9.60
  10   1   6   72.79   10.90
  10  -1  -6   63.99    9.80
 -10   1  -6   61.79    8.30
  10  -1  -6   81.99   11.20
  10  -1   6   90.59   13.60
  10   1  -6   67.59    9.50
  10   1  -6   73.49    8.80
 -10   1   6   73.19   10.40
 -10  -1  -6   56.49    8.00
  10  -1   6   66.39    9.30
 -10  -1  -6   82.29   11.00
 -10  -1  -6   55.29    9.50
 -10   1   6   80.69    9.10
  10  -1   6   72.99   11.00
  10   1  -6   78.79   10.20
 -10  -1  -6   71.49   10.60
 -10   1   6   68.79    9.80
  10  -2  -6    4.80    8.00
  10  -2  -6    3.30    4.90
  10   2   6    0.10    5.60
  10  -2  -6   14.30    5.20
 -10   2  -6    3.70    5.20
 -10   2  -6    6.30    5.30
 -10   2  -6    1.10    6.40
  10   2   6    7.00    9.20
  10   2   6   13.60    7.30
 -10   2  -6   10.50    9.70
  10  -2  -6    0.30    5.30
 -10   2  -6   -0.70    5.90
 -10  -2   6    1.80    7.30
 -10  -2  -6   -0.50    5.60
  10  -2   6   -7.80    8.60
 -10   2   6    6.20    5.10
  10   2  -6    1.70    6.80
 -10  -2  -6    4.30    5.60
  10  -2   6    1.60    3.80
  10   2  -6    4.20    4.20
  10  -2   6   -4.30    5.30
  10  -2   6   -4.40    6.70
 -10   2   6    2.40    6.00
 -10  -2  -6   -4.20    7.30
  10   2  -6    3.20    5.40
 -10   2   6   -4.10    6.70
 -10  -2  -6   -1.60    6.20
  10  -3  -6   81.69    9.90
 -10   3  -6   61.89    9.60
  10  -3  -6   71.19    9.40
  10   3   6   59.89   11.60
 -10   3  -6   48.20    8.30
 -10   3  -6   52.19   12.10
 -10   3  -6   74.49    9.70
 -10   3  -6   56.39   10.10
  10   3   6   48.30    9.30
 -10  -3   6   51.19   12.10
  10  -3  -6   59.09   10.80
  10   3   6   50.09    9.90
 -10  -3   6   65.29    9.60
  10  -3  -6   52.29    9.00
 -10  -3  -6   41.80    8.00
 -10   3   6   68.89    8.90
  10  -3   6   63.39   10.10
 -10   3   6   56.09   10.30
  10   3  -6   51.79    7.60
  10  -3   6   52.59    6.80
 -10  -3  -6   53.89    8.50
  10   3  -6   58.69    9.20
  10  -3   6   49.00    9.30
 -10   3   6   57.49    9.40
  10   4   6   -2.00    9.00
 -10   4  -6   -3.00    7.00
  10   4   6  -15.40    7.40
 -10   4  -6   -2.60   10.70
 -10  -4   6   11.00    9.30
  10  -4  -6    6.40    7.30
 -10  -4   6    1.90   10.30
 -10   4  -6    3.00    5.80
  10  -4  -6   -2.20    5.70
 -10   4   6   -6.00    8.20
 -10  -4  -6    4.10    6.00
  10  -4   6   12.10    8.90
 -10   4   6   -3.90   11.80
  10  -4   6    1.60    5.30
 -10   4   6   -5.70    7.50
  10   5   6   17.70   11.40
 -10   5  -6   31.70    9.90
 -10  -5   6   22.30   12.70
  10  -5  -6   48.30   10.50
  10  -5  -6   27.70    7.40
 -10   5  -6   35.20   14.70
  10   5   6   32.60   12.90
  10   5   6   37.10   10.30
 -10  -5   6   48.50   12.40
 -10  -5  -6   38.50    9.00
  10  -5   6   25.00   10.10
 -10   5   6   48.30   11.90
 -10   5   6   28.10   11.10
  10   5  -6   27.50    8.60
 -10   6  -6    8.50   11.40
 -10  -6   6    9.80   11.40
  10  -6  -6   -5.40   10.30
  10   6   6    0.90   10.70
 -10   6  -6   33.20   17.00
  10   6   6   28.00   15.20
 -10  -6   6    8.00   13.20
 -10  -6  -6   -5.90   10.00
 -10   6   6   -2.80   13.30
  10   6  -6    3.20    7.70
  10  -6   6  -10.50   11.60
 -11   0  -6  106.69   12.50
 -11   0  -6   82.39   13.00
  11   0   6   65.59   10.60
 -11   0  -6   89.89   11.50
  11   0  -6   90.79   11.30
  11   0   6   91.19   13.10
 -11   0   6   80.09   10.10
  11   0   6   94.09   13.20
  11   0  -6   79.89   11.90
  11   0   6   84.99    7.70
  11   0  -6   79.59   10.30
 -11   0   6   78.39   13.30
 -11   0  -6   99.79   11.50
  11   0  -6  106.09   16.80
 -11   0  -6   88.19   12.20
 -11   1  -6  257.47   24.60
 -11   1  -6  253.87   19.40
  11  -1  -6  244.68   18.10
  11  -1  -6  263.97   18.40
 -11   1  -6  225.48   18.20
  11   1   6  221.88   18.60
  11   1   6  257.07   20.20
 -11   1  -6  197.98   22.00
  11  -1  -6  217.28   21.60
 -11  -1   6  242.68   21.10
  11   1   6  264.37   22.90
  11  -1  -6  239.28   17.30
 -11   1  -6  277.37   18.40
 -11  -1  -6  227.18   21.20
  11   1  -6  201.58   18.50
  11  -1   6  231.78   15.60
 -11  -1  -6  222.88   18.90
  11  -1   6  198.68   19.10
  11  -1   6  251.27   21.80
 -11   1   6  231.38   18.60
  11   1  -6  267.77   21.80
 -11  -1  -6  252.77   18.10
 -11  -1  -6  248.38   18.50
 -11   1   6  273.37   17.60
  11  -1   6  285.67   19.20
  11   1  -6  261.07   17.70
  11   1  -6  244.58   17.00
 -11   1   6  250.47   17.20
 -11  -2   6   72.29   13.70
  11  -2  -6   65.19    8.70
  11  -2  -6   67.79    9.30
 -11   2  -6   56.29   13.10
 -11   2  -6   77.49   10.40
  11   2   6   72.19   11.00
  11   2   6   59.19    9.70
 -11   2  -6   69.59   11.40
 -11   2  -6   60.59   10.40
  11  -2  -6   50.99    8.20
  11  -2  -6   67.89   12.90
  11   2   6   76.09   12.80
 -11  -2  -6   83.19    9.50
  11  -2   6   62.09    9.20
 -11   2   6   67.79   11.50
  11  -2   6   84.29   12.30
 -11   2   6   78.09   12.70
  11   2  -6   74.39   11.10
 -11  -2  -6   92.29   11.20
 -11  -2  -6   64.49   10.80
  11  -2   6   72.89    8.90
  11   2  -6   81.99   11.00
 -11   2   6   48.30   10.00
 -11   3  -6  143.99   16.80
  11  -3  -6  136.39   14.00
 -11   3  -6  149.99   18.70
  11  -3  -6  163.18   15.20
  11   3   6  151.68   21.40
 -11  -3   6  140.09   18.20
  11   3   6  128.69   16.30
  11   3   6  111.99   18.60
 -11   3  -6  169.38   14.70
  11   3  -6  174.58   14.10
 -11   3   6  124.69   18.20
  11   3  -6  183.88   18.70
  11  -3   6  140.89   12.90
 -11  -3  -6  164.88   15.10
 -11   3   6  139.29   15.20
  11  -3   6  176.48   18.40
 -11   3   6  165.08   17.50
  11   4   6   29.40   12.60
 -11  -4   6   16.80   12.50
  11  -4  -6   32.10    7.80
  11  -4  -6   33.10    8.90
 -11   4  -6   35.70    7.90
  11   4   6    6.00   12.00
 -11   4  -6   28.10   14.60
 -11   4  -6   29.60   10.80
  11   4   6   22.20    9.60
 -11   4   6   44.00   11.40
 -11  -4  -6   27.50    8.00
  11  -4   6   45.30   11.30
 -11   4   6   33.10   10.30
 -11  -5   6   74.39   16.10
 -11   5  -6   85.29   19.80
  11   5   6   58.09   12.50
  11  -5  -6   73.29   12.40
 -11  -5   6   69.79   13.70
  11   5   6   50.39   15.50
 -11   5  -6   64.99   13.20
  11   5  -6   48.60    9.10
 -11  -5  -6   99.99   15.80
  11  -5   6   65.39   12.80
 -11   5   6   81.49   14.60
  11   6   6   15.70   17.50
 -11   6  -6   11.80   14.20
 -11  -6   6    3.90   12.70
 -11   6  -6    0.80   29.70
  11  -6  -6   26.50   12.90
  11   6   6  -14.20   11.80
 -11  -6   6    1.60   14.90
 -11   6   6   13.50   15.10
  11   6  -6   12.70    9.40
  11  -6   6   -0.50   14.10
 -11  -6  -6   31.10   10.90
  12   0  -6   77.79   12.60
  12   0   6   85.99   13.30
 -12   0  -6   69.89   10.40
 -12   0  -6   76.19   14.00
  12   0   6   72.59    8.20
 -12   0  -6   84.09   12.10
  12   0   6   69.19   10.80
 -12   0   6   86.39   11.70
  12   0  -6  105.69   14.30
 -12   0  -6   70.09   10.20
  12   0  -6   69.49   13.00
  12  -1  -6   28.50    8.40
 -12   1  -6   38.70    9.10
  12   1   6   42.60   12.30
 -12   1  -6   38.30   13.00
  12   1   6   47.30    9.10
 -12   1  -6   21.20    9.20
  12  -1  -6   31.90    8.70
  12  -1   6   34.90    6.30
 -12  -1  -6   31.10   11.60
  12   1  -6   35.30    8.70
  12   1  -6   42.80    9.20
 -12   1   6   42.80    8.60
  12  -1   6   25.90    7.50
 -12   1   6   24.00   13.40
  12  -1   6   35.10   11.20
 -12  -1  -6   36.70    9.60
  12   1  -6   15.30   11.60
 -12  -1  -6   36.80    8.70
 -12   1   6   36.10    7.70
 -12   2  -6   83.19   11.50
  12  -2  -6   53.79    9.30
 -12   2  -6   81.19   10.40
  12   2   6   74.99   14.80
 -12  -2   6   61.79   14.60
  12  -2  -6   55.09    9.90
 -12   2  -6   63.89   14.80
  12   2   6   47.10    9.60
  12  -2   6   63.69   12.50
 -12   2   6   58.59   11.80
  12   2  -6   44.00   10.60
 -12  -2  -6   57.09   10.00
  12   2  -6   55.09   12.80
 -12   2   6   69.09   10.10
  12   2  -6   71.59    9.90
 -12   2   6   69.39   13.40
  12  -2   6   53.39    9.50
  12  -2   6   53.49    7.70
  12   3   6    8.10    8.50
 -12   3  -6    6.80    7.60
 -12   3  -6   26.60   10.60
 -12   3  -6   21.20   14.70
  12  -3  -6   23.10    8.70
  12  -3  -6   13.10    8.10
  12   3   6    8.90   13.00
 -12  -3   6   16.90   12.40
 -12   3   6   22.60    9.50
 -12  -3  -6   20.90    8.20
  12  -3   6   14.80    7.10
  12  -3   6    7.60   10.50
 -12   3   6   17.40   12.10
 -12   3   6   24.80   10.50
  12   3  -6   31.80   12.20
  12   3  -6   10.70    8.20
  12   4   6   23.90   10.80
  12   4   6   34.90   16.20
 -12  -4   6   37.00   15.80
  12  -4  -6   44.00   10.10
  12  -4  -6   33.20   10.40
 -12   4  -6   27.30   17.90
 -12   4  -6   29.00   13.20
 -12   4   6   52.69   13.40
 -12  -4  -6   47.30   10.00
  12  -4   6   49.50   13.90
 -12   5  -6  -26.10   12.80
 -12  -5   6   34.00   13.50
  12   5   6    4.80   17.80
 -12   5  -6  -22.30   19.80
  12   5   6   -5.10   11.20
  12  -5  -6  -15.00   11.40
 -12  -5   6    8.20   16.20
 -12   5   6   -2.00   14.90
  12   5  -6   -5.10    8.30
 -12  -5  -6   31.20   10.30
  12  -5   6    2.70   12.20
 -13   0   6   29.90   12.10
 -13   0  -6   43.00   11.20
 -13   0  -6   17.00   14.40
 -13   0  -6   41.10   11.60
 -13   0  -6   39.50    9.50
  13   0   6   38.50    9.90
 -13   0   6   30.70    9.00
  13   0   6   41.00   12.90
  13   0  -6   42.50    9.70
 -13  -1   6   97.09   17.20
 -13   1  -6   96.39   18.20
  13   1   6  178.18   23.00
  13   1   6  116.99   17.80
 -13   1  -6  122.19   19.00
 -13   1  -6  145.49   17.60
  13  -1  -6  115.59   16.40
 -13   1   6  113.69   18.30
  13   1  -6  143.09   26.00
 -13  -1  -6  132.19   17.30
  13  -1   6  160.48   24.20
  13  -1   6  125.69   12.90
 -13   1   6  138.79   16.30
  13  -1   6  134.89   16.80
 -13  -1  -6  149.59   17.40
  13   1  -6  129.69   16.50
 -13   2  -6   34.40    9.50
  13  -2  -6   25.90   10.50
 -13  -2   6   50.19   14.60
 -13   2  -6   18.00   16.50
  13   2   6   14.70    9.60
  13   2   6   21.00   15.60
  13  -2   6   38.40    9.40
  13   2  -6   10.60   15.10
 -13   2   6   35.50   11.60
 -13   2   6   28.00   10.80
  13  -2   6   39.10   12.50
  13   2  -6   16.70   11.40
  13  -2   6   30.50    7.90
  13   2  -6   22.90    9.80
 -13  -2  -6   55.69   10.50
  13   3   6   56.69   12.20
  13  -3  -6   75.09   12.40
 -13  -3   6   69.19   17.20
 -13   3  -6   81.39   12.40
 -13   3  -6   68.19   19.90
 -13   3  -6  100.89   16.00
  13   3   6  107.39   18.60
  13   3  -6  107.29   12.60
  13   3  -6   56.29   14.80
  13  -3   6   93.19   14.70
 -13  -3  -6  135.89   17.70
 -13   3   6  100.19   14.60
 -13   4  -6   34.30   14.40
 -13   4  -6  -14.20   19.00
 -13  -4   6   17.60   14.60
  13   4   6    5.80   18.30
  13  -4  -6   34.50   12.10
 -13   4   6   -7.80   13.90
 -13  -4  -6   25.00   15.20
  13  -4   6   29.60   21.70
  14   0   6  196.18   29.00
 -14   0  -6  192.58   21.70
 -14   0   6  175.38   23.00
 -14   0  -6  134.49   20.70
  14   0   6  165.38   20.20
 -14   0  -6  197.88   20.50
  14   0  -6  188.18   20.60
 -14   1  -6    5.30   17.60
  14   1   6   22.50   16.50
 -14   1  -6    3.50   11.80
  14  -1  -6    2.20   10.90
 -14  -1   6   -8.50   13.00
  14   1   6   -6.50   10.40
 -14   1  -6  -10.20   10.30
 -14  -1  -6   16.20   11.60
  14  -1   6   22.00   14.80
  14   1  -6    5.60   11.00
  14  -1   6   -8.20    9.00
 -14  -1  -6  -12.40   16.50
 -14   1   6    9.20   11.80
  14   2   6  217.18   30.30
 -14  -2   6  165.98   22.80
  14   2   6  156.98   21.70
 -14   2  -6  167.98   21.30
  14  -2  -6  152.98   20.40
 -14   2  -6  129.59   23.10
  14  -2   6  184.68   26.30
  14  -2   6  130.69   19.10
  14   2  -6  161.38   20.60
 -14   2   6  166.08   24.50
 -14  -2  -6  149.39   21.60
   0   0   7   -0.30    2.90
   0   0   7   -1.70    2.80
   0   0   7    0.00    3.50
   0   0  -7    0.60    2.50
   0   0  -7    0.00    2.90
   0   0   7    0.00    1.70
   0  -1   7    3.20    3.10
   0   1   7    1.20    3.40
   0  -1   7    2.90    4.40
   0   1   7    3.80    2.90
   0   1   7    5.70    2.30
   0  -1   7    4.20    3.20
   0   1   7    9.20    3.40
   0  -1  -7   14.70    3.60
   0   1  -7   11.80    3.00
   0   1  -7   17.00    4.40
   0  -1  -7    6.50    3.20
   0   2   7   -4.40    2.80
   0   2  -7   -0.20    2.50
   0   2   7   -0.20    2.50
   0  -2   7    1.20    3.10
   0   2   7   -3.80    3.20
   0  -2   7    2.70    2.80
   0  -2  -7   -3.90    3.40
   0  -2   7   -2.20    2.20
   0  -2  -7   -0.60    3.80
   0   2  -7   -3.30    3.50
   0   2  -7    2.40    2.50
   0  -2   7    0.60    4.90
   0  -3  -7    0.40    3.20
   0  -3  -7   -0.90    4.00
   0   3  -7    5.00    3.00
   0  -3   7    2.80    3.20
   0   3   7    1.70    3.10
   0  -3   7   -0.20    2.70
   0   3  -7    1.90    2.30
   0  -3  -7    4.00    3.90
   0   3  -7    4.10    2.70
   0   3  -7    1.80    4.30
   0   3   7    6.40    3.70
   0  -3  -7   -1.20    2.30
   0  -3   7   11.50    5.90
   0  -3   7    2.60    3.20
   0   4   7   -7.00    4.80
   0  -4  -7    5.20    4.50
   0   4  -7   -0.30    3.30
   0   4  -7   -5.20    3.50
   0   4  -7   -1.50    4.70
   0   4   7    0.50    4.30
   0  -4  -7   -3.30    2.80
   0  -4   7    0.50    6.70
   0  -4  -7    2.40    3.00
   0   4  -7   -1.20    3.00
   0  -4   7   -3.60    2.80
   0   5   7    8.30    5.90
   0  -5  -7    5.30    6.50
   0   5  -7    4.10    4.00
   0  -5   7   -6.00    3.40
   0  -5   7    1.90    8.60
   0   5  -7    4.90    6.10
   0   5  -7   -4.10    4.00
   0  -5  -7    1.00    3.80
   0   5  -7   11.10    5.50
   0   5   7    4.90    5.30
   0  -5  -7    9.50    6.00
   0  -5  -7   -1.50    3.80
   0  -6  -7   -0.90    4.50
   0  -6   7    1.00    8.30
   0  -6  -7   -4.20    8.10
   0   6  -7    4.00    5.80
   0  -6   7   -0.20    4.30
   0   6  -7   10.60    6.30
   0  -6  -7    4.10    4.60
   0  -6  -7   -0.20    4.50
   0   6  -7   -2.20    8.10
   0  -6  -7    1.50    7.20
   0   6   7   -9.00    6.50
   0   6  -7    4.10    5.20
   0   6  -7   -1.60    4.00
   0   6   7  -14.60    6.90
   0   7  -7    3.50    9.30
   0   7   7    3.10    9.00
   0  -7   7   -4.70    6.10
   0   7  -7   -2.20    5.80
   0   7  -7    5.70    7.10
   0  -7  -7   11.30    6.30
   0  -7  -7    0.70    5.50
   0  -7  -7    2.60    9.40
   0  -7  -7   15.90   10.80
   0  -7   7   12.10   10.20
   0   7   7   14.80   10.50
   0   7  -7   -0.60   10.80
   0  -7  -7    4.80    6.00
   0  -8  -7   -8.90    8.00
   0   8  -7  -22.80   13.70
   0   8  -7   10.20    7.70
   0  -8  -7    4.00    7.00
   0   8  -7   -2.20   10.30
   0  -8  -7   11.50   12.10
   0  -8  -7    3.10    6.70
   0   8   7   13.70   12.90
   0   8  -7  -15.30   13.30
   0  -8   7   -4.30    6.50
   0  -9   7   -6.20    8.90
   0   9   7    5.80   17.30
   0  -9  -7   15.70    9.50
   0   9  -7   14.50   10.70
   0   9  -7  -29.50   20.20
  -1   0  -7  459.05   25.10
   1   0   7  416.76   24.90
  -1   0   7  454.05   25.90
   1   0   7  474.45   25.80
   1   0  -7  473.15   25.70
   1   0   7  442.86   26.20
   1   0  -7  487.05   26.30
  -1   0  -7  434.76   26.90
  -1   0   7  461.15   26.00
  -1   0   7  507.65   25.60
  -1   0  -7  440.86   25.60
   1   0   7  387.46   25.40
  -1   1  -7 3004.40  160.58
  -1   1  -7 2883.81  161.08
   1   1   7 3140.19  161.28
   1  -1  -7 2896.31  161.78
  -1  -1   7 3218.58  160.38
   1   1   7 2971.50  160.88
   1   1   7 3057.49  162.08
  -1   1  -7 3093.79  161.38
  -1  -1   7 2989.90  161.28
  -1  -1   7 2792.02  161.88
  -1   1  -7 3035.70  162.48
  -1  -1   7 3206.08  161.08
   1  -1  -7 3169.78  161.68
   1  -1   7 3443.06  164.08
  -1   1   7 2791.92  161.68
   1   1  -7 2942.61  161.08
   1  -1   7 3174.08  161.78
   1   1  -7 2980.20  161.78
  -1   1   7 3084.89  161.28
   1  -1   7 2988.20  161.38
  -1   1   7 2977.30  161.08
  -1  -1  -7 3012.30  162.38
  -1   1   7 2849.11  160.48
  -1  -1  -7 2975.00  161.38
  -1   2  -7  353.66   19.40
   1   2   7  345.67   18.80
   1  -2  -7  341.57   19.90
   1   2   7  302.07   20.00
  -1   2  -7  307.67   20.40
  -1  -2   7  340.77   18.40
  -1  -2   7  290.87   20.30
  -1  -2   7  345.97   18.80
  -1   2  -7  321.97   18.30
  -1  -2   7  360.96   18.70
   1  -2  -7  332.77   19.80
  -1   2  -7  297.17   18.90
   1   2   7  323.77   19.10
  -1   2   7  340.27   18.50
   1   2  -7  305.37   18.60
  -1  -2  -7  307.67   20.30
  -1   2   7  312.77   19.80
  -1  -2  -7  308.27   19.50
   1   2  -7  325.07   19.80
   1  -2   7  329.67   19.40
  -1   2   7  339.77   19.10
   1  -2   7  269.97   19.80
   1  -2   7  347.87   19.50
  -1   3  -7 1942.51   98.59
  -1   3  -7 1702.83   98.09
   1  -3  -7 1807.42   96.99
   1  -3  -7 1872.11   99.19
   1  -3  -7 1871.61   99.09
  -1  -3   7 1823.92   97.89
   1   3   7 1781.02   98.19
  -1   3  -7 1787.62   99.49
   1   3   7 1942.61   98.29
   1  -3  -7 1772.82   98.49
  -1   3  -7 1913.51   97.69
   1  -3   7 2019.80   98.39
  -1  -3  -7 2000.00   99.09
   1  -3   7 1579.74   99.09
   1   3  -7 1749.82   98.89
  -1  -3  -7 2002.80   99.59
  -1   3   7 1880.01   98.39
  -1  -3  -7 1782.72   97.99
  -1  -3  -7 1533.35   97.59
   1   3  -7 1722.03   97.79
   1   3  -7 1884.81   98.59
   1  -3   7 1885.71   98.19
   1  -4  -7  122.69    8.30
   1  -4  -7  123.49   11.70
   1   4   7  114.79   11.20
   1  -4  -7  128.09    9.60
   1  -4  -7  131.99   11.20
  -1   4  -7  121.39    9.30
  -1  -4   7  119.49    9.30
  -1   4  -7  130.29   10.00
   1   4   7  121.19   10.40
  -1   4  -7  113.99   10.30
   1   4   7  122.09   10.10
  -1   4  -7  112.59   12.20
  -1   4   7  127.39   11.30
   1   4  -7  127.29   10.00
   1  -4   7  114.99    9.00
   1  -4   7  133.89    9.60
   1   4  -7  124.89    8.70
   1   4  -7  117.79    9.50
  -1  -4  -7  134.09    8.90
   1  -4   7  127.09    9.20
  -1  -4  -7  133.89   11.70
   1   4  -7  105.09   11.10
  -1  -4  -7  126.09   11.70
  -1   4   7  138.29   10.80
   1  -4   7   98.69   12.40
  -1  -4  -7  126.39    8.70
  -1   5  -7  803.82   42.60
  -1   5  -7  692.23   43.80
  -1  -5   7  710.83   42.20
   1   5   7  739.93   42.70
   1  -5  -7  855.71   43.80
   1   5   7  827.42   42.80
  -1   5  -7  749.03   42.60
   1  -5  -7  776.92   44.10
   1   5   7  732.53   43.60
   1  -5  -7  762.22   41.20
   1  -5  -7  737.63   41.80
  -1   5  -7  787.02   41.90
  -1  -5  -7  671.53   44.60
   1   5  -7  689.73   41.80
  -1  -5  -7  880.61   44.10
  -1   5   7  710.83   43.60
   1  -5   7  653.23   44.30
   1   5  -7  816.32   41.70
   1   5  -7  690.53   43.10
   1  -5   7  720.93   42.10
   1   5  -7  782.22   42.50
  -1   5   7  779.72   43.20
  -1  -5  -7  775.52   41.50
  -1  -5  -7  765.72   41.40
  -1   6  -7   20.80    4.40
  -1   6  -7   27.40    9.50
   1  -6  -7   17.70    5.00
   1  -6  -7   31.90    5.30
   1   6   7   27.40    7.40
  -1   6  -7   36.60    7.70
   1  -6  -7   41.20    9.70
  -1  -6   7   17.60    9.50
   1   6   7   26.90    7.90
   1   6   7   10.20    8.50
  -1   6  -7   27.90    6.20
  -1   6  -7   23.00    5.90
   1  -6  -7   27.20    8.00
  -1  -6   7   27.80    6.40
   1  -6   7   18.00   10.60
   1   6  -7   29.60    6.80
  -1  -6  -7   22.20    4.70
  -1   6   7   39.30   14.10
  -1   6   7   16.60    8.20
   1   6  -7   32.80    8.30
   1   6  -7   17.60    8.10
  -1  -6  -7   28.00    5.50
   1   6  -7   21.30    5.10
   1  -6   7   22.70    6.00
  -1  -6  -7   30.40    9.00
  -1  -6  -7   27.80    5.80
  -1   7  -7  179.08   23.30
  -1  -7   7  193.68   16.90
   1  -7  -7  263.97   16.30
   1   7   7  227.68   18.90
  -1  -7   7  159.98   20.60
  -1   7  -7  209.08   17.50
   1  -7  -7  233.88   15.60
   1   7   7  264.87   20.20
  -1   7  -7  237.68   17.10
  -1   7  -7  231.18   20.30
   1  -7  -7  236.18   22.90
   1  -7  -7  277.47   20.80
   1  -7  -7  215.98   16.50
  -1  -7  -7  206.28   15.90
  -1   7   7  265.97   20.50
   1  -7   7  183.08   15.90
  -1  -7  -7  268.17   20.40
  -1  -7  -7  192.48   24.30
   1   7  -7  203.08   21.80
   1   7  -7  239.68   19.00
   1   7  -7  220.68   17.30
   1   7  -7  225.18   17.70
   1   7  -7  205.98   15.50
  -1  -7  -7  237.08   15.90
  -1   7   7  159.88   21.10
  -1  -7  -7  233.58   16.60
   1   8   7   14.90   12.20
   1  -8  -7  -12.60   11.80
   1  -8  -7   -4.30    6.70
  -1   8  -7   14.50   13.90
   1  -8  -7    7.80    6.90
  -1  -8   7   -8.10    7.40
   1   8   7   -9.60    8.90
   1  -8  -7    3.90   14.80
  -1   8  -7  -11.20   10.40
  -1   8  -7    4.00    7.90
   1  -8  -7   12.90    8.70
  -1  -8   7    6.70   12.20
  -1   8  -7  -21.70   15.20
  -1   8   7   16.40   12.30
   1   8  -7    8.70    8.20
   1   8  -7  -10.00   14.10
   1   8  -7  -18.40   10.20
  -1  -8  -7    5.10    7.70
  -1  -8  -7   -6.50    7.10
   1  -8   7  -11.40    6.50
  -1  -8  -7   -0.90    7.50
   1   8  -7   23.60   12.80
   1  -9  -7   67.79   10.60
  -1   9  -7    7.00   21.30
  -1   9  -7   44.90   12.80
   1   9   7   80.09   18.00
   1   9   7   62.69   13.90
  -1  -9   7   38.30   10.60
   1   9  -7   18.40   20.20
   1  -9   7   33.70    9.00
  -1   9   7   78.69   17.90
   1   9  -7   56.89   12.30
  -1  -9  -7   48.20   10.90
  -2   0   7  327.77   19.30
  -2   0  -7  317.27   20.70
  -2   0  -7  333.07   18.70
  -2   0   7  329.87   19.00
   2   0   7  337.47   19.90
   2   0   7  327.37   19.50
  -2   0  -7  345.17   19.20
   2   0  -7  329.97   19.40
   2   0  -7  325.87   19.40
  -2   0   7  315.37   19.80
   2   1   7   95.89    7.30
   2   1   7  115.19    8.20
  -2  -1   7   96.59    7.40
   2  -1  -7   94.09    7.90
  -2  -1   7  104.99    6.60
  -2   1  -7   87.59    9.60
  -2   1  -7  107.39    7.90
  -2   1  -7   99.09    6.90
  -2  -1   7  101.39    8.60
  -2   1  -7   90.39    7.50
   2   1   7  112.79    8.90
   2  -1  -7   90.29    8.10
  -2  -1   7  103.29    7.60
  -2   1   7  102.99    8.20
   2  -1   7   79.99    8.10
   2   1  -7   95.79    7.80
   2  -1   7  103.39    8.50
   2   1  -7   83.49    7.60
  -2   1   7   99.99    7.70
  -2  -1  -7  104.09    7.90
   2  -1   7  106.99    8.50
  -2  -1  -7  102.49    9.60
  -2  -1  -7   92.89    7.30
  -2  -2   7  250.57   17.90
  -2   2  -7  277.17   16.10
   2  -2  -7  286.87   17.00
  -2   2  -7  306.47   16.80
  -2   2  -7  267.07   18.50
  -2   2  -7  257.17   16.60
  -2  -2   7  288.27   16.00
   2   2   7  276.27   16.40
   2   2   7  276.57   17.60
   2   2   7  281.67   16.70
   2  -2  -7  300.27   17.60
  -2  -2  -7  262.07   16.90
  -2  -2  -7  277.47   18.20
   2  -2   7  281.77   17.00
   2  -2   7  287.77   17.20
   2  -2   7  233.98   17.20
  -2   2   7  263.77   16.50
   2   2  -7  271.27   16.80
  -2   2   7  248.38   17.20
   2   2  -7  270.87   16.00
   2  -2   7  282.37   16.20
  -2   3  -7   93.59   10.50
   2   3   7   72.59    9.90
  -2   3  -7   96.89    8.10
   2  -3  -7   94.39    5.60
  -2  -3   7   80.29    7.60
   2  -3  -7   75.99   10.80
   2  -3  -7   85.49    8.30
  -2   3  -7   89.19    7.10
   2  -3  -7   66.39    7.60
   2   3   7   91.69    7.80
   2   3   7   87.59    8.20
  -2   3  -7   88.09    7.80
  -2  -3   7   64.99    9.70
  -2  -3  -7   84.99    9.90
  -2   3   7   92.29    8.20
   2  -3   7   93.19    8.70
   2  -3   7   69.09    9.30
  -2  -3  -7   79.49    6.90
  -2  -3  -7   96.99    8.60
   2  -3   7   82.39    7.90
   2   3  -7   70.79    6.80
  -2  -3  -7   77.29    6.50
  -2   3   7   83.29    9.00
   2   3  -7   88.09    8.00
   2   3  -7   77.89    8.20
   2   4   7  118.79   11.50
   2  -4  -7  125.59   11.10
  -2   4  -7  138.49    9.90
   2  -4  -7  139.49    8.50
   2   4   7  141.39   10.60
  -2  -4   7  122.99   10.20
  -2   4  -7  138.19   10.50
   2  -4  -7  109.79   13.10
  -2   4  -7  122.09   12.90
  -2   4  -7  128.89   10.90
  -2  -4   7   99.29   12.50
   2  -4  -7  143.59   12.30
   2   4   7  155.98   11.30
  -2   4   7  120.09   11.30
  -2   4   7  111.99   11.60
  -2  -4  -7  127.39   12.30
  -2  -4  -7  132.29    9.20
   2  -4   7  140.89   10.40
   2  -4   7  104.49   12.20
  -2  -4  -7  133.29   11.80
   2  -4   7  139.29   10.40
   2   4  -7  136.89   10.30
   2   4  -7  118.69   11.10
  -2  -4  -7  137.89    8.90
   2   4  -7  134.59    9.40
  -2   5  -7   72.69    8.60
   2   5   7   58.89    7.80
   2   5   7   50.49    8.30
  -2  -5   7   46.40    7.20
   2  -5  -7   58.89    7.60
  -2   5  -7   71.19    8.90
  -2   5  -7   49.20    9.10
   2   5   7   71.09    9.40
   2  -5  -7   53.09    6.20
   2  -5  -7   69.29    9.90
   2  -5  -7   79.09   10.10
  -2   5  -7   86.79   10.30
  -2  -5   7   42.90    9.70
  -2  -5  -7   52.79    8.20
   2   5  -7   54.89    8.60
  -2   5   7   49.99    7.60
  -2  -5  -7   59.29    8.80
   2   5  -7   45.50    7.50
  -2  -5  -7   64.69    8.90
   2   5  -7   46.80    7.80
   2   5  -7   55.49    8.00
  -2  -5  -7   72.39    6.50
   2  -5   7   71.49    7.60
  -2   5   7   48.20    8.50
  -2  -5  -7   59.09    7.40
  -2  -6   7   34.50    6.70
   2  -6  -7   44.20    8.60
   2  -6  -7   42.50   10.20
   2   6   7   44.60    7.50
   2  -6  -7   37.60    6.20
   2   6   7   40.00    8.00
  -2   6  -7   41.90    6.70
   2  -6  -7   40.10    5.60
  -2   6  -7   34.00    6.60
   2   6   7   30.30    8.50
  -2   6  -7   28.30   10.20
  -2  -6   7   25.20    9.80
  -2   6  -7   57.49    8.70
  -2  -6  -7   42.50    9.00
   2  -6   7   35.60    6.50
  -2  -6  -7   46.60    6.40
  -2   6   7   34.70    8.40
   2   6  -7   37.60    8.20
  -2  -6  -7   39.60    5.30
  -2  -6  -7   40.00    8.40
  -2  -6  -7   40.20    6.70
  -2   6   7   37.90    8.50
   2   6  -7   62.09    9.50
   2   6  -7   33.00    6.00
  -2   7  -7   33.30   11.00
  -2   7  -7   33.70    7.20
   2  -7  -7   33.20    6.80
   2   7   7   29.40   10.90
  -2   7  -7   19.40   12.40
  -2  -7   7   20.20   11.50
   2   7   7   23.60    8.10
   2  -7  -7   30.40   12.10
   2  -7  -7   29.70    6.40
  -2   7  -7   32.10    8.10
  -2  -7   7   20.90    7.80
   2  -7  -7   52.19   12.90
   2  -7  -7   23.50    6.00
   2   7   7   30.00    9.10
  -2  -7  -7   24.20    7.30
   2  -7   7   26.20    6.50
  -2  -7  -7   17.80    5.90
  -2  -7  -7   24.40    7.00
   2   7  -7   27.20    7.00
  -2   7   7   23.40    9.90
   2   7  -7   23.40    6.60
   2   7  -7   40.20   10.70
  -2  -8   7    3.80    7.80
   2  -8  -7   10.30    9.70
  -2  -8   7   21.70   13.60
   2  -8  -7    6.60   16.10
   2   8   7   -3.00    9.00
   2   8   7    4.70   11.50
   2  -8  -7    8.90    7.00
   2  -8  -7    6.90    6.80
  -2   8  -7    5.60    7.80
  -2   8  -7   23.40   16.70
   2  -8  -7   31.10   12.60
  -2   8  -7   -2.30   18.10
   2   8  -7   14.70    7.70
   2   8  -7   26.70   12.00
  -2  -8  -7    7.90    8.50
   2  -8   7    8.70    7.10
   2   8  -7    7.60    7.90
  -2   8   7    7.40   12.80
  -2  -8  -7   13.80    7.70
   2   8  -7    7.10   14.00
   2  -9  -7    3.90    9.00
  -2  -9   7   -4.20    9.10
  -2   9  -7   24.00   11.10
   2  -9  -7   11.40   21.10
   2   9   7   21.60   16.30
  -2   9  -7  -37.90   22.10
   2   9  -7   13.40   11.40
  -2   9   7   40.30   18.00
  -2  -9  -7    8.30    9.90
   2  -9   7   -5.00    7.50
  -2  -9  -7   15.90   11.80
  -3   0  -7  674.33   38.00
   3   0   7  720.43   38.70
   3   0   7  643.04   37.80
   3   0   7  678.53   38.80
  -3   0   7  664.83   38.90
  -3   0   7  715.13   37.70
   3   0  -7  672.03   38.40
  -3   0  -7  658.23   39.80
  -3   0   7  676.83   38.10
  -3   0  -7  706.43   37.90
   3   0  -7  692.33   38.10
  -3   0  -7  767.92   38.00
  -3   1  -7    1.80    2.50
  -3   1  -7    2.50    3.10
  -3  -1   7   -0.10    2.80
  -3   1  -7    0.70    4.50
  -3   1  -7    1.70    2.50
   3   1   7    7.30    3.70
  -3  -1   7    2.90    4.40
   3  -1  -7   -0.90    2.60
   3  -1  -7    4.20    3.40
   3   1   7    3.30    3.60
   3   1   7    0.30    2.70
  -3  -1   7    5.60    2.40
   3  -1   7    3.60    2.80
  -3   1   7    1.30    2.80
   3  -1   7   -0.10    3.70
  -3  -1  -7   -0.10    2.80
   3   1  -7   -2.90    2.80
  -3  -1  -7    1.10    2.40
  -3  -1  -7   -2.00    3.90
   3   1  -7    1.70    2.60
  -3  -1  -7    1.70    2.30
  -3   1   7    6.20    3.20
   3  -1   7    0.40    3.00
  -3  -2   7  533.25   27.60
  -3   2  -7  477.65   28.20
  -3   2  -7  532.25   28.10
   3   2   7  484.05   29.10
   3   2   7  523.05   28.30
  -3   2  -7  455.85   30.00
   3  -2  -7  488.95   29.10
   3   2   7  520.35   28.20
  -3   2  -7  513.45   27.70
  -3  -2   7  461.45   29.50
   3  -2  -7  478.95   28.20
   3  -2   7  506.75   28.60
   3   2  -7  481.85   27.60
  -3  -2  -7  481.75   29.60
  -3   2   7  475.45   28.70
  -3  -2  -7  468.55   28.20
   3  -2   7  512.55   28.90
   3   2  -7  487.95   27.80
   3  -2   7  487.45   27.80
  -3   2   7  509.65   28.00
   3  -3  -7    1.00    3.40
   3   3   7    0.50    3.80
  -3   3  -7    0.00    3.10
  -3  -3   7    4.90    6.40
  -3   3  -7   -1.20    2.90
  -3   3  -7   -0.20    3.80
  -3  -3   7    4.80    4.00
   3  -3  -7    5.40    4.40
   3   3   7    1.90    4.40
  -3   3  -7    4.80    5.90
   3   3   7   -0.70    3.60
  -3  -3  -7    1.50    3.10
   3  -3   7    2.70    3.40
  -3   3   7    1.80    3.80
  -3  -3  -7    0.80    5.30
   3  -3   7    2.10    4.60
   3   3  -7    4.10    3.50
   3   3  -7    5.50    3.10
  -3   3   7   -0.50    3.90
  -3  -3  -7   -0.20    2.50
  -3  -3  -7    1.80    4.30
  -3  -4   7  186.08   13.40
  -3   4  -7  190.18   14.10
   3  -4  -7  207.98   11.50
  -3   4  -7  189.08   14.00
   3  -4  -7  193.48   13.40
   3  -4  -7  176.58   15.50
   3  -4  -7  197.78   14.00
   3   4   7  193.38   14.80
  -3   4  -7  160.88   16.20
   3   4   7  215.98   13.90
   3   4   7  197.58   13.90
  -3   4  -7  199.18   13.70
   3   4  -7  175.58   12.30
  -3  -4  -7  184.38   12.50
  -3  -4  -7  197.68   13.50
  -3  -4  -7  216.88   15.70
  -3   4   7  191.68   14.90
   3  -4   7  210.98   13.90
   3   4  -7  179.48   13.70
  -3  -4  -7  186.68   11.50
  -3  -4  -7  206.88   14.50
   3  -4   7  208.98   13.70
  -3   4   7  206.68   14.40
   3   4  -7  189.08   13.40
  -3   5  -7   15.90    6.90
  -3  -5   7    3.40    8.00
   3   5   7    8.90    5.60
   3  -5  -7    6.70    3.30
  -3   5  -7   -3.00    7.70
  -3   5  -7    3.50    5.10
   3   5   7  -12.60    5.90
   3  -5  -7    4.70    7.20
   3   5   7    2.90    5.40
   3  -5  -7   16.50    6.00
  -3  -5   7    3.80    5.50
   3  -5  -7    3.80    4.00
  -3   5  -7    3.10    4.50
   3   5  -7    1.10    3.90
   3   5  -7   13.30    4.50
   3   5  -7    1.30    5.20
  -3  -5  -7   11.10    7.20
  -3  -5  -7   11.00    5.10
  -3   5   7    1.00    6.20
   3  -5   7    7.90    4.70
  -3  -5  -7    8.90    6.30
  -3  -5  -7    8.00    4.60
   3  -5   7    6.90    4.80
  -3   5   7   10.30    6.70
  -3   6  -7   38.20    7.20
   3  -6  -7   52.59    6.80
   3  -6  -7   48.10    8.70
   3   6   7   39.10    8.30
  -3   6  -7   44.40   11.50
   3   6   7   55.99    8.70
  -3  -6   7   32.70    7.30
  -3   6  -7   46.20    7.30
  -3  -6   7   29.30   10.70
  -3   6  -7   51.69    9.30
   3  -6  -7   50.29   11.50
   3   6   7   36.60    9.50
   3  -6  -7   51.99    6.80
  -3  -6  -7   49.40    7.40
  -3   6   7   43.50    8.70
  -3  -6  -7   35.20    4.90
   3  -6   7   40.80    6.80
   3   6  -7   39.50    6.90
  -3  -6  -7   47.50    6.80
   3   7   7   -5.10    8.60
   3  -7  -7    3.70    9.20
  -3  -7   7   14.70   11.10
  -3   7  -7   25.20   11.90
   3  -7  -7    4.30    6.90
  -3   7  -7    2.30    7.00
  -3   7  -7   -7.90   12.80
   3  -7  -7    8.00    5.70
  -3  -7   7   -3.70    6.80
   3   7   7    7.70    7.50
   3   7   7   -2.10   10.20
   3  -7  -7   37.90   13.50
   3  -7  -7    7.90    5.40
  -3   7   7    4.80    9.40
  -3  -7  -7   11.80    6.80
   3   7  -7   10.60    6.40
   3   7  -7   -6.60    6.40
   3  -7   7    1.80    5.10
  -3  -7  -7   13.40    5.10
  -3  -8   7   -8.30    8.80
   3  -8  -7    4.10    6.40
   3   8   7   17.30    9.30
  -3   8  -7    4.00    9.20
  -3   8  -7   27.40   18.00
   3  -8  -7   10.40   12.60
   3   8   7   -4.30   11.50
  -3  -8   7   32.50   14.20
   3  -8  -7    9.60   17.90
  -3   8   7   -1.40   12.80
   3   8  -7    3.10    8.00
   3  -8   7    9.90    7.10
  -3  -8  -7   -3.20    7.70
   3   8  -7    1.50    8.40
  -3  -8  -7   11.60    9.20
  -4   0  -7  406.76   23.20
  -4   0  -7  447.26   22.90
  -4   0  -7  399.76   23.20
   4   0  -7  406.96   23.80
  -4   0  -7  378.96   25.50
   4   0  -7  384.16   23.10
  -4   0   7  399.36   24.40
   4   0   7  386.76   23.20
  -4   0   7  433.16   22.90
  -4   0   7  402.06   23.10
   4   0   7  432.26   24.30
   4   0   7  367.06   23.90
  -4  -1   7  628.64   33.10
   4   1   7  597.54   33.90
   4  -1  -7  581.24   33.90
  -4  -1   7  578.64   35.30
   4   1   7  582.04   34.60
  -4   1  -7  576.84   35.90
  -4   1  -7  605.04   33.60
   4  -1  -7  617.34   34.60
  -4  -1   7  590.14   33.10
   4   1   7  614.74   34.50
  -4   1  -7  582.54   34.00
  -4   1  -7  662.03   33.70
  -4  -1  -7  686.23   33.30
  -4  -1  -7  605.44   33.90
   4   1  -7  610.74   33.60
  -4  -1  -7  587.84   35.80
  -4   1   7  630.54   33.60
   4  -1   7  599.54   34.80
  -4  -1  -7  616.64   33.90
   4  -1   7  567.44   34.50
   4   1  -7  598.84   34.00
  -4  -2   7  300.67   21.20
   4   2   7  269.17   21.00
   4   2   7  360.36   20.10
   4   2   7  332.97   19.70
  -4   2  -7  277.17   21.60
  -4   2  -7  356.36   19.50
  -4   2  -7  339.17   19.30
   4  -2  -7  319.27   19.60
   4  -2  -7  319.87   20.70
  -4  -2   7  350.96   19.10
  -4   2  -7  333.17   19.80
   4   2  -7  323.17   18.90
  -4  -2  -7  352.36   21.70
  -4  -2  -7  307.57   19.50
  -4  -2  -7  366.86   18.40
   4  -2   7  304.67   19.40
   4  -2   7  311.17   20.10
  -4   2   7  313.07   19.50
   4  -2   7  340.67   20.60
   4   2  -7  328.37   19.10
  -4  -3   7  339.67   19.80
  -4   3  -7  343.57   20.00
   4  -3  -7  312.17   20.00
   4   3   7  349.27   20.30
   4  -3  -7  343.37   20.30
   4  -3  -7  322.07   21.40
  -4   3  -7  295.57   22.20
   4   3   7  295.27   20.80
  -4  -3   7  287.67   21.70
   4   3   7  338.77   20.10
  -4   3  -7  328.57   19.40
  -4   3  -7  314.67   20.10
  -4  -3  -7  323.47   19.90
   4   3  -7  327.27   19.20
  -4  -3  -7  338.37   21.70
   4   3  -7  314.77   19.00
   4  -3   7  345.27   20.60
  -4  -3  -7  327.77   20.20
   4  -3   7  339.67   21.10
  -4   3   7  341.47   20.50
  -4  -3  -7  333.17   19.10
  -4   4  -7  148.99   16.10
  -4   4  -7  176.58   12.90
   4   4   7  175.28   12.90
   4   4   7  172.68   13.90
  -4   4  -7  191.38   12.40
   4  -4  -7  178.38   15.20
   4  -4  -7  169.98   12.90
   4  -4  -7  175.18   12.50
  -4   4  -7  150.78   13.40
   4  -4  -7  175.18   10.40
  -4  -4   7  137.99   14.80
  -4  -4   7  158.98   12.90
   4   4   7  207.88   13.80
   4  -4   7  144.59   11.50
  -4  -4  -7  184.88   13.50
   4  -4   7  192.48   13.60
  -4   4   7  154.48   13.70
   4  -4   7  154.58   15.10
  -4  -4  -7  160.18   11.80
  -4  -4  -7  195.28   15.20
   4   4  -7  166.68   12.50
  -4  -4  -7  172.38   12.70
   4   5   7  129.59   12.40
   4  -5  -7  129.19    8.80
  -4   5  -7  132.29   11.80
  -4   5  -7  105.69   11.20
   4   5   7  103.79   13.20
   4  -5  -7  129.19   11.00
   4  -5  -7  135.99   12.30
  -4   5  -7  145.09   13.50
   4  -5  -7  119.79   15.50
  -4   5  -7  108.29   16.40
  -4  -5   7  114.49   11.80
  -4  -5   7   85.89   13.50
   4   5   7  134.49   12.40
   4  -5   7  138.69   11.90
   4   5  -7  123.79   10.70
  -4   5   7  106.49   13.60
  -4  -5  -7  155.58   14.00
  -4  -5  -7  136.99   12.90
  -4  -5  -7  115.99   11.40
   4   5  -7  133.49   10.80
  -4  -5  -7  124.39   10.90
  -4   5   7  131.89   14.60
  -4  -6   7   58.19    9.60
   4   6   7   83.59   12.10
   4  -6  -7   66.79   13.00
  -4   6  -7   64.49    8.80
  -4   6  -7   64.79   10.90
   4   6   7   60.59    9.10
   4  -6  -7   76.99   11.90
   4  -6  -7   73.69    7.40
   4   6   7   48.80    9.40
  -4   6  -7   71.79   10.60
   4  -6  -7   78.79    9.70
   4   6  -7   61.59    7.90
   4   6  -7   53.89   11.00
  -4  -6  -7   61.69   10.40
  -4  -6  -7   64.49    9.10
  -4   6   7   54.39   10.40
   4  -6   7   47.10    7.00
  -4   6   7   64.19    9.60
   4  -6   7   78.39   11.50
   4  -7  -7   30.60   10.40
  -4   7  -7   38.90   13.60
  -4   7  -7   30.00    9.60
  -4   7  -7   29.90    8.10
   4  -7  -7   39.30   15.30
  -4  -7   7   18.30    8.20
   4   7   7   15.80    9.80
   4   7   7   28.60   11.50
  -4   7  -7    0.60   14.30
   4  -7  -7   32.70    8.20
   4   7   7   46.80    9.50
   4  -7  -7   35.50    6.20
  -4  -7  -7   30.90    8.10
   4   7  -7   43.30    8.40
   4   7  -7   35.20    7.50
  -4  -7  -7   33.80    7.20
  -4   7   7   34.10   10.30
   4  -7   7   37.20    9.70
  -4  -8   7   18.40   14.80
  -4   8  -7   40.00   18.50
   4  -8  -7   21.00    7.30
  -4  -8   7   11.80    9.30
  -4   8  -7   19.70    9.40
   4  -8  -7  -13.20   12.30
   4   8   7    9.90   12.60
   4   8   7   29.70   11.10
   4  -8  -7   15.10   20.60
   4   8  -7   15.30    8.70
   4   8  -7    1.30   16.70
  -4   8   7   23.50   12.50
   4   8  -7   16.90    9.60
  -4  -8  -7   -3.30    9.90
   4  -8   7   23.70    8.00
  -5   0  -7  464.75   29.80
  -5   0  -7  473.05   27.60
  -5   0   7  483.85   27.50
  -5   0   7  496.35   27.10
   5   0   7  519.15   28.90
  -5   0  -7  500.65   26.90
   5   0   7  478.65   27.70
   5   0  -7  480.85   28.20
   5   0   7  455.75   28.50
   5   0  -7  526.85   27.70
  -5   0   7  454.55   28.90
  -5  -1   7  346.07   23.10
   5   1   7  329.57   21.90
  -5   1  -7  344.17   23.60
   5   1   7  370.96   22.30
  -5   1  -7  358.56   21.10
  -5  -1   7  381.96   20.50
  -5   1  -7  378.06   20.80
   5  -1  -7  398.26   21.50
   5   1   7  368.46   21.50
  -5   1  -7  343.07   21.30
  -5   1   7  370.06   21.00
   5   1  -7  370.66   20.90
   5  -1   7  332.37   21.90
  -5  -1  -7  357.26   23.50
   5  -1   7  393.16   22.80
  -5  -1  -7  351.96   20.00
  -5  -1  -7  356.46   21.20
  -5   1   7  372.36   21.50
   5   1  -7  358.16   21.50
  -5  -1  -7  326.57   21.30
   5  -2  -7  400.96   25.00
  -5  -2   7  435.46   23.40
  -5   2  -7  422.06   23.60
  -5  -2   7  382.56   25.50
   5  -2  -7  428.46   24.00
   5   2   7  442.06   24.50
   5   2   7  374.36   24.40
   5   2   7  413.86   24.10
  -5   2  -7  408.46   24.20
  -5  -2  -7  366.96   23.80
  -5   2   7  411.76   23.80
   5   2  -7  375.86   23.50
   5  -2   7  423.16   25.20
   5  -2   7  406.26   24.00
  -5  -2  -7  381.76   23.70
   5  -2   7  402.06   24.50
  -5  -2  -7  428.06   25.90
   5   2  -7  416.46   23.00
  -5  -2  -7  382.76   23.70
   5   3   7  184.58   13.50
   5   3   7  192.18   13.60
  -5  -3   7  179.98   12.80
   5  -3  -7  178.38   13.00
  -5   3  -7  182.58   12.80
   5   3   7  159.58   13.60
  -5   3  -7  177.18   16.40
  -5   3  -7  178.98   13.20
   5  -3  -7  174.68   14.70
  -5  -3   7  165.28   15.10
   5  -3  -7  179.38   13.00
  -5   3  -7  182.38   12.30
   5  -3   7  188.68   14.60
   5  -3   7  168.78   13.40
  -5  -3  -7  207.78   15.10
  -5   3   7  151.88   13.30
   5  -3   7  160.18   11.60
  -5   3   7  184.48   13.40
   5   3  -7  164.88   11.80
  -5  -3  -7  184.78   13.20
  -5   4  -7  284.27   16.20
  -5   4  -7  215.88   17.00
   5   4   7  224.48   17.40
   5  -4  -7  265.17   19.30
  -5  -4   7  246.38   16.80
   5  -4  -7  246.88   16.70
  -5   4  -7  233.18   20.60
   5   4   7  261.37   17.30
  -5   4  -7  241.28   15.10
   5   4   7  241.28   16.90
  -5  -4   7  228.38   19.10
   5  -4  -7  247.68   16.30
  -5   4  -7  266.17   16.80
   5  -4   7  231.48   15.30
  -5  -4  -7  250.07   18.30
  -5   4   7  220.48   17.40
  -5   4   7  227.88   17.40
  -5  -4  -7  258.87   16.80
   5   4  -7  226.48   16.10
  -5  -4  -7  237.78   15.60
  -5  -4  -7  236.98   16.50
   5  -4   7  256.67   17.60
   5  -4   7  240.38   17.10
   5   4  -7  229.28   15.80
   5   5   7   50.59    8.00
   5  -5  -7   47.80   11.40
   5  -5  -7   61.59   10.20
  -5   5  -7   38.20   11.00
  -5   5  -7   36.20    8.20
  -5  -5   7   30.50    7.60
   5  -5  -7   41.30    6.30
  -5   5  -7   41.50    6.70
   5   5   7   28.40    8.30
   5  -5  -7   54.89    6.10
  -5   5  -7   52.89    8.20
  -5  -5   7   26.20    9.30
   5   5   7   46.20    8.30
  -5   5   7   38.60    7.50
  -5  -5  -7   53.09    8.70
  -5  -5  -7   41.00    7.50
   5   5  -7   40.10    6.50
  -5  -5  -7   42.20    8.00
  -5   5   7   45.70    8.70
   5  -5   7   51.69    8.10
   5  -5   7   43.60    7.90
  -5  -5  -7   42.80    6.70
   5  -5   7   44.80    5.80
   5   5  -7   45.90    6.80
   5  -6  -7  106.29   14.90
  -5   6  -7  132.99   16.70
   5  -6  -7  105.99   11.60
   5  -6  -7  117.29    9.10
   5  -6  -7   99.09   13.20
   5   6   7  100.19   13.80
   5   6   7   84.29   12.10
  -5  -6   7   80.79   12.70
  -5   6  -7   78.29   12.80
  -5   6  -7  101.29   13.10
  -5   6  -7   94.29   15.00
  -5  -6  -7  117.09   12.00
   5   6  -7   98.49   11.90
  -5   6   7  105.09   16.00
   5  -6   7  132.49   13.40
   5  -6   7  123.29   11.30
  -5  -6  -7  104.49   11.50
   5  -6   7  100.09   14.60
  -5   6   7  115.39   15.00
   5   6  -7  109.69   11.40
   5   7   7  -22.90   11.20
  -5   7  -7   -9.70   14.20
   5   7   7   11.80    9.50
  -5  -7   7    2.00   11.50
   5   7   7    3.70   10.30
  -5  -7   7    4.90   10.90
   5  -7  -7   -1.00    5.30
  -5   7  -7    7.10    8.30
   5  -7  -7   11.80    9.40
   5  -7  -7  -12.50   16.40
  -5  -7  -7    6.60    8.20
  -5   7   7    4.20    9.80
   5   7  -7   -2.20    5.90
   5  -7   7   -2.40    8.80
   5   7  -7   17.30    8.30
  -5  -7  -7    1.60    6.90
   5   7  -7   11.30    9.00
   5  -7   7    7.80    9.80
  -5   8  -7    4.70   18.50
  -5   8  -7   27.80   10.60
   5   8   7   24.60   14.40
  -5  -8   7   24.40   10.10
   5  -8  -7   35.40    7.60
   5  -8  -7   43.60   14.30
  -5  -8   7   21.60   14.50
   5   8   7   59.19   12.30
  -5  -8  -7   44.50    9.90
  -5  -8  -7   49.70   11.50
  -5   8   7   38.40   13.70
   5   8  -7   25.30   10.10
   5  -8   7   32.30    9.30
   5   8  -7   18.30   11.30
   5   8  -7   41.10   19.50
  -6   0  -7   43.70    6.70
  -6   0   7   52.09    6.70
  -6   0  -7   54.69    5.70
   6   0   7   68.79    8.20
  -6   0   7   68.19    6.60
   6   0   7   61.99    7.60
  -6   0  -7   77.19   10.10
   6   0  -7   63.39    6.90
  -6   0  -7   66.29    7.40
  -6   0   7   64.19    8.30
  -6   0  -7   59.59    6.80
   6   0  -7   62.29    7.80
   6   0   7   58.39    7.90
   6   1   7   -2.00    5.10
  -6   1  -7    2.10    3.80
   6   1   7    1.10    3.50
  -6   1  -7    1.80    3.10
  -6   1  -7    4.40    3.20
  -6  -1   7   -4.10    5.00
  -6   1  -7   -3.20    3.10
   6  -1  -7    4.80    4.60
   6  -1  -7   -4.00    3.60
  -6   1  -7    2.00    6.00
   6   1   7    1.90    4.10
  -6   1   7    0.90    3.70
  -6  -1  -7   -1.70    3.00
  -6  -1  -7    3.70    5.60
  -6  -1  -7    0.80    3.20
   6  -1   7    3.90    4.20
   6   1  -7    0.70    3.10
   6  -1   7   -1.70    5.10
  -6   1   7   -2.50    3.70
  -6  -1  -7   -0.50    2.20
   6   1  -7    5.50    3.70
   6  -1   7    2.20    3.80
  -6   2  -7   56.89    7.10
  -6   2  -7   61.49    8.20
  -6  -2   7   47.80    7.40
   6  -2  -7   54.19    7.50
  -6   2  -7   50.09    6.90
   6   2   7   44.60    6.50
   6   2   7   43.00    7.20
   6   2   7   40.70    6.10
  -6  -2   7   58.09    9.60
   6  -2  -7   47.20    7.00
  -6   2  -7   41.30    5.60
   6  -2  -7   46.40    7.20
  -6   2  -7   44.90    8.70
  -6  -2  -7   47.10    7.10
  -6   2   7   37.40    6.30
   6   2  -7   45.10    6.10
  -6  -2  -7   41.90    7.10
   6  -2   7   47.80    8.30
   6  -2   7   51.19    7.30
   6   2  -7   53.39    7.40
   6  -2   7   47.50    8.10
  -6  -2  -7   48.90    6.20
  -6   2   7   49.30    6.20
  -6  -2  -7   46.40    8.40
  -6   2   7   44.40    6.70
   6  -3  -7    3.50    5.70
   6   3   7   -2.10    5.00
  -6  -3   7    6.50    5.00
  -6   3  -7    1.60    4.10
  -6  -3   7   -4.00    6.70
  -6   3  -7    6.90    3.80
   6  -3  -7    3.60    4.80
   6   3   7   -0.80    5.70
  -6   3  -7    1.10    4.00
  -6   3  -7    0.20    4.90
   6   3   7   -6.30    4.10
  -6   3  -7    3.80    7.40
   6  -3  -7    6.20    4.00
  -6  -3  -7   -0.30    4.00
   6  -3   7   -2.90    5.80
  -6  -3  -7   -3.40    4.70
   6   3  -7   -0.30    3.50
  -6   3   7   -4.30    5.30
   6  -3   7    4.60    3.10
   6   3  -7    1.90    3.80
   6  -3   7   -1.60    5.20
  -6  -3  -7    2.40    5.90
  -6   3   7   -0.30    4.60
  -6   4  -7   21.60    4.60
  -6  -4   7   29.80    6.90
  -6   4  -7   19.20    9.20
   6   4   7   24.30    7.10
   6   4   7   19.60    6.70
  -6   4  -7   14.70    5.20
  -6  -4   7   18.10    9.60
   6  -4  -7   29.40    6.50
   6  -4  -7   26.80    8.10
  -6   4  -7   17.20    6.40
   6   4   7   17.40    6.20
  -6   4  -7   15.30    5.80
   6  -4  -7   23.60    5.30
  -6   4   7   32.20    7.30
   6  -4   7   30.70    7.10
  -6  -4  -7   21.40    6.10
   6  -4   7   31.20    7.60
  -6   4   7    6.80    6.70
  -6  -4  -7   21.80    5.80
   6  -4   7   19.40    4.50
   6   4  -7   21.30    4.80
  -6  -4  -7   28.90    7.50
  -6  -4  -7   28.90    6.20
  -6  -5   7   -3.60    8.00
   6   5   7    3.90    6.50
   6   5   7   -5.10    6.90
  -6   5  -7    9.20    7.40
  -6   5  -7   -4.30    5.40
   6  -5  -7    3.10    4.90
  -6   5  -7    2.40    9.80
  -6   5  -7   -0.50    6.20
  -6  -5   7    0.80    6.60
   6  -5  -7   15.60   10.00
   6  -5  -7    1.50    6.30
   6   5   7   -2.40    7.50
   6  -5   7    3.60    6.80
  -6   5   7   -0.40    6.70
   6   5  -7    7.00    5.20
   6  -5   7    3.30    4.00
  -6   5   7   -5.40    7.90
  -6  -5  -7   -2.50    4.70
   6  -5   7   -1.10    7.00
  -6  -5  -7   -2.00    5.50
   6  -6  -7    3.20    4.40
   6   6   7   14.60    9.60
   6  -6  -7    7.40    6.70
   6  -6  -7   12.70   12.60
   6  -6  -7   17.60    7.70
  -6  -6   7    0.20    9.50
   6   6   7   -1.90    8.00
  -6   6  -7    6.50    7.60
  -6   6  -7   -2.70    7.70
  -6  -6   7    2.50    7.80
  -6   6  -7    6.10   12.80
   6   6   7   12.20   10.80
  -6  -6  -7    7.20    6.60
   6  -6   7    5.00    8.80
   6  -6   7    9.50    8.10
  -6  -6  -7    5.50    6.20
   6   6  -7   10.90    5.90
  -6   6   7   15.30    9.10
   6   6  -7    7.10    6.70
  -6  -7   7  -11.10    8.40
   6   7   7  -20.20   13.40
   6  -7  -7    3.80    5.40
   6   7   7   10.20   10.80
   6   7   7    1.20    9.70
  -6   7  -7    3.30   15.00
   6  -7  -7   17.60   10.00
  -6  -7   7   20.10   12.00
  -6   7  -7    0.80    9.20
   6   7  -7  -10.30    6.20
   6  -7   7    0.70   11.50
  -6   7   7   31.90   11.80
   6   7  -7   -7.10    9.50
  -6  -7  -7   -9.80    7.70
  -6  -7  -7  -17.10    8.10
   6  -8  -7   11.60   14.10
   6   8   7   -1.00   14.80
   6   8   7   35.90   12.40
  -6   8  -7  -33.70   19.20
  -6  -8   7  -10.90   10.00
   6  -8  -7    3.00    6.90
  -6   8  -7   11.80   11.40
  -6  -8   7   13.00   14.60
   6  -8   7    1.30   16.90
  -6  -8  -7    3.40   11.70
   6   8  -7    6.10    9.50
  -6  -8  -7    7.10    9.70
  -6   8   7    4.80   13.20
  -7   0  -7 1995.20  114.29
  -7   0   7 2155.28  113.99
   7   0   7 2061.29  114.59
  -7   0  -7 2103.99  114.49
   7   0  -7 2210.28  114.29
   7   0   7 2173.58  115.39
  -7   0  -7 2149.08  116.59
  -7   0   7 2031.90  115.99
   7   0   7 2263.67  115.89
  -7   0  -7 2088.09  114.19
   7   0  -7 2081.89  115.09
  -7   0  -7 2091.69  113.39
  -7   0   7 2241.28  113.49
  -7   1  -7   17.70    4.60
   7  -1  -7   14.80    4.60
   7   1   7   10.70    6.20
  -7   1  -7   17.20    4.60
  -7  -1   7   13.20    6.90
   7   1   7   15.20    5.20
  -7   1  -7   26.30    5.30
  -7   1  -7   14.90    7.20
  -7   1  -7   25.70    4.50
   7  -1  -7    8.60    5.30
   7   1   7   11.70    4.40
  -7  -1  -7   15.60    6.80
  -7   1   7   19.80    4.70
   7   1  -7   12.00    4.10
  -7   1   7   15.80    5.00
  -7  -1  -7   15.80    4.80
   7  -1   7   22.60    6.80
   7  -1   7   10.30    5.30
   7   1  -7   17.60    4.90
   7  -1   7   14.70    5.10
  -7  -1  -7   21.10    5.30
  -7   2  -7 1695.13   90.99
   7  -2  -7 1605.94   92.69
   7  -2  -7 1663.13   92.19
  -7   2  -7 1666.43   91.59
  -7   2  -7 1549.14   93.79
   7   2   7 1649.04   92.19
   7   2   7 1733.13   91.89
   7   2   7 1829.92   92.49
  -7   2  -7 1780.22   91.49
  -7   2  -7 1686.33   90.99
  -7  -2   7 1909.31   91.19
  -7  -2   7 1591.44   93.49
   7  -2  -7 1731.53   91.59
  -7   2   7 1653.43   91.89
   7   2  -7 1771.72   90.69
   7   2  -7 1609.44   91.19
  -7  -2  -7 1525.95   91.29
  -7  -2  -7 1729.13   92.89
   7  -2   7 1721.43   91.59
   7  -2   7 1648.14   92.19
  -7  -2  -7 1656.83   91.59
   7  -2   7 1699.63   92.59
   7   2  -7 1726.73   91.59
   7  -2   7 1582.44   90.59
  -7   2   7 1752.42   91.29
  -7   2   7 1577.64   90.49
  -7  -2  -7 1787.02   91.49
  -7  -3   7   10.00    6.90
   7  -3  -7   15.70    4.80
  -7  -3   7   11.70    6.50
  -7   3  -7   14.40    4.60
  -7   3  -7   16.70    5.10
   7  -3  -7   11.10    5.20
   7   3   7   14.20    5.50
  -7   3  -7   12.50    4.70
  -7   3  -7   13.80    8.60
   7   3   7   12.20    5.60
   7   3   7   12.70    6.80
   7  -3  -7   21.90    6.70
  -7   3  -7   12.20    5.70
   7  -3   7    7.40    5.40
  -7  -3  -7   16.20    7.20
   7  -3   7   19.00    7.40
  -7   3   7   15.80    6.00
   7   3  -7    8.00    4.60
  -7  -3  -7   13.10    5.10
  -7  -3  -7   15.80    5.90
   7   3  -7   12.80    4.10
  -7   3   7    7.00    4.70
   7  -3   7   14.70    4.10
  -7   3   7    9.00    6.20
   7  -4  -7  855.41   50.29
  -7   4  -7  866.61   47.90
   7  -4  -7  842.92   47.50
  -7   4  -7  849.91   47.50
  -7   4  -7  779.42   51.29
  -7  -4   7  888.81   48.10
   7   4   7  786.12   48.50
   7   4   7  938.11   48.70
  -7   4  -7  878.61   46.30
   7   4   7  937.61   48.50
  -7   4  -7  788.12   48.10
   7  -4  -7  823.82   48.00
  -7  -4   7  784.62   50.29
  -7   4   7  840.72   47.60
  -7  -4  -7  931.61   48.30
   7  -4   7  910.11   49.10
   7   4  -7  797.22   47.30
   7  -4   7  826.42   48.50
   7  -4   7  768.62   46.70
  -7   4   7  736.93   48.70
  -7  -4  -7  862.31   47.80
  -7  -4  -7  860.01   47.20
  -7   4   7  833.32   48.70
   7  -5  -7    1.20    5.00
   7   5   7    2.70    6.80
  -7  -5   7    3.30    9.20
   7  -5  -7   11.70    7.40
  -7   5  -7   -2.90   11.10
  -7   5  -7    9.90    7.60
  -7  -5   7    4.60    7.30
   7  -5  -7   -8.50   10.00
  -7   5  -7    5.30    6.00
   7   5   7   10.30    8.30
  -7   5  -7  -14.20    7.30
   7   5   7   24.60    8.50
  -7   5   7   -1.60    6.90
  -7   5   7   12.70    9.00
  -7  -5  -7    4.60    6.60
   7  -5   7   12.00    8.10
  -7   5   7    1.40    7.00
   7  -5   7   -3.10    4.70
   7   5  -7    1.30    5.60
  -7  -5  -7   10.10    6.40
   7  -5   7    7.00    8.00
   7   5  -7    4.60    5.00
  -7  -6   7  252.47   22.00
   7  -6  -7  327.67   18.30
   7   6   7  278.27   22.90
  -7   6  -7  256.97   22.00
  -7   6  -7  258.77   29.40
   7  -6  -7  325.77   22.20
  -7   6   7  304.37   23.60
   7  -6   7  296.37   24.90
  -7  -6  -7  307.47   20.50
   7  -6   7  310.87   22.90
   7   6  -7  302.67   20.30
  -7  -6  -7  316.87   21.60
   7   6  -7  233.58   21.10
   7   7   7   20.70   10.40
  -7  -7   7  -17.50    9.20
   7  -7  -7    1.50    5.80
  -7   7  -7  -18.30   16.60
  -7  -7   7   20.40   11.10
   7  -7  -7   -6.40   10.20
   7   7   7    2.50   11.50
  -7   7  -7   13.30   10.10
   7   7  -7    2.10    7.40
  -7   7   7    5.90   11.60
  -7  -7  -7    6.60    8.50
  -7  -7  -7    3.10    9.20
   7  -7   7   -6.70   12.90
  -8   0  -7   -4.20    4.30
   8   0   7    5.70    6.60
  -8   0  -7    3.70    3.50
   8   0  -7    2.00    5.50
  -8   0   7    1.90    5.60
  -8   0  -7    6.50    4.70
  -8   0  -7    4.80    4.10
   8   0  -7   10.30    4.10
   8   0   7    2.40    4.50
  -8   0  -7   -1.50    7.30
   8   0   7    7.00    5.00
  -8  -1   7   92.89   12.40
   8  -1  -7  117.59   10.00
   8  -1  -7  114.69   12.40
   8   1   7   99.79   11.30
  -8   1  -7  113.49    9.20
  -8   1  -7   99.59   15.40
  -8   1  -7  106.59   10.00
   8   1   7   93.99   10.70
   8   1   7  106.69   13.40
  -8   1  -7  105.89   10.30
  -8   1  -7  103.39    9.90
  -8  -1  -7   78.59    9.70
  -8   1   7  121.59   10.00
  -8  -1  -7  116.29   10.70
   8  -1   7   99.09   11.10
   8   1  -7  121.79    9.40
  -8  -1  -7  101.59   10.00
   8   1  -7  100.99    9.60
   8  -1   7  101.19   11.60
   8   1  -7  117.19   11.40
  -8  -1  -7  110.19   14.00
   8  -1   7  131.09   13.40
  -8   1   7  100.19   11.10
   8  -2  -7   10.30    4.60
  -8   2  -7    3.80    6.00
   8   2   7   -5.10    5.00
  -8   2  -7    2.90    4.40
   8  -2  -7   -1.60    4.60
  -8   2  -7    7.10    4.50
  -8  -2   7    9.00    6.00
   8   2   7   13.00    6.00
   8   2   7   13.80    7.00
  -8   2  -7    4.10    9.10
   8  -2  -7    8.30    6.60
  -8  -2   7   -1.80    6.80
  -8   2  -7    1.30    4.40
   8  -2   7    2.20    5.40
   8   2  -7    1.40    4.00
  -8  -2  -7   -2.40    7.10
   8   2  -7    9.30    5.30
   8  -2   7    5.00    5.10
   8   2  -7    4.00    4.30
  -8   2   7   -2.90    5.80
  -8  -2  -7    4.20    4.40
   8  -2   7   -4.00    6.60
  -8  -2  -7   -5.30    4.30
  -8   2   7    8.70    5.30
  -8   2   7    3.10    4.00
   8  -2   7    8.20    3.60
  -8  -3   7   79.99   10.80
  -8   3  -7   63.69    9.70
   8  -3  -7   76.69   10.20
  -8   3  -7   64.19   12.10
   8  -3  -7   81.89   10.90
  -8   3  -7   70.69    9.90
   8   3   7   87.29   11.10
   8   3   7   79.99   11.30
   8  -3  -7  106.19   14.10
  -8   3  -7   80.79    8.70
  -8  -3   7   77.99   12.50
   8   3   7   64.89   10.80
  -8   3  -7   75.39    9.80
   8   3  -7   65.89    8.70
  -8   3   7   83.89   11.40
   8  -3   7   82.49   11.90
  -8   3   7   63.19    9.90
   8   3  -7   72.29    8.20
   8  -3   7   77.79    8.00
  -8   3   7  111.89   12.80
   8  -3   7   78.59   11.40
  -8  -3  -7   75.19   10.60
  -8  -3  -7   80.79   13.30
  -8  -3  -7   78.29    9.40
  -8   4  -7   -5.70    9.80
  -8   4  -7   -0.80    5.90
  -8   4  -7    2.60    4.70
  -8   4  -7   -8.00    7.40
   8   4   7    8.60    6.50
   8  -4  -7   10.30    5.60
  -8   4  -7    2.70    6.90
  -8  -4   7   -2.50    7.20
  -8  -4   7   -4.90    7.80
   8  -4  -7   25.40    9.50
   8  -4  -7    1.70    6.30
   8   4   7   -7.60    7.00
   8   4   7   -4.90    7.80
   8  -4   7   10.40    8.10
   8  -4   7   -4.70    7.20
   8   4  -7    0.90    4.70
  -8   4   7    4.50    6.70
  -8   4   7    3.90    6.20
  -8  -4  -7    6.50    5.20
  -8   4   7    6.20    9.10
   8  -4   7    9.40    4.60
  -8  -5   7   38.50    9.10
  -8   5  -7   50.89   10.10
   8  -5  -7   39.00    8.60
   8   5   7   55.19   10.50
   8   5   7   53.49    9.70
  -8  -5   7   25.00   11.00
  -8   5  -7   28.80   13.70
   8   5  -7   29.60    8.40
  -8   5   7   32.50    9.00
   8   5  -7   24.60    6.60
   8  -5   7   43.40    6.90
   8  -5   7   39.10   10.80
  -8   5   7   36.90    9.10
  -8  -5  -7   37.40    8.10
   8  -5   7   49.40   10.10
   8   6   7    3.00    9.10
  -8  -6   7    8.10   10.80
   8  -6  -7   -1.80    8.60
  -8  -6   7   -4.60   12.10
   8   6   7   12.80   12.60
   8   6   7   26.10   10.60
  -8   6  -7   22.70   13.80
  -8   6  -7    6.10   10.20
   8  -6   7   36.80   12.60
   8   6  -7    5.90    6.70
   8  -6   7    7.90   10.60
  -8  -6  -7   -5.40    7.70
  -8   6   7   -1.80   10.70
   8   7   7   43.60   14.50
   8   7   7   25.50   11.20
  -8   7  -7  -15.60   17.30
  -8  -7   7    8.50   11.70
  -8  -7   7   -0.60   12.70
   8  -7  -7   37.20   12.40
   8  -7  -7   17.00    6.90
  -8   7  -7   16.90   11.60
  -8  -7  -7   24.20   11.20
  -8   7   7    8.50   12.70
   8   7  -7   15.10    8.70
  -8  -7  -7   18.90    9.90
  -9   0  -7  455.95   27.20
   9   0  -7  445.56   26.80
   9   0  -7  465.55   26.80
  -9   0   7  413.36   29.00
  -9   0  -7  427.86   26.80
   9   0  -7  415.26   28.60
   9   0   7  442.86   28.10
  -9   0  -7  477.45   26.00
   9   0   7  465.05   32.00
  -9   0  -7  447.36   30.50
  -9   0  -7  464.85   26.90
   9   1   7  274.27   19.30
  -9   1  -7  280.17   17.00
   9  -1  -7  247.88   18.30
  -9   1  -7  241.58   17.40
  -9   1  -7  237.78   17.30
  -9  -1   7  244.68   20.20
  -9   1  -7  243.68   21.90
   9  -1  -7  254.27   17.30
   9  -1  -7  248.58   20.20
   9   1   7  257.97   18.80
   9  -1  -7  275.07   17.60
   9   1   7  286.57   21.50
  -9   1  -7  271.17   17.50
  -9   1   7  261.47   17.90
   9   1  -7  254.97   19.10
  -9  -1  -7  262.37   17.90
   9   1  -7  256.67   16.90
   9  -1   7  249.08   18.80
  -9  -1  -7  250.87   17.70
  -9  -1  -7  222.08   17.30
   9   1  -7  249.28   17.00
  -9  -1  -7  262.27   21.50
   9  -1   7  255.97   22.50
  -9   1   7  272.67   17.20
   9  -1   7  293.97   21.70
   9   2   7  348.77   24.80
  -9  -2   7  343.17   26.20
  -9   2  -7  375.36   23.40
  -9   2  -7  363.06   24.50
  -9   2  -7  350.76   28.30
  -9   2  -7  392.06   23.20
   9   2   7  363.76   24.40
   9  -2  -7  393.26   26.80
  -9   2  -7  363.66   23.70
   9  -2  -7  400.26   24.90
   9   2   7  417.16   26.40
  -9   2   7  358.06   25.10
  -9  -2  -7  405.46   26.30
  -9  -2  -7  356.76   23.60
   9  -2   7  381.56   24.90
  -9   2   7  369.06   22.60
   9  -2   7  369.66   22.10
   9  -2   7  394.06   26.50
  -9  -2  -7  351.86   23.80
   9   2  -7  349.27   24.50
   9   2  -7  396.26   22.80
   9  -2   7  356.56   24.20
   9   2  -7  378.26   23.40
  -9  -2  -7  403.76   23.70
  -9   2   7  412.26   23.80
  -9   3  -7  146.19   14.00
   9   3   7  122.39   15.30
  -9  -3   7  156.48   14.10
   9   3   7  194.98   18.60
   9  -3  -7  133.99   13.00
  -9   3  -7  128.09   14.70
   9   3   7  173.98   14.80
  -9   3  -7  128.59   19.40
  -9   3  -7  148.29   13.60
   9  -3  -7  161.48   18.60
  -9  -3   7  147.99   16.40
   9  -3  -7  142.39   13.80
  -9   3  -7  159.08   12.40
  -9  -3  -7  138.59   16.40
   9  -3   7  141.29   11.50
  -9  -3  -7  153.88   13.30
  -9   3   7  147.79   16.20
  -9  -3  -7  139.59   13.40
   9  -3   7  141.29   15.00
   9   3  -7  127.19   12.20
   9   3  -7  137.59   14.00
   9   3  -7  148.39   11.80
   9  -3   7  191.58   17.40
  -9  -3  -7  157.18   14.00
  -9   3   7  132.99   13.00
  -9   4  -7  219.48   20.30
   9  -4  -7  228.88   17.90
   9  -4  -7  203.78   16.40
   9   4   7  225.98   25.20
   9   4   7  213.88   18.30
  -9   4  -7  193.58   24.40
  -9  -4   7  200.88   20.40
  -9   4  -7  211.88   18.30
   9   4   7  211.18   19.40
  -9   4  -7  247.88   15.60
  -9  -4   7  232.28   18.50
   9  -4   7  235.58   20.10
   9  -4   7  234.48   19.90
  -9   4   7  180.98   21.70
  -9   4   7  213.88   18.50
   9   4  -7  258.67   21.40
  -9  -4  -7  242.58   17.30
   9  -4   7  180.98   15.60
  -9   4   7  202.08   19.30
   9  -5  -7   45.60    8.10
  -9   5  -7   54.09   11.10
   9   5   7   51.99   11.90
   9  -5  -7   40.10    9.40
  -9  -5   7   31.20   13.40
  -9   5  -7   56.69   15.00
   9   5   7   47.70   12.80
  -9  -5   7   41.30   10.70
   9   5   7   51.29   10.60
  -9  -5  -7   42.40    9.20
   9  -5   7   59.59   11.30
  -9   5   7   28.00   10.20
  -9   5   7   50.79   11.00
   9   5  -7   42.50    8.10
  -9  -6   7  115.49   17.00
   9   6   7   96.59   13.00
   9  -6  -7   87.09   13.00
  -9   6  -7   89.09   14.80
  -9  -6   7   58.79   15.70
   9   6   7   84.69   14.90
  -9   6  -7   82.29   19.00
  -9  -6  -7  101.79   14.40
   9  -6   7   94.09   14.60
  -9  -6  -7  119.89   15.90
   9   6  -7   93.99   14.00
  -9   6   7  102.99   14.70
   9  -7  -7   11.20   12.50
   9   7   7   28.80   16.40
  -9   7  -7    6.50   24.90
  -9  -7   7   -6.30   12.10
  -9   7  -7   21.90   14.70
  -9  -7   7    2.70   12.90
  -9  -7  -7   10.80   10.20
  -9  -7  -7   26.60   11.80
   9   7  -7    3.80    9.60
 -10   0  -7   61.89   10.40
  10   0   7   73.89   11.90
  10   0   7   35.00    8.30
 -10   0  -7   62.79   10.10
  10   0  -7   48.30    7.20
  10   0   7   57.79   10.80
 -10   0  -7   46.30   11.60
 -10   0   7   44.90   10.90
 -10   0  -7   65.79    7.40
  10   0  -7   54.69    8.20
  10   0  -7   55.69   10.50
  10   0  -7   55.29    7.50
 -10   0  -7   52.69    8.30
 -10   1  -7  248.48   22.40
 -10  -1   7  200.58   19.30
 -10   1  -7  206.28   16.60
  10   1   7  272.77   21.30
  10  -1  -7  214.48   17.10
 -10   1  -7  225.78   16.30
 -10   1  -7  235.58   16.30
  10  -1  -7  221.08   20.80
  10   1   7  197.98   17.50
  10   1   7  251.47   18.70
  10  -1  -7  224.58   15.90
 -10   1  -7  174.08   16.50
  10  -1   7  228.28   17.70
  10  -1   7  253.47   20.00
 -10  -1  -7  213.08   20.50
  10   1  -7  221.08   15.80
 -10  -1  -7  182.38   16.40
 -10  -1  -7  211.08   16.30
  10   1  -7  207.28   18.90
 -10  -1  -7  235.48   17.00
 -10   1   7  221.68   16.90
  10   1  -7  186.28   15.30
 -10   1   7  219.38   15.90
  10  -1   7  204.78   14.10
  10  -1   7  215.98   18.00
 -10   2  -7   44.00    8.20
  10  -2  -7   50.99    8.00
  10   2   7   43.90    8.10
 -10   2  -7   24.20    8.70
  10   2   7   44.20   11.20
  10   2   7   33.40    9.30
  10  -2  -7   74.39   10.80
 -10   2  -7   14.30   11.50
  10  -2  -7   47.40    7.10
 -10   2  -7   45.30    7.90
 -10  -2   7   38.70   11.20
  10  -2  -7   49.00   12.00
 -10   2  -7   36.00    7.10
 -10  -2  -7   48.60   10.80
 -10  -2  -7   35.60    8.90
  10   2  -7   48.70    6.90
  10   2  -7   43.00    7.20
 -10   2   7   47.40    8.50
 -10  -2  -7   44.40    7.30
  10  -2   7   36.10    8.50
 -10   2   7   43.40    9.00
  10   2  -7   51.79    9.60
  10  -2   7   41.70    5.80
  10  -2   7   46.60   10.60
 -10  -2  -7   30.10    8.40
  10  -2   7   44.10    7.90
 -10   2   7   49.50    9.50
  10   3   7  136.69   19.00
  10   3   7  128.89   15.00
 -10   3  -7  153.28   13.00
 -10   3  -7  160.98   21.90
  10  -3  -7  130.09   12.70
  10  -3  -7  120.89   13.90
  10   3   7  125.79   17.50
 -10  -3   7  116.69   16.70
  10  -3   7  175.38   18.10
 -10   3   7  160.08   15.40
 -10   3   7  126.79   14.00
 -10  -3  -7  119.29   13.50
 -10   3   7  145.09   18.60
  10   3  -7  146.69   12.50
  10   3  -7  126.59   15.80
  10  -3   7  129.29   12.10
  10   4   7   33.60   12.10
 -10   4  -7    5.70    8.10
  10  -4  -7   21.40    8.10
 -10   4  -7   25.50    7.20
 -10   4  -7   24.80   13.30
 -10  -4   7   19.90    9.80
 -10  -4   7   11.40   12.60
  10   4   7   -0.30   10.30
  10   4   7   32.10    8.40
  10  -4  -7   19.80    7.20
 -10  -4  -7   23.30    7.50
  10  -4   7   26.50   10.00
 -10   4   7    8.60    9.40
 -10   4   7   12.30   13.50
 -10   4   7   12.00    8.90
  10  -4   7   22.00    7.10
 -10   5  -7   50.69   12.20
  10   5   7   52.39   10.90
  10   5   7   43.20   14.60
  10  -5  -7   65.29   11.10
 -10  -5   7   51.59   13.20
 -10   5  -7   39.80   15.70
 -10  -5   7   48.10   14.80
  10  -5  -7   47.10    9.10
 -10   5   7   38.10   14.00
 -10   5   7   53.89   12.40
  10   5  -7   53.79    9.20
 -10  -5  -7   80.69   13.60
  10  -5   7   49.10   12.90
 -10   6  -7   20.10   13.20
 -10   6  -7  -13.90   17.70
 -10  -6   7   -1.80   12.70
 -10  -6   7   21.70   12.00
  10  -6  -7   13.60   11.20
  10   6   7    8.00   10.70
  10   6   7   26.30   17.00
 -10  -6  -7    0.90   10.00
  10   6  -7    7.00    8.60
  10  -6   7    0.20   13.10
 -10   6   7   -6.30   12.70
 -11   0   7   59.99   12.00
  11   0  -7   58.49    9.30
  11   0  -7   81.19   13.30
  11   0  -7   63.19    8.80
  11   0   7   74.29   10.30
 -11   0  -7   66.59   13.30
  11   0   7   97.49   13.90
 -11   0  -7   60.79    9.70
 -11   0  -7   66.99   11.10
  11  -1  -7    5.70    7.60
 -11   1  -7    8.20    8.00
 -11   1  -7    8.00    6.70
  11  -1  -7   -3.40    6.20
  11   1   7    3.40   10.50
  11  -1  -7   -0.20    6.20
 -11  -1   7    1.20    9.40
 -11   1  -7   11.00   11.20
 -11   1  -7    2.10    7.00
  11  -1  -7   13.70   10.80
  11   1   7   -3.50    6.30
  11  -1   7    1.00    6.40
  11  -1   7   -5.80    4.30
 -11   1   7    3.20    8.20
  11  -1   7    0.00    9.00
 -11  -1  -7    2.20    8.50
  11   1  -7   14.40    9.60
  11   1  -7    8.30    6.20
 -11  -1  -7  -10.30    9.40
 -11   1   7   -5.70    6.70
 -11   1   7    5.60    9.20
 -11  -1  -7   -2.60    6.40
 -11   2  -7   60.59    9.80
  11  -2  -7   55.29    9.40
 -11   2  -7   67.89   10.50
  11  -2  -7   43.30    8.20
 -11   2  -7   33.50   10.00
  11   2   7   36.50   12.40
  11   2   7   48.40    9.50
 -11   2  -7   61.59   14.20
 -11  -2   7   50.29   14.30
  11  -2   7   51.09    7.00
  11   2  -7   59.89    8.30
 -11   2   7   44.70   10.50
 -11   2   7   71.59   10.10
 -11  -2  -7   45.90   11.80
  11   2  -7   58.69   11.30
 -11  -2  -7   50.19   10.00
  11  -2   7   72.79   13.70
 -11   2   7   45.20    8.30
  11  -2   7   39.30    8.40
 -11  -2  -7   54.19    8.70
 -11   3  -7   -0.90   13.50
  11  -3  -7    6.30    7.20
 -11   3  -7  -12.10    8.50
 -11   3  -7   16.00    8.00
  11   3   7   -5.90    7.40
  11   3   7   -2.90   12.00
 -11  -3   7    0.90   11.30
  11  -3  -7    3.00    7.40
  11   3  -7    1.00   10.20
 -11   3   7    7.20    8.90
 -11   3   7    3.30    7.80
  11  -3   7    5.40    6.30
 -11   3   7   -9.20   10.60
  11   3  -7    6.80    6.70
  11  -3   7   -6.10    9.40
 -11  -3  -7   13.10    8.20
 -11  -4   7   13.80   13.60
  11  -4  -7    8.70    8.90
 -11   4  -7   26.90   10.80
 -11   4  -7   -8.10   14.50
  11   4   7   20.50    9.30
  11  -4  -7   -1.50    8.20
  11   4   7   24.60   13.60
 -11   4  -7   36.30    8.80
  11  -4   7   31.00   11.30
 -11  -4  -7   22.70    8.40
 -11   4   7   23.00   11.70
 -11   4   7   20.50   10.50
  11   5   7   -2.60   10.30
 -11  -5   7  -13.90   11.80
 -11   5  -7    6.80   16.60
 -11   5  -7   14.00   13.40
 -11  -5   7   10.50   14.00
  11   5   7   16.70   16.40
  11  -5  -7   20.10   10.10
  11  -5   7   -1.70   13.30
  11   5  -7  -12.70    8.50
 -11   5   7   21.80   13.20
 -11  -5  -7    9.40    9.40
  12   0  -7   22.60    8.20
 -12   0  -7    0.10   12.50
  12   0   7    4.70    8.50
 -12   0  -7   34.50   10.10
  12   0   7   10.80   10.70
  12   0  -7   -9.30   18.80
 -12   0  -7   21.00    8.10
 -12   0   7   19.70   11.00
 -12   1  -7   24.10    8.50
 -12   1  -7  -14.40   12.10
  12   1   7   18.30    8.20
 -12  -1   7    7.00   11.20
  12  -1  -7   18.90    8.30
  12   1   7   25.90   12.90
 -12   1  -7    6.00    9.50
  12  -1   7   13.40    5.90
  12   1  -7   16.60    7.60
  12  -1   7   16.60   12.90
 -12  -1  -7   10.40    8.00
 -12  -1  -7   21.00   10.10
 -12   1   7   18.70   10.70
  12   1  -7   13.10   12.30
 -12   1   7   13.80    7.10
  12  -1   7    9.10    7.90
 -12   2  -7   17.20    9.10
 -12   2  -7   12.60   10.00
 -12  -2   7   15.30   11.10
  12  -2  -7    1.30    8.50
  12   2   7   -3.60    9.10
  12   2   7   30.80   14.40
  12   2  -7   19.80    8.00
  12   2  -7    5.90   12.60
  12  -2   7   12.70   12.10
 -12   2   7   21.90    8.30
 -12  -2  -7    5.20    7.90
  12  -2   7   12.30    6.90
 -12  -2  -7   -6.20   12.00
  12  -2   7    7.40    7.80
 -12   2   7   -7.30   11.00
 -12  -2  -7   -4.30   12.00
  12  -3  -7   13.20    9.50
 -12   3  -7   -3.30   10.90
  12   3   7   24.40   15.20
 -12   3  -7   20.50   11.90
  12   3   7    1.40    8.80
 -12  -3   7    5.40   12.70
 -12   3  -7   16.10   15.00
 -12   3   7   24.30   11.70
  12   3  -7    3.10   13.00
 -12   3   7   41.10   14.00
  12  -3   7   20.20   12.10
  12   3  -7   19.50    8.80
 -12   3   7   11.50    9.90
  12  -3   7    5.70    8.10
 -12  -3  -7    7.50    8.30
  12   4   7   -0.10   10.10
 -12   4  -7    4.30    9.40
 -12   4  -7    8.80   17.80
 -12   4  -7  -10.30   12.30
  12   4   7   -4.60   17.10
 -12  -4   7    0.30   15.00
 -12   4   7   -1.40   12.60
 -12  -4  -7   13.00    8.80
  12  -4   7    9.90   12.10
  13   0   7   68.39   11.50
  13   0  -7   85.59   11.90
  13   0   7   75.99   16.40
 -13   0   7   53.19   14.10
 -13   0  -7   77.99   14.00
 -13   0  -7   83.39   13.00
 -13   0  -7   54.59   17.30
  13  -1  -7  301.37   23.80
 -13  -1   7  295.77   27.70
 -13   1  -7  326.47   25.00
 -13   1  -7  286.17   32.50
  13   1   7  299.27   25.30
 -13  -1  -7  280.17   24.90
  13  -1   7  321.67   24.60
  13   1  -7  306.47   23.40
  13  -1   7  348.27   31.50
 -13  -1  -7  271.57   31.10
 -13   1   7  293.47   27.70
  13   2   7   75.69   18.30
 -13   2  -7   40.30   17.50
 -13   2  -7   66.09   14.40
 -13  -2   7   73.79   17.30
 -13   2  -7   60.99   12.60
  13  -2  -7   49.40   12.00
  13   2  -7   91.59   20.60
 -13   2   7   86.99   13.50
  13  -2   7   99.59   16.30
  13  -2   7   44.80   10.20
 -13  -2  -7   65.89   12.20
  13   2  -7   70.69   11.30
 -13  -3   7  181.78   24.60
 -13   3  -7  215.68   21.30
 -13   3  -7  144.39   25.60
 -13   3  -7  248.78   26.70
  13   3   7  173.38   21.50
  13  -3  -7  211.18   21.20
  13   3   7  280.27   33.70
  13  -3   7  193.18   24.60
 -13   3   7  205.88   24.70
 -13  -3  -7  196.48   22.20
 -14   0  -7   16.80   13.90
 -14   0   7  -17.10   13.20
  14   0   7   26.00   17.80
  14   0   7  -14.70   13.70
  14   0  -7    9.40   11.50
 -14   0  -7   -5.40   18.40
 -14   1  -7  -27.50   18.40
 -14   1  -7    5.00   12.80
 -14  -1   7    3.20   12.20
  14  -1  -7   -0.60   11.20
  14   1   7   17.20   18.30
 -14   1  -7    0.90   12.00
 -14   1   7  -16.20   13.30
 -14  -1  -7    8.80   12.70
  14   1  -7   11.20   11.90
  14  -1   7   42.30   20.10
   0   0  -8   12.60    3.50
   0   0   8   24.90    4.50
   0   0  -8   13.80    4.20
   0   0   8   21.40    4.90
   0   0   8   13.70    4.00
   0   1  -8    2.70    2.90
   0   1   8    4.40    4.20
   0  -1   8    2.60    3.40
   0  -1   8    3.30    3.80
   0   1  -8    5.50    4.00
   0  -1  -8    0.50    3.50
   0   1   8   -1.30    2.30
   0  -1  -8   -1.90    3.30
   0   1   8   -1.70    3.80
   0  -1   8    1.10    4.70
   0  -1   8   -3.70    2.10
   0   1   8   -0.70    3.30
   0   2  -8   16.80    3.80
   0  -2   8   21.40    6.20
   0   2  -8    8.30    3.40
   0  -2   8   21.00    4.30
   0   2   8   13.60    3.10
   0  -2   8    9.50    4.20
   0  -2  -8    9.60    7.50
   0   2  -8   17.90    5.30
   0   2   8   14.50    3.90
   0  -2  -8   14.50    4.70
   0  -3   8    3.00    5.80
   0  -3  -8    4.10    4.30
   0   3  -8    5.10    3.30
   0   3   8   -1.60    3.80
   0  -3  -8    5.60    4.60
   0   3  -8    3.70    4.00
   0  -3   8    1.50    3.10
   0   3   8    6.10    3.40
   0  -3   8    4.80    3.80
   0   3  -8   -1.90    5.00
   0   3   8    2.20    4.60
   0   4   8    7.60    5.60
   0   4  -8   24.70    6.90
   0   4   8   24.20    4.80
   0  -4   8    6.40    7.20
   0   4  -8   11.00    3.60
   0   4  -8   20.80    4.80
   0  -4   8   16.20    4.20
   0   4   8   11.30    5.20
   0   4  -8   15.10    7.70
   0  -4  -8   22.90    3.90
   0  -4  -8   12.30    6.60
   0  -4  -8   15.50    4.10
   0  -4  -8   14.60    6.30
   0   5  -8  -11.00    7.30
   0   5   8    1.30    5.10
   0   5  -8    5.60    4.40
   0  -5  -8    2.30    6.40
   0   5  -8   -2.60    5.40
   0  -5  -8   -0.90    4.30
   0  -5   8   -3.30    3.80
   0   5   8    8.50    6.40
   0   5   8    1.50    5.50
   0  -5  -8   10.00    7.70
   0  -5   8    2.40    9.40
   0   6  -8    2.50    9.00
   0  -6  -8   12.90    5.10
   0   6  -8   11.20    7.90
   0   6  -8    9.90    5.60
   0  -6  -8   22.60   10.30
   0  -6   8    8.30    5.10
   0  -6  -8   14.80    8.60
   0   6   8    5.70    7.60
   0   6  -8   19.60    5.40
   0  -6  -8    9.00    5.00
   0   6  -8   13.90    5.30
   0   6   8  -11.40    8.20
   0  -6   8    5.90    9.20
   0   7   8   12.00    9.70
   0   7  -8   -5.40    7.30
   0  -7  -8    9.70    6.90
   0  -7  -8   -2.10    6.60
   0   7  -8   17.90   12.40
   0  -7  -8   -6.90   12.70
   0  -7  -8    1.00    6.40
   0   7  -8   26.00   10.40
   0  -7   8   -6.40    5.30
   0  -7  -8   -0.90   10.70
   0  -7   8    8.30   10.80
   0   7  -8   -4.40    6.50
   0   8  -8   13.40    9.00
   0  -8  -8   14.10    9.40
   0  -8  -8    1.10    9.70
   0  -8   8    4.50    8.10
   0   8  -8   20.50   20.50
   0  -8  -8   20.00   13.60
   0   8  -8   24.00   15.70
   0   8   8   13.50   13.10
   0  -8  -8    1.50    7.10
   0   8  -8   -4.40   11.40
   0   8   8    0.20   10.00
   1   0  -8  264.77   16.50
  -1   0  -8  271.87   18.10
  -1   0   8  261.17   16.70
  -1   0   8  258.07   16.80
  -1   0  -8  265.57   16.40
  -1   0  -8  264.87   15.60
   1   0   8  263.17   17.20
   1   0   8  291.37   16.90
   1   0  -8  275.57   17.20
   1   0   8  250.67   15.50
  -1   0   8  299.07   16.50
  -1  -1   8  693.23   40.70
   1   1   8  698.53   39.30
   1   1   8  750.72   40.00
  -1   1  -8  764.62   40.10
   1  -1  -8  721.03   40.70
  -1  -1   8  723.83   40.00
   1  -1  -8  710.73   40.40
   1   1   8  706.73   40.70
  -1   1  -8  706.33   39.80
  -1  -1   8  771.22   39.90
  -1   1  -8  720.13   39.10
  -1  -1   8  809.02   38.90
  -1   1  -8  706.93   41.40
  -1   1   8  729.63   39.80
   1  -1   8  741.73   40.30
  -1  -1  -8  685.73   40.10
  -1  -1  -8  692.03   41.20
  -1   1   8  708.83   39.00
   1  -1   8  772.82   40.50
  -1   1   8  703.33   40.60
   1   1  -8  708.83   39.80
   1   1  -8  738.23   40.70
   1  -1   8  617.24   40.10
  -1   1   8  717.83   40.00
  -1  -2   8  154.78   13.90
   1  -2  -8  172.88   13.20
  -1  -2   8  188.08   11.40
  -1  -2   8  187.78   12.30
   1  -2  -8  158.48   15.90
  -1   2  -8  193.08   11.40
   1   2   8  170.58   14.80
  -1  -2   8  201.08   12.10
  -1   2  -8  185.08   14.50
  -1   2  -8  168.08   12.10
   1   2   8  184.88   12.70
   1   2   8  196.58   12.20
  -1   2  -8  198.58   12.80
   1   2  -8  176.98   12.00
   1  -2   8  191.58   12.90
   1  -2   8  207.58   13.20
  -1   2   8  189.78   12.50
  -1  -2  -8  197.28   14.20
  -1  -2  -8  173.78   13.60
   1   2  -8  192.78   13.60
  -1   2   8  190.98   11.70
  -1   3  -8  458.05   24.90
  -1   3  -8  372.46   26.20
   1   3   8  437.76   24.30
  -1   3  -8  444.76   23.60
   1   3   8  381.56   25.50
   1   3   8  422.56   24.60
  -1  -3   8  341.07   25.80
   1  -3  -8  438.96   25.80
  -1   3  -8  400.16   26.40
   1  -3  -8  418.46   24.70
  -1  -3   8  409.66   23.80
   1  -3  -8  407.06   25.50
   1   3  -8  380.36   23.90
   1  -3   8  459.15   24.70
   1   3  -8  392.26   25.50
  -1   3   8  410.76   24.60
   1  -3   8  462.65   24.60
  -1   3   8  444.86   24.10
  -1   3   8  399.96   25.70
  -1  -3  -8  454.25   26.20
  -1  -3  -8  414.46   23.40
   1   3  -8  442.16   24.90
  -1  -3  -8  411.66   25.60
  -1   4  -8   54.79    9.10
   1  -4  -8   55.89    6.00
   1   4   8   62.89    8.70
  -1  -4   8   47.00    6.90
  -1   4  -8   66.49    8.80
   1  -4  -8   60.79    8.40
   1   4   8   57.09    9.00
  -1   4  -8   73.09    8.20
  -1  -4   8   39.00    9.30
  -1   4  -8   56.59    7.00
   1   4   8   69.19    8.10
   1  -4  -8   78.39   11.30
   1  -4   8   71.29   10.90
  -1   4   8   59.99    8.70
  -1   4   8   59.89    8.50
   1  -4   8   50.09    6.80
   1   4  -8   76.59    8.10
  -1  -4  -8   57.79    7.00
   1   4  -8   54.69    8.50
  -1  -4  -8   77.99   10.40
   1  -4   8   65.39    7.60
   1   4  -8   68.39    7.90
   1  -4   8   59.39    7.60
  -1  -4  -8   65.69    6.40
  -1  -4  -8   62.99    8.50
   1   5   8  176.78   13.50
  -1  -5   8  150.78   12.10
   1  -5  -8  150.78   12.00
  -1   5  -8  140.89   16.20
   1  -5  -8  173.08   16.30
  -1   5  -8  174.58   12.20
   1  -5  -8  161.38   10.80
   1  -5  -8  185.88   14.90
   1   5   8  162.58   14.80
   1   5   8  145.69   13.70
  -1   5  -8  142.69   13.30
  -1   5  -8  146.19   12.60
   1   5  -8  154.68   12.70
  -1   5   8  122.69   14.80
   1  -5   8  164.48   12.10
   1  -5   8  126.49   15.60
  -1  -5  -8  160.28   11.60
  -1  -5  -8  177.48   15.80
  -1  -5  -8  168.68   15.90
  -1  -5  -8  169.98   11.30
  -1   5   8  174.18   14.30
   1   5  -8  159.48   15.40
   1  -6  -8   14.90    7.90
  -1   6  -8    8.70    6.40
   1   6   8    1.30    6.70
  -1   6  -8    6.30    9.90
   1  -6  -8   15.70   10.20
   1  -6  -8   11.30    4.90
   1   6   8   11.10    8.50
   1  -6  -8   12.40    5.50
  -1  -6   8   10.20    5.60
  -1   6  -8    5.20    5.80
   1   6   8   15.90    7.20
  -1   6  -8   10.60    7.80
  -1  -6   8    7.40   10.70
   1   6  -8   -1.30    6.80
   1   6  -8    7.40    8.50
  -1  -6  -8    3.00    5.70
   1  -6   8    2.60    5.00
  -1   6   8    1.10    8.30
  -1   6   8   10.30    7.70
  -1  -6  -8    9.80    5.50
  -1  -6  -8    4.70    8.60
  -1  -6  -8    5.30    9.90
  -1  -6  -8    0.10    8.60
   1   6  -8    4.90    5.10
   1  -6   8   -1.60   10.20
   1   6  -8   -6.70    9.10
   1   6  -8    7.80    5.40
   1  -7  -8   27.30   14.00
   1   7   8   51.99   10.20
  -1   7  -8   47.60    9.20
   1   7   8   46.60    9.90
  -1   7  -8   52.69   11.80
   1  -7  -8   39.10    8.10
   1  -7  -8   39.60    8.30
  -1  -7   8   36.80    8.10
   1  -7  -8   48.70    7.20
  -1   7  -8   18.50   13.40
  -1  -7   8   27.40   12.80
  -1   7  -8   28.40    8.00
  -1  -7  -8   49.10    7.80
   1   7  -8   41.10   10.50
   1  -7   8   23.50    6.60
  -1  -7  -8   40.10   13.10
  -1   7   8   53.89   11.00
   1   7  -8   35.70    7.20
   1   7  -8   38.10    8.50
   1   7  -8   38.40    8.50
   1   7  -8   33.30   12.00
  -1  -7  -8   49.20   11.80
  -1  -7  -8   35.60    7.30
  -1  -7  -8   50.29    8.70
   1  -8  -8    5.50   13.50
  -1   8  -8   -1.80    8.50
   1   8   8   -2.20   12.50
   1  -8  -8   10.10    9.90
   1   8   8   -4.40    9.90
  -1   8  -8  -13.50   11.30
  -1  -8   8    4.30   13.80
  -1  -8   8   -8.20    7.40
   1  -8  -8   -4.60    8.10
  -1   8  -8   38.20   18.90
   1  -8  -8    8.50    7.40
  -1   8  -8  -13.30   17.40
  -1   8   8   27.90   12.80
   1   8  -8    1.60   16.00
  -1  -8  -8    1.20    8.00
   1   8  -8   -2.60    8.70
   1   8  -8    2.10   14.60
  -1  -8  -8  -10.10    8.30
   1   8  -8   -5.40   10.70
   1  -8   8   -3.50    7.20
  -2   0   8   91.59    9.00
  -2   0   8  100.29    8.00
   2   0  -8   85.29    8.10
   2   0  -8   89.99    8.30
   2   0   8   93.49    8.80
   2   0   8   96.19    8.70
  -2   0  -8   99.39    7.60
  -2   0  -8   96.49    8.10
  -2   0   8   96.49    8.20
   2   0   8   85.79    7.10
  -2   0  -8   88.79    9.90
   2  -1  -8  286.87   18.70
  -2  -1   8  310.07   18.00
   2   1   8  288.07   17.80
  -2  -1   8  275.47   19.10
   2   1   8  290.17   19.30
  -2  -1   8  307.67   18.00
  -2  -1   8  311.57   16.90
   2   1   8  308.77   18.60
   2  -1  -8  324.97   19.00
  -2   1  -8  297.57   18.10
  -2   1  -8  296.67   20.40
  -2   1  -8  311.77   17.50
   2   1  -8  295.67   18.60
   2  -1   8  292.87   18.80
  -2   1   8  297.77   18.00
   2  -1   8  314.07   19.00
  -2  -1  -8  319.67   20.20
  -2   1   8  302.67   18.50
   2   1  -8  305.87   18.20
  -2  -1  -8  326.67   18.60
  -2   1   8  281.27   18.70
   2  -1   8  303.77   18.70
  -2   2  -8   90.09    7.90
  -2   2  -8   80.29   10.80
   2  -2  -8   81.99    8.50
   2   2   8   88.19    7.80
  -2  -2   8   90.49    6.70
   2   2   8   69.29    9.30
   2  -2  -8   79.99    9.30
  -2   2  -8   85.59    6.80
   2   2   8   73.49    8.40
  -2  -2   8   95.49    7.10
  -2  -2  -8   59.19    8.80
  -2   2   8   86.19    6.70
   2  -2   8   86.79    7.40
   2   2  -8   92.89    8.40
  -2  -2  -8   79.09   10.00
  -2   2   8   73.99    7.80
   2  -2   8   86.39    8.20
   2  -2   8   68.89    9.40
   2   2  -8   86.99    7.50
   2  -2   8   82.29    9.20
  -2   3  -8  223.68   13.80
  -2   3  -8  202.78   13.80
   2   3   8  220.58   13.60
  -2  -3   8  153.68   15.20
  -2   3  -8  189.28   16.40
   2  -3  -8  199.98   14.30
   2  -3  -8  210.38   15.10
  -2   3  -8  217.28   12.70
  -2  -3   8  190.48   12.90
   2   3   8  191.28   13.70
   2   3   8  174.18   14.90
   2  -3   8  212.88   14.40
  -2  -3  -8  216.88   15.90
  -2  -3  -8  178.98   16.60
   2   3  -8  199.48   13.70
   2   3  -8  194.78   12.70
  -2   3   8  203.38   13.70
   2   3  -8  213.78   14.40
   2  -3   8  173.48   14.90
  -2  -3  -8  181.78   12.00
  -2   3   8  180.38   14.90
   2  -3   8  219.08   13.80
  -2  -4   8   53.89    7.40
  -2  -4   8   44.60   10.60
  -2   4  -8   47.50    6.80
  -2   4  -8   53.19    8.10
  -2   4  -8   41.20    9.10
   2  -4  -8   49.20    7.30
   2   4   8   48.00    7.10
   2   4   8   57.79    8.40
  -2   4  -8   52.49    7.30
   2   4   8   57.59    8.20
   2  -4  -8   46.70    6.60
   2  -4  -8   56.99    8.40
   2  -4  -8   67.89    8.20
   2  -4   8   62.99    8.30
  -2  -4  -8   52.59    6.40
   2   4  -8   47.10    7.70
   2  -4   8   48.90    6.50
  -2   4   8   46.10    7.80
  -2  -4  -8   47.70    7.50
   2  -4   8   45.60    9.00
  -2   4   8   55.69    8.70
  -2  -4  -8   42.00    6.40
   2   4  -8   48.40    6.50
  -2  -4  -8   54.29    8.80
   2   4  -8   42.20    6.00
   2   5   8   76.59   10.40
   2   5   8   90.89   11.20
   2  -5  -8   84.69   11.60
  -2   5  -8   73.09   11.20
   2   5   8   97.29   11.50
  -2  -5   8   52.19   11.90
   2  -5  -8   82.19    7.70
   2  -5  -8  107.79    9.70
  -2  -5   8   68.59    9.70
  -2   5  -8   70.69   11.90
  -2   5  -8   84.09    9.30
  -2   5  -8   95.69   10.90
   2  -5  -8  101.39   14.80
   2   5  -8   72.79    9.90
  -2  -5  -8   86.19    8.00
  -2  -5  -8  106.99   13.30
  -2  -5  -8  100.29   13.60
  -2   5   8   74.79   12.60
   2   5  -8   93.99    9.60
   2  -5   8   87.09    8.70
  -2   5   8  101.49   11.70
  -2  -5  -8   91.49   10.10
   2   5  -8   74.59    9.60
  -2  -5  -8   93.09    8.60
  -2   6  -8    9.20    8.60
   2  -6  -8   25.80   11.20
   2  -6  -8   39.20    6.70
   2  -6  -8   26.20    5.60
   2   6   8   12.10    7.90
   2   6   8   10.00    8.40
  -2  -6   8   24.60   10.70
  -2   6  -8   19.20    6.70
  -2   6  -8   12.80    6.20
  -2   6  -8   24.60   11.30
   2   6   8   31.50    7.20
  -2  -6   8   22.00    6.50
  -2  -6  -8   30.30    6.60
  -2  -6  -8   23.80   10.40
  -2   6   8   35.80    9.30
   2   6  -8   20.80    6.00
   2   6  -8   11.30    8.50
  -2  -6  -8   30.60    5.50
  -2  -6  -8   28.00    6.10
   2  -6   8   28.50    6.40
  -2  -6  -8   31.70    9.60
   2   6  -8   22.50    5.80
   2   6  -8   26.60    6.80
  -2   6   8   25.70    9.00
   2   6  -8   24.80    5.90
   2  -7  -8   39.70   14.90
  -2   7  -8   29.20    9.00
  -2  -7   8   16.90    7.40
   2  -7  -8   48.20   11.20
  -2   7  -8   18.10   13.90
   2  -7  -8   36.40    7.50
   2  -7  -8   20.20    7.80
  -2   7  -8   23.80    7.80
   2  -7  -8   24.20    6.90
   2   7   8   49.70    8.90
   2   7   8   17.20    9.80
   2   7  -8   22.90    7.60
   2   7  -8   33.20    8.20
   2   7  -8    7.10    9.00
  -2   7   8   28.30   11.20
  -2  -7  -8   32.30    7.80
  -2  -7  -8   41.80   11.40
   2   7  -8   25.10   12.00
   2  -7   8   22.90   11.30
   2   7  -8   27.70    7.00
  -2  -7  -8   17.60    8.20
  -2   8  -8   13.60    9.40
   2   8   8   33.40   10.70
  -2  -8   8   19.90   14.80
   2  -8  -8  -17.20   13.50
   2  -8  -8    9.10    8.60
  -2  -8   8   14.10    9.10
   2   8   8  -13.50   12.50
  -2   8  -8   17.10   18.80
   2  -8  -8   20.70    7.50
  -2  -8  -8    6.20    8.00
   2   8  -8  -12.80   15.70
   2   8  -8    8.70    9.20
  -2  -8  -8   14.70    9.20
  -2   8   8   12.40   13.40
   2   8  -8   -6.90   13.50
   2  -8   8    3.30    7.30
   2   8  -8   15.00   11.20
  -3   0   8  682.73   38.80
   3   0   8  728.63   39.40
   3   0  -8  699.93   38.80
  -3   0  -8  695.23   40.80
  -3   0  -8  744.33   38.60
  -3   0   8  678.13   39.60
   3   0  -8  676.23   39.00
  -3   0  -8  661.33   38.30
  -3   0   8  752.12   38.30
   3   0   8  646.44   38.30
   3   0   8  682.53   40.20
  -3   1  -8 3554.84  166.18
  -3   1  -8 3168.68  165.58
  -3  -1   8 3157.88  164.88
   3   1   8 2978.50  165.68
  -3   1  -8 2949.10  165.88
  -3  -1   8 3147.49  165.58
   3   1   8 2881.41  166.88
  -3  -1   8 2910.11  166.88
  -3   1  -8 3065.99  167.98
   3   1   8 3398.26  166.38
   3  -1  -8 2985.20  166.08
  -3  -1   8 3305.27  165.48
  -3   1   8 3149.98  166.48
  -3  -1  -8 3007.60  165.68
   3   1  -8 3060.79  165.98
   3  -1   8 3328.07  166.68
  -3  -1  -8 3053.99  167.68
   3  -1   8 3117.99  166.58
   3   1  -8 3011.80  165.98
   3  -1   8 2978.40  165.58
  -3   1   8 3153.08  165.68
  -3   1   8 3072.59  166.48
  -3  -2   8  532.85   33.30
   3   2   8  533.75   32.80
   3   2   8  584.94   32.00
  -3  -2   8  621.54   31.10
  -3   2  -8  553.14   31.20
  -3   2  -8  526.95   34.10
   3   2   8  581.24   31.70
   3  -2  -8  541.55   32.80
  -3   2  -8  525.95   31.70
   3  -2  -8  579.44   32.10
  -3   2  -8  615.54   32.00
   3  -2   8  560.04   32.20
   3  -2   8  621.74   32.90
   3   2  -8  541.65   31.30
  -3   2   8  519.45   33.70
   3   2  -8  560.84   31.80
  -3  -2  -8  544.05   33.60
  -3   2   8  548.05   31.60
   3  -2   8  524.55   31.40
   3   3   8 2014.90  101.79
  -3   3  -8 1798.52  101.69
   3  -3  -8 1832.22  102.19
   3   3   8 1843.52  102.69
  -3  -3   8 2030.90  101.49
  -3   3  -8 1995.00  101.29
   3   3   8 1932.71  101.69
  -3   3  -8 1765.82  103.69
   3  -3  -8 1929.81  102.19
  -3   3  -8 2000.00  101.89
   3  -3  -8 1878.11  102.99
  -3   3   8 1775.02  102.69
  -3  -3  -8 1779.12  103.09
   3  -3   8 2060.09  102.29
   3  -3   8 1954.50  102.09
   3   3  -8 1689.63  100.89
   3   3  -8 1891.91  101.79
  -3  -3  -8 1862.31  100.89
  -3   3   8 1808.02  101.69
   3   4   8  242.48   19.40
  -3   4  -8  268.67   18.40
   3  -4  -8  288.27   18.30
   3  -4  -8  296.17   20.60
  -3   4  -8  249.78   21.50
  -3  -4   8  224.58   19.90
  -3   4  -8  287.77   18.60
   3   4   8  322.87   18.70
   3   4   8  301.57   18.50
  -3   4  -8  306.87   18.60
   3  -4  -8  272.97   18.80
  -3  -4   8  309.77   18.30
   3  -4  -8  256.67   16.00
   3   4  -8  243.58   17.00
  -3  -4  -8  266.67   17.10
  -3  -4  -8  296.67   20.50
   3  -4   8  287.17   18.40
   3  -4   8  324.37   18.80
  -3  -4  -8  290.67   22.90
  -3   4   8  264.87   19.80
  -3  -4  -8  293.57   16.40
   3   4  -8  273.77   18.70
  -3   4   8  302.37   18.90
   3   4  -8  278.37   18.20
   3  -5  -8  762.62   44.60
   3   5   8  657.93   42.90
  -3   5  -8  649.04   45.30
  -3  -5   8  703.73   41.90
   3  -5  -8  787.42   41.80
  -3   5  -8  657.63   44.80
  -3   5  -8  699.73   42.40
   3  -5  -8  811.42   43.00
   3  -5  -8  776.12   40.10
   3   5   8  763.92   42.20
  -3   5  -8  798.42   41.60
   3   5   8  814.42   42.50
   3   5  -8  636.44   40.70
  -3   5   8  645.74   44.20
  -3   5   8  644.04   43.70
   3   5  -8  760.12   41.90
  -3  -5  -8  765.52   42.10
  -3  -5  -8  764.62   41.10
  -3  -5  -8  843.82   43.80
   3  -5   8  796.12   41.60
   3   5  -8  627.84   42.00
   3  -5   8  805.12   41.90
  -3  -5  -8  699.53   40.00
   3   5  -8  756.52   41.70
   3  -6  -8  105.69    9.20
  -3   6  -8  103.69   12.20
  -3  -6   8   89.79   11.70
   3   6   8   98.89   13.80
   3   6   8   98.69   13.10
  -3   6  -8   72.79   12.50
   3  -6  -8  110.79   11.70
  -3   6  -8   92.19   16.90
   3  -6  -8  110.89   14.10
  -3   6  -8  114.89   15.10
   3  -6  -8  137.49   20.20
   3   6   8  110.09   13.70
  -3  -6  -8   84.49    8.90
   3  -6   8  108.49   10.40
  -3   6   8  102.89   14.60
  -3  -6  -8  120.69   16.50
  -3  -6  -8  118.29   10.70
  -3  -6  -8  111.89   19.20
   3   6  -8  103.79   11.40
  -3  -6  -8   86.59   12.90
   3   6  -8  102.19   11.40
   3   6  -8  106.19   14.60
   3   6  -8  102.49   11.30
  -3   7  -8  212.98   20.00
   3   7   8  248.98   20.80
   3  -7  -8  227.38   15.50
  -3   7  -8  206.88   18.50
   3  -7  -8  205.18   18.30
   3  -7  -8  245.78   22.60
  -3   7  -8  226.58   27.50
   3  -7  -8  233.78   28.50
   3   7   8  220.98   20.40
  -3  -7   8  202.38   18.60
   3   7  -8  176.98   18.00
   3   7  -8  216.08   17.40
  -3   7   8  249.68   21.60
  -3  -7  -8  260.57   16.90
   3  -7   8  195.58   17.60
  -3  -7  -8  217.18   18.20
   3   7  -8  216.38   17.90
   3   7  -8  152.58   21.60
   3   7  -8  208.78   17.80
   3  -8  -8   41.00   14.70
   3   8   8   18.80   12.30
  -3   8  -8   -0.30   20.00
  -3  -8   8   51.79   15.60
  -3  -8   8   14.00   10.20
  -3   8  -8   31.00   10.00
   3  -8  -8    2.90   21.50
   3  -8  -8   22.00    7.70
   3  -8  -8   22.50    8.80
   3   8   8   34.80   14.10
   3  -8   8   25.00    7.90
   3   8  -8   14.80    9.50
  -3   8   8   44.90   14.10
  -3  -8  -8   27.40    9.10
  -3  -8  -8   39.70   10.60
   3   8  -8   11.50   15.50
  -4   0   8  270.57   16.10
  -4   0  -8  256.47   19.60
   4   0   8  297.67   17.90
  -4   0  -8  259.27   16.30
  -4   0  -8  294.57   16.20
  -4   0   8  266.37   17.80
   4   0  -8  258.27   17.20
   4   0   8  250.57   16.40
   4   0  -8  257.57   16.30
  -4   0  -8  255.87   16.50
   4   0   8  251.97   17.10
  -4   1  -8   87.59    7.50
   4   1   8   97.69    9.40
  -4  -1   8   84.29    9.30
  -4   1  -8   94.89   11.90
   4  -1  -8   87.59    9.30
  -4   1  -8  105.39    8.00
  -4  -1   8   80.89    7.10
  -4   1  -8   89.99    8.10
   4  -1  -8   87.69    7.90
   4   1   8   70.59    7.90
   4   1   8   70.89    8.90
  -4  -1   8   68.49    7.30
  -4  -1  -8   91.89    7.90
  -4  -1  -8  104.29    7.20
  -4  -1  -8   97.59   11.60
   4   1  -8   71.49    7.70
   4  -1   8   74.29    8.40
   4  -1   8   82.49    8.20
  -4   1   8   83.19    8.00
   4   1  -8   66.29    8.60
  -4  -1  -8  103.69    8.30
   4  -1   8   82.69   10.10
  -4   2  -8  188.08   17.60
   4   2   8  223.38   14.80
  -4  -2   8  216.88   13.40
   4   2   8  202.78   15.10
  -4  -2   8  188.08   15.70
   4  -2  -8  222.98   15.40
  -4   2  -8  215.98   14.10
   4  -2  -8  215.48   14.20
  -4   2  -8  223.98   13.60
   4   2   8  188.48   14.00
  -4   2  -8  200.88   14.20
  -4  -2  -8  229.38   12.90
  -4   2   8  200.78   14.10
   4  -2   8  202.28   13.90
   4   2  -8  202.28   13.60
   4  -2   8  201.68   15.50
  -4  -2  -8  231.38   17.10
   4   2  -8  206.48   13.90
   4  -2   8  215.28   14.60
  -4   3  -8   66.49    8.20
  -4   3  -8   57.49    9.00
  -4  -3   8   60.39    7.10
   4   3   8   63.19    8.60
  -4  -3   8   45.50    8.60
   4   3   8   47.60    7.30
  -4   3  -8   57.99   10.20
   4  -3  -8   64.69    8.00
   4  -3  -8   51.79    8.20
   4  -3  -8   53.79    8.70
  -4   3  -8   66.09    8.60
   4   3   8   48.70    7.20
  -4   3   8   52.79    8.40
  -4  -3  -8   59.69    9.10
   4   3  -8   52.79    7.60
   4  -3   8   37.40    7.40
   4   3  -8   59.29    6.40
  -4  -3  -8   57.09    8.10
   4  -3   8   52.79    8.20
   4  -4  -8  103.29    7.20
   4   4   8  104.79   11.00
   4  -4  -8   93.59   10.60
  -4  -4   8  102.89   10.30
   4   4   8  104.29   11.60
  -4   4  -8   94.39   12.70
  -4  -4   8   77.39   12.00
   4  -4  -8  119.39   10.50
  -4   4  -8   90.49   11.30
  -4   4  -8  108.99   10.90
   4  -4  -8  107.19   13.30
  -4   4  -8  108.79    9.80
   4   4   8   81.69   11.70
  -4  -4  -8  126.39   14.20
   4   4  -8  109.89   10.30
  -4  -4  -8  106.49    9.10
   4   4  -8  107.39   10.50
  -4   4   8  104.19   11.60
   4   4  -8   87.39    8.90
   4  -4   8  110.69   10.70
  -4  -4  -8  101.49   13.70
  -4  -4  -8  102.19   10.50
   4  -4   8  103.29   11.70
   4   5   8   13.20    7.40
  -4   5  -8   19.10   10.80
  -4   5  -8    4.40    7.40
  -4  -5   8   25.40   10.80
   4  -5  -8   30.70    5.60
  -4   5  -8   31.10    6.30
  -4   5  -8   23.40    6.30
   4  -5  -8   17.90    8.80
   4   5   8   38.00    7.70
   4  -5  -8   28.50    4.30
  -4  -5   8   13.10    6.50
   4  -5  -8   30.00    8.10
   4   5   8   20.90    7.30
   4   5  -8   25.10    7.10
  -4   5   8   37.60    7.80
  -4  -5  -8   44.20    9.40
   4   5  -8   21.90    5.70
  -4  -5  -8   29.20    8.50
  -4  -5  -8   29.80    6.30
   4   5  -8   22.60    6.40
  -4  -5  -8   27.20    6.30
   4  -5   8   21.20    7.10
   4  -5   8   28.90    7.00
  -4   6  -8   32.50    9.70
  -4  -6   8   18.70   10.40
   4  -6  -8   47.30    7.20
   4   6   8   16.50   10.10
   4   6   8   49.99    9.40
  -4   6  -8   48.50    8.20
  -4   6  -8   44.20   13.30
  -4   6  -8   28.90    7.80
   4  -6  -8   66.19   13.30
  -4  -6   8   26.50    8.00
   4  -6  -8   44.90    9.80
   4   6   8   42.40    9.40
   4  -6  -8   41.90    7.60
  -4   6   8   48.90   18.20
   4  -6   8   49.30    8.00
   4   6  -8   26.60    7.20
  -4  -6  -8   35.50    7.60
   4   6  -8   28.10    7.00
  -4   6   8   54.69    9.70
  -4  -6  -8   39.00    7.40
   4  -7  -8   21.00   16.60
  -4   7  -8   11.70    7.60
   4  -7  -8   13.00   10.70
   4   7   8   12.20   10.70
  -4   7  -8   24.90   16.40
  -4   7  -8   -3.50    9.70
  -4  -7   8    6.70   12.30
   4  -7  -8   10.70    6.30
   4   7   8    1.30    8.20
  -4  -7  -8   10.00    7.70
  -4   7   8   15.70   10.80
   4   7  -8    9.40    7.00
   4   7  -8   -3.20    8.60
   4  -7   8   16.50    7.30
  -4  -7  -8   11.00    7.60
   4  -8  -8   -8.30   14.70
  -4   8  -8   32.30   21.70
  -4  -8   8   -6.80   13.90
   4   8   8   10.50   10.20
   4   8   8    5.00   15.00
  -4  -8   8    6.60    9.40
  -4   8  -8   14.30   11.00
   4  -8  -8   10.90    7.50
   4   8  -8    5.00    9.80
  -4   8   8   43.50   14.00
   4  -8   8   14.20    7.90
  -4  -8  -8    1.70   11.20
  -4  -8  -8   41.10   11.30
   4   8  -8    4.10   11.00
   5   0  -8 1327.17   83.39
  -5   0  -8 1461.65   82.09
   5   0   8 1452.35   82.29
  -5   0   8 1615.84   80.99
   5   0  -8 1512.55   81.49
   5   0   8 1655.63   82.69
  -5   0  -8 1522.65   81.49
  -5   0   8 1428.36   82.79
  -5   0  -8 1479.65   83.99
   5   0   8 1495.45   81.49
  -5   0   8 1542.45   81.29
  -5   0  -8 1576.44   80.99
   5   1   8  125.49   11.00
   5  -1  -8  136.39   10.50
  -5  -1   8  136.59    9.30
   5   1   8  121.49   10.60
  -5   1  -8  128.19   11.20
  -5   1  -8  139.89   10.70
   5  -1  -8  136.09   11.60
  -5   1  -8  153.18   10.10
  -5   1  -8  132.89   14.40
  -5  -1   8  120.49   12.20
   5   1   8  129.39   12.20
  -5   1   8  130.09   10.80
  -5  -1  -8  148.19   14.30
  -5   1   8  126.79   10.10
   5  -1   8  140.49   12.50
  -5  -1  -8  141.29   10.60
   5  -1   8  126.79   11.00
   5   1  -8  150.08   10.20
  -5  -1  -8  142.29   10.60
   5   1  -8  130.49   11.10
   5  -1   8  129.89   11.20
  -5  -1  -8  150.48    9.20
   5   2   8 1126.29   66.29
  -5   2  -8 1218.08   65.39
   5   2   8 1257.07   65.79
  -5   2  -8 1057.89   67.49
   5  -2  -8 1193.58   66.49
  -5   2  -8 1280.77   65.09
   5  -2  -8 1193.18   65.29
  -5   2  -8 1256.77   64.99
  -5  -2   8 1095.59   66.89
  -5  -2   8 1286.07   64.59
   5   2   8 1236.28   65.29
  -5   2   8 1184.48   65.69
   5  -2   8 1299.47   66.49
  -5  -2  -8 1138.19   65.19
   5  -2   8 1219.78   65.19
  -5   2   8 1187.78   64.99
  -5  -2  -8 1210.18   67.29
  -5  -2  -8 1157.28   65.29
   5   2  -8 1182.48   64.59
  -5  -2  -8 1108.89   64.99
   5  -2   8 1182.38   65.89
   5   2  -8 1127.69   64.99
  -5  -3   8  137.39   10.60
  -5   3  -8  109.79   10.20
   5   3   8  118.39   11.20
  -5  -3   8  101.79   13.30
  -5   3  -8   96.69   15.30
   5   3   8  134.39   11.80
   5  -3  -8  106.69   10.80
  -5   3  -8  132.49   11.10
   5  -3  -8  114.79   10.70
  -5   3  -8  123.99   10.90
   5   3   8  115.09   12.20
   5  -3  -8  121.59   12.80
   5   3  -8  119.89    9.60
  -5  -3  -8  110.79   10.60
   5   3  -8  113.49    9.90
  -5   3   8  126.29   11.40
  -5   3   8   93.79   11.70
   5  -3   8  108.89   11.40
   5  -3   8  131.99   13.20
  -5  -3  -8  134.49   14.20
  -5   4  -8  522.75   33.70
   5  -4  -8  615.24   31.30
   5  -4  -8  574.94   33.60
  -5   4  -8  602.74   33.20
   5  -4  -8  586.94   34.00
   5  -4  -8  572.24   35.80
   5   4   8  599.44   33.80
   5   4   8  628.64   34.20
  -5  -4   8  608.84   33.80
  -5   4  -8  531.85   37.20
  -5  -4   8  477.15   35.50
   5   4   8  532.45   34.40
  -5   4  -8  589.14   33.70
   5  -4   8  586.44   34.30
   5  -4   8  605.04   34.50
  -5   4   8  617.54   34.30
   5   4  -8  538.65   33.30
  -5  -4  -8  641.44   35.60
   5   4  -8  542.15   33.10
  -5  -4  -8  567.54   32.60
  -5  -4  -8  589.04   33.70
   5   4  -8  528.35   32.60
  -5   4   8  507.95   34.60
  -5  -4  -8  570.44   34.00
   5  -5  -8   88.39    7.30
   5  -5  -8   76.99   11.70
  -5   5  -8   81.69   14.50
   5   5   8   68.89   10.50
   5   5   8  102.69   12.40
   5  -5  -8   59.29   12.70
  -5  -5   8   71.99   13.50
  -5   5  -8   55.19    9.80
   5  -5  -8  100.89   10.60
  -5   5  -8   70.89    9.40
  -5   5  -8   74.49   11.10
   5   5   8   90.29   12.90
  -5  -5   8   60.79    9.90
  -5  -5  -8  101.69   14.30
   5  -5   8   96.19   13.00
  -5  -5  -8   84.19   11.20
  -5  -5  -8   89.29   11.70
  -5   5   8   95.09   13.00
  -5   5   8   73.19   11.60
   5  -5   8   76.79   12.50
  -5  -5  -8   86.19   10.10
   5   5  -8   65.59   10.20
   5  -6  -8  186.98   17.30
  -5  -6   8  137.19   15.80
   5  -6  -8  190.38   16.10
   5  -6  -8  197.78   12.60
  -5   6  -8  221.88   17.10
   5   6   8  145.89   17.10
   5  -6  -8  211.88   25.20
  -5   6  -8  157.58   20.20
  -5   6  -8  142.29   19.40
   5   6   8  204.08   18.00
  -5   6  -8  153.98   16.40
   5  -6   8  184.68   17.60
   5  -6   8  190.48   16.80
   5   6  -8  172.48   15.00
  -5  -6  -8  190.58   14.90
  -5   6   8  180.78   18.40
   5   6  -8  143.99   15.50
  -5  -6  -8  179.28   15.90
   5   7   8   40.70   11.90
   5   7   8   63.89   11.30
  -5   7  -8   34.10   16.90
  -5  -7   8   30.80   13.60
  -5   7  -8   32.70   10.20
   5  -7  -8   39.90    7.10
  -5  -7   8   33.80   10.20
   5  -7  -8   45.60   11.60
  -5  -7  -8   34.70    9.20
   5  -7   8   48.60   11.90
  -5  -7  -8   49.50    9.90
  -5   7   8   56.19   12.30
   5   7  -8   43.20    8.30
   5  -7   8   47.60   11.10
  -5  -8   8   31.90   10.70
   5   8   8   69.79   12.60
   5  -8  -8   41.70   15.90
  -5  -8   8   17.90   15.50
   5   8   8   33.90   15.70
  -5   8  -8   52.29   12.90
  -5   8  -8   49.10   23.50
   5  -8  -8   33.70    8.70
   5   8  -8   36.40   10.80
   5  -8   8   20.30    7.80
  -5  -8  -8    1.40   11.90
   5   8  -8   20.10   12.00
  -5  -8  -8   49.60   11.10
  -5   8   8   56.19   15.40
  -6   0  -8    9.00    4.20
   6   0  -8   18.00    5.20
   6   0   8   -3.50    6.00
  -6   0  -8    2.80    4.40
  -6   0  -8    1.20    4.20
  -6   0   8    8.60    6.30
   6   0   8   11.00    4.40
  -6   0   8    6.00    4.20
  -6   0   8   12.80    4.20
   6   0  -8    7.30    4.10
   6   0   8    5.90    5.20
  -6   0  -8    7.90    3.80
  -6   0  -8    9.30    7.10
   6   1   8   36.30    6.20
  -6  -1   8   41.30    8.00
   6   1   8   46.90    6.90
  -6   1  -8   39.90    6.00
   6  -1  -8   46.00    6.60
  -6   1  -8   42.40    7.10
   6  -1  -8   41.40    7.90
  -6   1  -8   39.70    5.30
  -6   1  -8   42.60    6.30
  -6   1  -8   51.39   10.50
   6   1   8   38.50    8.20
   6   1  -8   43.50    6.90
  -6  -1  -8   42.10    9.30
   6  -1   8   44.00    7.80
   6  -1   8   43.80    6.60
  -6  -1  -8   41.50    6.30
  -6  -1  -8   46.50    6.30
  -6  -1  -8   41.90    5.30
  -6   1   8   45.70    6.80
  -6   1   8   42.00    5.80
  -6  -1  -8   36.80    6.00
   6  -1   8   44.00    6.90
  -6  -2   8    3.50    4.70
   6   2   8    1.80    4.20
  -6  -2   8    1.50    6.30
  -6   2  -8   14.80    4.40
  -6   2  -8   -3.90    8.40
  -6   2  -8    7.20    5.50
  -6   2  -8   10.90    4.50
   6  -2  -8   13.70    6.30
   6  -2  -8    6.70    5.10
   6   2   8   10.10    4.80
   6   2   8   -0.90    5.80
  -6   2   8    0.70    4.90
  -6  -2  -8    8.70    4.60
  -6  -2  -8    5.40    4.10
   6   2  -8    7.50    3.80
   6  -2   8    6.20    4.90
   6   2  -8   10.30    4.90
   6  -2   8    5.40    5.00
  -6  -2  -8    4.30    4.90
  -6   2   8   13.00    4.80
  -6  -2  -8   13.30    7.60
   6  -2   8  -10.30    6.20
  -6   3  -8   36.20    6.00
  -6   3  -8   32.70    6.90
  -6   3  -8   36.00    6.10
   6  -3  -8   37.70    6.20
  -6   3  -8   33.10   10.50
  -6  -3   8   58.19    8.60
   6  -3  -8   42.80    6.70
   6   3   8   42.50    7.60
   6   3   8   39.40    7.60
  -6   3  -8   35.80    6.50
  -6  -3   8   36.80    8.60
   6   3   8   29.00    6.60
   6  -3  -8   21.70    8.40
   6  -3   8   45.90    9.00
  -6  -3  -8   39.20    8.20
  -6  -3  -8   46.70    9.10
   6   3  -8   26.00    6.10
   6  -3   8   37.70    7.30
  -6   3   8   30.00    7.10
   6   3  -8   45.90    5.60
  -6   3   8   34.60    6.90
  -6  -3  -8   31.40    6.00
   6   4   8    5.10    6.00
   6  -4  -8    6.90    5.10
  -6  -4   8    4.90    9.00
  -6  -4   8   -0.20    6.20
  -6   4  -8    6.40    5.20
  -6   4  -8   -8.10    6.80
   6  -4  -8   10.90    8.20
  -6   4  -8    5.30    5.70
  -6   4  -8    3.30   10.90
   6   4   8   10.80    7.00
  -6   4  -8    2.20    5.00
   6   4   8    6.00    6.70
   6  -4  -8    4.20    5.50
  -6  -4  -8    5.60    6.60
  -6  -4  -8   10.20    7.80
   6   4  -8   -3.70    4.40
  -6  -4  -8    1.20    5.90
   6  -4   8   -6.90    6.00
  -6   4   8   -2.90    7.10
   6  -4   8    1.50    3.90
   6  -4   8   11.40    7.70
  -6   4   8    5.80    6.60
   6   5   8   14.50    8.70
  -6   5  -8   19.90    7.50
   6   5   8   33.70    7.90
   6  -5  -8   29.90    7.30
   6  -5  -8   37.90   10.80
   6  -5  -8   30.20    4.80
  -6   5  -8    9.10    8.50
   6  -5  -8   25.30    6.40
  -6  -5   8   20.60    8.10
  -6   5  -8   17.00    7.10
  -6   5  -8   19.70   12.90
  -6  -5   8   35.60   11.60
   6  -5   8   33.90    8.60
  -6  -5  -8   24.50    8.60
   6  -5   8   22.70    5.80
  -6   5   8   17.20   10.20
   6   5  -8   25.80    6.80
   6  -5   8   28.10    9.00
   6   5  -8   27.50    6.10
  -6  -5  -8   24.60    7.00
  -6  -5  -8   33.00    7.20
  -6   5   8   26.30    8.60
  -6   6  -8    7.60    8.70
   6  -6  -8    4.20    4.90
  -6   6  -8   -2.50    8.30
   6   6   8    7.20    8.40
   6  -6  -8   -1.60    8.40
  -6   6  -8    8.20   13.90
   6   6   8   -3.30   11.30
  -6  -6   8   -5.70   13.50
  -6  -6   8   -4.90    7.90
   6   6   8    3.40    9.70
   6  -6   8  -11.90   10.00
   6   6  -8    0.30    7.70
   6   6  -8   -2.90    6.30
  -6  -6  -8    0.90    6.80
  -6  -6  -8    1.70    6.70
  -6   6   8   -6.10    9.10
   6   7   8   15.20   12.20
   6  -7  -8    3.00   10.40
   6  -7  -8   23.10    6.60
  -6  -7   8   12.40   13.20
   6   7   8   15.00   11.10
  -6   7  -8    9.20   17.80
  -6   7  -8   13.30   10.20
  -6  -7   8   -7.40    9.70
   6   7  -8   10.10    7.80
  -6   7   8   -8.60   12.00
  -6  -7  -8   20.70    9.50
  -6  -7  -8   22.10   10.00
  -7   0   8   44.80    8.10
   7   0  -8   42.40    7.50
  -7   0   8   52.29    7.20
  -7   0  -8   35.80    9.20
  -7   0  -8   35.50    5.80
  -7   0   8   45.20    6.30
  -7   0  -8   45.80    7.80
   7   0   8   46.00    7.60
   7   0  -8   49.99    7.50
   7   0   8   48.80    9.00
  -7   0  -8   43.40    6.40
   7   0   8   39.60    6.60
  -7   0  -8   46.30    6.30
   7   1   8   82.79    9.80
   7  -1  -8   77.39   11.50
  -7   1  -8   94.09    8.70
   7   1   8   97.69   12.20
  -7   1  -8   92.89    9.60
  -7   1  -8   87.89    9.20
  -7   1  -8   91.09    9.40
  -7   1  -8   82.39   12.50
  -7  -1   8   78.19   11.40
   7  -1  -8   83.69    9.30
   7   1   8   96.19   10.90
   7  -1   8   87.59   11.00
   7   1  -8   81.79    8.80
  -7  -1  -8   76.69    8.90
   7   1  -8   80.69   10.20
  -7   1   8   78.09   10.00
  -7  -1  -8   99.69    9.80
   7  -1   8   98.49   12.70
  -7   1   8   78.09    8.90
  -7  -1  -8   86.49    6.90
  -7  -1  -8   84.49    9.50
  -7  -1  -8   80.59   12.10
   7  -1   8   67.49   10.20
   7   2   8   41.30    8.70
   7   2   8   36.80    7.10
   7  -2  -8   30.30    6.20
  -7   2  -8   37.70    6.40
  -7   2  -8   35.20    6.50
  -7   2  -8   32.60    5.60
  -7  -2   8   37.10    8.80
   7  -2  -8   32.40    7.50
   7   2   8   32.60    6.50
  -7   2  -8   30.60   10.10
   7  -2  -8   40.40    7.10
  -7   2  -8   35.20    6.70
  -7  -2  -8   29.60    9.20
   7  -2   8   31.50    8.10
   7  -2   8   32.50    7.10
   7   2  -8   43.00    7.60
   7  -2   8   40.50    6.90
  -7  -2  -8   33.90    6.10
  -7  -2  -8   30.70    5.90
   7   2  -8   45.00    7.30
  -7  -2  -8   31.90    6.50
  -7   2   8   50.39    6.80
  -7   2   8   45.60    7.50
   7   3   8   26.90    7.30
  -7  -3   8   41.00    7.80
  -7   3  -8   30.00   11.20
  -7  -3   8   29.30    9.30
   7  -3  -8   60.19   10.00
   7  -3  -8   51.89   11.70
   7   3   8   36.70    8.50
  -7   3  -8   36.20    6.30
  -7   3  -8   40.70    6.40
  -7   3  -8   43.10    7.30
  -7   3  -8   34.40    6.90
  -7  -3  -8   43.20    7.90
   7  -3   8   28.20    4.90
  -7  -3  -8   43.80    7.70
  -7   3   8   36.90    6.20
   7   3  -8   35.40    7.00
   7  -3   8   43.60    8.10
   7   3  -8   36.00    5.70
   7  -3   8   45.90   10.10
   7   3  -8   44.30    5.60
  -7   3   8   45.60    8.10
  -7  -3  -8   27.20    9.20
  -7   3   8   46.30    7.40
   7   4   8   25.00    8.70
  -7   4  -8   22.30    8.50
   7  -4  -8   27.10    9.90
  -7   4  -8   15.70    6.40
  -7   4  -8   21.30   11.80
   7   4   8   31.20    8.30
  -7  -4   8   19.10   10.40
  -7   4  -8   23.20    5.90
   7   4   8   19.70    6.80
   7  -4  -8   15.70    6.30
  -7   4  -8   22.90    7.90
   7  -4  -8   25.90    7.00
  -7  -4   8   29.40    8.40
   7   4  -8   13.50    5.50
   7  -4   8   33.10    9.20
  -7  -4  -8   37.80    9.50
  -7  -4  -8   18.80    6.20
  -7  -4  -8   26.30    8.00
  -7   4   8   36.40    9.90
   7  -4   8   17.10    5.20
   7  -4   8   25.50    7.90
  -7   4   8   22.70    6.90
  -7   4   8   32.70    8.10
   7   5   8   14.50    8.60
   7   5   8    3.80    9.40
  -7   5  -8   12.00   11.80
  -7  -5   8    3.40    9.60
   7   5   8   11.00    7.90
  -7   5  -8   -9.60    7.20
  -7  -5   8   -2.50    8.30
  -7   5  -8  -10.90    7.10
   7  -5  -8    2.40    7.50
  -7   5   8   17.90    7.90
  -7  -5  -8    4.70    6.30
   7  -5   8    8.60    9.30
  -7   5   8   11.30    8.80
   7  -5   8    1.70    8.80
   7  -5   8    4.00    5.80
   7   5  -8    1.50    5.50
   7   5  -8   -3.50    6.40
  -7  -6   8   14.10    9.10
  -7   6  -8   22.00   17.20
   7  -6  -8   20.60    9.10
  -7   6  -8   15.50    9.70
   7   6   8   19.30    8.70
  -7  -6   8   -6.80   10.90
   7   6   8    3.90   10.10
   7  -6  -8   16.70    5.80
   7  -6   8    4.80   11.80
  -7  -6  -8   14.50    7.90
   7   6  -8   15.40    7.10
   7  -6   8   11.50   10.90
  -7   6   8   24.80   11.30
  -7  -6  -8   23.90    8.60
  -7  -7   8   10.80   11.90
  -7  -7   8  -21.10    9.70
   7   7   8   18.10   10.80
   7  -7  -8   -4.40    6.20
  -7   7  -8    2.50   11.60
   7  -7  -8    5.30   11.90
   7   7   8   -8.40   13.30
  -7   7  -8   40.60   19.20
   7   7  -8  -14.80    8.10
  -7  -7  -8   -0.70    9.10
  -7   7   8    1.20   11.90
   8   0  -8   11.90    5.30
  -8   0   8   11.20    6.50
  -8   0  -8    9.90    4.20
   8   0   8    8.60    5.40
   8   0   8   17.40    8.60
   8   0  -8   23.20    7.50
  -8   0  -8    2.20    5.00
  -8   0  -8   12.60    5.50
  -8   0  -8   24.90   10.30
  -8   0  -8   11.80    4.90
   8   0   8   11.40    6.20
  -8  -1   8    3.10    7.30
  -8   1  -8    0.10    4.90
  -8   1  -8    1.50    4.30
   8   1   8    1.30    7.50
  -8   1  -8   10.80    9.40
  -8   1  -8    9.60    5.70
   8  -1  -8    4.10    5.10
  -8   1  -8   -2.80    4.60
   8   1   8   13.50    6.80
   8   1   8    6.30    5.20
   8  -1  -8    0.30    6.60
  -8   1   8   -4.40    5.80
  -8  -1  -8    4.90    8.80
  -8  -1  -8   -2.30    5.00
  -8  -1  -8    0.40    4.90
  -8  -1  -8   10.20    5.70
   8   1  -8    1.60    6.10
   8   1  -8    2.30    4.90
   8  -1   8    4.90    6.00
   8  -1   8    7.90    6.50
  -8   1   8    2.50    5.20
  -8  -2   8    5.10    8.10
   8  -2  -8    4.60    5.50
  -8   2  -8    0.70    5.40
  -8   2  -8   -4.10    4.90
   8   2   8   13.90    8.10
  -8   2  -8    2.70    5.40
   8  -2  -8    3.30    6.80
   8  -2  -8   18.80    8.10
   8   2   8   10.20    5.60
  -8   2  -8    1.20    6.80
  -8   2  -8    7.20   10.00
   8   2   8    9.90    6.90
   8   2  -8   10.80    6.00
  -8  -2  -8    8.40    6.40
  -8   2   8    7.50    6.80
  -8   2   8   10.20    5.90
  -8  -2  -8   20.30    9.90
  -8  -2  -8    2.20    5.00
   8   2  -8    1.30    4.70
   8   2  -8    9.90    5.00
   8  -2   8   -3.90    7.20
  -8  -2  -8    4.00    5.10
   8  -2   8    9.90    6.00
  -8   3  -8    5.00    5.70
   8  -3  -8    8.00    6.10
   8   3   8   -0.50    5.70
  -8   3  -8    1.40    5.30
  -8   3  -8   -0.50    6.20
  -8   3  -8   -5.60   10.50
  -8  -3   8   -5.50    8.80
   8  -3  -8   -0.10    9.20
   8   3   8    5.60    7.50
  -8  -3   8    8.50    7.30
   8  -3  -8   -8.30    5.60
  -8   3  -8   -0.60    6.90
  -8   3   8    3.80    5.70
   8   3  -8    5.70   10.60
   8   3  -8    8.00    5.10
  -8  -3  -8    1.10    6.00
  -8   3   8   -3.20    7.40
  -8  -3  -8   11.50    9.10
  -8  -3  -8    4.40    7.00
   8  -3   8    4.00    6.60
   8  -3   8   -4.50    6.20
   8   3  -8    8.10    4.70
   8  -3   8    5.80    4.30
   8  -3   8   10.30    8.90
   8  -4  -8   35.40   19.50
  -8   4  -8    9.10    7.40
   8   4   8    0.50    6.50
  -8   4  -8    8.80    6.80
  -8  -4   8    7.00    8.30
  -8   4  -8    5.10    5.60
  -8  -4   8    7.70   10.40
   8  -4  -8    8.10    6.80
   8   4   8   -7.90    8.80
   8   4   8   -3.50    9.10
  -8   4  -8   24.90   12.20
   8  -4  -8   -6.00    6.60
   8  -4   8    8.80    8.60
  -8  -4  -8   -3.60    7.70
  -8  -4  -8    0.60    5.60
   8  -4   8   13.70    9.40
   8  -4   8   -1.60    5.10
  -8   4   8    1.30    6.80
  -8   4   8    3.70    7.70
  -8  -4  -8    9.00    9.20
  -8   4   8   -0.40    9.40
   8   5   8   18.80   10.20
   8   5   8   16.60   11.10
  -8  -5   8    1.20   12.60
   8   5   8   -3.40    7.30
   8  -5  -8   -9.60    8.20
  -8  -5   8   12.20    9.20
  -8   5  -8    0.80   13.80
  -8   5  -8   -9.80    7.80
   8  -5   8    9.10   10.40
  -8   5   8   20.40    9.60
  -8  -5  -8    2.90    7.10
   8   5  -8    0.50    6.90
   8  -5   8   15.40   11.10
  -8   5   8    5.30    9.60
  -8  -6   8   -6.30    9.80
   8  -6  -8   -2.40    9.70
  -8  -6   8   -0.20   12.80
  -8   6  -8   22.10   16.90
   8   6   8    7.90    9.30
  -8   6  -8    5.20   11.10
   8  -6  -8    0.10    5.80
   8   6   8   21.80   12.60
  -8  -6  -8    6.20    8.70
   8   6  -8    0.90    7.20
  -8   6   8   -6.50   11.30
  -8  -6  -8   -1.70   12.50
   8  -6   8  -14.30   10.70
  -8  -7   8    4.20   13.60
   8  -7  -8    0.80    7.00
  -8   7  -8  -18.90   18.40
   8   7   8    2.90   11.90
  -8   7  -8   19.20   14.70
  -8  -7   8   -5.70   11.30
   8  -7  -8  -24.70   11.80
   8   7   8   32.90   15.10
  -8   7   8   -1.40   14.40
  -8  -7  -8    0.70   10.40
  -8  -7  -8   21.10   12.00
   8   7  -8   -5.30    9.30
   9   0  -8  854.51   51.89
  -9   0  -8  812.22   51.49
   9   0   8 1035.00   53.49
  -9   0   8  835.02   52.49
   9   0  -8  901.81   50.09
   9   0   8  830.62   51.29
  -9   0  -8  878.01   50.09
  -9   0  -8  882.21   50.39
   9   0  -8  890.01   50.39
  -9   0  -8  915.81   54.19
  -9   0  -8  946.01   49.10
   9   0   8  924.11   50.99
  -9   1  -8    6.30    5.60
  -9   1  -8   13.70    5.90
   9   1   8   23.20    9.70
  -9  -1   8    5.60    8.80
   9  -1  -8   31.30    9.10
   9  -1  -8   25.50    7.00
   9   1   8   11.10    7.20
  -9   1  -8   15.50    5.60
   9  -1  -8   14.30    6.00
   9   1   8   11.50    6.40
  -9   1  -8   22.30    6.40
  -9   1  -8    5.70   10.20
  -9  -1  -8   15.30   10.00
   9   1  -8    8.40    5.20
   9  -1   8   12.20    7.10
  -9   1   8   10.60    6.10
   9  -1   8    7.40    7.30
   9   1  -8    8.70    5.20
   9   1  -8    9.40    7.60
  -9  -1  -8   18.60    7.00
  -9   1   8    7.20    7.80
   9  -1   8    6.90    8.40
  -9   1   8   14.40    8.80
  -9  -1  -8    5.30    5.70
  -9  -1  -8   12.00    5.80
  -9   2  -8  689.33   40.30
  -9   2  -8  721.33   39.90
  -9   2  -8  720.03   40.10
  -9   2  -8  622.94   44.90
  -9   2  -8  694.23   40.80
   9   2   8  613.64   41.60
   9  -2  -8  698.03   41.20
   9   2   8  718.13   40.80
  -9  -2   8  656.73   43.00
   9  -2  -8  739.13   40.60
   9   2   8  726.63   42.80
   9  -2  -8  683.03   43.20
  -9  -2  -8  690.53   40.30
  -9   2   8  759.32   40.10
   9  -2   8  700.43   41.50
  -9  -2  -8  656.43   40.30
   9  -2   8  760.72   43.30
   9  -2   8  694.03   40.80
   9   2  -8  618.04   40.90
  -9  -2  -8  610.24   40.20
   9   2  -8  711.63   40.20
  -9  -2  -8  727.03   43.40
  -9   2   8  696.93   41.50
   9   2  -8  738.73   39.60
   9   3   8   -4.30    7.80
  -9   3  -8    8.70   11.50
  -9   3  -8   19.70    6.60
  -9   3  -8   14.40    9.00
  -9  -3   8    7.90    9.60
   9   3   8    5.50    9.10
  -9   3  -8   10.70    7.30
   9  -3  -8    3.20    6.50
  -9  -3   8   -0.60    7.80
   9   3   8    7.20    6.20
   9  -3  -8    6.20    6.90
  -9   3  -8   14.80    6.40
   9  -3  -8   16.60   11.40
  -9  -3  -8    9.10    5.80
   9  -3   8    6.20    5.00
  -9   3   8    9.40    7.40
   9  -3   8    2.80    7.80
  -9   3   8    2.60    9.10
  -9   3   8   -3.00    6.20
  -9  -3  -8   11.60   10.40
   9   3  -8   12.00    7.40
   9   3  -8   -1.10    5.60
  -9  -3  -8   13.80    8.70
   9  -3   8   -3.20    6.80
   9  -3   8   -3.30    9.60
   9   3  -8   -4.20    6.30
   9   4   8  381.66   25.20
  -9   4  -8  353.86   23.00
  -9  -4   8  423.86   25.40
  -9   4  -8  304.47   31.10
  -9   4  -8  372.96   25.60
   9   4   8  361.76   28.70
   9   4   8  299.07   26.50
   9  -4  -8  357.96   24.90
  -9   4   8  294.67   29.00
  -9   4   8  423.06   26.10
   9  -4   8  385.26   27.00
  -9  -4  -8  374.86   24.40
   9  -4   8  344.77   23.00
  -9   4   8  316.27   25.10
  -9  -5   8    2.70   10.10
  -9   5  -8    9.60   10.60
  -9   5  -8    5.80   15.00
   9   5   8  -16.70   12.00
   9   5   8    4.50    8.10
   9  -5  -8   11.40   10.00
  -9  -5   8    2.50   12.30
  -9   5   8    6.90   10.50
  -9  -5  -8   19.70    8.60
   9   5  -8   -9.80    6.90
  -9   5   8   -1.90   10.90
   9  -5   8    9.50   11.00
  -9   6  -8  147.49   22.00
   9  -6  -8  161.58   19.30
  -9   6  -8   80.29   20.80
  -9  -6   8   91.69   17.10
   9   6   8  119.39   17.80
   9   6   8  130.09   18.40
  -9  -6   8  163.98   20.40
   9   6  -8  126.69   17.00
  -9   6   8  144.39   22.70
  -9  -6  -8  119.39   18.00
   9  -6   8  124.79   16.70
  10   0  -8   37.00    7.30
  10   0   8   48.50    8.80
 -10   0   8   30.10    9.50
  10   0  -8   43.70   10.50
  10   0   8   30.90   11.00
 -10   0  -8   36.20    7.30
  10   0  -8   44.80    7.10
 -10   0  -8   40.00    7.10
 -10   0  -8   42.10    8.40
 -10   0  -8   34.20    7.30
 -10   0  -8   32.60   12.20
  10   0   8   40.00    9.00
 -10   1  -8  109.29   12.60
 -10   1  -8   91.79   16.00
  10  -1  -8   71.89   10.50
  10   1   8   86.79   13.40
  10  -1  -8   79.39   13.00
  10  -1  -8   88.79   11.50
 -10   1  -8   98.89   11.60
  10  -1  -8   93.39   11.40
 -10   1  -8   77.49   10.30
  10   1   8   90.19   15.10
 -10   1  -8   96.29   12.50
  10   1   8  103.09   14.30
 -10  -1   8   91.79   14.00
 -10  -1  -8  119.49   17.40
  10  -1   8  115.99   13.50
 -10   1   8   97.59   11.70
  10   1  -8   91.49   11.40
  10  -1   8  138.59   17.70
  10   1  -8   77.09   11.30
  10   1  -8  104.19   16.50
 -10  -1  -8   95.49   12.00
 -10  -1  -8   98.59   13.70
 -10   1   8   93.89   13.60
 -10  -1  -8   92.59   14.60
 -10  -2   8   25.20   10.60
  10  -2  -8   16.50    7.30
  10   2   8   31.70   11.30
  10   2   8   20.60   10.20
 -10   2  -8   38.80    7.80
 -10   2  -8   29.10   14.00
  10   2   8   28.80    8.00
 -10   2  -8   10.70    8.50
 -10   2  -8   29.80    7.70
  10  -2  -8   19.40    7.40
  10  -2  -8   47.50   19.30
  10   2  -8   28.60    7.30
 -10  -2  -8   31.20   11.80
  10  -2   8   28.00    8.10
 -10   2   8   21.40    9.50
 -10  -2  -8   31.60    9.00
 -10   2   8   47.80    8.40
  10  -2   8   27.70   10.50
  10   2  -8   22.20    9.20
 -10  -2  -8   17.50    6.80
  10  -3  -8   72.79   10.30
 -10   3  -8   40.70   16.40
  10   3   8   78.09   13.90
 -10   3  -8   66.79    9.80
  10   3   8   54.09    9.90
 -10   3  -8   60.49    9.80
  10  -3  -8   61.79    9.60
  10   3  -8   72.79    9.20
  10   3  -8   81.49   11.90
 -10   3   8   62.69    9.40
 -10   3   8   80.29   11.20
 -10  -3  -8   72.29   13.10
 -10  -3  -8   86.79   12.70
  10  -3   8   53.39    7.90
  10  -3   8   80.29   13.30
 -10   3   8   57.79   13.60
 -10  -3  -8   75.49   14.90
  10   4   8   15.20    8.50
 -10   4  -8   28.60   16.10
 -10  -4   8   19.40   10.10
  10   4   8   34.70   13.20
 -10   4  -8   31.50   10.30
  10  -4  -8   11.20    8.20
 -10   4  -8   25.60    8.00
 -10  -4   8    3.40   11.10
  10  -4  -8    6.10    8.20
 -10   4   8    2.20    9.50
 -10  -4  -8    3.10    7.90
 -10   4   8   16.80    9.80
  10  -4   8    8.10   10.80
 -10  -5   8   34.50   14.80
  10   5   8   44.10   15.80
  10  -5  -8   51.69   11.70
  10   5   8   35.10   11.20
 -10  -5   8   22.70   12.80
 -10   5  -8   37.60   17.40
 -10   5  -8   30.60   13.30
 -10   5   8   52.89   13.30
 -10  -5  -8    8.50   10.60
  10   5  -8   25.40    9.20
  10  -5   8   29.40   14.00
 -10   6  -8   -7.70   13.40
  10   6   8   38.10   19.00
  10  -6   8    0.10   14.90
  10   6  -8    0.70   10.40
 -10   6   8   24.00   15.10
 -10  -6  -8   -6.90   11.10
  11   0   8  287.47   26.10
  11   0   8  280.37   22.30
 -11   0  -8  275.37   22.20
  11   0  -8  275.37   26.80
 -11   0  -8  261.77   27.90
 -11   0  -8  271.07   21.10
  11   0  -8  287.47   20.40
 -11   0  -8  320.77   20.30
 -11   1  -8  256.17   21.80
  11   1   8  317.57   27.60
  11   1   8  265.07   21.30
 -11   1  -8  289.27   21.30
 -11   1  -8  272.87   28.30
  11  -1  -8  288.57   20.50
 -11  -1   8  243.98   26.50
 -11   1  -8  282.27   21.20
  11  -1   8  308.37   22.10
  11  -1   8  314.67   25.60
 -11   1   8  244.58   26.40
 -11   1   8  301.47   20.10
 -11  -1  -8  289.57   22.20
  11   1  -8  244.58   25.90
  11   1  -8  287.57   21.90
 -11  -1  -8  285.07   27.00
 -11  -1  -8  254.87   20.90
 -11   1   8  290.57   30.90
 -11   2  -8  263.87   20.90
  11   2   8  275.47   27.10
 -11   2  -8  255.27   28.40
  11  -2  -8  241.78   22.90
  11  -2  -8  217.58   19.30
  11   2   8  238.88   20.70
 -11  -2   8  228.68   22.90
 -11   2  -8  260.77   19.50
  11   2  -8  215.98   24.50
 -11   2   8  207.28   28.20
 -11  -2  -8  275.97   25.40
  11  -2   8  286.67   25.40
  11   2  -8  233.98   18.70
  11  -2   8  217.68   20.40
 -11  -2  -8  252.57   21.70
 -11   3  -8  183.48   20.00
 -11  -3   8  170.68   20.90
  11   3   8  154.78   24.80
 -11   3  -8  185.38   27.50
  11  -3  -8  149.69   17.00
  11  -3  -8  167.78   17.70
 -11   3  -8  215.28   17.80
  11   3   8  160.58   18.20
  11   3  -8  170.18   16.80
  11   3  -8  182.88   22.80
 -11   3   8  197.28   19.90
  11  -3   8  142.19   15.50
 -11   3   8  151.98   17.40
 -11   3   8  180.88   23.30
 -11  -3  -8  145.69   17.00
 -11   4  -8  112.69   20.80
  11  -4  -8   96.09   17.10
  11   4   8  138.59   20.00
  11   4   8  136.19   18.60
 -11   4  -8  156.58   20.90
  11  -4  -8  159.98   18.00
 -11   4  -8  165.98   17.20
 -11  -4   8   97.79   17.80
  11  -4   8  175.78   22.10
 -11   4   8  142.49   21.80
 -11  -4  -8  150.48   17.10
 -11   4   8  114.69   16.70
 -11  -5   8   75.49   15.10
 -11   5  -8   43.40   15.20
  11  -5  -8   72.99   14.90
 -11   5  -8   32.50   20.00
 -11  -5   8   84.59   18.60
  11   5   8   66.89   12.30
  11   5   8   75.89   19.70
 -11   5   8   85.29   16.20
  11   5  -8   54.49   11.90
  11  -5   8   62.49   16.40
 -11  -5  -8   45.20   12.10
  12   0  -8   12.40    8.10
  12   0   8    1.10    8.70
 -12   0  -8   15.00    8.90
 -12   0   8    1.70   10.00
 -12   0  -8   -7.00   13.60
 -12   0  -8    9.40   11.10
  12   0   8   24.70   13.90
 -12   1  -8   45.30   10.70
 -12   1  -8   19.10   14.60
 -12  -1   8   23.50   14.60
  12   1   8   22.80   14.10
  12   1   8   32.80    9.80
  12  -1  -8   30.50    9.10
 -12   1  -8   22.00    9.70
 -12  -1  -8   10.40   14.80
 -12  -1  -8   42.10    9.90
 -12  -1  -8   27.10   12.40
 -12   1   8   34.70   12.30
  12  -1   8   30.90    9.70
  12  -1   8   19.30   13.60
  12   1  -8   44.80    9.50
  12   1  -8   53.99   16.80
 -12   2  -8   -3.30   15.30
 -12  -2   8   13.30   14.30
 -12   2  -8    1.40   14.50
  12   2   8  -10.00   15.10
 -12   2  -8   13.50    9.80
  12  -2  -8  -13.50    8.60
  12   2   8    1.50    9.50
  12   2  -8   23.80   14.50
  12   2  -8    3.10   13.80
 -12  -2  -8   10.70    9.90
 -12   2   8  -15.90   10.80
  12  -2   8    4.70    8.90
  12  -2   8   -0.80   13.40
 -12  -2  -8   -9.10   13.90
  12   3   8   35.60   17.60
  12  -3  -8   15.20   10.20
 -12   3  -8   13.90   18.50
 -12   3  -8   34.40   11.10
 -12  -3   8   12.70   13.90
  12   3   8   17.60    9.50
 -12   3  -8   12.10   12.70
 -12   3   8   13.40   19.50
 -12   3   8   21.70   12.30
  12  -3   8   39.70   14.50
  12   3  -8   -0.70    9.30
 -12  -3  -8   11.30    9.80
 -12  -4   8   -3.10   12.80
  12  -4  -8    7.40   12.00
  12   4   8    5.30   19.20
 -12   4  -8    6.00   11.10
 -12   4  -8    3.30   14.80
 -12   4  -8   -0.90   20.90
  12   4   8    7.30   10.90
 -12   4   8    0.30   13.60
  12  -4   8   16.20   14.90
 -12  -4  -8   18.60   13.30
  13   0  -8    8.40   10.20
  13   0   8   -9.80   15.70
 -13   0   8   -2.20   13.30
  13   0   8   -5.80    9.80
 -13   0  -8   -6.80   16.30
 -13   0  -8    6.00   11.60
 -13   1  -8   58.19   19.60
 -13   1  -8  101.29   15.30
  13   1   8  125.09   21.40
  13  -1  -8   87.49   13.20
  13   1   8  139.19   19.10
 -13  -1   8  121.59   20.50
 -13  -1  -8  113.89   19.40
  13  -1   8  110.39   18.90
 -13   1   8   79.79   18.00
  13   1  -8  108.49   17.50
  13  -1   8   85.89   13.00
 -13  -1  -8   65.79   18.80
 -13   2  -8   23.10   13.20
 -13   2  -8  -34.20   19.00
  13  -2  -8  -16.00   10.90
 -13   2  -8   32.40   14.40
  13   2   8   -6.20   10.00
  13   2   8    5.80   18.50
 -13  -2   8   -1.10   12.20
 -13   2   8   -1.30   12.70
  13  -2   8   23.10   14.40
 -13   2   8   -4.90   12.70
  13  -2   8    9.50    9.80
 -13  -2  -8    2.50   10.90
  13   2  -8    2.80   10.60
   0   0  -9   13.70    4.20
   0   0   9    3.30    5.00
   0   0   9   -3.40    4.00
   0   0   9    3.00    2.50
   0   0   9   -0.80    4.10
   0   0  -9    5.00    4.60
   0   1   9  365.26   22.00
   0   1   9  379.96   21.90
   0  -1   9  383.56   22.40
   0  -1   9  378.26   20.50
   0   1  -9  400.16   23.70
   0  -1  -9  393.66   23.30
   0  -1   9  344.47   22.70
   0   1   9  342.77   23.70
   0  -1   9  398.16   22.40
   0   1   9  350.16   20.90
   0  -1  -9  385.46   22.70
   0   1  -9  327.57   22.40
   0  -2   9   -0.20    2.90
   0  -2   9   -0.40    3.80
   0  -2   9   -4.90    4.50
   0   2   9   -1.40    3.10
   0   2   9   -0.80    4.10
   0   2  -9    1.80    3.60
   0   2  -9   -0.20    3.80
   0  -2  -9   -3.50    4.50
   0  -2   9   -3.80    6.30
   0   2   9   -6.00    4.90
   0  -2  -9   -0.50    4.40
   0   2  -9    7.80    5.30
   0   3  -9  224.58   16.10
   0   3   9  216.48   17.70
   0   3  -9  250.87   18.80
   0  -3   9  235.08   15.30
   0   3   9  262.87   16.10
   0  -3   9  267.17   16.60
   0  -3   9  276.27   16.00
   0   3   9  255.37   16.70
   0  -3  -9  254.87   18.00
   0  -3  -9  271.17   18.30
   0   3  -9  266.67   17.00
   0  -4   9    5.80    7.70
   0   4   9    3.50    4.40
   0  -4  -9    6.20    4.80
   0   4  -9    4.50    5.50
   0   4   9   -1.70    5.00
   0  -4  -9    3.10    6.90
   0   4  -9   -0.80    4.20
   0   4  -9    1.20    7.20
   0   4   9   -0.90    6.80
   0  -4   9    2.90    4.20
   0  -4  -9   -5.90    5.60
   0   4  -9    2.40    3.60
   0  -5  -9  113.09    9.50
   0  -5   9  102.09   10.20
   0  -5  -9  113.09   10.70
   0   5  -9  105.79   11.50
   0   5  -9   99.09   10.40
   0   5   9  109.59   14.60
   0  -5   9   84.29   15.00
   0   5   9  146.19   12.50
   0   5   9   85.39   12.80
   0   5  -9  130.69   12.30
   0   5  -9   97.09   13.20
   0  -5  -9  141.29   14.30
   0  -5  -9  138.99   16.30
   0  -6  -9   10.00    5.80
   0   6  -9  -17.20    9.90
   0  -6   9    4.10   11.20
   0   6  -9    6.90    5.80
   0   6  -9   -0.80    6.10
   0   6   9    0.90    6.80
   0  -6   9   -2.40    5.40
   0  -6  -9   -4.90   10.10
   0   6   9  -12.70   10.00
   0   6   9    1.60    8.20
   0   6  -9   16.00    8.40
   0  -6  -9    3.50   12.10
   0  -6  -9    5.70    5.70
   0  -7   9   28.60   14.60
   0  -7  -9   41.00    8.40
   0  -7  -9   54.89   16.70
   0   7   9   50.69   11.20
   0   7  -9   32.90   12.20
   0   7  -9   39.80   15.20
   0   7  -9   36.70    8.10
   0   7   9   52.19   11.50
   0   7  -9   38.20    9.50
   0  -7  -9   79.79   14.20
   0  -7  -9   45.20    8.90
   0  -7  -9   45.40    9.80
   0   7  -9   33.40    8.80
   0   8  -9  -10.80   18.30
   0  -8  -9    9.10   15.70
   0   8  -9    0.30   17.40
   0  -8  -9   -0.40    8.90
   0   8   9    2.10   13.30
   0   8  -9   12.50    9.40
   0  -8  -9   -4.30   10.10
   0  -8   9   -4.50    9.10
   0   8   9  -17.20   11.40
  -1   0  -9  521.05   28.70
   1   0  -9  502.15   29.70
  -1   0  -9  530.55   31.30
  -1   0   9  553.24   29.50
   1   0   9  482.85   28.50
   1   0   9  529.35   29.90
   1   0   9  529.85   30.30
   1   0  -9  535.15   30.40
  -1   0   9  515.65   30.00
  -1   0   9  492.15   29.80
  -1   0  -9  487.75   29.40
   1   1   9  752.22   42.20
   1   1   9  796.92   43.00
  -1   1  -9  826.72   43.10
  -1  -1   9  838.12   41.60
  -1   1  -9  741.03   44.60
   1  -1  -9  755.72   43.80
  -1  -1   9  810.52   43.10
   1   1   9  771.22   43.80
  -1  -1   9  725.63   43.60
  -1   1  -9  735.03   42.70
  -1  -1   9  826.62   42.90
  -1   1  -9  757.62   41.90
   1  -1  -9  746.83   43.40
  -1   1   9  789.22   43.10
   1  -1   9  829.92   43.50
  -1  -1  -9  737.03   43.20
   1  -1   9  782.22   43.30
  -1   1   9  777.62   42.70
   1  -1   9  670.73   43.00
   1   1  -9  794.22   43.80
  -1   1   9  752.32   41.80
  -1  -1  -9  765.42   44.50
  -1  -2   9  404.86   21.90
  -1  -2   9  329.97   23.30
   1  -2  -9  364.36   23.30
  -1   2  -9  342.67   21.80
   1   2   9  388.86   21.60
  -1   2  -9  391.66   22.50
  -1  -2   9  389.46   21.00
   1   2   9  350.76   23.10
  -1  -2   9  395.46   22.20
  -1   2  -9  364.26   24.20
   1  -2  -9  393.76   23.20
   1   2   9  364.76   22.20
  -1   2   9  374.86   22.00
   1  -2   9  382.86   22.80
   1   2  -9  380.16   23.50
  -1  -2  -9  397.46   24.00
   1  -2   9  397.36   22.50
   1  -2   9  317.87   23.00
  -1  -2  -9  346.37   22.70
  -1   2   9  339.97   23.00
   1   2  -9  312.47   23.80
  -1   2   9  377.26   21.10
  -1   3  -9  505.35   27.30
  -1   3  -9  443.86   29.20
   1   3   9  452.15   26.80
   1   3   9  408.86   27.70
  -1   3  -9  429.06   26.40
  -1   3  -9  464.05   25.60
   1  -3  -9  445.16   27.90
   1  -3  -9  467.35   28.00
  -1  -3   9  438.86   25.80
   1   3   9  466.75   26.50
   1  -3   9  484.15   26.70
   1  -3   9  411.96   25.60
   1   3  -9  446.36   27.10
   1  -3   9  503.45   27.10
  -1  -3  -9  465.55   28.50
   1   3  -9  434.36   28.00
  -1   3   9  451.65   26.80
  -1   3   9  408.76   28.00
  -1   3   9  472.15   26.10
  -1  -3  -9  489.05   28.10
   1  -4  -9  163.28   14.50
   1   4   9  126.39   14.10
  -1   4  -9  153.78   16.30
  -1   4  -9  159.48   13.30
   1   4   9  165.48   13.30
   1  -4  -9  168.58   13.00
   1   4   9  168.78   13.00
   1  -4  -9  160.58   15.50
  -1   4  -9  160.18   11.40
  -1   4  -9  172.68   13.10
  -1  -4   9  147.39   11.50
   1   4  -9  133.99   12.30
  -1   4   9  149.19   13.10
  -1  -4  -9  161.28   12.20
   1   4  -9  144.19   14.80
  -1  -4  -9  178.78   15.10
   1   4  -9  156.28   12.60
  -1   4   9  172.18   15.30
  -1   4   9  167.58   12.60
   1  -4   9  176.68   12.20
   1  -4   9  151.08   11.40
  -1  -4  -9  200.98   15.60
   1  -4   9  136.59   15.70
  -1  -4  -9  147.39   10.70
   1   5   9  187.08   14.20
  -1   5  -9  142.09   13.30
   1   5   9  125.79   15.40
  -1  -5   9  146.79   11.90
  -1   5  -9  153.28   14.20
  -1   5  -9  133.79   17.90
   1  -5  -9  173.38   15.80
   1   5   9  135.09   19.30
   1  -5  -9  144.69   10.90
   1  -5  -9  182.08   18.00
   1  -5  -9  176.08   12.90
  -1  -5  -9  156.38   11.90
   1  -5   9  148.19   11.80
   1   5  -9  132.79   16.90
  -1  -5  -9  176.48   16.80
   1   5  -9  144.39   13.30
  -1   5   9  146.89   14.00
  -1   5   9  103.59   15.70
  -1  -5  -9  171.88   17.70
   1   5  -9  160.88   13.70
   1  -5   9  121.09   16.70
  -1  -5  -9  146.79   11.50
   1   6   9   52.49    8.60
  -1   6  -9   46.10    9.80
   1   6   9   37.00   10.30
   1   6   9   49.00    9.70
  -1   6  -9   24.90   12.90
   1  -6  -9   46.70    7.60
   1  -6  -9   48.30    6.90
  -1   6  -9   43.40    8.40
  -1  -6   9   23.10   12.00
   1  -6  -9   47.10   13.40
  -1  -6   9   44.00    7.60
  -1   6  -9   34.00    7.60
   1  -6  -9   52.39   10.50
  -1  -6  -9   56.79    9.00
   1   6  -9   39.00    8.40
   1  -6   9   39.30    6.30
   1   6  -9   26.80    7.30
   1   6  -9   42.20    7.60
  -1   6   9   21.80   10.90
   1  -6   9   21.90   11.10
  -1  -6  -9   38.70    6.90
  -1   6   9   43.20    9.40
  -1  -6  -9   65.99   12.70
  -1  -6  -9   51.19   11.60
   1   6  -9   48.60   11.50
  -1  -6  -9   39.40    7.10
   1  -7  -9   27.60    9.00
  -1   7  -9   20.90    8.40
   1  -7  -9   37.70    9.60
   1  -7  -9   44.10   17.30
   1   7   9   22.10   10.70
   1  -7  -9   39.30    7.90
  -1   7  -9   -0.80   12.40
  -1   7  -9   37.10   15.30
  -1   7  -9   20.80    9.70
   1   7   9   53.59   10.10
  -1  -7   9   45.00   14.00
   1  -7  -9   35.00   12.30
   1   7  -9   31.60    8.20
   1   7  -9   31.40   14.00
  -1  -7  -9   29.30    8.30
   1   7  -9   41.60   11.40
  -1   7   9   37.60   11.30
  -1  -7  -9   55.19   16.20
  -1  -7  -9   49.00   13.30
  -1  -7  -9   40.80    8.20
  -1  -7  -9   35.90    9.40
   1   7  -9   24.70    8.30
  -1   8  -9  -14.50   13.90
  -1   8  -9   -3.50    8.90
  -1  -8   9   -7.30    8.30
   1   8   9  -14.40   13.30
   1  -8  -9   11.30   10.20
   1  -8  -9   18.80    8.70
   1  -8  -9    7.00   15.80
   1   8   9   40.60   11.20
  -1  -8   9   19.80   15.70
  -1   8  -9    9.20   20.00
  -1  -8  -9   25.20   15.50
  -1   8   9   13.40   14.50
   1  -8   9    8.00    7.70
   1   8  -9    8.00   20.30
   1   8  -9   -5.90    9.50
  -1  -8  -9   -5.10    8.40
  -1  -8  -9    2.10   10.50
   1   8  -9   32.20   21.00
  -2   0  -9    5.10    3.10
   2   0   9    6.20    3.40
  -2   0   9   14.10    4.40
   2   0  -9    3.60    4.10
  -2   0   9    5.10    4.90
  -2   0  -9    3.40    4.00
  -2   0   9   13.40    4.60
   2   0   9   14.60    5.10
   2   0  -9    7.30    4.40
   2   0   9    6.00    4.50
  -2   0  -9    4.10    5.10
   2   1   9  569.34   30.70
   2  -1  -9  544.45   31.00
  -2  -1   9  488.05   31.20
   2  -1  -9  557.64   31.10
  -2   1  -9  480.45   30.00
  -2   1  -9  541.25   29.50
   2   1   9  559.24   31.30
  -2  -1   9  565.64   30.30
  -2   1  -9  579.94   30.60
  -2  -1   9  564.84   30.10
   2   1   9  498.65   29.70
  -2   1  -9  529.35   32.60
  -2   1   9  535.15   30.10
   2  -1   9  462.65   30.10
   2  -1   9  529.15   31.30
   2  -1   9  551.44   31.00
   2   1  -9  479.75   33.40
  -2  -1  -9  540.95   32.30
  -2   1   9  520.05   30.70
  -2  -1  -9  518.85   30.40
   2   1  -9  533.65   30.90
  -2   1   9  487.75   31.10
  -2  -2   9    3.50    4.30
  -2  -2   9   12.90    3.80
  -2   2  -9    2.80    4.40
  -2  -2   9   12.30    3.60
   2   2   9    7.50    4.90
  -2   2  -9    4.90    6.80
  -2   2  -9   12.00    3.40
   2   2   9   10.40    5.10
  -2  -2   9   12.20    6.60
  -2   2  -9   17.60    4.70
   2   2   9    4.80    3.90
   2  -2  -9    7.80    5.20
   2  -2  -9    7.70    5.40
   2   2  -9    4.40    4.40
  -2   2   9    6.00    5.30
   2   2  -9   16.00    5.10
  -2   2   9    7.90    4.20
   2  -2   9   -3.90    5.20
   2  -2   9   11.50    7.00
  -2   2   9    5.00    3.10
  -2  -2  -9   -4.90    4.40
  -2  -2  -9   14.90    5.40
   2  -2   9    7.80    4.60
   2  -2   9   10.90    4.10
   2   3   9  395.66   25.70
   2  -3  -9  398.86   25.40
  -2   3  -9  429.76   23.60
  -2  -3   9  407.76   23.70
   2   3   9  394.46   24.50
  -2   3  -9  366.16   24.40
   2   3   9  408.56   24.30
  -2   3  -9  433.16   24.90
   2  -3  -9  402.66   26.00
  -2   3  -9  378.36   27.60
   2  -3   9  418.26   25.10
  -2   3   9  426.86   23.70
   2   3  -9  368.16   23.90
  -2   3   9  422.46   24.60
  -2   3   9  361.86   25.80
   2   3  -9  438.76   25.60
   2   3  -9  427.96   24.90
  -2  -3  -9  437.46   25.80
   2  -3   9  439.56   24.80
  -2  -3  -9  407.86   26.60
  -2   4  -9    6.70    4.20
   2  -4  -9   13.10    6.80
   2   4   9    9.40    5.20
   2  -4  -9   14.30    5.40
   2  -4  -9    6.40    7.30
  -2  -4   9    6.20    4.80
  -2   4  -9    3.30    8.40
  -2   4  -9   17.80    6.30
  -2   4  -9    1.50    4.90
   2   4   9    4.30    5.50
   2   4   9   -1.40    6.10
  -2  -4   9    6.30    8.00
   2  -4   9    6.00    5.50
  -2   4   9    4.90    5.70
  -2  -4  -9    0.80    7.20
  -2   4   9    1.30    6.80
   2  -4   9    1.60    5.20
  -2  -4  -9    4.10    4.20
   2  -4   9   12.40    8.90
   2   4  -9    6.70    4.60
  -2  -4  -9    9.20    6.70
   2   4  -9    0.50    6.50
  -2  -4  -9    4.60    4.30
   2  -5  -9  264.27   16.40
  -2   5  -9  204.78   21.10
  -2  -5   9  205.48   15.60
   2   5   9  208.28   22.60
   2   5   9  260.57   18.60
  -2   5  -9  240.08   16.80
  -2   5  -9  214.38   17.50
   2  -5  -9  210.78   13.80
   2  -5  -9  242.28   20.70
   2   5   9  174.18   18.60
  -2   5  -9  237.48   15.80
   2   5  -9  192.28   18.70
  -2   5   9  227.78   17.30
  -2  -5  -9  218.48   14.90
  -2   5   9  211.88   19.80
   2  -5   9  208.78   15.00
  -2  -5  -9  231.78   20.30
  -2  -5  -9  262.77   19.70
  -2  -5  -9  217.08   14.70
   2   5  -9  243.08   16.60
   2   5  -9  190.08   16.20
   2   6   9   -0.80    8.10
   2  -6  -9    5.20    8.90
  -2   6  -9    6.50    9.10
  -2   6  -9   -1.50    6.50
  -2   6  -9    2.10   13.30
   2  -6  -9    1.40   12.10
   2  -6  -9    2.30    5.30
   2  -6  -9    4.90    6.70
   2   6   9   -8.70    9.40
  -2  -6   9  -10.20   10.30
  -2  -6   9    9.80    6.40
   2   6   9  -10.60    7.30
  -2  -6  -9    0.70    5.20
  -2  -6  -9    3.70    6.60
  -2  -6  -9   29.30   11.80
   2  -6   9    7.50    5.70
  -2   6   9   -0.40    7.70
   2   6  -9   18.10    7.90
  -2  -6  -9   -3.80    5.80
  -2  -6  -9   -2.40    9.30
   2   6  -9   -2.00    5.60
   2   6  -9    3.80    9.80
   2   6  -9    7.70    6.30
   2  -7  -9   94.39   11.10
   2   7   9  110.69   18.00
   2  -7  -9  113.39   16.50
   2  -7  -9   84.29   19.90
  -2   7  -9  109.19   19.60
   2   7   9  142.19   18.20
  -2   7  -9   80.59   12.30
  -2   7  -9   65.39   14.60
   2  -7  -9   99.89   14.60
  -2   7  -9  101.49   14.40
   2   7  -9   88.79   14.60
  -2  -7  -9   99.69   12.30
   2   7  -9   83.09   11.40
   2  -7   9   97.29   11.70
  -2  -7  -9  109.69   15.50
  -2   7   9  128.89   18.90
   2   7  -9  106.19   17.20
  -2  -7  -9  111.49   12.70
  -2  -7  -9  125.29   17.80
  -2  -7  -9   95.09   15.40
   2   7  -9  121.59   14.10
   2   8   9   11.60   12.30
  -2   8  -9    9.60   21.00
   2   8   9   -4.80   14.30
  -2  -8   9   -3.00   13.90
   2  -8  -9    2.80   14.00
  -2   8  -9  -12.60    9.70
  -2  -8   9   -6.20    9.30
   2  -8  -9   -6.80    7.90
   2   8  -9  -15.60   17.50
   2   8  -9  -22.60    9.80
   2  -8   9   -7.00    8.00
  -2   8   9   11.60   14.30
  -2  -8  -9    6.60    8.60
  -2  -8  -9   -3.90   10.20
   3   0  -9  728.33   42.00
   3   0   9  799.62   42.50
  -3   0  -9  694.03   43.90
  -3   0   9  766.62   42.00
  -3   0   9  702.93   42.60
   3   0  -9  722.43   42.20
  -3   0  -9  834.02   41.70
   3   0   9  726.23   42.50
  -3   0  -9  733.13   41.20
   3   0   9  732.03   41.30
  -3   0   9  800.82   41.40
  -3   0  -9  725.03   41.70
  -3  -1   9  108.69    9.00
  -3  -1   9  116.19   10.90
  -3   1  -9  107.19   13.20
   3  -1  -9  102.29    9.70
   3   1   9   97.49    9.00
  -3   1  -9   90.99    8.60
  -3   1  -9  111.29    9.40
   3  -1  -9   98.79   10.60
   3   1   9  110.69   10.50
  -3  -1   9   96.19    7.50
   3   1   9  114.19   10.50
  -3  -1   9  116.99    9.30
  -3   1  -9  125.99    9.50
  -3   1   9  100.79   10.00
   3  -1   9  111.99   10.20
   3  -1   9  100.99   11.20
  -3  -1  -9   97.09   12.20
  -3   1   9   96.19    9.20
   3  -1   9  107.09    9.40
  -3  -1  -9  103.39    9.40
  -3  -1  -9  121.49    9.10
  -3   1   9  105.29   10.50
  -3  -1  -9  125.99    8.80
   3   1  -9  108.09    9.70
   3   2   9  520.35   32.80
   3  -2  -9  576.34   32.40
  -3   2  -9  582.74   31.20
  -3   2  -9  523.65   31.60
   3   2   9  588.14   32.10
   3  -2  -9  565.34   33.10
  -3   2  -9  552.84   34.90
  -3  -2   9  480.85   33.10
  -3  -2   9  612.14   30.90
   3   2   9  552.84   31.60
  -3   2  -9  631.94   32.20
   3  -2   9  570.24   33.00
   3   2  -9  546.65   32.00
  -3   2   9  554.74   31.60
   3   2  -9  539.95   31.50
  -3  -2  -9  521.85   32.10
   3  -2   9  543.65   32.30
   3  -2   9  552.64   31.30
  -3  -2  -9  552.24   34.00
  -3   2   9  482.45   32.50
  -3   2   9  558.64   30.50
  -3  -3   9   67.59    7.90
   3   3   9   62.99    9.20
  -3   3  -9   52.39   10.40
   3  -3  -9   48.30    7.10
  -3  -3   9   50.29    9.60
  -3   3  -9   42.80    7.30
  -3   3  -9   63.69    7.90
   3  -3  -9   58.59    8.60
   3   3   9   69.29    8.80
  -3   3  -9   66.69    8.60
   3  -3  -9   53.99    7.40
   3   3   9   53.49    7.90
   3   3  -9   56.79    8.80
   3   3  -9   54.09    8.10
   3  -3   9   66.19   10.10
  -3  -3  -9   62.69   10.20
  -3   3   9   51.59    8.60
   3  -3   9   56.19   10.50
  -3  -3  -9   45.50    8.60
  -3   3   9   55.29    7.30
   3   4   9  264.87   17.40
   3  -4  -9  234.88   17.60
  -3  -4   9  234.58   16.20
  -3   4  -9  244.68   20.70
   3  -4  -9  240.18   19.60
   3  -4  -9  256.47   17.30
   3   4   9  244.48   17.00
  -3   4  -9  254.07   15.80
   3   4   9  236.98   18.10
  -3   4  -9  238.38   17.00
  -3  -4  -9  233.58   18.30
   3  -4   9  226.18   18.20
  -3  -4  -9  227.98   14.80
   3   4  -9  193.88   15.40
   3   4  -9  225.08   16.60
  -3   4   9  198.98   18.60
  -3   4   9  258.07   17.00
  -3  -4  -9  215.28   14.90
   3  -4   9  261.97   17.50
   3   4  -9  223.98   17.80
  -3  -4  -9  253.37   19.30
   3   5   9   20.40    7.20
  -3   5  -9   13.20    6.30
  -3  -5   9   11.50    8.90
  -3   5  -9   15.70   11.30
  -3  -5   9   16.50    6.60
  -3   5  -9   21.60    6.10
  -3   5  -9   18.20    7.80
   3  -5  -9   20.50    8.40
   3   5   9   12.30    8.00
   3  -5  -9   21.80    4.90
   3  -5  -9   22.10    6.40
   3   5   9   14.10    8.40
   3  -5  -9   16.70   10.30
   3  -5   9   15.40    7.00
  -3   5   9   21.30    9.90
  -3  -5  -9   13.50    4.50
   3   5  -9    5.90    7.70
   3   5  -9   20.30    8.00
   3  -5   9   24.20    7.00
  -3  -5  -9   24.50    9.80
  -3  -5  -9   25.70    6.10
  -3  -5  -9   17.40    9.20
  -3   5   9   15.40    7.20
   3   5  -9   15.30    5.90
   3   6   9   65.89    9.60
  -3   6  -9   88.59   13.10
  -3   6  -9   45.20    8.50
  -3  -6   9   31.20   11.90
   3  -6  -9   65.39   11.80
   3  -6  -9   55.39   15.00
  -3   6  -9   59.99   11.50
   3   6   9   28.80   11.00
  -3   6  -9   49.00   15.80
   3  -6  -9   44.20    8.70
   3  -6  -9   68.59    8.80
  -3  -6   9   54.89    9.30
   3   6   9   60.09   10.70
  -3   6   9   62.79   10.30
   3  -6   9   66.59    9.20
  -3  -6  -9   66.29    8.50
   3   6  -9   59.19    8.80
  -3  -6  -9   63.99   12.40
   3   6  -9   45.60    8.10
   3   6  -9   44.40    8.70
  -3  -6  -9   63.19    9.60
  -3  -6  -9   77.39   13.10
   3   6  -9   56.69   10.80
   3   7   9   -8.80    8.60
  -3  -7   9    1.60   13.10
   3  -7  -9   -2.30   11.20
   3   7   9   -1.70   12.00
  -3   7  -9   10.10   16.80
   3  -7  -9    9.40   12.00
   3  -7  -9    1.90    6.80
  -3  -7   9   -0.10   10.90
   3  -7  -9    0.50   18.50
  -3   7  -9    5.70    8.70
  -3  -7  -9    3.20   12.90
   3   7  -9    1.10    9.10
   3  -7   9   14.60    7.30
   3   7  -9   25.70   10.20
  -3  -7  -9    0.00    8.70
   3   7  -9  -16.00    6.80
   3   7  -9   -3.80   12.20
  -3   7   9   17.50   10.80
  -3  -7  -9    9.20    8.10
   3   8   9  -16.20   15.10
  -3   8  -9   14.90   10.40
  -3   8  -9  -16.90   22.70
  -3  -8   9   28.60   15.20
   3  -8  -9   14.20    8.70
   3   8   9   12.30   12.10
   3  -8  -9   33.50   12.90
  -3  -8   9   -7.70    9.70
   3  -8  -9   13.00   15.50
   3  -8   9    7.70    6.40
  -3  -8  -9   -9.70    9.10
   3   8  -9    8.60    9.90
   3   8  -9   -6.30   19.00
  -3   8   9   29.30   14.10
  -3  -8  -9   18.80   10.90
  -4   0  -9  140.09   15.40
  -4   0   9  149.88   11.00
   4   0   9  138.79   10.90
  -4   0  -9  138.39   11.30
  -4   0  -9  134.29   10.70
   4   0  -9  140.99   12.30
  -4   0   9  125.59   12.50
  -4   0  -9  156.38   10.80
   4   0   9  166.18   12.50
   4   0   9  186.78   13.40
   4   0  -9  149.19   11.30
  -4   1  -9   88.69    9.10
  -4  -1   9   88.69    8.20
   4   1   9   84.79    8.70
   4   1   9   91.89    9.90
   4  -1  -9   94.39    9.10
   4  -1  -9  105.79   10.50
  -4  -1   9  101.19    7.00
   4   1   9   95.09   10.30
  -4   1  -9   80.39    8.40
  -4   1  -9   99.49   13.50
  -4  -1   9  109.29    8.70
  -4   1  -9  103.29    8.80
  -4  -1   9   79.49   10.50
  -4  -1  -9   89.99    8.10
  -4  -1  -9   92.29   13.20
  -4  -1  -9   71.59    8.50
  -4   1   9   90.19    9.90
   4   1  -9   94.29    8.80
   4   1  -9   86.59   10.30
   4  -1   9   92.49   11.40
  -4   1   9   98.09    8.90
  -4  -1  -9   90.79    9.30
   4  -1   9   97.59    9.60
  -4   1   9   85.79   10.00
   4  -1   9   85.09    9.50
   4   2   9  124.59   11.80
  -4   2  -9  140.29   10.50
   4   2   9  121.79   10.30
   4   2   9  128.19   11.50
  -4   2  -9  107.89   10.10
   4  -2  -9  122.69   10.60
   4  -2  -9  109.89   11.90
  -4   2  -9  113.69   14.80
  -4  -2   9  104.59   12.30
  -4  -2   9  136.19    9.40
   4  -2   9  108.69   10.50
  -4   2   9  108.89   11.60
  -4  -2  -9   88.69   10.70
  -4  -2  -9  126.69    9.10
  -4  -2  -9  123.39   14.50
   4   2  -9   96.89   10.30
   4  -2   9  118.99   10.90
   4  -2   9  120.49   12.90
  -4   2   9  133.79   10.50
   4   2  -9  118.19   10.20
   4   3   9   55.39    8.50
  -4   3  -9   77.39   12.90
  -4  -3   9   80.99    8.70
   4   3   9   58.19    7.70
  -4   3  -9   52.99    8.20
  -4   3  -9   59.59    8.70
  -4   3  -9   83.79    9.50
   4   3   9   77.09   10.30
  -4  -3   9   74.09   11.40
   4  -3  -9   69.39   10.30
   4  -3  -9   67.79    9.20
   4  -3  -9   57.49    8.10
   4  -3   9   72.79    9.40
   4  -3   9   70.69   11.30
  -4  -3  -9   67.69   10.60
  -4   3   9   64.59    9.10
  -4   3   9   69.99    9.50
   4   3  -9   75.99    9.20
   4   3  -9   52.59    8.40
  -4  -3  -9   59.99    8.00
   4   4   9   72.69   11.60
   4  -4  -9   85.59   10.80
  -4   4  -9   69.09   10.80
   4   4   9   71.49   11.00
  -4   4  -9   81.39   10.00
  -4  -4   9   70.79    8.70
   4  -4  -9   80.19   11.30
  -4   4  -9   85.19   10.80
   4   4   9   84.99   11.10
  -4  -4   9   60.99   12.30
  -4   4  -9   71.09   12.30
   4  -4   9   79.19   10.80
   4  -4   9  103.99   12.60
   4   4  -9   61.49    8.70
  -4  -4  -9   76.59   11.90
  -4  -4  -9   66.89    9.80
   4   4  -9   57.59    9.40
   4   4  -9   76.29   10.90
  -4  -4  -9   75.89   10.20
  -4  -5   9   23.20   10.30
  -4   5  -9   35.70    7.40
   4  -5  -9   38.70    9.10
   4   5   9   28.00    7.90
  -4   5  -9   23.90    7.30
   4  -5  -9   36.00    5.10
   4  -5  -9   55.99   11.40
  -4   5  -9   45.90   12.10
   4   5   9   27.40    8.40
   4  -5  -9   43.80    7.40
  -4  -5   9   28.00    7.60
  -4   5  -9   30.30    8.90
   4   5   9   21.00    9.00
   4   5  -9   36.00    7.40
   4   5  -9   36.40    8.80
  -4  -5  -9   33.20   11.30
  -4  -5  -9   44.10    6.90
  -4   5   9   36.20    8.70
  -4  -5  -9   64.29   10.70
   4   5  -9   30.00    6.80
   4   5  -9   32.10    7.40
   4  -5   9   26.10    7.70
  -4  -5  -9   43.60   10.20
   4  -5   9   35.90    8.60
   4   6   9   26.80   10.00
   4  -6  -9   64.09   15.10
   4  -6  -9   19.70    8.30
  -4  -6   9   12.70   10.20
   4  -6  -9   28.50    9.80
   4  -6  -9   40.50    6.50
   4   6   9   11.80   12.40
  -4   6  -9   10.60   14.50
  -4   6  -9   42.60    9.00
  -4   6  -9   27.70   11.70
  -4  -6   9   22.80    8.50
  -4   6  -9   44.40    8.90
   4   6   9   51.69    9.40
   4  -6   9   48.70    9.30
  -4  -6  -9   32.10    7.50
  -4  -6  -9   46.70   13.00
   4   6  -9   36.90   10.40
   4  -6   9   41.90   10.40
  -4  -6  -9   56.79   12.10
   4   6  -9   23.70    7.90
   4   6  -9   26.40    7.30
  -4   6   9   41.70   10.40
   4   6  -9   27.70    8.00
  -4  -6  -9   31.80    8.60
  -4   7  -9    4.90    8.60
  -4   7  -9    5.40   18.60
  -4  -7   9    9.80    9.00
  -4  -7   9   18.30   12.70
   4  -7  -9   15.00    7.00
   4  -7  -9   16.00   12.10
   4   7   9   24.00    9.80
   4   7   9    5.90   12.10
  -4   7   9   16.70   11.80
   4   7  -9    4.70   10.10
   4   7  -9    1.30    7.70
   4  -7   9   16.40    6.50
  -4  -7  -9    2.50    9.70
  -4  -7  -9   11.00    8.40
  -4  -8   9   14.50   10.90
   4  -8  -9    5.10   16.20
  -4  -8   9   -3.90   14.60
  -4   8  -9   -9.60   23.50
  -4   8  -9   30.10   13.90
   4   8   9   -2.40   16.30
   4  -8  -9   18.80    9.20
   4   8   9   29.90   12.90
  -4   8   9   18.60   16.40
  -4  -8  -9   17.40   11.70
  -4  -8  -9   34.80   12.30
   4  -8   9   12.20    8.00
   4   8  -9   18.10   10.90
  -5   0   9   26.30    5.20
   5   0  -9   18.30    6.00
  -5   0  -9   24.50    5.30
   5   0  -9   17.10    4.70
   5   0   9   14.50    4.70
  -5   0   9   13.10    4.50
  -5   0   9   13.90    6.90
   5   0   9   14.80    5.00
  -5   0  -9   11.50    7.80
  -5   0  -9    8.80    4.40
   5   0   9   21.40    6.50
  -5   0  -9   16.70    4.30
  -5   1  -9 1273.47   73.69
   5  -1  -9 1397.66   74.09
   5   1   9 1463.95   74.99
  -5   1  -9 1515.95   73.69
  -5   1  -9 1403.46   73.79
   5  -1  -9 1377.96   75.19
   5   1   9 1318.37   74.89
  -5  -1   9 1290.27   75.39
   5   1   9 1356.66   73.79
  -5   1  -9 1277.07   76.89
  -5  -1  -9 1323.17   73.79
  -5  -1  -9 1418.76   72.99
   5   1  -9 1344.37   73.69
  -5   1   9 1212.88   74.99
   5  -1   9 1341.67   73.79
   5  -1   9 1510.45   75.49
   5  -1   9 1292.27   74.59
  -5  -1  -9 1352.46   73.89
  -5   1   9 1387.26   73.39
  -5  -1  -9 1326.07   76.59
  -5   1   9 1289.77   74.79
   5   1  -9 1328.97   74.39
  -5   2  -9   15.10    8.50
  -5  -2   9   17.40    5.30
   5  -2  -9   14.60    4.90
   5   2   9    8.00    4.60
   5   2   9   13.30    6.30
  -5   2  -9   15.20    4.80
   5  -2  -9    0.40    6.00
   5   2   9   14.30    5.50
  -5  -2   9   14.40    7.30
  -5   2  -9   15.10    5.40
  -5   2  -9   16.70    5.20
  -5   2   9   18.40    5.40
  -5  -2  -9   29.30    8.60
   5   2  -9   21.20    4.90
   5  -2   9   10.50    6.80
   5  -2   9   16.90    5.50
  -5   2   9   15.70    6.10
  -5  -2  -9    6.00    5.10
   5  -2   9   14.90    5.40
  -5  -2  -9   15.50    3.40
  -5   3  -9  775.92   47.30
   5   3   9  766.42   48.00
  -5  -3   9  916.01   46.80
   5  -3  -9  838.52   48.10
   5  -3  -9  856.51   47.60
   5  -3  -9  811.52   49.10
  -5  -3   9  743.73   49.10
   5   3   9  868.81   47.30
   5   3   9  877.21   47.70
  -5   3  -9  793.42   50.69
  -5   3  -9  914.21   47.50
  -5   3  -9  920.21   47.10
   5  -3   9  920.61   48.80
   5   3  -9  821.32   46.70
  -5  -3  -9  854.31   47.60
   5  -3   9  856.61   47.80
   5   3  -9  786.82   46.60
  -5   3   9  742.93   47.90
  -5   3   9  857.21   47.20
  -5  -3  -9  865.01   49.80
  -5  -3  -9  799.82   47.40
   5  -4  -9   13.30    6.60
   5   4   9   14.90    7.90
  -5   4  -9    3.30   10.50
  -5   4  -9    8.00    5.70
   5   4   9    7.80    7.50
   5   4   9    6.50    7.00
   5  -4  -9    4.50    6.80
  -5   4  -9   -4.40    6.80
  -5  -4   9    2.10    9.70
  -5  -4   9    6.40    6.60
   5  -4  -9    6.10    8.20
  -5  -4  -9    7.70    5.80
  -5   4   9    6.10    6.70
  -5  -4  -9   13.10    9.40
   5   4  -9    8.80    5.70
   5   4  -9   12.70    5.90
  -5  -4  -9   11.20    7.90
   5  -4   9   -2.50    6.50
   5  -4   9   12.00    8.00
  -5   4   9    2.20    8.50
   5  -5  -9  297.37   22.50
  -5   5  -9  330.77   29.80
   5   5   9  284.57   24.10
   5  -5  -9  343.37   19.40
  -5   5  -9  284.17   23.60
  -5  -5   9  333.47   22.60
   5  -5  -9  337.77   23.40
   5   5   9  400.96   23.80
   5   5   9  347.77   23.50
  -5   5  -9  339.97   23.30
   5  -5  -9  298.77   27.50
  -5   5  -9  325.37   22.40
   5  -5   9  379.66   24.40
  -5  -5  -9  363.26   26.20
  -5  -5  -9  347.47   21.40
  -5  -5  -9  357.76   23.00
   5   5  -9  315.87   22.20
  -5   5   9  360.06   23.70
   5   5  -9  313.17   22.00
   5  -5   9  312.97   23.10
   5   5  -9  325.47   23.40
  -5  -5  -9  356.26   26.00
  -5   6  -9  -11.30   15.00
  -5   6  -9    3.60    9.00
  -5   6  -9   -2.10    8.10
   5  -6  -9    6.90    5.40
  -5  -6   9    0.50   12.30
   5   6   9   -1.40    8.80
   5  -6  -9  -11.40    8.90
   5   6   9    4.70   10.30
  -5  -6   9   -2.00    7.70
  -5  -6  -9   -5.80    7.10
   5   6  -9   -4.40    7.40
  -5  -6  -9   14.20   11.20
   5  -6   9   -4.60    8.90
   5   6  -9   -3.30    8.10
   5  -6   9    7.10    9.40
  -5   6   9   10.20    9.70
   5  -7  -9   96.09   11.40
   5  -7  -9   97.89   15.30
   5   7   9  121.89   19.10
  -5  -7   9   61.09   16.70
   5   7   9   71.39   14.70
  -5  -7   9   86.09   12.40
  -5   7  -9   79.89   13.60
  -5   7  -9   57.49   21.80
  -5  -7  -9  104.19   14.30
   5   7  -9   78.59   15.10
   5  -7   9  127.79   18.80
  -5   7   9   96.99   15.20
   5   7  -9  108.49   15.70
  -5  -7  -9  119.59   17.10
   6   0  -9  157.48   14.30
  -6   0   9  164.38   14.70
  -6   0   9  175.68   12.30
   6   0   9  133.19   13.50
  -6   0   9  169.78   12.80
  -6   0  -9  169.88   12.90
   6   0  -9  163.18   12.60
  -6   0  -9  164.18   12.80
  -6   0  -9  166.08   17.70
  -6   0  -9  197.48   11.90
   6   0   9  174.28   15.50
  -6   0  -9  159.18   13.10
   6   0   9  178.48   13.40
   6   1   9   -3.10    5.40
  -6   1  -9    4.70    5.30
   6   1   9   18.50    7.20
  -6  -1   9    6.50    6.10
   6   1   9    0.10    4.40
  -6   1  -9    9.30    4.80
   6  -1  -9    4.60    6.60
  -6   1  -9   -4.00    4.30
  -6   1  -9    7.70    8.50
   6  -1  -9    1.90    4.80
  -6  -1  -9    0.40    4.40
  -6   1   9    4.10    4.90
   6  -1   9    5.60    6.70
   6   1  -9    9.30    4.50
  -6  -1  -9    9.80    4.90
  -6  -1  -9   14.00    4.90
  -6  -1  -9    5.70    3.50
  -6   1   9    6.60    5.40
   6  -1   9    4.70    5.70
   6   1  -9    6.70    5.90
   6  -1   9   -0.10    5.20
  -6  -1  -9   11.50    9.00
  -6   2  -9  115.09   12.30
  -6  -2   9  157.88   11.40
  -6   2  -9  150.78   12.20
  -6   2  -9  116.79   17.20
   6  -2  -9  140.19   12.20
   6   2   9  166.48   14.30
   6   2   9  138.89   12.60
   6   2   9  102.89   12.90
  -6   2  -9  167.28   12.20
  -6  -2   9  131.09   14.30
   6  -2  -9  131.49   14.80
   6   2  -9  145.19   11.40
   6  -2   9  158.48   13.20
  -6  -2  -9  152.18   12.00
  -6  -2  -9  122.09   12.30
  -6  -2  -9  147.89   12.80
   6   2  -9  140.89   13.00
  -6  -2  -9  140.59   17.10
   6  -2   9  121.79   14.80
  -6   2   9  148.49   12.40
  -6   2   9  136.29   13.20
   6  -2   9  138.19   13.30
   6   3   9    1.20    7.10
  -6   3  -9    7.80    5.60
   6   3   9   -2.60    5.70
  -6   3  -9    7.50    7.00
  -6   3  -9   -0.90   10.10
   6  -3  -9    5.90    5.90
   6  -3  -9   13.20    7.60
   6   3   9   -1.50    6.80
  -6   3  -9    2.70    5.70
   6  -3  -9    6.80    5.70
  -6  -3   9    3.30    8.60
  -6   3  -9   -1.80    5.50
  -6  -3   9   10.00    5.80
  -6   3   9    7.90    5.90
   6  -3   9    1.70    6.50
  -6  -3  -9    4.10    5.10
  -6  -3  -9    4.20    6.70
   6  -3   9   -6.70    7.80
   6   3  -9   -9.30   10.30
  -6   3   9    8.30    6.80
   6   3  -9    1.80    4.80
  -6  -3  -9    0.70    8.50
  -6  -4   9   71.79   13.20
   6  -4  -9  102.69   13.60
  -6   4  -9   73.39   10.80
   6  -4  -9   84.99    7.20
  -6   4  -9   89.29   12.60
  -6   4  -9   72.69   11.50
   6   4   9   69.89   10.60
   6   4   9  107.99   13.30
  -6   4  -9  101.29   12.80
   6   4   9   92.99   12.50
  -6   4  -9   84.49   15.20
   6  -4  -9   83.79   11.30
  -6  -4   9   93.39   11.60
   6  -4  -9   97.09   11.60
   6   4  -9   75.49    9.40
  -6  -4  -9   83.89   13.10
  -6   4   9   92.39   14.50
  -6   4   9   95.59   13.10
  -6  -4  -9   70.79   11.50
  -6  -4  -9  103.69   14.60
   6  -4   9  102.69   19.10
   6   4  -9   71.29   11.10
   6   4  -9   75.89    9.40
   6  -4   9   87.69   13.50
  -6   5  -9   -1.00   13.30
   6  -5  -9   -2.80    7.30
   6  -5  -9   -8.20    4.30
  -6  -5   9    1.10    7.60
   6   5   9   -1.50    8.70
  -6   5  -9    9.70    8.20
  -6   5  -9    0.70    6.10
   6   5   9    2.30    7.70
   6  -5  -9   23.50    8.30
  -6  -5   9  -10.90    9.30
  -6   5  -9    5.30    7.40
  -6   5   9    4.00    8.70
   6  -5   9    2.40    9.70
   6   5  -9    4.80    7.00
  -6  -5  -9   17.20   10.50
  -6  -5  -9   -3.30    6.80
   6  -5   9   -1.80    8.80
   6   5  -9   -0.10    6.40
  -6  -6   9   22.10    9.70
  -6   6  -9   53.09   17.40
   6  -6  -9   38.50   11.00
   6   6   9   27.70   10.90
   6   6   9   44.30   10.30
   6  -6  -9   42.80    6.60
  -6   6  -9   36.90    9.70
  -6  -6   9   13.20   13.30
   6  -6   9   34.20   10.80
   6   6  -9   31.10    8.50
  -6  -6  -9   32.60    9.00
  -6  -6  -9   25.10    9.10
   6  -6   9   27.40   11.70
  -6   6   9   29.80   11.30
  -6  -7   9    6.30   12.90
  -6  -7   9  -16.80    9.80
   6   7   9  -16.00   13.00
   6  -7  -9   -0.10    7.00
   6   7   9   17.50   11.30
   6  -7  -9  -10.70   12.20
  -6   7  -9  -21.30   10.90
  -6   7  -9   -6.90   20.40
   6   7  -9    1.90    8.80
  -6  -7  -9    9.50   10.60
  -6   7   9   34.70   12.30
  -7   0  -9  693.73   45.50
   7   0   9  723.93   43.00
  -7   0   9  809.92   40.70
   7   0  -9  712.53   43.20
  -7   0   9  744.33   41.40
   7   0   9  827.42   44.70
  -7   0  -9  680.13   41.90
   7   0  -9  769.32   41.80
  -7   0  -9  747.23   40.60
  -7   0  -9  712.83   41.70
  -7   0  -9  708.83   41.60
  -7   0   9  676.23   43.40
   7   0   9  737.93   42.00
  -7   1  -9   21.50    5.90
   7   1   9   38.80    9.10
  -7   1  -9   31.60    6.40
  -7   1  -9   29.10    5.50
   7   1   9   23.80    6.10
  -7  -1   9   27.80    8.60
   7   1   9   19.00    6.30
  -7   1  -9    5.80   10.20
   7  -1  -9   34.20    6.90
  -7   1  -9   23.00    5.90
   7  -1  -9   33.00    8.20
   7  -1   9   24.30    6.70
   7   1  -9   36.00    6.20
  -7   1   9   41.00    8.30
  -7  -1  -9   30.40    9.90
  -7  -1  -9   28.40    5.80
  -7  -1  -9   30.60    5.90
  -7  -1  -9   30.90    6.20
  -7   1   9   35.20    6.10
  -7  -1  -9   27.10    4.30
   7  -1   9   30.00   14.70
   7   1  -9   24.80    7.00
   7  -1   9   22.80    7.50
  -7   2  -9  575.74   32.50
  -7   2  -9  540.25   32.50
   7  -2  -9  587.04   37.50
  -7   2  -9  518.15   37.60
  -7   2  -9  574.04   32.50
   7  -2  -9  527.65   33.90
  -7  -2   9  542.25   35.00
  -7  -2   9  612.14   31.70
   7   2   9  549.85   33.80
   7  -2  -9  569.14   35.00
   7   2   9  519.65   41.70
  -7   2  -9  500.95   32.50
  -7  -2  -9  547.95   33.00
   7  -2   9  562.44   36.00
   7   2  -9  591.54   32.00
  -7  -2  -9  559.44   36.10
  -7   2   9  558.84   32.40
   7  -2   9  602.14   33.50
  -7  -2  -9  497.95   32.40
   7  -2   9  555.24   33.90
  -7   2   9  554.24   33.60
  -7  -2  -9  542.15   32.80
   7   2  -9  498.15   33.20
  -7   3  -9    8.00    6.20
  -7   3  -9   22.90    6.70
   7   3   9   13.30    8.40
   7   3   9   20.90    8.10
  -7   3  -9   18.40    6.80
  -7  -3   9   11.80    9.20
   7  -3  -9   13.20    6.00
   7   3   9   13.50    6.20
   7  -3  -9   25.20    6.80
   7  -3  -9   25.80    9.00
  -7   3  -9   30.90   12.90
  -7  -3   9   25.00    7.20
  -7   3  -9   12.60    8.40
   7   3  -9   19.70    5.80
  -7  -3  -9   11.10    6.80
   7  -3   9   13.60    9.80
  -7  -3  -9   15.40    7.90
   7   3  -9   17.60    7.70
  -7   3   9   29.20    9.90
   7  -3   9   30.90    8.30
  -7   3   9   11.20    5.90
   7   3  -9   20.50    5.90
  -7   3   9   16.70    8.40
  -7  -3  -9   15.40   10.60
  -7   4  -9  255.87   18.20
  -7   4  -9  223.18   26.70
  -7   4  -9  243.08   19.80
  -7   4  -9  246.68   19.40
   7   4   9  235.88   21.60
   7  -4  -9  278.87   27.90
  -7  -4   9  277.47   19.30
   7  -4  -9  237.98   19.20
  -7  -4   9  227.18   22.20
   7  -4  -9  266.97   19.20
   7   4   9  283.97   21.10
  -7   4  -9  267.27   23.50
   7   4   9  270.97   19.50
  -7  -4  -9  299.27   21.40
  -7  -4  -9  244.58   18.90
  -7  -4  -9  253.67   23.50
  -7   4   9  229.08   19.20
   7  -4   9  274.37   21.60
  -7   4   9  227.48   22.50
  -7   4   9  253.57   20.10
   7   4  -9  249.78   18.20
   7  -4   9  290.27   22.00
   7   4  -9  249.18   17.80
  -7   5  -9  -14.90   14.80
   7  -5  -9    7.60    5.00
   7  -5  -9    3.10    7.40
   7   5   9   23.50   11.00
  -7   5  -9   -1.10    9.40
  -7   5  -9    5.80   11.40
   7   5   9   13.30    8.20
  -7  -5   9    2.80   14.00
  -7  -5   9    6.00    8.30
   7  -5   9   14.00   11.10
  -7  -5  -9   -3.50    7.10
  -7   5   9   12.00    9.00
   7  -5   9    3.00   11.00
   7   5  -9   -2.50    7.30
  -7   5   9    8.30    9.60
  -7   6  -9   75.49   12.90
   7  -6  -9   85.39   13.20
   7   6   9   90.39   14.70
   7   6   9   75.09   11.70
   7  -6  -9   68.29    9.90
  -7  -6   9   42.00   14.60
  -7   6  -9   88.29   20.10
   7  -6   9   91.89   13.80
  -7   6   9   89.19   13.30
   7   6  -9   71.99   11.00
  -7  -6  -9   85.19   12.10
   7  -6   9   59.19   14.80
   7  -7  -9   -3.50    7.30
  -7  -7   9   13.20   12.50
   7  -7  -9   15.10   13.80
   7   7   9   27.00   11.40
   7   7   9  -30.60   14.20
  -7   7  -9    9.20   22.30
  -7  -7   9    2.80   11.30
  -7   7  -9  -11.00   12.50
  -7  -7  -9   19.40   10.40
   7   7  -9  -16.10   10.10
  -7   7   9    4.00   13.60
   8   0  -9  228.68   16.30
   8   0   9  250.07   18.60
  -8   0  -9  191.48   16.30
   8   0  -9  209.38   19.00
   8   0   9  217.18   18.30
  -8   0  -9  208.18   17.20
  -8   0  -9  228.48   16.60
   8   0   9  258.27   20.30
  -8   0   9  202.68   18.10
  -8   0  -9  223.18   14.80
   8   1   9   -2.30    9.00
   8  -1  -9   -9.70    8.10
  -8   1  -9   15.30   11.00
  -8   1  -9   11.90    6.50
  -8  -1   9   -2.50    7.00
   8   1   9    8.30    6.50
  -8   1  -9    5.70    6.00
   8  -1  -9    0.10    6.10
  -8   1  -9    0.60    5.20
   8   1   9    5.60    5.70
  -8   1  -9   -7.10    5.90
   8  -1   9   -1.10    6.30
   8  -1   9   13.40    7.50
   8  -1   9    2.70    8.80
   8   1  -9  -11.20    7.20
  -8  -1  -9    2.10   10.20
  -8   1   9    3.90    6.30
  -8   1   9   -3.50    8.90
   8   1  -9   10.10    6.00
  -8  -1  -9    2.60    6.60
  -8  -1  -9    6.70    5.70
  -8  -1  -9   -5.90    6.30
  -8   1   9   -3.20    7.00
  -8   2  -9  194.38   15.00
   8   2   9  209.58   18.80
   8   2   9  191.38   16.60
   8  -2  -9  187.48   19.30
  -8   2  -9  172.08   15.30
  -8  -2   9  162.18   16.90
   8  -2  -9  154.98   16.50
  -8   2  -9  170.28   22.70
   8  -2  -9  184.48   15.30
  -8   2  -9  147.99   15.40
   8   2   9  175.28   15.50
  -8   2  -9  196.18   15.30
  -8  -2  -9  176.48   15.10
   8   2  -9  181.28   14.20
   8  -2   9  176.68   16.70
   8   2  -9  168.68   16.40
   8  -2   9  221.38   16.80
  -8   2   9  183.68   17.10
  -8  -2  -9  221.08   21.30
   8  -2   9  209.18   18.50
  -8  -2  -9  163.98   15.30
  -8   2   9  183.28   15.20
  -8  -2  -9  180.98   16.10
   8  -3  -9   10.80    7.40
   8   3   9    6.90    6.40
  -8   3  -9    8.50   12.80
   8  -3  -9    8.20   10.90
  -8  -3   9    5.10    8.50
  -8   3  -9   -0.10    6.60
  -8   3  -9    3.10    6.60
  -8  -3   9   17.40    7.70
   8   3   9   16.80   10.10
  -8   3  -9    3.10    7.80
  -8   3  -9    6.70    8.60
   8   3   9    2.60    8.70
   8  -3  -9    6.00    7.20
   8  -3   9   -0.50    9.80
   8   3  -9   12.40    5.80
   8   3  -9    2.90    7.70
  -8   3   9   -6.30    9.20
  -8  -3  -9   20.30    8.50
  -8   3   9    4.00    7.30
  -8  -3  -9    2.50    6.70
   8  -3   9   10.40    7.50
  -8   3   9   -0.40    6.40
  -8  -3  -9    8.20   11.50
   8  -3   9    5.90    7.80
   8   3  -9   -4.60    5.60
  -8  -4   9  128.19   17.60
  -8  -4   9  135.39   14.20
  -8   4  -9  107.99   16.60
   8  -4  -9  119.59   14.80
  -8   4  -9   89.29   18.60
   8   4   9  104.79   14.10
   8   4   9  102.09   14.00
   8   4   9  114.09   16.60
  -8   4  -9  108.69   12.80
  -8   4  -9  102.49   15.30
  -8   4   9  130.59   15.60
   8  -4   9  149.69   18.30
   8  -4   9   97.09   13.50
  -8  -4  -9   76.79   13.00
  -8  -4  -9  137.19   20.20
  -8  -4  -9  147.89   17.80
  -8   4   9   82.99   11.00
  -8   4   9   94.49   15.20
  -8   5  -9   -0.10   10.60
  -8   5  -9    1.40   15.30
   8   5   9    2.90    8.20
  -8  -5   9    4.80    9.40
   8  -5  -9    8.30    8.50
  -8  -5   9  -10.80   11.30
   8   5   9   14.80   11.30
  -8  -5  -9    9.10    8.70
  -8   5   9    8.70   10.20
  -8   5   9   11.90   10.60
   8   5  -9   -4.00    6.80
   8  -5   9   21.10   12.10
  -8   6  -9   35.90   21.20
  -8   6  -9   44.40   12.90
  -8  -6   9   47.50   12.90
   8  -6  -9   71.49   10.10
  -8  -6   9   44.10   15.80
   8   6   9   46.00   11.20
   8  -6  -9   42.30   11.60
   8   6   9   55.09   15.10
  -8  -6  -9   47.60   11.40
  -8   6   9   75.29   14.00
   8   6  -9   46.20   10.70
   8  -6   9   66.29   14.80
  -9   0  -9   11.70    6.30
  -9   0   9   20.60    9.60
   9   0   9   22.80    8.40
  -9   0  -9   16.40   12.20
  -9   0  -9   29.10    7.70
  -9   0  -9   22.10    5.50
   9   0  -9   13.30    8.90
   9   0   9   34.20   11.30
   9   0  -9   19.50    6.90
  -9   0  -9    1.80    6.50
   9   0   9   18.40    7.60
   9   1   9  226.38   20.40
  -9   1  -9  254.97   26.40
   9   1   9  247.68   19.20
   9  -1  -9  245.68   22.60
   9  -1  -9  262.27   18.50
  -9   1  -9  257.67   19.30
   9  -1  -9  253.57   20.20
   9   1   9  265.77   23.20
  -9   1  -9  260.27   17.70
  -9   1  -9  228.58   18.70
  -9  -1   9  260.17   21.40
   9  -1   9  287.27   20.20
   9   1  -9  246.98   21.70
  -9   1   9  235.88   20.80
  -9  -1  -9  237.18   18.60
  -9  -1  -9  224.08   18.40
  -9  -1  -9  212.78   29.60
   9  -1   9  273.47   22.50
   9  -1   9  210.98   19.90
  -9   1   9  235.08   20.10
  -9  -1  -9  253.97   19.10
  -9   1   9  272.37   17.70
   9   1  -9  258.97   18.20
  -9   2  -9   13.70   12.20
   9   2   9    7.80   10.60
  -9  -2   9   21.10    9.40
  -9   2  -9   16.40    7.10
  -9   2  -9   17.40    7.70
  -9   2  -9    8.40    7.40
   9  -2  -9   18.20    7.40
   9  -2  -9   25.70   11.30
   9   2   9   12.20    6.80
  -9   2  -9   -0.70    8.00
   9   2   9   11.30    8.70
  -9  -2  -9   16.40   11.70
   9   2  -9   23.10    8.70
  -9  -2  -9   14.00    8.40
  -9   2   9   12.40    9.70
   9  -2   9   11.00    9.70
  -9  -2  -9   12.60    6.10
  -9  -2  -9    6.80    9.80
  -9   2   9    7.10    7.40
   9  -2   9   -1.30   10.30
   9   2  -9   15.20    6.80
   9  -2   9   16.30    7.50
  -9   3  -9  158.88   24.40
  -9  -3   9  171.88   14.90
   9   3   9  143.69   15.50
  -9  -3   9  135.09   19.90
   9  -3  -9  159.88   15.40
  -9   3  -9  163.88   14.50
  -9   3  -9  146.19   16.20
   9  -3   9  153.48   15.80
  -9   3   9  133.49   15.80
   9  -3   9  204.58   21.10
  -9  -3  -9  177.48   17.80
   9   3  -9   98.19   17.30
   9   3  -9  152.18   14.20
  -9  -3  -9  142.09   14.80
  -9   3   9  115.39   14.50
  -9   3   9  121.29   16.20
  -9  -3  -9  142.89   21.60
  -9   4  -9   22.60   15.60
  -9   4  -9   16.90    8.20
  -9  -4   9    5.80   10.80
   9   4   9   11.30   12.00
   9   4   9   -2.70    8.80
  -9  -4   9   10.20    9.60
  -9   4  -9   -1.00    8.50
   9  -4  -9    9.10    9.40
  -9  -4  -9   22.50   12.50
  -9   4   9   10.90    9.80
  -9   4   9   17.80   10.00
   9   4  -9    9.70    9.70
  -9  -4  -9    3.90    7.70
   9  -4   9   22.30   11.40
   9   4  -9   17.10    7.70
   9  -5  -9   52.39   10.70
  -9   5  -9   48.10   13.10
   9   5   9   41.50   15.20
  -9  -5   9   55.89   15.80
   9   5   9   51.49   10.50
  -9   5  -9   47.80   20.20
   9  -5   9   63.49   14.40
  -9   5   9   32.80   13.00
  -9  -5  -9   73.29   11.40
   9   5  -9   52.79   11.10
  -9   5   9   44.40   12.90
   9  -6  -9   26.90   11.70
  -9   6  -9   12.40   15.40
  -9  -6   9   18.60   13.50
  -9   6  -9   31.00   20.90
   9   6   9   -3.60   16.60
  -9  -6   9    1.70   13.00
   9   6   9   21.30   11.30
   9   6  -9   -8.70   10.20
   9  -6   9   15.60   14.90
  -9   6   9   17.90   13.10
  10   0   9   77.69   11.20
 -10   0  -9   66.89   10.10
  10   0  -9   86.49   12.50
 -10   0  -9   64.79   15.40
 -10   0  -9   71.19   11.00
  10   0   9  125.79   19.50
 -10   0   9   72.59   13.50
 -10   0  -9   68.09    8.60
  10   0  -9   82.39   14.30
 -10   1  -9   95.19   13.50
  10  -1  -9  105.69   13.60
 -10   1  -9  104.49   17.60
  10   1   9   80.99   14.00
 -10  -1   9   92.89   15.80
 -10   1  -9   98.59   15.00
  10  -1  -9   68.29   16.10
 -10   1  -9   79.29   12.40
 -10  -1  -9   80.29   12.90
 -10  -1  -9   90.39   16.50
 -10   1   9   94.39   13.50
 -10  -1  -9   98.79   15.80
 -10   1   9   96.89   14.80
  10   1  -9  109.99   13.10
  10   1  -9   95.59   14.10
  10  -1   9  126.79   15.60
 -10   1   9   94.09   13.00
  10  -1   9  145.49   20.60
 -10  -2   9   80.19   16.20
 -10   2  -9   57.29   16.50
  10  -2  -9   62.89    9.70
  10  -2  -9   62.59   10.20
 -10   2  -9   67.09   10.40
 -10   2  -9   71.09   10.20
  10   2   9   58.89   10.30
  10   2   9   61.69   13.70
  10   2  -9   57.69   12.50
  10  -2   9   47.90   12.90
 -10   2   9   71.89   12.20
 -10   2   9   83.39   17.30
 -10  -2  -9   47.80   11.30
  10  -2   9   60.29   10.00
 -10  -2  -9   67.99   10.50
  10   2  -9   65.89    9.90
  10   3   9   74.79   10.90
 -10   3  -9   62.29   17.40
  10   3   9   81.29   15.10
  10  -3  -9   68.29   11.60
 -10  -3   9   55.99   14.60
 -10   3  -9   75.99   11.90
 -10   3  -9  109.79   14.20
  10  -3  -9   56.29   10.70
 -10  -3  -9   59.09   10.30
  10   3  -9   53.79   13.00
 -10  -3  -9   68.39   15.40
 -10   3   9   61.19   10.10
 -10   3   9   88.39   12.00
  10   3  -9   75.69   10.90
 -10  -3  -9   74.69   13.00
 -10   3   9   49.70   15.40
  10  -3   9   86.69   14.70
 -10   4  -9   50.69   10.10
  10  -4  -9   28.10   11.30
 -10   4  -9   41.60   12.40
 -10  -4   9   45.80   12.10
 -10  -4   9   31.00   14.10
  10   4   9   62.29   15.70
  10  -4  -9   48.90   11.30
  10   4   9   37.00   10.00
 -10   4  -9   14.50   18.70
  10  -4   9   38.70   13.40
  10   4  -9   29.80   13.70
 -10   4   9   54.89   12.50
  10   4  -9   61.39    9.70
 -10   4   9   19.30   11.50
 -10  -4  -9   44.20   10.50
  10   5   9    9.90   10.70
  10   5   9   54.19   18.10
 -10  -5   9   17.90   13.80
 -10  -5   9   52.29   14.10
 -10   5  -9   94.79   21.80
  10  -5  -9   36.10   11.50
 -10   5  -9   28.20   13.20
  10  -5   9   24.30   15.00
 -10   5   9   36.60   13.70
  10   5  -9   31.90   10.90
 -11   0  -9  243.08   28.90
 -11   0  -9  268.57   21.00
  11   0   9  292.27   27.20
 -11   0  -9  274.27   19.20
 -11   0  -9  199.88   22.20
 -11   0   9  235.88   23.10
  11   0   9  212.68   21.50
  11   0  -9  267.57   20.30
 -11   1  -9  104.79   18.80
  11   1   9  110.29   17.70
 -11  -1   9  111.69   18.40
  11   1   9  133.09   16.20
  11  -1  -9  129.29   15.70
 -11   1  -9  137.09   16.40
 -11   1  -9  114.29   16.10
 -11  -1  -9  116.79   16.10
  11   1  -9  112.49   17.60
  11  -1   9  131.69   16.90
 -11   1   9   96.99   17.10
  11   1  -9  127.69   15.60
 -11  -1  -9  118.89   18.80
 -11  -1  -9  138.39   19.10
  11  -1   9  169.78   22.40
  11   2   9  186.58   19.30
 -11   2  -9  171.98   19.20
 -11   2  -9  213.08   26.90
  11  -2  -9  213.38   19.30
  11   2   9  236.48   27.50
 -11  -2   9  208.18   22.00
 -11   2  -9  154.68   23.70
 -11   2   9  176.68   22.30
 -11   2   9  208.58   20.70
 -11   2   9  215.18   19.60
  11  -2   9  231.18   25.70
 -11  -2  -9  177.08   27.30
  11   2  -9  188.68   26.40
 -11  -2  -9  169.78   21.90
  11  -2   9  204.88   20.00
  11   2  -9  202.98   20.60
 -11  -2  -9  232.18   19.60
  11   3   9   63.09   11.90
 -11   3  -9   71.99   12.80
 -11   3  -9   41.40   19.70
 -11  -3   9   65.09   15.90
  11   3   9   55.99   17.60
  11  -3  -9   66.09   12.50
  11   3  -9   99.99   12.10
 -11   3   9   48.00   16.00
 -11  -3  -9   73.49   11.40
 -11   3   9   87.99   13.40
  11   3  -9   71.39   15.70
  11  -3   9   92.59   16.30
 -11  -3  -9   83.29   16.90
 -11   4  -9  127.09   24.30
  11   4   9   98.99   20.10
 -11  -4   9   87.99   17.20
  11   4   9   71.69   12.50
  11  -4  -9  110.29   14.00
 -11   4  -9   94.29   15.00
 -11   4  -9  111.19   17.70
 -11  -4  -9   76.29   13.80
  11  -4   9   94.89   16.40
  11   4  -9  142.79   17.80
 -11   4   9  103.29   15.80
 -12   0  -9   34.20   17.80
  12   0   9    4.10    9.60
  12   0   9   21.00   15.30
 -12   0   9   -1.40   11.20
  12   0  -9    5.00    9.80
 -12   0  -9   -1.40    9.80
 -12  -1   9   62.89   14.40
 -12   1  -9   71.79   13.80
  12  -1  -9   73.59   12.60
 -12   1  -9   95.39   20.20
 -12   1  -9   73.89   12.50
  12   1   9   99.99   19.40
  12   1   9   81.99   12.70
  12  -1   9   61.09   11.80
 -12  -1  -9   51.29   13.00
 -12  -1  -9   65.09   17.90
  12  -1   9   76.99   16.60
 -12  -1  -9   82.59   15.90
 -12   1   9   47.50   14.50
  12   1  -9   68.79   12.20
  12   2   9    7.20    9.50
  12   2   9   32.00   17.70
 -12  -2   9   12.00   12.10
  12  -2  -9   15.70   10.60
 -12   2  -9   -3.10   12.70
 -12   2  -9   30.90   19.40
 -12   2  -9   17.20   11.60
  12  -2   9   15.70    9.90
 -12   2   9    9.20   11.80
 -12  -2  -9    2.40   10.10
 -12  -2  -9  -20.70   16.20
 -12   2   9    4.90   11.90
  12  -2   9   14.40   15.50
  12   2  -9    9.90   10.40
  12   3   9   51.09   20.30
 -12   3  -9   55.89   13.60
 -12  -3   9   28.10   14.10
 -12   3  -9   36.50   15.30
  12  -3  -9   62.69   12.50
  12   3   9   41.60   11.40
 -12   3  -9   29.80   20.80
 -12   3   9   51.89   14.80
 -12  -3  -9   47.70   12.60
  12   3  -9   48.80   14.70
  13   0   9  228.98   30.80
  13   0  -9  157.38   21.70
  13   0   9  138.89   22.10
 -13   0  -9  114.69   22.90
 -13   0   9  142.09   21.80
 -13   0  -9  174.48   22.70
 -13   1  -9   57.69   14.70
 -13  -1   9   58.09   16.90
  13   1   9   78.39   21.00
  13  -1  -9   74.49   14.10
 -13   1  -9    6.90   21.10
  13  -1   9  111.99   33.40
 -13   1   9   59.19   15.60
 -13  -1  -9   56.39   13.60
 -13  -1  -9   66.79   21.00
  13   1  -9   60.99   14.10
   0   0 -10  211.58   16.40
   0   0  10  221.98   15.20
   0   0  10  236.48   15.60
   0   0  10  243.18   15.60
   0   0 -10  179.28   14.60
   0   1  10    3.10    5.00
   0   1  10   -5.20    5.20
   0  -1  10    0.80    2.80
   0  -1  10    1.30    4.80
   0  -1 -10    2.20    5.40
   0   1  10    1.00    5.10
   0   1  10   -2.80    3.00
   0  -1  10   -3.10    6.10
   0  -1 -10   -0.10    4.70
   0   1 -10    8.40    5.90
   0   1 -10    2.70    4.30
   0  -1  10    0.40    5.20
   0  -2 -10  149.79   13.70
   0   2 -10  160.88   13.20
   0   2  10  177.18   11.90
   0  -2 -10  172.78   14.30
   0  -2  10  183.38   12.80
   0   2  10  170.88   13.20
   0  -2  10  174.28   10.90
   0   2 -10  183.28   15.30
   0  -2  10  192.88   13.90
   0   2 -10  162.48   12.60
   0   2  10  148.59   14.30
   0  -2  10  146.49   14.40
   0   3  10    1.20    5.10
   0  -3  10    0.10    4.60
   0   3  10    1.50    6.00
   0   3 -10    6.70    5.20
   0  -3  10    1.10    5.30
   0  -3  10   -1.40    3.60
   0  -3 -10   -0.80    5.70
   0   3 -10   10.50    7.30
   0   3 -10   -0.70    5.10
   0  -3  10    2.30    7.80
   0  -3 -10    2.20    6.30
   0   3  10    7.00    4.30
   0  -4 -10  111.89   14.60
   0   4  10   83.59   10.80
   0   4 -10   68.39   10.50
   0  -4  10   82.19    8.70
   0   4  10   78.29   15.30
   0  -4  10   51.39   11.60
   0   4 -10   97.99   15.40
   0   4  10   59.19   10.60
   0  -4 -10   77.59   12.30
   0  -4 -10   94.09   11.00
   0  -5 -10   -1.00   10.00
   0  -5  10   -2.20    4.90
   0  -5  10    8.90   10.30
   0  -5 -10    5.60    5.90
   0   5 -10   -0.70    5.50
   0   5  10   -1.30    7.60
   0   5  10    5.50    6.50
   0   5 -10    0.70   10.10
   0  -5 -10   -4.60    5.20
   0   5 -10    1.30    7.50
   0  -5 -10   -3.20    8.70
   0   5  10   15.80    9.20
   0   6  10   36.80   10.00
   0   6 -10   46.20    7.90
   0  -6 -10   39.20    7.50
   0   6 -10   23.20    7.80
   0  -6 -10   53.89   14.80
   0  -6  10   13.60   12.10
   0   6  10   53.09    9.40
   0  -6 -10   61.39   12.10
   0   6 -10   52.59   13.80
   0  -6  10   26.90    7.20
   0   6 -10   52.19   10.60
   0  -6 -10   45.10    8.20
   0  -7 -10    0.30    9.10
   0  -7 -10  -13.90    9.30
   0   7 -10   12.00   16.80
   0  -7 -10   10.80   14.20
   0   7  10  -12.80   11.30
   0  -7  10    0.40    7.00
   0   7 -10   -5.50    8.20
   0  -7  10   15.90   14.10
   0   7 -10   25.80   13.00
   0   7  10   13.20    9.60
   0   7 -10   -5.00    8.80
   0  -7 -10    2.60    7.90
   0  -7 -10   23.30   19.60
   0   8 -10   -3.40   10.20
   0  -8 -10   12.80   12.40
   0   8 -10    8.00   22.00
   0   8  10  -25.10   14.70
   0   8  10   32.30   13.30
   0  -8 -10    4.10    9.70
   0  -8  10    4.30    9.30
   0  -8 -10   46.90   18.10
  -1   0  10 1790.52   91.59
   1   0 -10 1691.03   92.59
  -1   0  10 1622.94   91.89
  -1   0 -10 1581.04   91.59
   1   0  10 1606.74   90.59
   1   0 -10 1698.13   91.99
  -1   0  10 1564.54   95.29
   1   0  10 1766.82   92.39
   1   0  10 1830.82   91.99
  -1   0 -10 1785.62   93.49
  -1   1 -10  385.66   22.30
   1   1  10  346.07   22.90
  -1  -1  10  336.47   23.00
   1  -1 -10  366.36   23.20
  -1  -1  10  409.86   22.50
  -1  -1  10  391.86   22.40
  -1   1 -10  356.66   22.00
  -1   1 -10  359.16   24.40
   1   1  10  332.17   20.90
   1  -1 -10  355.26   22.80
   1   1  10  383.46   22.50
   1  -1  10  379.76   22.80
  -1   1  10  350.86   23.00
   1  -1  10  353.56   23.50
   1   1 -10  380.06   22.10
  -1   1  10  347.37   22.20
   1   1 -10  368.16   23.20
  -1   1  10  365.86   22.00
  -1  -1 -10  364.26   22.40
   1  -1  10  308.57   22.40
  -1  -1 -10  353.56   23.90
  -1  -2  10 1437.76   72.29
  -1   2 -10 1380.16   72.69
   1   2  10 1348.37   71.69
  -1   2 -10 1209.28   71.99
   1  -2 -10 1249.47   73.29
  -1   2 -10 1277.87   74.19
  -1  -2  10 1124.59   72.99
  -1  -2  10 1419.16   71.19
   1   2  10 1331.37   72.19
  -1  -2  10 1454.75   72.19
   1   2  10 1295.37   73.29
   1  -2 -10 1346.17   73.49
   1  -2  10 1437.16   72.59
   1   2 -10 1390.96   73.69
  -1   2  10 1230.98   73.29
  -1   2  10 1351.56   71.39
  -1  -2 -10 1317.77   73.99
  -1   2  10 1299.57   72.09
   1   2 -10 1268.17   71.99
   1  -2  10 1509.85   72.99
   1  -2  10 1116.19   72.59
  -1   2  10 1375.86   72.29
  -1  -2 -10 1267.17   72.89
   1   3  10  168.98   16.30
   1   3  10  211.58   14.50
  -1  -3  10  166.48   16.80
  -1   3 -10  220.68   13.50
  -1  -3  10  201.68   13.40
  -1   3 -10  179.88   18.90
  -1   3 -10  196.98   14.90
   1  -3 -10  211.78   16.60
   1   3  10  210.38   15.00
  -1   3 -10  203.18   15.20
   1  -3 -10  190.78   16.60
  -1   3  10  184.98   16.90
  -1  -3 -10  223.18   16.80
   1   3 -10  214.78   17.10
   1  -3  10  223.18   15.80
  -1   3  10  217.48   14.20
   1   3 -10  216.28   15.20
  -1  -3 -10  228.98   17.70
   1  -3  10  201.38   13.10
  -1   3  10  204.38   15.30
   1  -3  10  214.18   14.90
   1   3 -10  196.28   14.50
   1   4  10  562.54   42.10
   1   4  10  612.04   38.60
   1   4  10  715.03   37.00
  -1   4 -10  630.84   40.30
   1  -4 -10  638.54   39.70
  -1   4 -10  547.15   42.00
   1  -4 -10  657.13   37.50
  -1   4 -10  601.64   36.90
  -1   4 -10  677.93   35.90
  -1  -4  10  624.14   36.00
   1  -4 -10  682.13   39.10
  -1   4  10  622.34   39.10
  -1   4  10  631.34   38.20
   1  -4  10  662.93   36.00
   1  -4  10  710.23   36.70
  -1  -4 -10  726.63   39.60
   1   4 -10  621.34   39.00
   1   4 -10  604.04   39.90
  -1   4  10  707.83   36.70
   1   4 -10  596.24   36.50
   1  -4  10  530.65   38.80
  -1  -4 -10  649.04   39.00
  -1  -5  10   64.39    9.20
   1  -5 -10   87.89   14.00
  -1   5 -10   66.19   13.80
   1   5  10   68.19   10.20
   1  -5 -10   87.39   11.60
  -1   5 -10   83.99   13.60
  -1  -5  10   33.60   11.80
  -1   5 -10   62.99    8.80
   1  -5 -10   58.39   12.30
  -1   5  10   57.59    9.50
  -1  -5 -10   86.09   10.30
  -1  -5 -10   79.89   19.30
   1   5 -10   62.09   11.80
  -1  -5 -10   61.59   12.40
  -1  -5 -10   68.89    8.90
   1  -5  10   67.79    8.60
   1   5 -10   60.89    9.20
  -1   5  10   49.40   11.70
   1   5 -10   75.79   11.00
  -1   5  10   79.19   11.50
   1  -5  10   41.90   11.70
   1  -6 -10  201.98   18.30
   1  -6 -10  280.87   28.70
   1  -6 -10  229.98   15.80
  -1   6 -10  214.18   18.40
   1   6  10  256.17   20.70
  -1   6 -10  253.17   21.30
   1  -6 -10  245.08   21.60
   1   6  10  242.48   20.20
  -1   6 -10  243.68   18.10
  -1  -6  10  217.98   17.40
  -1  -6 -10  294.47   23.70
  -1  -6 -10  240.68   27.20
   1   6 -10  181.48   24.40
  -1   6  10  215.28   19.90
  -1  -6 -10  248.18   18.80
  -1  -6 -10  200.28   17.30
  -1  -6 -10  233.48   16.40
   1   6 -10  221.28   17.60
   1  -6  10  210.18   16.20
  -1   6  10  235.08   19.60
   1  -6  10  169.78   21.70
   1   6 -10  201.68   20.10
  -1   7 -10   11.20   17.80
   1  -7 -10   19.60   10.80
  -1   7 -10   10.90   10.60
   1  -7 -10   26.10    8.40
   1   7  10   -4.80   11.40
   1  -7 -10   20.70    9.90
  -1   7 -10    6.70    8.10
  -1  -7  10    5.10    8.10
  -1   7 -10    8.40   10.40
   1  -7 -10   14.40   13.50
   1   7  10   18.10   10.80
   1  -7 -10   56.99   21.60
  -1  -7  10   30.60   14.10
  -1  -7 -10  -12.40   13.60
  -1  -7 -10   41.40   19.30
  -1   7  10   14.70   11.60
  -1  -7 -10   39.00   10.00
   1   7 -10   -4.80   18.70
   1   7 -10   -1.30    9.40
   1   7 -10    0.30    8.00
  -1   7  10   14.30   10.40
  -1  -7 -10   14.20    8.30
   1  -7  10    2.20    6.80
   1   7 -10   -1.60    9.40
   1   7 -10   50.79   13.50
  -1  -7 -10   22.50   10.10
  -1   8 -10   39.50   23.80
   1   8  10   63.99   14.40
  -1  -8  10   48.20   16.90
  -1   8 -10   46.70   13.70
   1  -8 -10   48.50   13.10
   1  -8 -10   66.79   11.20
   1   8  10   58.49   16.60
  -1  -8  10   32.10   10.90
   1  -8 -10   81.29   19.50
  -1  -8 -10   63.59   18.70
   1   8 -10   32.40   22.50
  -1  -8 -10   55.09   11.00
  -1   8  10   57.49   15.10
   1  -8  10   42.50    9.70
  -1  -8 -10   45.40   13.50
  -1   8  10   54.89   16.00
   1   8 -10   33.40   11.40
   2   0  10   47.70    6.80
  -2   0 -10   53.59    8.20
  -2   0  10   43.10    6.70
  -2   0 -10   38.80    6.60
   2   0 -10   40.50    6.90
  -2   0  10   56.49    7.40
  -2   0  10   50.59    7.90
   2   0  10   48.90    7.30
   2   0 -10   44.60    7.30
  -2   0 -10   54.59    7.90
  -2   0 -10   67.69    7.40
   2   0  10   58.39    8.50
  -2   1 -10   20.60    7.50
   2  -1 -10   13.10    5.60
  -2   1 -10   12.30    5.00
  -2  -1  10   17.30    6.60
   2   1  10   26.00    6.00
   2  -1 -10   11.90    5.90
  -2  -1  10   21.20    5.80
  -2  -1  10   15.70    5.20
   2   1  10   11.00    4.20
   2   1  10   24.20    5.90
  -2   1 -10   19.80    4.20
  -2   1 -10   20.90    4.90
   2  -1  10   29.20    5.90
   2  -1  10   20.10    6.40
   2  -1  10   14.80    6.80
  -2  -1 -10   16.70    7.50
  -2   1  10   15.00    6.00
   2  -1  10   17.50    4.90
  -2  -1 -10   18.60    5.00
  -2   1  10   16.40    5.40
  -2   1  10   20.90    6.60
   2   1 -10   13.60    5.20
   2   1 -10   10.20    5.30
   2   2  10   44.70    6.00
   2   2  10   48.00    7.20
  -2  -2  10   47.10    6.60
  -2   2 -10   53.59   10.80
  -2  -2  10   53.39    6.00
  -2   2 -10   46.70    6.50
  -2  -2  10   43.50    5.70
   2  -2 -10   45.60    7.80
  -2  -2  10   34.60    8.60
  -2   2 -10   41.00    6.50
   2  -2 -10   33.00    7.60
   2   2  10   33.60    7.00
  -2   2 -10   47.60    6.50
  -2   2  10   32.50    6.50
  -2  -2 -10   41.70    7.10
  -2   2  10   49.60    8.40
   2  -2  10   56.99    7.50
   2   2 -10   36.70    6.40
  -2  -2 -10   51.29    8.60
   2  -2  10   37.80    7.80
  -2   2  10   54.39    7.50
   2  -2  10   58.59    7.80
   2   2 -10   40.00    7.30
   2  -2  10   56.29    9.60
  -2   3 -10   15.30    5.60
  -2  -3  10   13.70    4.90
  -2   3 -10   13.10    4.30
   2  -3 -10   28.80    7.20
  -2   3 -10   18.60    9.50
   2  -3 -10   13.80    7.30
  -2  -3  10    9.60    7.60
   2   3  10    8.20    6.40
   2   3  10   16.30    5.40
  -2   3 -10    5.80    5.70
   2   3  10   15.40    6.00
  -2   3  10    6.90    7.70
   2  -3  10   17.70    7.00
   2   3 -10   12.30    5.40
  -2   3  10    7.20    5.70
  -2  -3 -10    6.70    6.60
  -2   3  10   16.00    4.40
   2  -3  10   20.80    6.90
   2   3 -10   20.90    7.40
   2   3 -10   12.50    5.40
  -2  -3 -10   25.50    7.90
   2   4  10   33.90    7.00
  -2   4 -10   31.70    6.20
  -2   4 -10   36.50    8.10
   2  -4 -10   39.80    8.00
  -2  -4  10   32.40    6.40
   2   4  10   27.60    8.80
  -2   4 -10   31.10    7.30
  -2  -4  10   25.50    9.90
  -2   4 -10   31.60   11.00
   2  -4 -10   32.50   11.60
   2  -4 -10   37.20    9.70
   2   4  10   17.60    8.00
   2   4 -10   23.80    6.10
   2   4 -10   33.00    6.80
  -2  -4 -10   40.30    6.40
  -2  -4 -10   39.20    9.00
   2   4 -10   31.90    8.70
   2  -4  10   38.50    6.90
  -2   4  10   38.30    9.40
  -2   4  10   31.90    6.50
  -2  -4 -10   35.30    9.00
  -2   4  10   32.30    7.50
   2  -4  10   20.00   10.00
   2  -4  10   42.40    8.00
   2  -5 -10   14.60   10.80
  -2   5 -10   31.40    8.70
  -2   5 -10   13.40   11.40
  -2  -5  10    7.00    5.90
   2  -5 -10    7.60    8.30
   2  -5 -10    3.90    6.70
   2   5  10    0.20    8.70
   2   5  10   -3.60    7.60
  -2   5 -10   12.90    6.60
   2   5  10   17.90    7.00
  -2  -5  10    3.10   10.40
  -2   5 -10    0.50    6.10
   2   5 -10   -0.40    7.10
  -2  -5 -10    4.90    5.50
   2   5 -10   -1.60    5.60
  -2  -5 -10    4.90   10.80
  -2   5  10    3.10   10.10
   2   5 -10    7.20    9.60
  -2  -5 -10    8.40    5.60
  -2   5  10   -1.80    7.30
  -2  -5 -10    2.00    9.30
   2  -5  10    6.90    5.10
  -2   5  10    1.10    6.50
  -2   6 -10    7.60   14.60
  -2   6 -10   20.40    7.80
  -2  -6  10   12.20   11.30
  -2   6 -10   12.10    8.10
  -2  -6  10   17.60    7.40
   2  -6 -10   29.40    7.00
   2  -6 -10   47.80   15.60
   2  -6 -10   26.50   11.00
   2  -6 -10   11.30    7.90
  -2   6 -10    5.20   10.70
   2   6  10   12.40   10.40
   2   6  10   19.30    8.70
   2  -6  10   15.00    6.70
   2   6 -10   14.40    8.30
  -2   6  10   13.70    8.80
  -2  -6 -10   12.80    8.10
  -2  -6 -10   16.70    7.20
   2   6 -10    7.90   11.70
  -2  -6 -10   17.30   14.90
   2   6 -10    9.40    7.00
   2   6 -10    8.20    9.10
  -2   7 -10   26.40   11.30
   2  -7 -10    4.10   12.70
   2  -7 -10    1.80    8.10
  -2  -7  10    6.00    8.40
   2  -7 -10    8.20   10.20
   2   7  10   -5.30   12.00
  -2   7 -10   -1.80    8.50
   2   7  10   -2.10    9.70
  -2   7 -10    8.30   18.30
  -2  -7  10   -4.90   14.20
   2   7 -10   -1.50    9.80
  -2  -7 -10    2.40    9.50
  -2   7  10    5.10   10.50
  -2  -7 -10   35.80   23.00
  -2  -7 -10   -8.70   14.70
   2   7 -10    8.20   12.20
   2  -7  10    4.10    6.90
   2   7 -10   -0.20    8.00
  -2  -7 -10    5.20    8.40
   2   7 -10   -3.90   14.80
   2   8  10    5.70   13.00
  -2   8 -10   17.80   24.70
   2   8  10  -14.90   16.20
   2  -8 -10   30.60   17.20
  -2   8  10   21.60   19.20
   2   8 -10   -8.30   11.30
  -2   8  10  -21.40   13.30
   2   8 -10   41.10   22.60
  -3   0  10   20.60    6.10
   3   0  10   23.50    6.10
  -3   0 -10   18.20    5.30
  -3   0 -10   26.50    5.00
  -3   0  10   26.40    5.60
  -3   0 -10   22.90    4.60
   3   0  10   23.70    6.40
   3   0 -10   22.50    5.90
   3   0 -10   19.30    5.80
   3   0  10   21.30    4.60
  -3   0 -10    8.90    7.20
  -3   0  10   27.70    6.90
  -3   1 -10  149.49   11.20
  -3  -1  10  156.58   11.80
   3  -1 -10  126.89   13.40
   3   1  10  146.99   11.30
  -3   1 -10  143.79   16.40
  -3  -1  10  135.19   13.00
   3   1  10  161.28   13.30
  -3   1 -10  147.79   11.90
   3  -1 -10  148.69   12.50
   3   1  10  148.39   13.10
  -3  -1  10  172.18   12.20
  -3   1 -10  161.18   12.00
  -3  -1 -10  131.69   15.10
   3  -1  10  146.19   14.00
  -3  -1 -10  179.68   11.40
   3   1 -10  140.39   12.50
  -3   1  10  157.68   11.80
  -3   1  10  150.58   12.90
   3  -1  10  140.79   11.80
  -3   1  10  119.19   13.20
   3  -1  10  149.79   12.90
   3   1 -10  147.89   12.40
  -3  -1 -10  127.59   11.90
  -3  -2  10   13.00    7.00
   3  -2 -10    3.00    6.70
  -3   2 -10   13.50    4.90
  -3  -2  10   15.80    4.60
   3   2  10   20.60    6.90
   3  -2 -10   15.90    5.90
  -3   2 -10   12.70    5.40
   3   2  10   17.10    6.00
   3   2  10    9.30    4.60
  -3   2 -10   12.40    4.40
  -3   2 -10   17.70   10.40
  -3   2  10    9.00    5.20
   3   2 -10   21.40    5.90
   3  -2  10   14.50    5.00
   3  -2  10   15.80    7.10
   3   2 -10   18.40    5.40
  -3   2  10   18.90    7.00
  -3  -2 -10    0.10    7.50
  -3  -2 -10   -0.20    5.30
   3  -2  10   13.40    5.70
  -3   3 -10   59.19   10.00
   3   3  10   60.89    8.20
   3   3  10   68.39    9.80
   3   3  10   64.49   10.60
  -3   3 -10   64.79   11.80
  -3  -3  10   58.69   11.60
   3  -3 -10   71.19   10.40
   3  -3 -10   71.89    9.90
  -3  -3  10   69.49    8.20
  -3   3 -10   74.59   10.00
   3  -3  10   81.19   10.60
   3  -3  10   78.09   12.00
  -3   3  10   71.09    8.40
   3   3 -10   58.49    7.70
   3   3 -10   86.89   10.90
  -3  -3 -10   64.59    9.60
  -3   3  10   55.39    9.40
  -3  -3 -10   61.99   10.40
  -3   3  10   60.19   10.00
   3  -4 -10   -5.40    6.70
  -3   4 -10   -2.00   10.00
  -3   4 -10    1.80    6.00
  -3   4 -10    5.00    5.60
  -3  -4  10   -4.30    9.50
  -3  -4  10   -2.10    5.60
   3  -4 -10   13.20    6.70
   3   4  10    1.10    6.90
   3   4  10    6.40    6.00
   3  -4 -10    3.80    9.40
  -3   4 -10    5.50    7.10
   3   4  10   -8.30    7.60
   3   4 -10    8.20    7.50
  -3  -4 -10    6.20    7.80
   3   4 -10    7.50    5.70
  -3   4  10    4.10    7.00
  -3  -4 -10    1.40    8.20
   3  -4  10    3.10    6.30
   3   4 -10    6.90    6.00
  -3   4  10    0.30    7.70
  -3  -4 -10    5.10    5.00
   3  -4  10    6.20    7.50
   3  -5 -10    6.90    8.50
  -3  -5  10    4.30    6.70
  -3   5 -10   17.00    7.10
   3  -5 -10    6.10    6.70
   3   5  10    7.50    7.30
  -3   5 -10    2.40    6.70
   3  -5 -10    8.50   11.50
  -3   5 -10    3.10   12.00
  -3   5 -10   29.30    9.60
   3   5  10    0.80    8.00
  -3  -5  10    5.00    9.90
   3   5  10   -7.40    9.30
   3  -5  10   12.80    7.90
  -3   5  10  -12.30    9.80
  -3   5  10   13.70    7.60
   3   5 -10   11.50    7.30
  -3  -5 -10   18.80   10.40
  -3  -5 -10   29.90   11.10
  -3  -5 -10   15.50    5.00
   3   5 -10    6.60    6.30
  -3  -5 -10   13.20    6.00
   3  -5  10    5.20    7.90
   3   5 -10    8.50    9.40
  -3  -5 -10   14.60    7.50
   3  -6 -10  -14.80    9.90
   3  -6 -10   39.50   20.80
   3   6  10    9.80    8.70
  -3  -6  10   -4.80    6.80
   3   6  10   -4.20    9.40
  -3   6 -10  -14.90    8.00
  -3   6 -10   -3.70    8.50
   3  -6 -10    3.00    6.10
  -3   6 -10   -9.30   15.10
   3  -6 -10   -5.70    8.90
  -3  -6 -10   -6.40   12.10
  -3   6  10   12.20    9.10
   3   6 -10   -6.00    7.50
   3  -6  10   -4.50    5.40
   3   6 -10    5.70    8.70
  -3  -6 -10   12.50    8.10
  -3  -6 -10   -6.40   13.80
   3   6 -10   -1.60    8.00
  -3  -6 -10   -5.70    7.50
   3   6 -10    8.20   12.20
   3   7  10   -1.10   13.00
  -3   7 -10    6.70   19.80
   3  -7 -10    0.10    7.70
  -3  -7  10    6.80   14.30
  -3  -7  10   -8.50    9.00
  -3   7 -10  -19.70    8.60
   3  -7 -10   13.70   13.20
  -3   7 -10   -8.00   11.80
   3   7  10    2.20   10.20
  -3  -7 -10    3.40    8.50
   3  -7  10    5.90    7.30
  -3  -7 -10  -10.00   10.20
   3   7 -10  -20.20   10.70
   3   7 -10  -21.20   10.90
   3   7 -10    8.60   14.90
  -3  -7 -10   15.50   15.70
   3   7 -10  -14.10    8.00
  -3   7  10   11.20   11.30
   4   0  10    6.10    5.20
  -4   0  10    9.50    5.00
   4   0  10   13.10    6.60
  -4   0  10    3.50    6.40
  -4   0 -10    0.90    4.30
   4   0 -10   -7.20    4.60
  -4   0 -10    4.00    4.00
  -4   0 -10   -7.30    4.50
   4   0 -10   -3.90    5.30
  -4   0 -10   -4.70    8.10
   4   0  10    3.20    4.30
  -4  -1  10   43.90    6.00
   4   1  10   25.30    5.30
   4   1  10   38.40    7.40
   4  -1 -10   25.60    6.20
  -4   1 -10   36.60    9.60
  -4   1 -10   18.10    5.90
  -4   1 -10   35.60    5.80
   4  -1 -10   42.80    7.60
   4   1  10   25.80    6.40
  -4   1 -10   25.20    5.30
  -4  -1  10   40.10    8.70
  -4  -1  10   34.40    6.10
  -4   1  10   33.90    7.30
   4  -1  10   24.00    8.30
   4  -1  10   28.20    6.10
  -4  -1 -10   54.19    8.50
  -4   1  10   26.60    6.40
  -4  -1 -10   39.10    5.50
  -4  -1 -10   32.30    9.60
  -4   1  10   35.00    6.10
   4   1 -10   32.80    6.10
   4  -1  10   28.20    6.60
   4   1 -10   25.20    6.80
  -4  -1 -10   37.60    5.70
  -4   2 -10    5.60    8.40
  -4  -2  10   -5.40    7.20
   4  -2 -10    3.20    6.20
  -4   2 -10   -0.10    5.10
   4  -2 -10    1.90    5.00
  -4   2 -10   -1.00    4.50
  -4  -2  10    6.80    4.50
   4   2  10   -0.80    5.70
   4   2  10    5.70    5.90
   4   2  10   -4.60    4.70
  -4   2 -10   -4.70    4.40
  -4  -2 -10    0.70    3.70
   4  -2  10   -1.50    5.20
  -4   2  10   -2.80    5.20
  -4  -2 -10    5.00    8.90
  -4   2  10    0.50    6.40
   4  -2  10    0.30    5.50
   4   2 -10    0.90    5.60
   4   2 -10   -4.80    5.30
  -4  -2 -10    8.50    5.60
   4  -2  10   -5.70    7.00
  -4   3 -10   21.10    5.90
  -4   3 -10   29.20    5.80
  -4   3 -10   15.20    6.60
  -4   3 -10   20.80   10.70
  -4  -3  10   13.10    8.30
   4   3  10   26.40    7.80
  -4  -3  10   25.40    6.30
   4   3  10   17.10    5.90
   4  -3 -10   31.30    9.10
   4   3  10   20.90    7.10
   4  -3 -10   15.40    6.90
   4   3 -10   23.30    6.00
  -4   3  10   29.50    6.90
   4  -3  10   25.00    7.10
   4  -3  10   20.10    8.20
  -4   3  10   14.70    7.90
  -4  -3 -10   22.20    7.40
  -4  -3 -10   17.50    9.30
   4   3 -10   33.50    6.60
  -4   4 -10    5.30   11.10
  -4   4 -10    4.20    6.20
   4   4  10    4.80   11.80
  -4  -4  10   -7.10    5.80
   4   4  10    5.40    7.80
   4  -4 -10   -4.40    6.80
   4  -4 -10   -4.20    8.90
  -4  -4  10    3.40    9.50
   4   4  10    9.40    7.30
   4  -4 -10   14.20    6.90
  -4   4 -10   16.40    8.00
  -4   4 -10    0.90    6.10
  -4   4  10   -5.60    6.60
  -4  -4 -10    1.70    8.50
   4  -4  10    0.60    8.30
  -4  -4 -10    3.30    5.40
   4  -4  10   -0.30    6.50
   4   4 -10    3.20    5.30
   4   4 -10    0.60    6.20
   4   4 -10   12.10    7.40
  -4  -4 -10    4.90    9.60
  -4   5 -10   33.50    9.70
   4  -5 -10   22.10    8.30
  -4  -5  10    6.90   11.20
   4   5  10   -3.40    8.70
   4   5  10   18.70    8.20
  -4   5 -10   -6.90   13.80
  -4   5 -10    6.40    7.10
  -4   5 -10   10.70    7.30
   4  -5 -10   21.60   12.70
   4  -5 -10   20.20    8.50
  -4  -5  10   13.30    7.40
   4   5 -10    4.90    6.10
   4   5 -10   12.60    9.90
   4   5 -10   15.90    7.30
  -4  -5 -10   12.20    7.50
   4  -5  10   14.10    8.10
  -4   5  10   17.50    7.90
  -4  -5 -10   12.00   10.90
   4  -5  10   24.40    9.20
  -4  -5 -10   21.50   11.20
   4   6  10  -13.10    8.50
   4  -6 -10    7.60    6.30
  -4  -6  10   17.50   11.70
   4   6  10   -0.60   10.80
  -4  -6  10   -7.70    7.30
  -4   6 -10   -5.80    8.50
  -4   6 -10   25.50   16.20
   4  -6 -10   -9.20    9.60
  -4   6 -10   -9.20    9.50
   4  -6  10   11.50    9.90
   4  -6  10    7.70    9.40
   4   6 -10   10.00   12.10
  -4  -6 -10    0.00    7.50
  -4  -6 -10  -12.60    8.20
  -4   6  10    2.70    9.20
  -4  -6 -10    6.90   14.70
  -4  -6 -10   -4.10   13.50
   4   6 -10   -1.90    8.80
   4   6 -10    2.10    8.50
   4   6 -10   -7.30    6.80
  -4   7 -10  -31.30   19.10
  -4  -7  10   11.70   13.80
  -4   7 -10    2.60   10.40
  -4  -7  10    6.00    9.60
   4  -7 -10    9.10    7.90
   4   7  10   29.00   11.80
   4   7  10   -1.60   12.90
  -4   7  10   43.60   13.10
   4   7 -10  -12.30   12.10
   4   7 -10    5.80    8.10
  -4  -7 -10  -12.80   10.00
   4   7 -10   10.70   15.20
   4  -7  10    3.80    7.00
  -4  -7 -10   14.90    9.60
  -5   0 -10  437.46   31.30
   5   0 -10  429.86   28.50
  -5   0 -10  516.05   26.70
  -5   0 -10  451.75   27.20
  -5   0  10  440.66   26.90
   5   0 -10  426.46   27.10
   5   0  10  498.65   28.90
  -5   0  10  476.65   26.50
  -5   0 -10  426.66   26.70
   5   0  10  441.36   28.20
  -5   0  10  424.56   28.40
   5   0  10  458.35   27.10
  -5  -1  10  207.68   17.40
  -5   1 -10  167.08   20.40
   5   1  10  205.08   16.40
  -5   1 -10  226.58   15.40
  -5   1 -10  214.18   15.50
   5  -1 -10  219.58   15.80
   5   1  10  214.38   15.40
  -5   1 -10  218.18   15.40
   5  -1 -10  184.38   17.30
   5   1  10  244.78   17.60
  -5  -1 -10  198.28   15.20
  -5  -1 -10  231.98   15.70
  -5  -1 -10  236.28   20.70
  -5  -1 -10  236.28   14.40
   5  -1  10  209.78   16.30
   5  -1  10  253.47   18.70
  -5   1  10  199.78   16.00
  -5   1  10  227.28   15.30
   5   1 -10  222.38   16.90
  -5   1  10  204.68   16.60
   5   1 -10  226.58   15.60
   5  -1  10  207.28   16.20
   5  -2 -10  337.67   21.70
  -5   2 -10  326.27   21.50
  -5  -2  10  359.36   20.00
   5   2  10  364.66   22.80
  -5   2 -10  389.46   21.50
  -5   2 -10  336.07   20.90
  -5  -2  10  302.17   23.10
   5  -2 -10  283.77   23.60
  -5   2 -10  361.16   28.30
   5   2  10  330.07   21.40
   5   2  10  287.07   22.40
   5   2 -10  318.27   21.20
   5  -2  10  327.97   22.20
  -5  -2 -10  294.87   21.50
  -5  -2 -10  366.66   25.90
  -5   2  10  325.97   21.20
  -5  -2 -10  343.17   19.50
  -5   2  10  304.77   22.20
   5  -2  10  336.37   21.50
   5   2 -10  307.37   22.10
   5  -2  10  360.76   24.00
  -5   3 -10  153.38   13.40
   5  -3 -10  133.59   13.40
  -5   3 -10  150.58   14.00
   5  -3 -10  122.99   14.20
  -5   3 -10  137.89   20.10
   5   3  10  148.69   13.60
  -5  -3  10  179.58   12.60
  -5   3 -10  135.99   13.90
   5   3  10  124.39   16.00
   5   3  10  155.38   15.00
  -5  -3  10  125.59   15.40
   5  -3 -10  131.69   17.30
  -5  -3 -10  154.38   18.70
   5  -3  10  149.29   13.90
  -5  -3 -10  157.28   14.90
   5  -3  10  193.38   16.70
  -5  -3 -10  154.18   13.50
   5   3 -10  130.59   14.00
   5   3 -10  135.49   13.40
  -5   3  10  123.29   15.10
  -5   4 -10  156.48   14.70
  -5  -4  10  118.49   16.70
  -5   4 -10  127.39   15.20
   5   4  10  160.28   15.20
   5  -4 -10  161.88   16.10
  -5  -4  10  170.68   14.00
   5   4  10  170.28   16.10
   5  -4 -10  159.88   15.30
   5  -4 -10  153.68   20.10
  -5   4 -10  124.19   16.20
  -5   4 -10  124.99   18.80
  -5   4  10  168.78   15.20
   5   4 -10  185.18   15.00
   5  -4  10  194.88   17.80
  -5  -4 -10  169.78   19.90
   5   4 -10  153.58   14.40
  -5  -4 -10  182.48   17.80
   5   4 -10  146.39   15.20
  -5  -4 -10  151.58   14.30
   5  -4  10  134.29   15.60
  -5  -5  10   63.89   10.50
  -5   5 -10   59.69   17.70
  -5   5 -10   79.29   11.50
   5  -5 -10   72.79   10.40
   5   5  10   61.79   10.80
  -5  -5  10   50.69   13.10
   5  -5 -10   85.99   12.10
   5   5  10   91.69   14.20
   5   5 -10   58.79    9.10
  -5  -5 -10   81.69   13.10
  -5  -5 -10   74.89   14.20
  -5   5  10   94.89   14.60
  -5  -5 -10   94.59   14.20
   5   5 -10   86.99   11.90
   5   5 -10   52.79    9.70
   5  -5  10   88.09   12.50
   5  -5  10   64.79   11.00
   5   5 -10   70.09    9.60
  -5   6 -10   32.00   10.80
   5   6  10   19.70   11.40
  -5   6 -10   47.90   20.20
   5  -6 -10   25.30   12.30
  -5  -6  10   17.50   13.30
  -5  -6  10   40.30    9.90
   5  -6 -10   36.90    7.30
  -5   6 -10   31.70   11.70
   5   6  10   45.20   10.60
   5  -6  10   33.30   11.00
  -5  -6 -10   45.20   15.80
   5   6 -10   14.30   12.40
  -5  -6 -10   44.10    8.90
   5   6 -10   27.30   13.10
  -5  -6 -10   28.60   14.70
   5   6 -10   26.90    9.20
   5  -6  10   33.60   11.20
  -5  -6 -10   19.30    9.80
  -5   6  10   25.20   10.80
   5  -7 -10   23.90   14.70
  -5   7 -10   38.80   11.30
  -5  -7  10   26.10   11.30
   5   7  10   28.30   11.50
   5  -7 -10   32.80    8.70
  -5  -7  10    3.80   13.70
  -5   7 -10   42.40   22.90
   5   7  10   23.20   14.90
   5  -7  10   40.10    9.10
   5   7 -10   22.80    9.80
  -5  -7 -10    7.40   10.90
  -5   7  10   41.30   13.20
  -5  -7 -10   38.20   10.10
  -6   0 -10    6.10    9.70
  -6   0  10   19.10    8.20
  -6   0  10   22.40    6.00
  -6   0 -10    8.90    5.80
  -6   0  10   27.50    5.90
  -6   0 -10   16.60    5.00
   6   0 -10    9.50    5.60
  -6   0 -10   21.50    5.70
   6   0  10   15.40    7.00
   6   0  10   14.50    6.00
   6   0 -10   12.40    7.50
  -6   1 -10   73.39   10.10
  -6  -1  10   65.59   10.70
   6  -1 -10   55.59    9.40
  -6   1 -10   45.70    7.20
   6   1  10   59.29    9.70
   6   1  10   48.30    8.80
   6  -1 -10   63.09    8.40
  -6   1 -10   71.79    9.30
  -6  -1 -10   44.80    6.90
   6  -1  10   56.79    8.20
   6   1 -10   52.79    9.30
  -6   1  10   73.49    9.80
  -6   1  10   58.09    9.60
  -6  -1 -10   50.49    8.60
   6  -1  10   55.69    8.30
  -6   1  10   66.19   10.80
   6   1 -10   60.79    9.40
  -6  -1 -10   48.10   12.00
  -6  -1 -10   62.29   10.20
   6   2  10    6.00    6.90
   6  -2 -10    6.20    6.70
  -6   2 -10   -0.70    5.80
   6   2  10   10.70    8.40
   6   2  10    7.70    5.60
   6  -2 -10    1.30    8.60
  -6  -2  10    6.80    7.90
  -6   2 -10   12.30   10.30
  -6   2 -10   16.00    6.50
  -6   2 -10   12.30    6.30
  -6  -2  10   13.20    5.60
  -6  -2 -10   10.60   10.20
   6  -2  10    3.70    6.70
   6  -2  10   11.50   10.40
   6  -2  10   14.80    6.70
  -6  -2 -10    6.20    5.60
  -6   2  10   22.50    7.20
   6   2 -10   17.80    5.90
  -6   2  10    5.40    6.20
  -6  -2 -10   10.70    6.50
   6   2 -10   17.60    7.70
   6  -3 -10   60.09    8.50
   6  -3 -10   63.79   11.40
  -6   3 -10   41.80    8.70
  -6  -3  10   34.40   10.90
   6   3  10   42.50    7.70
   6   3  10   40.40    9.20
  -6   3 -10   34.60   13.70
   6  -3 -10   53.19    9.80
  -6   3 -10   53.69    8.50
  -6   3 -10   43.10    7.90
  -6  -3  10   61.79    8.40
   6   3  10   43.40    9.70
   6   3 -10   25.60    8.70
   6  -3  10   51.09   11.30
  -6   3  10   41.50    9.50
   6  -3  10   33.20    8.60
   6   3 -10   52.69    7.70
  -6  -3 -10   44.50    7.50
  -6  -3 -10   41.50    9.00
  -6  -3 -10   34.00   11.80
  -6   3  10   40.80    8.40
   6   4  10   -0.50    6.80
  -6   4 -10   -3.20    7.30
   6  -4 -10    3.80    7.30
  -6  -4  10   13.30    7.50
   6   4  10   -1.20    9.20
  -6   4 -10    4.80   13.80
   6   4  10   -3.40    8.50
  -6  -4  10    2.60   10.70
   6  -4 -10   26.30    8.40
  -6   4 -10    2.30    7.40
  -6   4 -10    2.80    7.20
   6  -4  10   22.60   10.40
  -6  -4 -10   17.00    9.80
  -6   4  10   10.40    8.00
  -6  -4 -10   -4.20   10.90
  -6  -4 -10    5.60    6.40
  -6   4  10    5.60   10.70
   6  -4  10    0.80    8.30
   6   4 -10   -6.30    8.20
   6   4 -10    9.00    7.60
   6   4 -10   18.10    6.10
  -6   5 -10   19.30    9.90
  -6  -5  10   16.80   13.60
   6   5  10   45.60   10.50
   6  -5 -10   27.00    9.20
  -6   5 -10   24.70   16.30
  -6   5 -10   24.50    8.60
  -6   5 -10   16.10   10.50
   6   5  10   33.60    8.90
  -6  -5  10   22.70    9.10
  -6  -5 -10   20.90    8.60
   6   5 -10   37.30   10.00
  -6  -5 -10   20.80   12.80
  -6  -5 -10   41.50   13.10
   6  -5  10   20.50   10.40
  -6   5  10   21.80    9.60
   6  -5  10   37.50   11.50
   6   5 -10   14.10    7.60
   6  -6 -10    5.60    6.80
   6  -6 -10   -8.20   10.60
  -6  -6  10   -1.80   10.60
   6   6  10   -1.10   11.70
  -6   6 -10    8.50   10.30
  -6  -6  10   -5.20   12.40
  -6   6 -10   -0.70   19.30
   6   6  10    8.50    9.90
   6   6 -10   -6.80    9.20
   6  -6  10   18.10   12.40
   6  -6  10  -12.90   11.90
  -6   6  10   19.90   11.60
  -6  -6 -10   -7.60    9.30
  -6  -7  10   -9.10   11.30
  -6   7 -10    0.40   13.30
   6  -7 -10   17.70    9.90
  -6   7 -10    9.90   23.60
   6  -7 -10   25.50   15.60
  -6  -7  10   22.70   15.00
   6   7  10   39.70   12.40
   6   7  10  -11.50   15.30
   6   7 -10   -2.20   10.20
  -6  -7 -10   19.90   20.80
  -6  -7 -10   14.50   11.70
  -6   7  10   51.19   20.60
  -7   0 -10   16.20    7.00
  -7   0 -10    1.10   10.00
   7   0  10   26.70    9.40
   7   0  10    2.70    6.50
  -7   0 -10   12.10    5.20
   7   0 -10   22.90    6.00
  -7   0  10   12.80    6.20
   7   0  10    0.60    6.80
  -7   0  10    8.20    7.60
   7   0 -10   11.30    8.10
  -7   0  10   18.40    6.20
  -7   0 -10    4.10    5.70
  -7   1 -10 1185.88   71.89
  -7  -1  10 1212.18   73.69
   7  -1 -10 1333.27   74.19
   7   1  10 1495.85   73.89
  -7   1 -10 1275.97   71.79
   7   1  10 1230.68   72.89
  -7   1 -10 1198.48   76.09
   7  -1 -10 1283.07   73.29
  -7   1 -10 1441.56   71.29
  -7   1 -10 1296.17   71.79
  -7  -1 -10 1207.38   72.09
   7  -1  10 1400.16   72.59
   7  -1  10 1490.35   74.49
   7   1 -10 1341.17   71.49
  -7   1  10 1227.78   73.39
  -7  -1 -10 1335.47   71.79
   7  -1  10 1282.87   72.89
  -7   1  10 1396.66   71.09
   7   1 -10 1204.38   72.79
  -7   1  10 1246.28   72.09
  -7  -1 -10 1246.28   71.79
  -7  -1 -10 1294.87   70.09
  -7   2 -10   11.30    6.90
   7   2  10    1.30    9.10
   7  -2 -10   11.60    6.70
  -7  -2  10    3.30    7.80
  -7   2 -10    3.70    6.50
   7   2  10    3.80    6.00
  -7   2 -10   22.00    7.40
  -7   2 -10    1.60   11.70
   7  -2 -10   16.50    6.70
   7  -2 -10    5.70    9.00
  -7   2 -10   12.20    6.70
   7   2  10   -9.60    8.30
  -7  -2 -10   12.60    7.80
   7   2 -10   16.50    8.40
  -7  -2 -10   12.70    6.00
  -7  -2 -10   24.90    6.30
  -7   2  10   15.20    6.90
  -7  -2 -10    9.10   11.20
   7  -2  10    6.10    7.80
  -7   2  10   16.70    8.40
   7  -2  10    8.30    9.60
   7   2 -10   13.20    6.50
   7  -3 -10  845.92   47.80
   7  -3 -10  828.82   48.80
   7   3  10  790.12   49.10
   7  -3 -10  849.72   51.69
  -7   3 -10  771.62   53.69
   7   3  10  952.90   49.50
  -7   3 -10  869.51   47.80
  -7   3 -10  816.12   47.50
   7   3  10  881.81   48.00
  -7  -3  10  829.72   50.59
  -7   3 -10  784.12   48.80
   7   3 -10  683.13   48.10
   7  -3  10  943.31   50.49
  -7  -3 -10  907.91   51.69
  -7   3  10  715.63   49.00
   7  -3  10  799.22   48.80
  -7  -3 -10  811.82   48.30
  -7   3  10  872.11   47.70
   7   3 -10  823.12   47.00
  -7  -3 -10  804.92   48.10
  -7   4 -10   12.90    7.90
  -7   4 -10   12.90    8.50
   7   4  10    8.00    7.20
  -7   4 -10   12.20   14.50
  -7  -4  10    0.80   10.40
  -7   4 -10    4.80    7.70
  -7  -4  10    2.40    8.40
   7  -4 -10   -2.10    7.90
   7   4  10    8.10    9.80
   7   4 -10   -3.20    8.00
  -7  -4 -10    0.40    7.90
   7   4 -10   10.90    9.40
  -7   4  10   -1.60   11.30
  -7  -4 -10    8.90   11.10
   7  -4  10   18.40   11.20
   7  -4  10    3.30    9.60
  -7  -4 -10    7.30   12.90
  -7   4  10    4.00    7.70
  -7   4  10   17.80    8.30
  -7   5 -10  347.07   27.50
   7   5  10  390.86   28.20
  -7  -5  10  393.46   25.40
   7   5  10  389.86   25.80
  -7   5 -10  363.36   24.30
  -7  -5  10  282.87   27.80
   7  -5 -10  366.76   26.70
  -7   5 -10  350.06   36.20
   7   5 -10  344.77   25.30
  -7  -5 -10  386.16   31.20
  -7  -5 -10  360.76   25.60
  -7   5  10  389.26   27.10
   7  -5  10  328.77   28.90
  -7   5  10  283.07   27.10
   7  -5  10  428.96   29.50
  -7  -5 -10  390.06   30.40
  -7  -6  10    0.50   10.70
   7  -6 -10   11.80   12.20
   7   6  10   25.00   13.70
   7  -6 -10    5.80    8.80
   7   6  10   16.70   10.30
  -7  -6  10   -5.00   13.40
  -7   6 -10   47.30   19.90
  -7   6 -10    1.00   12.00
   7  -6  10    1.80   14.90
  -7  -6 -10    6.90    9.40
  -7   6  10   26.00   13.10
   7  -6  10   16.60   13.80
   7   6 -10   -9.50    8.80
  -8   0 -10   -8.60   11.90
   8   0 -10   16.10    9.00
  -8   0 -10    3.10    6.50
  -8   0  10   10.60    8.60
   8   0  10   11.80    6.90
   8   0  10   -0.30    7.80
   8   0  10    8.10   10.20
  -8   0 -10   12.10    7.60
  -8   0 -10    0.20    5.30
   8   0 -10    6.00    6.60
  -8   1 -10   57.79   15.60
  -8   1 -10   67.29   10.90
  -8   1 -10   74.79   10.50
   8   1  10   58.99    8.80
  -8   1 -10   59.69    9.80
   8  -1 -10   70.79   12.00
   8   1  10   81.29   12.40
  -8  -1  10   64.09   12.30
  -8   1 -10   48.20    8.90
   8  -1 -10   90.29   11.50
   8   1  10   84.89   13.20
   8   1 -10   64.59   11.00
   8  -1  10   66.89    9.80
  -8   1  10   75.69   11.60
   8   1 -10   74.49   11.20
  -8  -1 -10   70.69    9.60
   8  -1  10  120.99   17.40
   8  -1  10   58.19   10.60
  -8  -1 -10   65.79    9.50
  -8  -1 -10   57.49    9.40
  -8   1  10   76.89   10.70
  -8   1  10   61.39   11.00
  -8  -1 -10   84.99   15.10
   8  -2 -10   12.10    6.90
  -8   2 -10    3.30   13.60
   8   2  10   -2.70    6.50
  -8   2 -10   -9.20    7.00
   8   2  10   14.70    9.70
   8  -2 -10   -5.60   10.40
  -8  -2  10    5.30    8.60
  -8   2 -10   -3.30    6.90
  -8   2 -10    7.00    6.90
  -8   2 -10    6.90    8.80
   8   2  10  -10.80    8.80
  -8  -2 -10    8.60    7.00
  -8   2  10    0.30    7.70
  -8  -2 -10   11.70    8.70
   8   2 -10    0.20    9.30
  -8   2  10  -10.60    8.70
   8   2 -10   -4.70    5.80
  -8  -2 -10   15.70   13.30
   8  -2  10    0.10    8.80
   8  -2  10   13.70    9.90
   8  -2  10    0.70    7.10
  -8  -2 -10    2.20    6.90
   8  -3 -10   38.50    9.00
  -8   3 -10   49.90    9.80
   8   3  10   50.99    9.10
  -8  -3  10   71.49    9.40
  -8   3 -10   59.19    9.90
  -8   3 -10   48.90    9.70
   8   3  10   65.39   12.90
  -8   3 -10   28.00   15.40
  -8  -3  10   38.70   11.10
  -8  -3 -10   22.30   15.70
  -8  -3 -10   45.80    9.10
   8  -3  10   60.49   12.80
   8   3 -10   42.30   11.10
  -8   3  10   52.69   12.70
  -8  -3 -10   47.20   11.00
  -8   3  10   41.90   10.00
   8   3 -10   62.89    9.10
  -8  -4  10  -11.90   11.70
   8  -4 -10   16.10    9.20
   8   4  10   -9.90    7.70
  -8   4 -10   -0.90    8.00
  -8   4 -10   -2.90   16.30
  -8   4 -10   -1.30    9.90
  -8  -4  10  -14.20    8.40
   8   4  10  -11.00   11.70
  -8   4  10    8.30    9.30
  -8  -4 -10   27.80   12.90
   8   4 -10    6.90   10.80
  -8  -4 -10   -8.40    8.30
  -8  -4 -10   -4.00   13.50
   8   4 -10    4.70    8.50
   8  -4  10   16.30   12.50
  -8   4  10   -2.90    8.70
  -8   5 -10   64.89   19.30
  -8   5 -10   33.60    9.30
   8   5  10   25.60   10.30
   8   5  10   11.70   12.90
  -8  -5  10   21.20   12.70
  -8   5 -10   43.10   13.50
  -8  -5  10   27.80   11.40
   8  -5 -10   26.50   10.70
  -8  -5 -10   24.60    9.30
   8   5 -10   20.20   10.20
   8  -5  10   34.70   13.90
  -8   5  10   25.30   12.20
  -8   5  10   13.20   11.70
  -8  -6  10   -4.30   11.60
   8   6  10    4.90   15.40
  -8   6 -10  -11.70   21.10
   8   6  10  -12.40    9.40
  -8  -6  10   -2.40   14.10
   8  -6 -10    1.80   12.80
  -8   6 -10  -18.20   13.30
  -8   6  10    8.10   13.70
   8   6 -10  -12.70    9.80
  -8  -6 -10   15.10   11.60
   8  -6  10   15.00   15.60
  -9   0 -10  208.08   26.40
   9   0 -10  225.08   17.50
  -9   0 -10  209.78   15.40
   9   0 -10  194.88   22.40
   9   0  10  224.58   18.20
  -9   0 -10  156.18   17.20
  -9   0 -10  186.18   22.80
  -9   0  10  180.78   18.80
  -9   0 -10  213.28   19.00
   9   0  10  243.58   23.10
   9   1  10  193.48   17.60
  -9   1 -10  164.68   17.10
   9   1  10  207.08   22.70
   9  -1 -10  198.38   23.40
  -9   1 -10  178.78   26.90
   9  -1 -10  195.58   17.40
  -9   1 -10  191.38   19.20
  -9   1 -10  188.18   16.00
  -9  -1  10  182.68   18.80
  -9  -1 -10  196.08   25.90
  -9   1  10  173.18   18.10
  -9  -1 -10  163.88   16.90
   9  -1  10  238.98   22.00
   9  -1  10  218.88   18.10
   9   1 -10  180.68   21.90
   9   1 -10  194.58   16.60
  -9   1  10  200.18   16.40
  -9   1  10  188.78   19.80
  -9  -1 -10  187.08   18.30
   9   2  10  185.58   16.30
  -9   2 -10  135.79   15.60
  -9   2 -10  151.38   16.10
   9  -2 -10  163.18   16.00
  -9   2 -10  129.69   20.20
   9   2  10  163.48   20.60
  -9  -2  10  127.19   25.60
  -9  -2 -10  138.59   15.40
   9   2 -10  130.19   17.00
  -9  -2 -10  187.68   25.00
  -9   2  10  155.88   16.80
   9  -2  10  152.98   16.70
  -9  -2 -10  132.29   18.20
  -9   2  10  143.39   20.90
   9   2 -10  166.58   15.30
  -9   2  10  120.59   20.20
  -9   3 -10  125.19   18.30
   9   3  10  130.89   15.50
   9  -3 -10  121.29   16.00
   9   3  10  186.98   21.70
  -9   3 -10  111.39   21.00
  -9  -3  10  113.69   17.30
  -9   3 -10  129.09   17.60
  -9  -3 -10  116.99   15.20
  -9  -3 -10  147.79   20.20
   9  -3  10  155.98   23.00
   9   3 -10  131.19   14.80
  -9   3  10  107.59   16.80
   9   3 -10  123.89   15.50
  -9   3  10  117.29   17.90
   9   4  10   82.29   11.80
  -9  -4  10   64.89   16.70
  -9   4 -10   60.49   13.50
  -9  -4  10   81.09   12.40
  -9   4 -10   90.39   15.10
   9   4  10   90.19   17.30
  -9   4 -10   96.09   21.90
   9  -4 -10   67.99   12.20
  -9  -4 -10   81.79   17.10
   9   4 -10   58.59   13.40
   9   4 -10   78.79   11.20
  -9  -4 -10   61.39   10.90
  -9   4  10   59.09   12.60
  -9   4  10   89.69   13.10
   9  -4  10   94.89   15.70
  -9   5 -10   71.19   23.30
   9   5  10   76.29   12.20
   9  -5 -10   85.49   12.90
   9  -5 -10   87.79   14.00
  -9  -5  10   91.29   19.80
   9   5  10   74.09   18.00
  -9  -5  10   45.60   17.40
  -9   5 -10   62.79   15.60
  -9   5  10   76.69   14.90
  -9  -5 -10  107.19   16.70
   9   5 -10   64.79   11.70
   9  -5  10   73.39   17.10
 -10   0  10   12.80   11.30
 -10   0 -10   20.80   16.20
 -10   0 -10   25.50   12.80
 -10   0 -10   25.30    7.50
  10   0  10   37.30   13.60
  10   0 -10   25.40    8.70
  10   0  10   21.30    9.20
 -10   0 -10   13.80    8.90
  10  -1 -10    0.60    8.40
  10   1  10   -6.30    8.30
 -10   1 -10  -17.70    8.20
 -10  -1  10    8.20   10.20
  10   1  10    4.40   12.40
 -10   1 -10   -5.30   15.80
 -10   1 -10    1.00    7.70
  10  -1  10   -9.30   11.40
 -10  -1 -10  -17.40   14.70
  10   1 -10    3.20    8.60
 -10   1  10   -1.20    9.70
 -10   1  10    3.10    9.80
  10  -1  10    4.20    8.70
  10   1 -10   20.60   13.20
 -10   1  10    2.30    8.90
 -10  -1 -10    1.20   10.80
 -10  -1 -10   -3.40    7.80
  10   2  10   43.90   15.00
 -10   2 -10   29.40   18.30
 -10   2 -10   21.20    9.80
  10   2  10   23.70    8.90
 -10  -2  10   21.80   11.70
  10  -2 -10   17.10    9.50
  10   2 -10   21.50   13.60
  10   2 -10   28.40   11.00
 -10  -2 -10   10.40    8.10
  10  -2  10   27.30   13.70
 -10   2  10   13.20   10.30
 -10  -2 -10   17.30   11.80
 -10  -2 -10  -11.10   15.50
  10  -2  10   20.50    9.00
 -10   2  10   28.10   10.10
 -10   2  10   19.10   13.70
  10   3  10   -1.10    8.10
  10   3  10   -6.40   13.50
 -10   3 -10   20.20   11.40
 -10  -3  10   -0.70   11.50
 -10   3 -10   14.20   10.40
  10  -3 -10    1.80    9.70
 -10   3 -10  -11.10   16.90
  10   3 -10   24.30    9.30
 -10  -3 -10   14.10   16.30
  10   3 -10    8.70   13.80
 -10  -3 -10   15.00   17.10
 -10   3  10  -12.70   10.80
  10  -3  10   23.80   14.40
 -10   3  10    1.10   16.10
 -10  -3 -10    3.70    9.40
 -10   4 -10  -23.10   19.80
 -10   4 -10   -3.50   11.90
  10  -4 -10   10.50   10.90
 -10  -4  10   17.20   13.10
  10   4  10   16.80    9.50
 -10  -4  10    1.70   10.80
  10   4  10   45.70   16.50
 -10   4 -10   26.30   13.00
  10  -4  10   33.40   15.40
 -10  -4 -10   -2.50    8.70
 -10   4  10   37.50   13.10
  10   4 -10   22.40   10.40
  11   0  10   46.00   14.90
  11   0  10   45.30   11.10
 -11   0  10   38.20   13.60
  11   0 -10   50.29   11.30
 -11   0 -10   41.90   10.80
 -11   0 -10   25.60   18.30
 -11   0 -10   41.90    9.70
  11  -1 -10   77.09   12.70
  11   1  10  101.99   19.60
 -11   1 -10   92.99   14.20
 -11   1 -10   52.59   20.40
 -11  -1  10  104.69   17.50
  11   1  10  111.19   16.80
 -11   1 -10  111.89   17.10
  11  -1  10  136.59   18.00
 -11  -1 -10  103.69   15.60
 -11   1  10   75.49   13.80
 -11  -1 -10   49.40   19.40
 -11  -1 -10   74.69   12.30
  11   1 -10   99.69   12.90
 -11  -2  10   49.60   13.60
  11  -2 -10   42.60   11.20
 -11   2 -10   59.09   12.00
  11   2  10   30.60   10.50
 -11   2 -10   22.30   11.50
 -11   2 -10    2.60   19.30
  11   2  10   41.90   17.60
 -11  -2 -10   17.40   22.40
  11   2 -10   27.10   10.80
  11  -2  10   22.00   10.20
 -11   2  10   32.40   12.10
 -11   2  10   21.60   13.00
  11   2 -10   26.60   17.80
 -11  -2 -10   21.40   17.90
  11  -2  10   64.29   16.40
 -11  -2 -10   17.50   10.90
 -11   3 -10   27.70   13.60
  11   3  10   42.00   10.90
  11  -3 -10   56.89   12.70
 -11   3 -10   47.40   13.70
 -11   3 -10   47.60   21.80
  11   3  10   48.30   18.50
 -11  -3  10   52.79   17.10
 -11   3  10   64.39   13.80
 -11  -3 -10   38.90   18.80
 -11  -3 -10   47.90   12.50
  11  -3  10   53.59   16.50
 -12   0  10    1.80   11.80
 -12   0 -10  -13.10   19.90
  12   0  10   22.10   18.10
  12   0  10    3.60   10.40
 -12   0 -10  -23.10   11.50
  12   0 -10  -16.60   11.40
 -12   1 -10  -10.10   22.40
 -12   1 -10  -18.10   12.60
  12  -1 -10  -14.20   11.80
 -12  -1  10    8.60   13.50
  12   1  10   21.90   18.70
  12   1  10  -15.00   10.50
  12   1 -10    3.50   12.00
 -12   1  10    5.40   11.50
  12  -1  10   -3.10   10.40
 -12  -1 -10   12.10   19.90
  12  -1  10   39.70   16.80
 -12  -1 -10  -19.70   11.50
  12   2  10   -3.30   10.60
 -12   2 -10   32.10   24.40
  12   2  10   44.60   20.70
 -12  -2  10    6.10   13.90
  12  -2 -10    4.10   11.70
 -12   2 -10   13.90   13.60
 -12   2 -10    1.10   14.10
  12  -2  10   26.30   12.10
 -12  -2 -10   34.40   20.80
  12  -2  10   45.10   22.90
  12   2 -10   17.10   12.60
 -12   2  10    4.60   12.70
 -12   2  10    5.40   14.00
   0   0  11   -6.60    6.30
   0   0  11   -1.00    5.50
   0   0 -11    1.50    6.00
   0   0 -11    0.60    5.00
   0   0  11   -1.30    5.80
   0  -1  11  185.38   14.10
   0  -1  11  158.08   13.20
   0   1 -11  154.38   12.40
   0  -1 -11  137.09   13.50
   0  -1  11  136.29   13.60
   0   1  11  144.79   14.00
   0   1  11  162.98   13.30
   0   1 -11  154.48   15.30
   0  -1 -11  153.38   14.60
   0  -2 -11   -4.40    5.90
   0  -2 -11    3.60    6.00
   0   2 -11    4.70    7.70
   0   2  11    0.60    4.30
   0   2 -11    2.30    4.90
   0  -2  11    2.30    8.10
   0   2  11   -7.10    6.40
   0  -2  11    4.60    5.50
   0   2 -11    9.10    5.50
   0  -2  11   -0.80    3.60
   0  -2  11   -4.00    6.50
   0   2  11    3.80    5.90
   0  -3  11   89.59   13.40
   0  -3  11  116.09    9.10
   0  -3  11  112.09   11.00
   0  -3 -11   96.99   14.10
   0   3 -11   87.69   11.70
   0   3  11   99.99   13.60
   0  -3  11  114.29   12.40
   0   3  11   98.79   10.80
   0   3  11  122.49   14.80
   0   3 -11  108.99   15.20
   0   4  11    2.60    7.30
   0  -4 -11    8.70    8.10
   0  -4 -11   -5.40    6.20
   0   4  11   -2.90    8.50
   0   4 -11    5.60    7.00
   0   4 -11   11.00   10.10
   0  -4 -11    6.60    9.00
   0   4  11    4.40    6.20
   0   4 -11   -1.40    6.00
   0  -4  11   -3.60    4.70
   0  -4  11    2.20    9.90
   0  -5  11   50.39    7.80
   0  -5 -11   42.70   11.40
   0   5 -11   49.50   13.40
   0   5 -11   43.30    8.70
   0   5 -11   36.20    9.50
   0  -5 -11   57.29    8.90
   0  -5  11   29.40   13.10
   0   5  11   46.00   10.10
   0   5  11   49.00    9.50
   0  -5 -11   50.09   14.40
   0  -6 -11    1.60   17.60
   0   6 -11   14.30   15.40
   0  -6 -11    2.10    8.90
   0   6  11    4.50   10.50
   0   6 -11    3.20   12.30
   0   6 -11  -10.40    6.80
   0  -6 -11   -2.60   11.60
   0  -6  11   -0.20    6.10
   0   6  11   -1.00    9.80
   0  -6  11   -0.10   13.80
   0  -7  11    1.00    8.80
   0   7 -11  -17.30   20.10
   0   7 -11   12.40    9.50
   0  -7 -11   13.90    9.40
   0  -7 -11    4.30   15.80
   0  -7 -11   17.50   29.20
   0  -7  11   13.40   14.80
   0   7  11   14.30   13.00
   0  -7 -11   19.80   11.10
   0   7  11   22.60   12.60
   1   0  11  409.76   24.70
  -1   0  11  398.36   24.20
  -1   0 -11  404.36   26.40
   1   0 -11  387.76   25.20
   1   0  11  365.06   22.60
  -1   0 -11  373.56   23.90
  -1   0  11  398.96   24.70
   1   0  11  422.06   24.60
   1   0 -11  380.66   24.30
  -1   0  11  371.26   24.50
  -1  -1  11  140.39   13.70
  -1  -1  11  128.99   18.50
   1  -1 -11  152.58   13.60
   1  -1 -11  142.79   13.60
   1   1  11  137.79   10.80
  -1   1 -11  148.79   15.50
  -1  -1  11  167.08   13.40
   1   1  11  125.89   13.30
   1   1  11  154.78   13.30
  -1   1 -11  156.38   12.30
   1   1 -11  161.88   14.10
   1   1 -11  164.98   12.80
  -1   1  11  138.59   12.40
  -1  -1 -11  137.39   12.80
   1  -1  11  165.28   13.00
   1  -1  11  141.99   11.00
  -1   1  11  122.79   13.70
   1  -1  11  156.28   13.70
  -1   1  11  153.68   12.60
   1  -1  11  131.49    9.50
   1  -1  11  126.99   13.00
  -1  -1 -11  144.49   15.10
   1   2  11  304.17   20.10
   1   2  11  300.17   20.80
   1  -2 -11  313.57   21.20
   1  -2 -11  271.27   21.10
  -1   2 -11  321.07   20.20
   1   2  11  297.77   18.70
  -1   2 -11  315.17   22.70
  -1  -2  11  252.37   20.80
  -1  -2  11  314.87   17.80
  -1   2 -11  295.47   19.50
  -1  -2  11  322.77   19.80
  -1  -2  11  331.97   20.60
  -1   2  11  304.07   18.40
   1  -2  11  349.47   21.50
  -1   2  11  315.17   20.10
   1  -2  11  319.07   17.70
  -1   2  11  252.87   21.10
  -1  -2 -11  301.87   22.30
   1   2 -11  316.87   22.10
   1  -2  11  256.57   20.80
  -1  -2 -11  260.27   20.60
   1  -2  11  322.37   20.10
  -1   2  11  277.47   19.60
   1   2 -11  280.77   19.50
  -1   3 -11   77.89   12.70
   1  -3 -11   68.89   10.30
  -1   3 -11   83.39   10.80
   1   3  11   56.79    9.20
  -1   3 -11   84.89   12.80
  -1  -3  11   60.39    8.40
  -1  -3  11   55.79   11.30
   1   3  11   61.19   10.70
   1   3  11   81.79   10.10
   1  -3 -11   54.89   11.10
   1   3 -11   82.09   12.00
   1  -3  11   66.19   10.10
   1   3 -11   78.39   12.60
   1  -3  11   96.09   12.40
  -1   3  11   63.69   10.30
   1   3 -11   62.39   10.40
  -1  -3 -11   85.89   15.90
  -1   3  11   82.99   10.80
   1  -3  11   67.49   11.60
  -1  -3 -11   70.59   10.20
   1  -3  11   68.59    7.40
  -1   3  11   56.49   10.20
  -1   4 -11  176.28   20.70
  -1   4 -11  139.49   14.00
  -1  -4  11  101.49   15.80
   1   4  11  156.58   16.70
   1  -4 -11  183.88   16.50
   1  -4 -11  109.29   18.60
   1  -4 -11  148.29   14.80
   1   4  11  149.69   14.50
  -1  -4  11  154.78   12.20
  -1   4 -11  131.39   14.50
   1   4  11  157.78   14.30
   1   4 -11  136.49   18.20
  -1   4  11  115.39   18.10
   1   4 -11  143.89   14.10
   1  -4  11  121.39   17.00
  -1  -4 -11  126.19   14.20
  -1   4  11  150.18   13.50
   1   4 -11  134.99   14.20
  -1   4  11  140.79   14.80
  -1  -4 -11  170.68   18.10
  -1  -4 -11  156.48   18.20
   1  -4  11  146.99   11.20
   1  -4  11  176.58   14.60
   1   5  11   27.20    8.00
  -1   5 -11    7.30    9.50
  -1   5 -11   19.00    7.00
   1  -5 -11   21.00   10.20
   1  -5 -11   21.20   12.70
  -1  -5  11   15.60    6.90
  -1   5 -11   34.20   16.60
  -1  -5  11    2.80   11.70
   1   5  11   17.80    8.70
   1  -5 -11   10.90    8.00
   1   5 -11    9.90    8.20
   1  -5  11    9.70   12.30
  -1  -5 -11   24.50    7.40
  -1   5  11   16.00    8.70
   1  -5  11   15.20    5.90
   1   5 -11   32.10   12.40
  -1  -5 -11   35.70   13.40
   1   5 -11    9.30    6.70
  -1  -5 -11   20.10   11.00
  -1   6 -11   45.90    8.60
  -1   6 -11   51.99    9.70
   1   6  11   50.09   10.50
   1  -6 -11   56.49   13.30
   1  -6 -11   56.99   20.80
  -1  -6  11   46.60    8.80
   1   6  11   40.20   11.90
  -1   6 -11   30.00   12.90
  -1   6 -11   47.70   17.20
   1  -6 -11   35.70    9.90
  -1  -6 -11   53.89    9.10
  -1  -6 -11   65.89   14.10
  -1   6  11   57.89   10.50
  -1  -6 -11   59.09   18.50
   1   6 -11   47.60    9.60
   1   6 -11   34.40   11.30
  -1   6  11   57.79   11.90
   1  -6  11    8.30   13.60
  -1  -6 -11   63.79    8.70
   1   6 -11   56.59   19.20
   1  -6  11   38.10    7.90
  -1   7 -11   12.20   20.70
   1  -7 -11    0.50   10.40
  -1   7 -11   -9.40    9.10
   1  -7 -11  -13.50   14.70
   1  -7 -11    0.90   10.60
  -1  -7  11  -18.90    7.70
  -1  -7  11   18.30   15.30
   1  -7 -11   -5.00   13.20
   1   7  11   -4.40   11.50
   1   7  11    3.60   13.60
   1   7 -11  -18.10   18.70
   1   7 -11   19.90    9.60
  -1  -7 -11    9.20   10.70
   1  -7  11    6.30    8.60
  -1  -7 -11    5.20    9.40
  -1  -7 -11  -13.90   15.70
   1   7 -11  -10.60   17.30
  -1   7  11   24.30   11.70
  -1   7  11   -2.40   12.40
  -2   0  11  111.79   12.10
   2   0  11  102.69   11.50
  -2   0 -11   94.89   10.90
   2   0  11  114.29    9.70
   2   0  11  118.89   13.10
  -2   0  11  103.79   11.70
   2   0 -11   89.29   11.60
  -2   0 -11  106.59   14.00
   2   0 -11  107.89   11.80
  -2   0 -11  108.29   10.40
  -2   0  11  122.99   11.30
  -2   1 -11  175.58   13.50
  -2  -1  11  213.18   14.20
   2  -1 -11  168.28   14.70
  -2   1 -11  168.58   12.20
  -2   1 -11  167.88   13.40
  -2  -1  11  173.88   14.10
   2  -1 -11  169.78   14.60
   2   1  11  174.98   14.60
   2   1  11  157.28   14.70
   2   1  11  171.98   12.40
  -2   1 -11  176.18   17.40
  -2  -1  11  157.18   14.80
   2   1 -11  154.38   13.60
  -2   1  11  184.98   13.80
  -2  -1 -11  174.98   16.50
  -2   1  11  123.59   14.80
   2   1 -11  177.28   14.60
  -2   1  11  158.58   14.20
  -2  -1 -11  164.28   13.60
   2  -1  11  195.68   15.50
   2  -1  11  152.08   14.20
   2  -1  11  168.88   14.10
  -2  -2  11   92.59   10.20
  -2   2 -11   79.39   10.70
  -2  -2  11  122.49   11.80
   2   2  11   98.59   12.10
  -2   2 -11  104.99   16.50
  -2   2 -11   88.49   10.90
   2  -2 -11   86.79   12.10
  -2  -2  11  102.89    8.30
  -2   2 -11   83.69    9.20
   2   2  11   90.29    9.90
  -2  -2  11   78.79   12.70
   2   2  11  119.19   11.60
   2  -2 -11  102.49   13.60
  -2   2  11   99.79   10.90
   2   2 -11   85.69   12.30
   2   2 -11   82.69   10.90
   2  -2  11   89.29   11.20
   2  -2  11   89.89   13.10
   2  -2  11  113.89   13.70
  -2   2  11   84.79   11.20
  -2   2  11   77.89   13.00
  -2  -2 -11  100.39   14.10
  -2   3 -11  134.39   18.20
  -2   3 -11  133.09   11.00
   2  -3 -11  131.39   15.10
  -2  -3  11  137.29   10.90
   2  -3 -11  121.99   13.90
   2   3  11  122.29   12.20
  -2   3 -11  152.88   18.90
   2   3  11  118.19   13.20
   2   3  11   94.69   14.10
  -2   3 -11   98.69   12.30
   2   3 -11  125.59   12.90
  -2   3  11  129.09   10.90
  -2   3  11  120.79   12.80
   2  -3  11  106.19   14.30
  -2  -3 -11  110.09   15.30
  -2  -3 -11  130.29   18.70
   2  -3  11  109.69   12.70
  -2   3  11   95.39   13.10
   2  -3  11  158.68   14.80
   2   3 -11  128.79   15.10
   2   3 -11  113.69   12.60
   2   4  11   48.30    8.80
  -2   4 -11   23.90    8.40
   2  -4 -11   59.79   12.40
   2   4  11   54.79    8.20
   2   4  11   37.90   10.30
  -2  -4  11   32.90   11.10
  -2  -4  11   57.19    7.80
  -2   4 -11   39.70    8.20
   2  -4 -11   50.89   10.30
   2  -4 -11   65.69    9.20
   2  -4  11   58.39    9.70
   2  -4  11   38.20   12.00
  -2  -4 -11   57.39   11.40
  -2   4  11   65.89   11.00
   2  -4  11   49.30    9.90
   2   4 -11   45.10   10.40
  -2   4  11   51.59    9.00
  -2   4  11   47.20   10.90
   2   4 -11   42.90    8.30
  -2  -4 -11   38.70   10.20
   2   4 -11   40.60    8.40
   2  -4  11   54.59    8.00
  -2  -5  11   62.39    9.00
  -2   5 -11   54.19   15.10
   2   5  11   94.39   14.20
  -2   5 -11   57.99    8.90
   2  -5 -11   60.79   10.80
  -2  -5  11   33.40   12.80
  -2   5 -11   43.90   11.60
   2  -5 -11   57.59   15.10
  -2   5 -11   56.89    9.00
   2  -5 -11   73.69   11.90
   2   5  11   66.49   11.00
  -2   5  11   93.19   14.20
  -2  -5 -11   77.29   12.90
  -2   5  11   50.69   10.40
   2   5 -11   74.49   13.90
   2  -5  11   60.29    8.10
  -2  -5 -11   65.79    8.70
   2   5 -11   47.70    9.50
   2   5 -11   52.09   10.10
  -2  -5 -11   78.89   14.80
  -2   6 -11   18.20    9.10
   2  -6 -11   26.60   10.10
   2   6  11    4.40   11.30
  -2   6 -11   13.90    9.60
  -2  -6  11   14.80    7.70
  -2   6 -11  -14.20   16.90
  -2  -6  11   10.90   12.50
   2   6  11   39.20   10.10
   2  -6 -11   25.40   11.30
  -2  -6 -11   15.80    7.60
   2   6 -11   29.80   15.10
   2   6 -11   11.30   10.60
   2  -6  11   22.60    7.20
  -2   6  11    6.50    9.40
  -2   6  11   22.00   10.90
  -2  -6 -11   34.40   17.50
   2   6 -11   16.40    8.10
  -2  -6 -11   16.80    9.80
  -2  -6 -11   26.30   13.50
  -2  -6 -11   14.00    8.10
   2   7  11   18.20   14.40
  -2   7 -11    5.90    9.70
   2  -7 -11   19.80   14.30
  -2  -7  11   21.30    9.70
  -2   7 -11   50.29   23.20
  -2  -7  11    1.50   15.60
   2   7  11   33.70   11.80
  -2  -7 -11   37.90   12.20
   2   7 -11   36.10   18.00
   2   7 -11    7.40    9.30
  -2  -7 -11   36.90   17.60
  -2   7  11   28.10   12.40
   2  -7  11    8.10    7.50
  -2  -7 -11   31.50   10.30
  -3   0 -11 1636.04   80.49
   3   0  11 1467.35   79.79
  -3   0 -11 1423.66   83.19
   3   0 -11 1391.66   80.99
   3   0  11 1422.46   81.19
  -3   0  11 1560.24   80.09
   3   0  11 1584.24   81.39
  -3   0  11 1395.06   81.19
   3   0 -11 1491.65   81.39
  -3   0  11 1461.15   80.89
  -3   0 -11 1368.56   80.29
  -3  -1  11  410.26   27.30
  -3   1 -11  444.86   26.10
  -3  -1  11  431.26   26.00
  -3  -1  11  464.85   26.00
   3  -1 -11  438.26   27.20
   3  -1 -11  395.36   27.40
   3   1  11  418.76   26.90
  -3   1 -11  384.56   25.00
   3   1  11  424.86   25.30
   3   1  11  442.66   26.80
  -3   1 -11  431.96   30.20
  -3   1 -11  411.56   25.90
  -3  -1 -11  466.75   25.60
   3   1 -11  396.76   26.50
  -3  -1 -11  430.76   26.20
   3  -1  11  464.55   28.10
  -3   1  11  406.66   26.80
  -3   1  11  455.45   25.90
   3  -1  11  423.26   26.70
  -3  -1 -11  399.46   28.90
   3   1 -11  419.46   26.90
  -3   1  11  392.16   27.20
   3  -1  11  422.76   25.70
  -3  -2  11 1068.79   64.69
  -3   2 -11 1056.29   63.09
  -3   2 -11 1080.39   63.19
   3   2  11 1042.00   68.39
  -3  -2  11 1175.48   61.59
   3  -2 -11 1156.58   65.19
   3  -2 -11 1116.29   65.79
   3   2  11 1152.78   62.69
  -3   2 -11 1195.28   67.19
  -3   2 -11 1254.37   63.69
   3   2  11 1058.19   64.09
   3  -2  11 1169.28   63.89
   3  -2  11 1242.58   64.99
  -3   2  11 1011.00   64.39
  -3   2  11 1189.28   63.89
   3   2 -11 1174.78   64.09
  -3  -2 -11 1123.99   63.79
   3  -2  11 1217.08   62.69
   3   2 -11 1136.89   63.29
  -3  -2 -11 1179.88   65.89
  -3   2  11 1197.28   63.09
   3  -3 -11  290.87   21.00
  -3  -3  11  220.38   20.80
   3   3  11  291.07   19.30
  -3   3 -11  279.37   19.80
  -3  -3  11  290.97   17.90
   3   3  11  279.97   20.10
   3   3  11  228.38   20.70
   3  -3 -11  261.77   22.30
  -3   3 -11  304.37   18.70
   3  -3  11  271.17   20.00
  -3   3  11  305.77   18.30
   3   3 -11  314.67   19.80
   3   3 -11  258.67   19.10
  -3  -3 -11  267.07   21.20
  -3   3  11  266.47   19.60
   3   3 -11  279.07   21.00
   3  -3  11  326.97   21.60
   3   4  11  623.74   35.70
  -3   4 -11  641.74   34.70
   3  -4 -11  559.44   39.10
  -3  -4  11  626.04   34.20
  -3   4 -11  629.44   35.80
   3  -4 -11  558.64   36.40
   3  -4 -11  613.74   36.80
   3   4  11  477.45   36.20
   3   4  11  596.74   38.70
  -3   4 -11  514.85   40.40
  -3   4 -11  525.25   35.40
   3  -4  11  675.33   36.70
   3   4 -11  576.74   35.50
   3   4 -11  605.64   37.10
  -3   4  11  645.14   34.40
  -3   4  11  595.84   35.30
  -3  -4 -11  566.74   37.40
  -3  -4 -11  593.74   34.10
  -3  -4 -11  665.53   38.80
  -3   4  11  492.45   38.00
   3   4 -11  525.95   34.60
   3  -4  11  611.94   35.70
   3   5  11  118.19   15.80
   3  -5 -11  108.79   13.40
   3  -5 -11  116.59   17.70
  -3   5 -11   98.49   18.70
  -3   5 -11  154.48   15.80
  -3   5 -11  129.59   15.20
  -3  -5  11  136.89   13.60
  -3   5 -11  109.19   18.50
   3   5  11  150.88   16.40
  -3  -5 -11  145.79   15.10
   3   5 -11  121.89   19.60
  -3  -5 -11  163.88   21.10
   3  -5  11  125.79   11.50
   3   5 -11  101.79   13.90
   3   5 -11  109.89   15.00
   3  -5  11  132.59   17.30
  -3   5  11  112.29   15.60
  -3  -5 -11  110.19   12.20
  -3   5  11  146.69   15.40
   3  -5  11  141.29   16.80
  -3  -5 -11  139.59   22.80
   3   6  11  180.68   20.80
   3  -6 -11  194.78   22.70
   3   6  11  235.38   21.50
  -3   6 -11  198.68   32.20
  -3  -6  11  198.48   17.60
  -3   6 -11  225.58   19.80
  -3   6 -11  213.38   20.40
  -3   6  11  157.88   20.10
   3   6 -11  160.58   20.40
   3   6 -11  198.28   26.60
  -3  -6 -11  229.48   27.10
  -3  -6 -11  219.98   19.40
  -3  -6 -11  206.08   31.10
  -3   6  11  184.68   20.40
   3   6 -11  185.68   20.30
   3  -6  11  204.78   18.50
   3   6 -11  184.88   18.70
  -3   7 -11   27.10   24.20
  -3  -7  11   27.60   15.80
   3   7  11   28.20   14.70
   3   7  11   74.39   13.70
  -3  -7  11   30.30   11.00
   3  -7 -11   58.19   16.20
  -3   7 -11   47.50   11.10
   3   7 -11   32.90   21.80
  -3   7  11   40.10   13.10
  -3  -7 -11   56.59   10.60
  -3   7  11   34.30   13.20
   3   7 -11    8.10   10.20
  -3  -7 -11   54.39   13.80
   3  -7  11   35.30    8.60
  -3  -7 -11   76.69   18.50
  -4   0 -11    5.60    5.90
  -4   0  11   11.00    7.10
  -4   0 -11    1.70    8.60
   4   0  11   14.00    7.40
   4   0 -11    9.70    6.60
  -4   0  11   -6.20    6.00
   4   0  11   -3.60    5.00
   4   0  11    5.20    6.10
  -4   0 -11  -10.10    4.50
  -4   0 -11    1.80    5.20
   4   0 -11   -5.90    5.50
  -4   1 -11    1.80    5.10
  -4  -1  11   12.70    7.20
   4  -1 -11   11.70    7.80
  -4   1 -11   13.00   16.90
  -4  -1  11    7.60    5.20
   4  -1 -11    6.50    6.10
   4   1  11    9.50    6.50
  -4  -1  11    7.80    6.10
  -4   1 -11    2.10    4.80
   4   1  11    4.90    5.20
  -4   1 -11    4.40    6.00
   4  -1  11   13.60    6.10
  -4   1  11   10.10    5.90
   4   1 -11   -2.90    6.20
   4   1 -11    7.30    7.20
  -4  -1 -11    2.00    4.70
  -4   1  11    2.30    6.70
  -4  -1 -11    5.20    9.40
  -4   1  11   11.40    7.10
   4  -1  11   10.40    6.20
   4  -1  11   16.70    8.80
  -4  -1 -11    6.60    5.90
  -4   2 -11   -0.90    5.80
  -4   2 -11   -3.80   11.10
  -4  -2  11   -0.10    5.10
   4   2  11    0.00    5.50
   4  -2 -11    4.70    6.90
  -4  -2  11    5.40    8.30
  -4   2 -11   -1.10    6.00
  -4   2 -11   -2.10    5.10
   4  -2 -11   -0.70    7.60
   4   2  11    0.20    6.90
   4   2  11    5.20    6.80
   4  -2  11   10.60    8.80
   4  -2  11   -4.30    5.60
  -4  -2 -11   -2.60   10.90
   4   2 -11  -12.40    6.40
  -4  -2 -11    3.40    4.50
  -4  -2 -11    1.40    6.80
  -4   2  11   -2.20    6.90
  -4   2  11   -2.00    6.30
   4   2 -11    4.30    6.40
   4  -2  11   15.20    6.70
  -4  -3  11   -0.50    9.40
   4   3  11    2.40    7.30
   4  -3 -11    9.20    8.00
  -4   3 -11   -6.10    7.30
   4  -3 -11   26.80   11.20
  -4   3 -11   -4.80    8.20
   4   3  11  -13.70    7.10
  -4  -3  11    5.60    6.10
   4  -3 -11    2.90    7.10
  -4   3 -11    4.90    6.10
   4   3  11    6.20    6.00
  -4   3 -11   -5.70   11.10
   4  -3  11    2.40    9.00
  -4   3  11    5.60    8.90
   4   3 -11    7.20    6.70
   4  -3  11   15.50    7.30
  -4  -3 -11    5.30    8.20
   4   3 -11    1.90    7.30
  -4   3  11    7.60    5.00
  -4  -3 -11    7.00    4.60
  -4   3  11   10.20    6.90
   4  -4 -11   15.40    9.00
  -4   4 -11   -2.70    6.40
  -4  -4  11  -14.20    8.50
  -4   4 -11   -6.00    8.40
  -4   4 -11    0.70    7.00
  -4  -4  11    0.60    6.80
   4   4  11   -0.20    6.90
   4  -4 -11    2.20    7.50
   4  -4 -11   24.90   11.50
  -4   4 -11  -13.20   12.80
   4   4  11   -9.10    9.40
   4   4  11    0.50    8.60
  -4  -4 -11    1.00   10.40
   4  -4  11   -2.90   10.40
  -4  -4 -11   16.80   11.50
   4   4 -11    8.70    9.30
  -4   4  11   -8.50    7.30
   4  -4  11    3.70    8.10
  -4  -4 -11   -6.70    5.80
   4   4 -11   -1.00    6.00
   4   4 -11   -4.10    7.00
  -4   5 -11    1.20    8.50
   4   5  11    0.10    9.70
  -4   5 -11  -13.20   16.40
  -4  -5  11    5.60   11.60
   4  -5 -11    3.50    8.90
   4  -5 -11   -8.50    9.20
  -4  -5  11   -2.70    7.70
  -4   5 -11   -3.20    8.90
   4   5  11    2.80    8.30
   4  -5  11    5.30   10.50
   4   5 -11    0.50    8.70
   4  -5  11   16.10    9.60
  -4   5  11    1.10    8.80
  -4  -5 -11   25.40   12.90
  -4  -5 -11  -20.50   13.50
  -4  -5 -11   -7.90    8.20
   4   5 -11   -7.20    6.70
   4   5 -11  -13.00   10.50
  -4   6 -11    5.50   11.50
  -4   6 -11   -3.90    9.30
   4   6  11   -3.40   10.40
  -4  -6  11   10.60   12.80
   4  -6 -11  -21.60   11.30
   4   6  11   -6.40   11.30
  -4  -6  11  -13.50    8.00
  -4   6 -11   33.00   20.60
   4   6 -11    4.20   10.70
  -4  -6 -11  -10.40    9.70
   4  -6  11    4.10    7.10
  -4  -6 -11    1.90   16.50
   4   6 -11   -5.30    8.40
   4   6 -11   11.30   14.60
  -4  -6 -11   14.10   18.00
  -4   6  11   -0.60   10.10
  -4   7 -11   15.00   24.80
  -4  -7  11   14.40   14.50
  -4   7 -11   -1.40   11.40
   4   7  11   -8.60   12.80
   4  -7 -11    8.80   16.10
  -4  -7  11    3.90   10.70
   4   7  11    6.50   14.80
  -4  -7 -11   -4.20    9.80
   4  -7  11   -1.80    7.80
   4   7 -11  -20.70   20.00
   4   7 -11    8.00    9.60
  -4   7  11   15.20   13.30
  -5   0 -11   20.50    6.40
  -5   0 -11   29.70   11.80
   5   0  11   29.00    7.30
  -5   0  11   28.80    6.60
   5   0  11   30.70    8.90
  -5   0  11   35.30    7.20
   5   0 -11   15.40    8.10
  -5   0 -11   20.30    5.70
   5   0  11   17.70    6.40
   5   0 -11   25.60    7.00
  -5   0  11   26.90    8.20
  -5   0 -11   31.10    6.30
  -5  -1  11  712.63   45.50
   5  -1 -11  764.22   45.30
   5   1  11  795.72   43.80
   5   1  11  822.72   45.70
  -5   1 -11  744.93   44.00
  -5   1 -11  789.92   43.80
   5   1  11  687.53   45.10
  -5   1 -11  784.72   49.00
  -5   1 -11  846.52   44.10
   5  -1 -11  710.13   45.80
  -5  -1 -11  752.02   44.20
  -5   1  11  757.52   44.60
  -5  -1 -11  762.22   49.90
  -5   1  11  750.52   45.40
   5   1 -11  757.12   44.40
   5  -1  11  712.53   44.80
   5   1 -11  720.23   45.30
   5  -1  11  840.92   44.40
   5  -1  11  839.42   47.50
  -5   1  11  806.82   43.50
  -5  -1 -11  839.72   43.20
  -5  -1 -11  769.32   43.90
  -5   2 -11   18.40    6.50
  -5   2 -11   23.90    7.20
   5  -2 -11   14.40    9.50
   5   2  11   15.80    7.70
  -5  -2  11   30.80    5.90
   5   2  11   19.00    8.70
   5  -2 -11   24.70    7.30
  -5  -2  11   16.30    8.70
  -5   2 -11   24.10   12.60
  -5   2 -11   25.30    7.80
   5   2  11   25.50    6.20
  -5   2  11   28.10    7.50
  -5  -2 -11   27.30    5.40
   5  -2  11   17.40    7.30
   5   2 -11   17.70    7.60
  -5  -2 -11    7.00    7.50
  -5  -2 -11   30.70   12.50
   5  -2  11   28.10   10.70
   5  -2  11   21.80    7.70
  -5   2  11   22.70    8.40
  -5   2  11   27.60    8.40
   5   2 -11   11.70    7.90
   5  -3 -11  474.15   30.20
  -5  -3  11  442.46   31.90
  -5   3 -11  531.95   30.30
  -5   3 -11  446.56   36.00
  -5  -3  11  516.55   28.10
   5   3  11  494.85   29.40
   5  -3 -11  462.95   33.40
  -5   3 -11  397.16   29.30
   5  -3 -11  457.25   31.20
   5   3  11  521.95   30.60
  -5   3 -11  530.05   29.40
   5   3  11  408.86   30.40
  -5  -3 -11  489.45   30.80
  -5  -3 -11  431.46   29.60
  -5   3  11  485.35   29.40
   5   3 -11  429.36   30.00
   5  -3  11  447.56   30.30
   5  -3  11  517.75   32.40
   5   3 -11  484.45   30.10
  -5  -3 -11  506.35   34.90
  -5   4 -11    7.80   14.30
   5  -4 -11   24.80    9.60
  -5   4 -11   17.70    8.50
  -5  -4  11   26.40    8.00
   5   4  11   23.10    7.80
  -5  -4  11   17.70   10.70
   5  -4 -11   42.60    9.30
  -5   4 -11   27.20    8.30
   5   4  11   26.70    9.10
   5   4 -11   34.40    8.00
  -5  -4 -11   38.80   11.30
  -5  -4 -11   36.40   13.10
   5  -4  11   44.50   12.20
   5   4 -11   24.80    8.80
   5  -4  11   21.50    9.40
  -5  -4 -11   10.90    8.40
   5   4 -11   31.80    9.60
  -5   4  11   16.10   12.20
  -5   4  11   30.10    9.40
  -5   5 -11  208.28   20.80
   5   5  11  213.78   20.60
  -5   5 -11  206.38   19.90
  -5   5 -11  230.58   32.20
   5   5  11  221.28   20.30
   5  -5 -11  223.38   21.20
  -5  -5  11  190.28   18.00
   5   5 -11  231.58   23.30
   5   5 -11  171.28   18.20
  -5  -5 -11  208.08   18.80
   5  -5  11  221.18   22.50
   5  -5  11  210.78   21.00
  -5   5  11  172.38   19.40
   5   5 -11  162.78   18.90
  -5  -5 -11  248.58   26.50
  -5  -5 -11  158.38   26.50
  -5   6 -11   -5.10   21.30
  -5  -6  11   13.70   12.40
  -5   6 -11   13.00   10.10
  -5   6 -11   11.80   11.00
   5   6  11    1.70   12.60
   5  -6 -11    3.10   12.50
   5   6  11   10.60   10.60
  -5  -6  11   21.20   10.50
   5   6 -11   17.50    9.10
   5   6 -11    8.70   14.90
  -5  -6 -11   16.00   11.30
  -5  -6 -11   -7.90   27.60
   5  -6  11   37.70   19.20
  -5   6  11   28.40   11.90
   6   0  11   83.39   12.20
  -6   0  11   94.29   11.20
   6   0 -11   87.69   11.50
  -6   0  11   78.39   12.10
   6   0  11   59.69    9.90
  -6   0  11   84.09   12.90
  -6   0 -11   80.59    9.90
  -6   0 -11   73.89   11.00
   6   0 -11   80.79   11.80
  -6   0 -11   64.79    9.20
   6   0  11   63.99   11.40
  -6   0 -11   62.09   15.20
  -6   1 -11    4.90    6.60
  -6   1 -11    0.60    7.20
   6   1  11   -0.20    5.90
   6   1  11    6.80    7.60
   6   1  11   16.90    9.30
   6  -1 -11    7.60    8.80
  -6   1 -11   15.10   12.20
  -6  -1  11    4.90    7.90
  -6   1 -11    2.10    6.00
   6  -1 -11    4.00    6.20
  -6  -1 -11   -0.60   10.80
  -6  -1 -11    6.30    6.20
  -6   1  11    3.70    6.80
  -6  -1 -11   13.80    4.90
  -6   1  11   -0.40    7.40
   6  -1  11   -2.30    6.90
  -6   1  11    5.60    7.10
  -6  -1 -11    0.00    5.90
   6  -1  11    5.60    9.70
  -6  -1 -11   24.50    7.40
   6  -1  11    0.50    7.00
   6   1 -11   -4.30    6.20
   6   1 -11   10.90    8.80
  -6   2 -11   61.89    8.80
   6   2  11   55.19   10.00
   6   2  11   56.09    8.60
   6  -2 -11   78.59   12.10
   6  -2 -11   66.19   10.30
   6   2  11   61.99   10.70
  -6  -2  11   69.19   12.60
  -6   2 -11   48.60    9.30
  -6   2 -11   60.49    9.00
  -6  -2  11   69.09    9.20
  -6   2 -11   68.19   15.50
  -6  -2 -11   54.99    9.90
   6  -2  11   50.09   10.00
   6   2 -11   65.59    9.40
   6  -2  11   76.69   12.60
  -6  -2 -11   67.19    8.00
  -6   2  11   70.99   10.80
   6  -2  11   73.89   12.20
  -6  -2 -11   71.79   11.70
  -6   2  11   61.69   10.40
  -6  -2 -11   60.99   14.00
  -6   2  11   57.09   10.20
   6   2 -11   73.69   11.20
  -6   3 -11   -0.70    8.00
  -6   3 -11  -11.60   13.90
   6  -3 -11    3.90    8.00
   6   3  11   12.00    9.60
  -6   3 -11    9.10    7.50
  -6  -3  11    2.60    6.90
  -6  -3  11    1.90    8.90
   6  -3 -11   -2.10    7.20
   6   3  11   -6.20    6.60
  -6  -3 -11    6.30    9.40
   6  -3  11   -2.00   10.60
   6   3 -11   -2.20    8.10
  -6  -3 -11   12.60   12.90
   6   3 -11   -2.30    8.40
  -6   3  11    2.40    9.80
  -6   3  11    5.90    8.20
   6  -3  11  -14.40    8.00
   6   4  11   34.00    8.60
  -6   4 -11   46.90   10.30
   6  -4 -11   43.40   10.10
  -6   4 -11   47.90   17.50
  -6  -4  11   42.70    9.00
  -6   4 -11   52.99   10.30
   6   4  11   45.40   11.40
  -6  -4  11   30.40   12.70
  -6   4  11   30.20    9.80
  -6  -4 -11   31.00   14.30
   6   4 -11   42.20    9.20
   6   4 -11   59.39   10.40
   6  -4  11   39.50   11.10
  -6  -4 -11   51.49   12.70
   6   4 -11   19.00   10.80
  -6  -4 -11   51.79    9.80
   6  -4  11   55.19   13.30
  -6  -5  11   -9.10   10.40
  -6   5 -11   -7.50    9.80
  -6   5 -11   -4.70    9.40
   6  -5 -11   -8.90   10.00
  -6   5 -11    6.50   18.10
   6   5  11   -6.80    8.50
  -6   5 -11    3.00   13.20
   6   5  11   10.60   11.30
  -6  -5  11    3.60    9.40
   6   5 -11    6.50    8.30
   6  -5  11  -11.80   11.80
  -6  -5 -11    5.90   17.80
   6   5 -11   21.60   12.30
   6  -5  11   -4.10   12.50
   6   5 -11  -11.00   10.50
  -6  -5 -11    1.90    9.30
  -6   5  11  -12.60    9.40
  -6  -5 -11    0.00   15.60
   6   6  11   16.40   13.80
   6   6  11   13.80   11.10
  -6  -6  11   -2.80   13.00
  -6  -6  11    0.70   19.00
   6  -6 -11   14.40   14.10
  -6   6 -11   -6.60   12.00
  -6   6 -11  -10.70   21.90
   6  -6  11   21.00   14.50
  -6   6  11   34.70   11.50
   6   6 -11   -1.70    9.60
  -6  -6 -11    6.20   11.10
  -6  -6 -11   24.70   17.10
  -7   0  11  147.29   16.10
  -7   0  11  156.08   14.80
  -7   0 -11  145.09   12.90
   7   0  11  138.19   15.90
  -7   0 -11  156.98   22.50
  -7   0 -11  127.59   14.80
   7   0 -11  105.79   18.10
   7   0  11  144.59   18.70
   7   0  11  169.38   15.50
  -7   0 -11  146.79   15.60
  -7   0  11  169.38   13.90
  -7   0 -11  156.08   14.50
  -7  -1  11    2.90    7.90
   7   1  11  -20.10    9.00
   7  -1 -11   -9.80   10.90
  -7   1 -11   -0.40    6.20
  -7   1 -11    2.10   11.80
   7   1  11   10.00    8.70
   7   1  11    6.50    6.80
  -7   1 -11   15.00    7.40
  -7   1 -11   -3.10    6.80
   7  -1 -11    1.70    6.60
  -7   1 -11  -10.80    7.70
  -7  -1 -11    9.80    8.10
  -7   1  11    6.20    7.80
  -7   1  11    2.70    7.20
   7  -1  11   -1.40    9.10
  -7  -1 -11   16.80   12.40
   7  -1  11   22.70    8.20
  -7  -1 -11    7.40    5.10
   7  -1  11   -2.90    7.40
  -7   1  11    1.70    8.30
   7   1 -11   -7.70    9.10
  -7  -1 -11   -3.50    6.30
  -7  -1 -11   -5.20    6.60
   7   1 -11   -2.90    6.70
   7  -2 -11  136.69   24.80
  -7   2 -11   94.69   20.10
   7  -2 -11  104.79   13.70
   7   2  11  100.99   13.30
   7   2  11  118.79   17.30
  -7  -2  11  107.49   15.00
  -7   2 -11  119.19   14.40
  -7   2 -11  113.19   14.10
  -7   2  11  108.49   16.20
   7   2 -11  119.59   18.30
  -7   2  11  130.49   17.60
   7  -2  11  116.19   19.00
  -7  -2 -11  102.09   12.50
   7  -2  11   89.69   15.20
   7  -2  11  123.59   15.00
   7   2 -11  106.89   13.90
  -7  -2 -11  125.09   13.60
  -7   2  11  120.59   14.10
  -7  -2 -11  103.49   16.30
  -7   3 -11   -4.40    8.60
  -7   3 -11    5.90    8.70
   7   3  11    7.00   10.60
  -7   3 -11   17.80   17.40
  -7  -3  11   -2.10    9.10
  -7  -3  11    1.60    7.80
   7   3  11    1.00    7.00
  -7   3 -11    3.80    8.80
   7  -3 -11   10.50    7.80
  -7   3  11   14.80   12.10
   7   3 -11    0.50    7.80
  -7  -3 -11   13.70   10.70
  -7  -3 -11   -0.40    7.70
   7   3 -11   -2.50   10.60
   7  -3  11   -0.30    9.00
  -7   3  11   -6.60    8.60
  -7  -3 -11    9.00   13.50
   7  -3  11  -17.20   11.10
  -7  -4  11   26.80   13.20
  -7   4 -11   79.29   19.20
   7   4  11   33.80   12.60
  -7   4 -11   35.00   11.50
  -7   4 -11   60.29   11.10
  -7   4 -11   44.10   13.80
   7  -4 -11   27.50    9.60
   7   4  11   33.60    9.30
  -7  -4  11   47.90   10.30
  -7  -4 -11   69.19   14.50
  -7   4  11   41.60    9.80
   7  -4  11   46.00   14.60
   7   4 -11   48.00   11.20
  -7  -4 -11   46.70   10.00
  -7  -4 -11   53.69   16.00
   7  -4  11   52.69   14.20
   7   4 -11   53.59   12.60
  -7   4  11   41.60   11.00
  -7   5 -11   11.90   11.00
  -7  -5  11    3.20   11.80
   7  -5 -11   13.80   11.40
   7   5  11   16.50   12.40
   7   5  11    0.50    8.90
  -7   5 -11    6.70   10.30
  -7   5 -11   33.30   21.40
  -7  -5  11   -5.00    9.40
   7  -5  11   19.80   14.80
   7   5 -11   -9.90   15.50
  -7   5  11  -27.30   11.90
   7   5 -11   -4.40    8.80
   7   5 -11    5.90   11.80
  -7  -5 -11   -7.00    8.70
  -7   5  11   25.40   11.10
  -7  -6  11  -15.10   14.70
  -7   6 -11  -24.70   14.30
   7  -6 -11   -6.20   13.10
  -7   6 -11   39.60   23.30
   7   6  11   -5.80    9.80
  -7  -6  11   -7.10   11.00
   7   6  11   16.90   15.80
   7  -6  11   19.70   16.30
  -7   6  11   24.00   12.90
   7   6 -11  -11.70    9.70
  -7  -6 -11  -17.40   10.50
  -8   0 -11   69.99   10.70
  -8   0 -11  106.39   16.10
  -8   0 -11  101.89   14.40
  -8   0 -11   90.79   18.20
   8   0 -11   87.99   15.00
   8   0  11  120.99   15.20
  -8   0  11  104.99   14.90
   8   0 -11   97.99   13.00
  -8   0 -11  102.49   11.70
   8   0  11  138.39   19.50
  -8   1 -11   18.30   15.30
   8  -1 -11    4.80   14.70
  -8   1 -11   28.40    8.90
  -8   1 -11   15.10    7.20
  -8  -1  11   13.20    9.50
   8   1  11   23.80    7.90
   8  -1 -11   26.20    7.60
   8   1  11   10.90   10.90
  -8   1 -11   25.70    9.90
  -8  -1 -11    8.50    7.60
   8  -1  11   30.30   12.70
  -8   1  11   26.60   10.10
  -8   1  11   10.00    8.00
  -8  -1 -11   41.80    9.70
   8  -1  11   23.80    8.90
   8   1 -11   14.00   11.10
  -8   1  11   27.10    9.40
  -8  -1 -11   21.60   15.40
   8  -2 -11   95.09   13.10
  -8  -2  11   83.99   14.40
  -8   2 -11   68.09   18.90
  -8   2 -11   92.19   14.90
   8   2  11  102.39   14.90
  -8   2 -11   67.29   11.10
  -8   2 -11   72.09   11.70
   8   2  11   81.69   13.50
  -8   2  11   86.39   14.10
  -8  -2 -11   70.19   12.00
   8   2 -11   61.49   13.40
  -8  -2 -11   59.09   17.60
   8   2 -11   82.69   13.40
  -8   2  11   77.29   10.80
   8  -2  11  104.89   15.40
  -8   2  11   71.09   13.30
  -8  -2 -11   77.49   12.40
  -8   3 -11    5.60   10.50
  -8  -3  11    3.20   11.40
  -8   3 -11   15.60    9.30
  -8  -3  11   22.20    8.70
   8   3  11   11.70    7.50
  -8   3 -11   17.00   17.40
   8  -3 -11    5.50    8.10
   8   3  11   29.80   13.50
   8  -3  11   -0.40   13.10
  -8   3  11    9.20    9.40
   8   3 -11    9.80    8.90
  -8  -3 -11   12.80   16.10
  -8  -3 -11    2.10    8.40
  -8   3  11   10.70   13.70
   8   3 -11   27.70   13.20
  -8  -3 -11    4.30   12.00
  -8   4 -11   42.30   11.50
  -8  -4  11   57.89   11.10
  -8   4 -11   55.09   13.20
   8   4  11   39.30   10.40
   8   4  11   50.49   13.90
  -8  -4  11   39.50   14.60
  -8   4 -11   56.19   21.50
   8  -4 -11   40.00   11.40
  -8  -4 -11   61.89   15.70
  -8  -4 -11   37.50   10.40
   8   4 -11   44.70   12.20
   8  -4  11   74.99   15.60
  -8   4  11   50.69   12.40
  -8  -4 -11   41.30   17.70
   8   4 -11   40.10   14.50
  -8  -5  11   -0.40   11.20
  -8  -5  11    2.30   12.20
  -8   5 -11    8.50   10.50
   8  -5 -11  -12.80   10.90
  -8   5 -11  -16.00   20.70
  -8   5 -11  -16.70   13.00
   8   5  11  -21.30   14.30
   8   5  11  -10.10    9.40
   8   5 -11    3.10   13.50
  -8  -5 -11   -5.10    9.90
  -8   5  11   29.20   13.00
  -8  -5 -11   19.00   19.00
   8   5 -11   10.60    9.90
   8  -5  11   28.40   16.60
   9   0  11    4.20   12.20
  -9   0 -11    9.70   16.60
   9   0  11    2.00    9.10
  -9   0 -11    3.80    9.10
   9   0 -11    8.40    8.40
  -9   0 -11    2.80    6.80
   9   1  11  403.46   28.00
   9  -1 -11  408.16   27.40
  -9  -1  11  366.16   30.00
   9   1  11  445.86   32.90
  -9   1 -11  414.36   26.70
  -9   1 -11  438.16   38.90
   9   1 -11  426.66   27.20
  -9   1  11  417.06   26.60
  -9  -1 -11  437.96   29.20
   9  -1  11  435.96   28.60
  -9  -1 -11  352.06   28.00
  -9   1  11  377.46   30.10
   9   1 -11  372.16   32.30
  -9  -1 -11  379.06   37.30
  -9   2 -11   -0.60    9.60
   9   2  11    4.40    8.10
  -9   2 -11   10.70   17.70
   9  -2 -11   -2.70    8.70
   9   2  11    0.10   12.60
  -9  -2  11   -1.90   11.40
  -9   2 -11   -8.80    9.90
   9   2 -11  -12.20   13.50
  -9   2  11   -0.50    9.60
  -9  -2 -11   -1.80    9.50
  -9  -2 -11   -8.40   11.70
  -9   2  11    8.60   10.00
   9  -2  11  -12.20    9.00
  -9   2  11   -5.30   13.00
  -9  -2 -11    9.20   17.00
   9  -2  11   24.40   13.10
  -9  -3  11  231.98   24.40
   9  -3 -11  287.27   22.50
  -9   3 -11  238.28   36.20
  -9   3 -11  287.87   24.30
   9   3  11  271.37   21.90
  -9   3 -11  230.28   23.20
   9   3  11  312.37   28.10
  -9   3  11  273.97   23.60
   9   3 -11  183.18   27.10
   9   3 -11  300.37   22.50
  -9  -3 -11  329.97   33.80
   9  -3  11  326.77   29.80
  -9   3  11  271.47   30.30
  -9  -3 -11  253.37   27.30
  -9  -4  11   11.10   10.80
  -9   4 -11   10.50   13.20
  -9   4 -11   -8.10   21.60
  -9   4 -11    0.70   12.40
   9   4  11   24.50   16.50
  -9  -4  11   -0.80   13.30
   9  -4 -11  -12.10    9.90
   9   4  11   14.70    9.20
   9   4 -11   14.00   11.40
  -9  -4 -11    9.50   18.80
   9  -4  11   20.00   15.20
  -9   4  11  -17.50   12.10
  -9  -4 -11  -20.80   10.30
  10   0 -11   28.20    9.70
 -10   0 -11    6.00   10.50
  10   0  11   45.20   15.90
  10   0  11    8.60   10.30
 -10   0 -11    5.90    7.70
 -10   0  11    9.00   10.90
 -10   0 -11   23.90   19.40
 -10   1 -11    1.10   10.60
 -10   1 -11    6.80    9.30
  10   1  11    9.80    8.50
  10   1  11   13.20   14.90
 -10  -1  11   14.70   10.40
 -10   1 -11  -13.50   18.20
  10  -1 -11    6.30    9.70
 -10  -1 -11  -17.00    9.10
  10  -1  11  -27.20   13.90
  10   1 -11   -9.50    9.00
 -10   1  11    9.50   12.00
  10  -1  11   11.80    9.80
 -10  -1 -11   24.40   18.70
  10   2  11   23.30    9.80
 -10   2 -11   42.30   11.70
  10   2  11   32.00   14.90
 -10  -2  11   19.10   14.00
 -10   2 -11    7.50   11.30
  10  -2 -11   35.40   10.40
 -10   2  11   27.50   12.30
 -10  -2 -11    1.50    9.70
  10   2 -11   23.60   10.40
 -10   2  11   27.40   12.40
  10  -2  11   32.40   16.30
  10  -2  11    2.40   10.70
 -10  -2 -11   15.30   18.40
  10   2 -11    0.20   17.90
 -10   3 -11   23.20   20.40
  10   3  11  -10.50   15.20
  10   3  11   12.00    9.50
 -10   3 -11   11.00   11.80
 -10  -3  11  -12.10   11.60
  10  -3 -11    1.10   10.80
 -10   3 -11   -3.40   12.60
 -10   3  11    5.00   12.50
  10  -3  11   26.60   18.20
 -10  -3 -11    5.30   10.50
 -10  -3 -11   -9.90   19.60
  10   3 -11    9.90   19.90
  10   3 -11    1.10   11.30
  10   4  11   25.20   11.40
  10   4  11   39.80   18.80
 -10   4 -11   30.70   13.90
 -10   4 -11   28.80   15.80
 -10  -4  11   -8.20   15.50
 -10   4  11    6.90   14.70
  10  -4  11   18.70   17.60
  11   0  11  150.58   20.80
  11   0  11  191.88   27.90
 -11   0 -11  104.49   15.90
  11   0 -11  156.18   20.20
 -11   0 -11  131.19   24.70
 -11   0  11  106.19   17.70
 -11   1 -11  135.69   25.40
 -11   1 -11  158.28   20.70
 -11  -1  11  171.88   21.00
  11  -1 -11  179.78   20.90
 -11   1 -11  121.69   21.10
 -11  -1 -11  103.39   15.70
 -11  -1 -11  131.19   24.60
 -11   1  11  140.59   20.70
  11   1 -11  170.18   20.30
  11  -2 -11  107.39   15.10
 -11   2 -11   56.69   26.30
  11   2  11   75.39   13.50
 -11  -2  11  105.29   19.30
  11   2  11  110.39   21.10
 -11   2 -11  104.29   16.30
 -11   2 -11   78.99   14.80
 -11  -2 -11   67.89   14.30
 -11   2  11   74.79   15.20
 -11   2  11  118.09   16.00
  11  -2  11   98.19   14.70
 -11  -2 -11  113.79   24.20
  11   2 -11  155.98   20.40
   0   0 -12    6.40    6.10
   0   0  12    8.60    7.80
   0   0 -12    3.40    7.40
   0   0  12   -2.40    6.90
   0   0  12    3.10    6.70
   0   1 -12    9.90    5.90
   0  -1 -12   -6.20    6.30
   0  -1  12    2.90    8.40
   0   1 -12    3.30    7.50
   0   1  12    0.40    6.80
   0  -1  12   -7.70    7.10
   0  -1  12    5.60    7.10
   0  -2  12    3.50    6.40
   0   2  12   -3.00    7.00
   0   2  12    1.00    7.50
   0  -2 -12   -1.60    8.20
   0  -2  12   -3.50    3.90
   0  -2  12   -2.30    8.60
   0   2 -12    9.00    6.40
   0   2  12   -2.40    4.70
   0  -2 -12    3.40    7.60
   0  -2  12    0.10    8.30
   0   2 -12    2.40    6.40
   0   2 -12    5.80    8.80
   0   3 -12   -0.60    5.90
   0   3 -12   13.40    7.20
   0  -3  12    5.80    6.50
   0  -3  12   10.80    8.20
   0   3  12   -2.90    9.00
   0   3 -12    5.80    9.80
   0  -3  12   -3.40    9.80
   0   3  12   -0.10    7.00
   0   3  12    4.80    5.90
   0  -3 -12   -0.50    8.10
   0  -3  12    1.60    4.70
   0  -3 -12   -1.70    8.70
   0  -4 -12   -4.30   11.40
   0   4 -12   13.50   15.60
   0   4 -12    9.50    7.90
   0  -4 -12    5.10    7.70
   0   4  12   -1.30    7.10
   0  -4  12    8.90    5.50
   0   4 -12   15.80    9.00
   0   4  12    7.60    8.10
   0  -4  12    3.90   11.10
   0  -4 -12    2.50    9.80
   0  -5  12   -0.60    6.20
   0   5 -12   24.50   14.40
   0   5 -12   -7.10    7.10
   0  -5  12  -15.30   12.20
   0   5 -12    5.50   10.60
   0   5  12   15.40    8.70
   0   5  12   -7.40    9.00
   0  -5 -12   -5.80    8.70
   0  -5 -12  -11.00   11.50
   0  -5 -12  -29.60   25.10
   0  -6  12   10.00   15.20
   0   6  12   10.10   10.40
   0  -6  12  -10.90    6.90
   0   6 -12   25.30   18.30
   0   6  12    3.50   11.60
   0  -6 -12  -19.50   10.40
   0  -6 -12   10.30   14.80
   0  -7  12   -9.80    9.30
   0   7 -12   -3.10   10.20
   0  -7 -12    9.10   17.20
   0   7  12    9.00   15.50
   0  -7  12   26.80   16.70
   0  -7 -12    8.80   12.40
   0   7  12   -7.90   13.40
  -1   0  12  385.76   23.70
  -1   0 -12  339.87   23.20
  -1   0 -12  409.06   32.00
  -1   0  12  358.26   24.20
  -1   0  12  349.47   23.80
   1   0 -12  334.87   23.80
   1   0  12  382.86   24.20
   1   0  12  357.66   24.00
   1   0 -12  378.56   25.00
  -1  -1  12  296.27   20.50
   1  -1 -12  244.68   28.80
  -1   1 -12  337.37   20.30
  -1   1 -12  289.17   19.80
  -1  -1  12  329.97   20.90
  -1   1 -12  320.47   24.00
   1   1  12  288.17   20.80
   1   1  12  287.97   18.20
   1   1  12  286.77   21.30
  -1  -1  12  266.77   20.70
   1  -1 -12  312.87   21.20
  -1   1  12  281.67   19.90
   1  -1  12  307.97   21.20
   1   1 -12  250.67   19.70
  -1  -1 -12  285.97   20.40
  -1   1  12  261.37   21.30
   1  -1  12  252.27   19.90
  -1  -1 -12  280.77   23.40
  -1   1  12  316.47   20.10
   1   1 -12  302.57   22.00
  -1  -2  12  232.68   20.80
  -1  -2  12  338.57   21.10
  -1  -2  12  319.07   20.10
  -1   2 -12  337.07   30.40
   1  -2 -12  253.27   21.70
   1   2  12  280.37   18.40
  -1   2 -12  273.47   20.00
   1   2  12  254.37   21.20
   1  -2 -12  300.07   21.30
   1   2  12  308.77   20.10
  -1  -2  12  277.37   17.30
   1  -2  12  305.67   22.10
  -1  -2 -12  277.47   22.80
   1   2 -12  267.37   19.60
   1  -2  12  281.37   19.90
   1   2 -12  341.27   20.20
   1  -2  12  260.17   20.70
  -1   2  12  288.67   20.00
   1  -2  12  286.17   17.00
  -1  -2 -12  260.07   21.10
  -1   2  12  289.97   22.10
   1   2 -12  299.87   22.90
  -1   2  12  292.07   20.10
  -1   2  12  265.57   18.00
  -1   3 -12  171.78   24.60
  -1   3 -12  163.08   15.40
   1   3  12  127.09   17.20
  -1   3 -12  181.88   15.40
   1  -3 -12  130.49   19.00
   1   3  12  184.88   14.80
   1  -3 -12  173.88   16.90
   1   3  12  139.89   15.50
  -1  -3  12  163.58   12.70
  -1   3  12  174.28   14.00
   1  -3  12  213.38   17.30
   1  -3  12  168.38   14.70
  -1  -3 -12  185.18   19.10
  -1   3  12  179.58   15.80
   1   3 -12  157.58   15.60
   1  -3  12  162.58   17.30
  -1   3  12  164.68   15.30
  -1   3  12  192.08   18.50
   1   3 -12  152.18   18.60
   1   3 -12  170.68   15.50
   1  -3  12  162.48   11.90
  -1  -3 -12  185.78   18.90
   1  -4 -12  124.29   16.60
  -1  -4  12  135.59   12.00
  -1   4 -12  130.69   14.80
   1   4  12  148.49   15.10
  -1   4 -12  147.89   16.10
  -1  -4  12  113.99   17.60
   1  -4 -12  115.29   16.00
   1  -4 -12  145.69   22.10
  -1   4 -12  163.18   23.00
   1   4  12  156.48   15.30
   1   4 -12  134.09   14.80
   1   4 -12  129.49   19.80
  -1  -4 -12  127.69   20.50
   1  -4  12  130.99   17.70
   1   4 -12  102.09   15.40
  -1   4  12  138.69   15.10
  -1   4  12  152.38   14.60
  -1  -4 -12  135.79   15.60
  -1  -4 -12  123.49   19.00
   1  -4  12  135.89   11.40
   1  -4  12  142.29   14.40
   1  -5 -12   52.69   11.20
  -1  -5  12   54.89    8.60
  -1  -5  12   37.30   14.00
   1  -5 -12   73.89   13.70
  -1   5 -12   47.90   17.40
   1   5  12   76.89   11.30
   1   5  12   58.79   11.60
  -1   5 -12   56.59   10.20
  -1   5 -12   42.60   12.80
   1   5 -12   55.09    9.50
  -1   5  12   61.79   10.10
  -1   5  12   62.09   11.10
   1   5 -12   62.49   12.50
   1  -5  12   65.39    8.80
   1   5 -12   56.29   15.90
   1  -5  12   62.19   16.00
  -1  -5 -12   95.79   17.30
  -1  -5 -12   65.89   10.40
  -1  -5 -12   70.69   14.30
  -1  -6  12   13.90   15.90
  -1  -6  12   45.20    9.10
   1  -6 -12   47.40   12.30
  -1   6 -12   35.20   19.40
   1  -6 -12   17.00   13.70
   1   6  12   45.00   11.70
  -1   6 -12   47.40   10.50
   1   6  12   36.00   12.90
  -1   6  12   32.90   11.70
   1  -6  12   32.20    8.30
   1   6 -12   22.30   19.40
   1   6 -12   32.20    9.70
   1  -6  12   41.70   16.80
   1   6 -12   36.60   15.20
  -1  -6 -12   70.29   15.70
  -1   6  12   32.70   12.10
   1  -7 -12   29.90   18.00
  -1  -7  12   15.90    9.70
   1   7  12   31.70   14.20
   1   7  12    8.30   15.70
  -1   7 -12   13.10   15.10
  -1   7 -12   -0.10   24.10
  -1  -7  12   11.00   17.10
   1   7 -12   -9.40   22.30
  -1   7  12   13.40   17.10
   1  -7  12    8.00    8.80
  -1  -7 -12   -3.20   17.10
  -1   7  12    6.40   14.90
  -1  -7 -12    1.20   12.70
   1   7 -12   28.80   12.30
  -2   0  12   69.59   11.30
   2   0 -12   57.99    8.90
  -2   0  12   56.29    9.00
  -2   0 -12   80.49   11.20
  -2   0 -12   80.49   10.20
   2   0  12   75.19   10.30
  -2   0 -12   87.69   13.80
   2   0  12   49.10    7.10
  -2   0  12   62.79    9.40
   2   0 -12   71.39   11.80
   2   0  12   68.29    9.70
  -2   1 -12  250.57   24.80
   2  -1 -12  230.38   20.90
  -2   1 -12  206.58   16.50
  -2  -1  12  215.18   17.70
   2   1  12  223.08   19.80
  -2   1 -12  176.68   14.90
   2  -1 -12  208.48   18.20
  -2   1 -12  182.88   16.30
   2   1  12  218.88   15.30
  -2  -1  12  257.77   17.50
  -2  -1  12  227.98   17.80
   2   1  12  218.68   18.00
   2  -1  12  244.68   15.80
  -2  -1 -12  228.68   19.70
   2  -1  12  251.27   19.10
  -2   1  12  207.48   17.00
   2  -1  12  231.88   17.20
   2   1 -12  195.78   16.80
  -2   1  12  250.07   16.80
   2   1 -12  224.58   18.20
  -2   1  12  196.18   18.20
  -2  -1 -12  203.48   17.00
  -2   2 -12   67.19    9.00
  -2   2 -12   74.39   14.00
  -2  -2  12   55.69    6.60
   2   2  12   43.80    7.20
  -2  -2  12   60.69    9.50
  -2   2 -12   79.09   12.30
   2  -2 -12   62.79   10.50
   2   2  12   37.40    8.90
  -2  -2  12   60.79    8.40
   2  -2 -12   49.60    9.00
  -2   2 -12   59.79    9.20
   2   2  12   78.29   12.20
  -2  -2  12   57.09   10.90
  -2  -2 -12   72.69   11.40
   2  -2  12   66.29   11.40
  -2   2  12   50.69   10.60
   2   2 -12   88.99   13.50
  -2   2  12   60.99    9.30
  -2   2  12   78.49   11.20
   2  -2  12   61.49   11.20
   2  -2  12   66.09    9.10
  -2  -2 -12   64.79    9.90
   2   2 -12   86.79   12.10
  -2   3 -12  139.49   15.40
  -2  -3  12  145.49   12.10
   2   3  12  158.28   15.20
  -2   3 -12  153.28   21.90
   2   3  12  105.89   16.40
  -2  -3  12  116.69   16.40
  -2   3 -12  134.09   12.80
   2  -3 -12  165.98   18.70
  -2   3 -12  141.39   14.50
   2  -3 -12  153.88   16.40
   2   3  12  152.98   14.10
   2  -3  12  194.58   17.60
  -2   3  12  152.48   13.10
   2   3 -12  133.19   14.90
  -2   3  12  112.29   18.70
   2   3 -12  159.78   18.30
   2   3 -12  126.69   14.70
  -2   3  12  161.08   14.80
  -2   3  12  154.68   14.80
  -2  -3 -12  120.59   17.70
   2  -3  12  136.89   16.50
  -2  -3 -12  144.69   18.20
   2  -3  12  147.59   15.00
   2  -3  12  156.98   11.20
   2  -4 -12   41.40    9.80
  -2   4 -12   47.30   14.60
  -2  -4  12   24.30   11.40
   2  -4 -12   53.69   10.30
   2   4  12   46.70    9.70
  -2  -4  12   44.10    7.80
   2   4  12   56.09   10.70
  -2   4 -12   32.30    9.40
   2  -4 -12   49.80   22.10
  -2   4 -12   37.20    8.90
   2  -4  12   53.69    9.30
   2   4 -12   34.70    9.60
   2  -4  12   41.40   10.90
  -2  -4 -12   44.70   11.90
   2   4 -12   44.50   12.10
   2   4 -12   51.79    8.90
  -2   4  12   55.79    9.90
  -2  -4 -12   50.89    9.20
   2  -4  12   40.60   12.50
  -2  -4 -12   42.30   12.50
   2  -4  12   48.00    6.80
  -2   4  12   37.10    8.00
   2   5  12   61.49   11.80
  -2  -5  12   72.69    9.60
   2  -5 -12   73.89   12.40
  -2   5 -12   69.59   10.10
   2   5  12   58.69   10.90
   2  -5 -12   67.49   12.30
  -2  -5  12   45.30   13.70
  -2   5 -12   82.99   18.50
  -2   5 -12   38.90   10.00
  -2   5  12   70.09   11.90
   2  -5  12   79.19   10.00
  -2  -5 -12   96.99   13.90
   2   5 -12   61.99   11.90
  -2  -5 -12   75.49   14.10
  -2  -5 -12   51.89   16.40
   2   5 -12   60.79   10.20
  -2   5  12   59.89   11.00
   2   5 -12   76.69   22.10
   2   6  12   21.20   12.20
   2   6  12    2.40   12.40
  -2   6 -12   -7.80   21.00
   2  -6 -12   14.00   12.90
  -2  -6  12    2.30   14.90
  -2   6 -12   22.60   10.10
  -2   6 -12   23.70   12.30
  -2  -6  12   20.80    9.40
   2   6 -12   32.90   13.50
  -2   6  12   33.30   12.30
  -2  -6 -12   32.90   15.00
  -2  -6 -12   30.60   10.30
  -2  -6 -12   35.20   21.80
  -2   6  12   37.90   11.30
   2   6 -12   53.19   17.50
   2  -7 -12   32.70   17.60
   2   7  12   -8.70   15.40
  -2  -7 -12    9.60   19.10
   2   7 -12  -20.50   11.70
  -2   7  12   46.90   14.20
   3   0 -12  101.79   13.30
   3   0  12   71.69   10.60
  -3   0  12   82.19   12.20
  -3   0 -12  102.49   10.90
   3   0  12   75.29   11.00
  -3   0  12   97.99   12.40
   3   0 -12   89.39   11.60
  -3   0 -12  111.89   11.30
  -3   0  12  104.79   13.30
  -3   0 -12  106.79   17.40
   3   0  12  120.89   17.80
  -3   0 -12  103.89   12.00
   3   1  12  441.76   29.30
   3   1  12  538.35   31.50
  -3  -1  12  575.34   30.70
   3  -1 -12  502.95   31.70
  -3   1 -12  479.95   29.60
  -3  -1  12  481.05   31.70
   3   1  12  431.46   31.20
  -3   1 -12  483.35   30.50
  -3   1 -12  555.34   30.70
  -3  -1  12  477.85   30.40
  -3   1 -12  502.65   35.00
   3  -1 -12  478.55   34.40
  -3   1  12  482.95   32.00
  -3  -1 -12  504.45   30.80
   3   1 -12  512.25   31.60
  -3  -1 -12  579.34   30.00
  -3  -1 -12  492.25   34.00
  -3   1  12  512.95   30.30
  -3   1  12  484.25   31.20
   3  -1  12  546.45   34.20
   3   1 -12  470.05   31.40
   3  -1  12  517.45   31.10
  -3   2 -12   85.49   15.00
   3   2  12   59.89    8.40
  -3   2 -12   84.29   10.90
   3   2  12   62.69   10.90
  -3   2 -12   87.39   11.80
   3  -2 -12   45.00   11.70
   3   2  12   66.39   10.40
   3  -2 -12   62.99   10.00
  -3  -2  12   59.69   12.20
  -3   2 -12   85.79   11.70
   3   2 -12   82.99   12.40
   3  -2  12   75.99   12.50
   3  -2  12   81.89   12.10
  -3   2  12   76.69   11.20
   3   2 -12   80.29   10.90
  -3  -2 -12   83.69   10.40
  -3  -2 -12   78.29   13.40
   3  -2  12   87.49   11.20
  -3   2  12   79.49   11.60
  -3   2  12   61.09   11.20
  -3   3 -12  325.77   29.10
   3  -3 -12  312.77   23.20
  -3  -3  12  332.67   20.00
   3   3  12  319.87   21.30
  -3  -3  12  256.67   23.20
   3   3  12  317.87   22.40
   3   3  12  246.58   22.90
  -3   3 -12  308.77   22.30
  -3   3 -12  276.57   22.10
  -3   3 -12  330.47   20.90
   3  -3 -12  287.07   25.60
  -3   3  12  334.07   20.20
   3   3 -12  316.87   24.30
  -3  -3 -12  306.27   24.90
   3   3 -12  267.27   21.80
   3  -3  12  370.06   24.60
   3   3 -12  368.76   22.50
  -3  -3 -12  327.17   25.70
  -3   3  12  286.67   21.70
   3  -3  12  338.67   22.60
  -3   3  12  321.37   22.20
  -3   4 -12   36.70    9.00
  -3  -4  12   32.90    7.30
  -3   4 -12   40.30    8.50
   3   4  12   31.70    9.30
  -3   4 -12   22.20   15.00
   3   4  12   34.40    8.30
   3  -4 -12   28.50   10.40
   3  -4 -12   32.90   10.40
  -3  -4  12   21.40   11.90
  -3   4  12   41.80    8.30
   3  -4  12   42.60   11.90
   3   4 -12   34.70    8.80
   3   4 -12   40.60    9.50
   3   4 -12   46.00   12.10
  -3  -4 -12   50.29   12.80
   3  -4  12   22.40    9.60
  -3   4  12   34.80    9.60
  -3  -4 -12   -1.00   11.70
  -3  -5  12  127.89   14.10
  -3   5 -12  147.89   17.30
   3  -5 -12  126.69   20.00
  -3   5 -12  161.98   18.10
   3  -5 -12  131.39   19.40
  -3   5 -12  118.49   20.60
   3   5  12  178.38   18.20
   3   5  12  108.69   14.40
  -3  -5 -12  118.49   16.60
   3   5 -12  130.99   16.10
  -3  -5 -12   94.39   20.20
  -3  -5 -12  132.39   17.20
   3  -5  12  137.69   17.70
  -3   5  12  147.89   17.50
   3  -5  12  157.08   19.30
   3  -5  12  123.19   12.40
  -3   5  12  153.08   21.90
   3   5 -12  107.29   14.00
   3   5 -12  120.69   17.90
  -3  -5 -12  142.29   23.30
   3   6  12   21.30   11.80
  -3   6 -12   10.20   22.40
   3  -6 -12   18.00   13.30
  -3   6 -12   14.00   12.90
  -3   6 -12    6.80   11.40
  -3  -6  12    2.40    8.90
  -3  -6  12   11.80   13.80
   3   6  12   -5.60   12.40
   3  -6  12   10.30    7.40
  -3   6  12   19.40   11.10
   3   6 -12   26.00   21.20
  -3  -6 -12   15.20   17.20
  -3   6  12    2.30   11.90
  -3  -6 -12   12.00   21.70
   3   6 -12    4.20   10.00
   3   6 -12   41.80   13.30
  -3  -6 -12  -14.40    9.70
   4   0 -12  244.98   20.80
   4   0  12  242.18   19.10
  -4   0 -12  205.28   16.90
  -4   0 -12  247.98   17.40
  -4   0 -12  206.38   17.70
   4   0  12  249.68   17.60
  -4   0  12  250.37   19.10
  -4   0  12  253.87   18.10
  -4   0 -12  234.38   23.80
   4   0  12  290.57   20.50
  -4  -1  12  179.98   17.00
   4   1  12  170.98   16.60
   4  -1 -12  183.18   19.00
  -4   1 -12  185.48   22.10
  -4   1 -12  174.98   14.60
  -4   1 -12  190.78   16.40
   4   1  12  174.88   17.40
   4  -1 -12  182.08   16.50
  -4  -1  12  224.38   16.00
   4   1  12  180.28   14.70
  -4   1 -12  196.88   15.40
   4   1 -12  156.08   17.30
  -4   1  12  166.28   17.00
   4   1 -12  174.58   16.20
   4  -1  12  209.68   19.70
   4  -1  12  159.88   16.20
  -4  -1 -12  178.38   14.30
  -4   1  12  185.18   15.70
  -4   1  12  173.88   16.80
  -4  -1 -12  156.18   15.50
   4  -1  12  200.98   15.60
  -4  -1 -12  181.38   21.30
  -4   2 -12  148.29   16.20
   4  -2 -12  178.28   17.40
  -4   2 -12  196.48   21.80
   4   2  12  190.58   15.30
  -4  -2  12  174.08   17.50
  -4   2 -12  188.28   15.90
   4   2  12  137.49   17.20
  -4   2 -12  196.68   24.30
   4   2  12  208.28   17.70
   4  -2 -12  197.48   19.80
   4   2 -12  169.78   17.70
   4   2 -12  211.68   17.30
  -4  -2 -12  193.68   14.20
  -4  -2 -12  177.58   17.60
  -4   2  12  224.98   16.40
  -4   2  12  159.68   19.00
  -4   2  12  217.58   17.20
  -4  -2 -12  234.88   22.70
   4  -2  12  182.28   17.30
   4  -2  12  198.88   16.00
  -4  -3  12  123.19   11.90
   4   3  12  157.48   16.00
   4  -3 -12   91.59   14.90
   4  -3 -12  112.29   17.00
  -4   3 -12  129.29   13.80
  -4   3 -12  105.89   17.90
   4   3  12  134.79   13.90
  -4   3 -12  131.19   14.70
  -4   3 -12  115.69   17.00
  -4  -3  12  109.39   16.00
  -4   3  12   80.39   14.40
  -4  -3 -12  117.49   11.00
   4  -3  12  126.99   15.90
   4   3 -12   95.49   12.20
  -4   3  12  143.79   15.00
   4   3 -12  123.59   16.60
  -4  -3 -12  170.58   21.10
  -4   3  12  140.79   14.70
  -4  -3 -12  115.69   18.00
   4   4  12  127.39   15.20
  -4   4 -12  126.39   15.80
   4  -4 -12  116.59   15.20
   4   4  12  132.69   15.80
  -4  -4  12   78.59   15.30
  -4   4 -12   96.39   19.50
   4  -4 -12   93.39   14.70
  -4  -4  12  118.39   13.50
  -4   4 -12  124.09   15.70
   4  -4  12   95.99   13.60
  -4   4  12  147.19   15.80
  -4  -4 -12  102.39   16.20
  -4  -4 -12   96.89   16.70
  -4  -4 -12  107.69   14.50
   4   4 -12  105.19   14.90
   4   4 -12  114.59   15.30
  -4   4  12  142.09   14.20
   4   4 -12  110.89   16.30
  -4  -4 -12  103.59   12.70
   4  -4  12  125.09   24.40
  -4   5 -12   71.59   12.20
  -4   5 -12   27.70   20.80
  -4  -5  12   43.90   14.20
   4   5  12   40.90   11.90
  -4  -5  12   59.39   10.00
  -4   5 -12   59.19   11.40
   4   5  12   64.39   11.10
   4  -5 -12   58.69   13.40
  -4  -5 -12  102.79   17.40
  -4  -5 -12   51.29   10.80
   4   5 -12   58.39   14.20
   4   5 -12   53.09   12.40
   4   5 -12   43.10   10.20
  -4  -5 -12   37.00   17.60
   4  -5  12   99.69   15.30
  -4   5  12   84.89   12.70
   4  -5  12   79.39   12.70
  -4   5  12   41.50   13.80
   4   6  12   54.79   12.90
  -4   6 -12   28.90   11.60
  -4  -6  12   16.60   14.50
   4   6  12   16.10   13.90
  -4   6 -12   36.60   14.80
   4  -6 -12   41.00   15.40
  -4   6 -12   55.99   24.50
  -4  -6  12   41.10   10.50
  -4   6  12   28.30   12.70
   4   6 -12   75.39   28.70
   4  -6  12   39.00    8.50
  -4  -6 -12   57.29   19.60
   4   6 -12   24.30   10.60
  -4   6  12   54.79   13.20
  -4  -6 -12   35.90   12.40
   5   0 -12  444.06   29.30
  -5   0  12  429.06   29.70
  -5   0  12  441.66   29.50
  -5   0 -12  436.96   28.50
   5   0  12  464.15   30.40
  -5   0  12  494.95   28.20
  -5   0 -12  474.55   27.70
   5   0 -12  452.55   31.50
   5   0  12  442.66   28.20
  -5   0 -12  491.65   34.70
   5   0  12  453.75   29.50
  -5   0 -12  415.96   27.90
  -5  -1  12   22.20    9.40
  -5   1 -12    9.80    6.80
  -5   1 -12   23.30    7.40
   5  -1 -12   18.00    7.60
  -5   1 -12   19.10   13.10
   5   1  12   19.60    6.90
  -5   1 -12   31.10    8.30
   5  -1 -12   -4.60    9.90
   5   1  12   12.80    8.40
   5   1  12   24.40    9.80
   5  -1  12   25.20    7.90
  -5   1  12   25.90    8.00
   5  -1  12   26.90   11.00
  -5   1  12   24.70    9.60
   5   1 -12   20.10    8.40
  -5   1  12   20.70    8.70
  -5  -1 -12   13.40    6.10
   5   1 -12   19.20    9.60
  -5  -1 -12   20.30    7.90
   5  -1  12   23.20    9.10
  -5  -1 -12   28.20   13.10
   5   2  12  307.37   24.00
  -5   2 -12  336.87   25.70
   5  -2 -12  357.66   24.60
  -5  -2  12  315.87   20.50
  -5  -2  12  319.87   25.20
   5   2  12  377.66   24.80
  -5   2 -12  355.56   23.50
  -5   2 -12  326.77   31.20
   5  -2 -12  322.47   27.20
   5   2  12  322.47   25.70
  -5   2  12  338.07   24.50
   5   2 -12  333.87   24.20
  -5   2  12  281.17   25.10
   5  -2  12  408.66   28.00
   5  -2  12  372.46   25.10
  -5   2  12  381.46   23.40
   5  -2  12  379.76   23.50
   5   2 -12  303.77   25.20
  -5  -2 -12  334.47   24.70
  -5  -2 -12  352.96   21.30
  -5  -2 -12  362.76   29.70
   5   3  12    7.90    7.40
   5   3  12    2.60    9.20
  -5   3 -12   47.70   15.80
  -5   3 -12   14.60    8.50
  -5  -3  12    2.00    9.80
  -5  -3  12    9.10    7.60
  -5   3 -12   26.70    9.60
   5  -3 -12   21.00    9.40
   5   3 -12    0.30    9.60
   5  -3  12   18.60   11.70
   5   3 -12   21.90    9.00
  -5   3  12   10.30    8.80
  -5  -3 -12   11.50    5.40
  -5   3  12   21.10   10.20
  -5  -3 -12   32.30   13.30
   5  -3  12   25.90   10.00
  -5   3  12   14.30   11.50
  -5  -3 -12   12.70   10.60
  -5  -3 -12   13.30    8.20
  -5   4 -12  156.58   19.30
  -5   4 -12  176.48   19.20
   5   4  12  190.08   17.50
  -5  -4  12  185.68   15.80
   5   4  12  161.88   19.40
   5  -4 -12  160.78   18.90
  -5   4 -12  143.29   23.80
  -5  -4  12  131.99   21.70
  -5  -4 -12  145.59   16.90
   5  -4  12  219.88   24.10
  -5  -4 -12  219.08   26.20
   5   4 -12  184.98   20.90
   5   4 -12  193.88   18.40
   5   4 -12  127.19   19.60
  -5   4  12  174.38   16.40
  -5   4  12  156.48   18.10
  -5  -4 -12  204.28   24.70
   5  -4  12  176.28   21.10
  -5  -5  12    3.80   12.70
   5   5  12    2.60    9.60
   5  -5 -12   -8.70   10.80
  -5   5 -12    0.00    9.90
  -5   5 -12   16.30   20.60
  -5  -5  12    4.10    8.80
  -5   5 -12   10.50   12.20
   5   5  12   17.00   12.30
  -5  -5 -12    3.40   18.50
  -5  -5 -12   29.30    9.30
   5  -5  12    7.10   12.40
   5   5 -12   17.80    9.00
  -5  -5 -12   47.10   16.80
  -5   5  12   -2.00   13.40
  -5   5  12   -1.80   10.60
   5   5 -12   11.40   11.70
   5   5 -12   19.60   13.60
   5  -5  12   13.80   14.00
   5   6  12   53.69   13.40
  -5   6 -12   60.09   14.70
   5  -6 -12   42.10   15.90
  -5   6 -12   44.70   25.30
   5   6  12   33.10   15.00
  -5  -6  12   42.60   14.90
   5   6 -12   40.00   12.00
  -5  -6 -12   49.30   14.30
  -5   6  12   27.10   13.40
   5   6 -12   51.19   19.30
   5  -6  12   85.49   11.90
  -5  -6 -12   48.30   19.20
   5  -6  12   51.99   15.50
   6   0 -12   12.30   10.80
  -6   0  12   20.00    9.00
  -6   0 -12   10.40    7.80
  -6   0  12   24.70    8.50
  -6   0 -12   29.10    6.70
   6   0 -12   16.00    7.90
   6   0  12   36.50    9.60
  -6   0 -12   11.60   14.10
   6   0  12   18.00   10.70
   6   0  12   40.40   13.20
  -6   0 -12   25.90    8.60
  -6  -1  12   17.60    9.40
  -6   1 -12   15.20    7.70
   6  -1 -12   13.40    8.20
  -6   1 -12   20.40    7.20
   6  -1 -12   15.90   11.60
  -6   1 -12   20.10   13.00
   6   1  12   12.90    9.80
   6   1  12    6.00    7.20
   6  -1  12    5.00    8.90
   6   1 -12   -0.30   13.60
  -6  -1 -12   12.50    5.70
   6   1 -12   27.40   11.40
  -6   1  12    9.60    8.30
   6  -1  12   14.20   10.90
  -6   1  12   12.60    9.30
  -6  -1 -12    3.00   12.70
  -6  -1 -12   21.10    7.60
  -6  -1 -12   12.80    8.70
  -6   1  12   16.30    8.90
  -6  -2  12    5.70    9.80
   6   2  12   19.20   10.60
   6  -2 -12   16.50    8.40
  -6   2 -12   20.80    9.10
  -6   2 -12   14.40   13.80
  -6   2 -12   -3.30    8.50
  -6   2  12    7.90   10.40
  -6  -2 -12   25.40   14.40
   6   2 -12    5.90   11.00
  -6  -2 -12   17.10    9.90
   6   2 -12   11.10    9.10
  -6   2  12   12.70    8.60
  -6  -2 -12   11.90    5.30
  -6  -2 -12   21.20    8.70
   6  -2  12    3.20    9.80
   6  -2  12   18.50   11.60
   6  -2  12   15.70    9.60
  -6   2  12   15.60    9.30
   6   3  12   -9.50   10.10
  -6  -3  12   16.90    7.50
  -6  -3  12    9.50   10.80
   6   3  12   13.30    8.00
  -6   3 -12   13.10    9.20
   6  -3 -12    9.10    8.80
  -6   3 -12   15.50    9.20
  -6   3 -12   17.20   16.60
  -6   3  12   -2.00   12.00
  -6  -3 -12   -4.10    7.10
   6  -3  12   11.50   10.40
   6  -3  12   20.90   12.90
   6   3 -12    9.90    9.50
  -6  -3 -12   14.80   14.80
  -6   3  12    7.80    9.50
  -6   3  12   20.20   10.00
   6   3 -12    9.20   11.10
  -6  -3 -12   10.30   11.40
  -6  -4  12   19.20    8.90
  -6  -4  12    1.50   11.30
  -6   4 -12    2.40   10.90
  -6   4 -12   13.60   18.40
  -6   4 -12   17.20   10.30
   6   4  12   -2.90    8.20
   6   4  12   16.80   11.40
   6   4 -12   -8.20   12.60
  -6  -4 -12  -10.10   15.80
  -6  -4 -12   15.70    8.10
   6  -4  12    3.60   11.80
   6  -4  12   19.00   14.60
  -6   4  12    9.40   10.20
   6   4 -12   17.10   10.80
  -6  -4 -12   26.10   15.00
   6   4 -12   34.80    9.50
  -6  -5  12   18.30   10.00
  -6   5 -12   10.10   12.20
  -6  -5  12   -0.70   13.60
   6   5  12    3.20   12.90
   6   5  12   15.60   10.20
  -6   5 -12   23.40   22.40
   6  -5 -12   19.90   12.70
  -6   5 -12   13.20   12.90
   6   5 -12   19.10    9.40
  -6  -5 -12   14.10   17.60
  -6  -5 -12   -1.80   11.30
   6  -5  12   23.40   15.50
   6   5 -12   23.00   15.00
   6   5 -12  -11.00   15.90
  -6   5  12   26.50   12.60
   6  -5  12   31.90   14.60
  -7   0 -12   19.70   15.10
  -7   0  12    0.90    8.40
   7   0 -12  -10.60   12.40
  -7   0  12   15.10    8.80
   7   0  12   18.90    8.10
   7   0  12   -9.10   12.10
   7   0 -12   13.90    8.50
  -7   0 -12    9.10    8.00
  -7   0  12    3.10    8.70
  -7   0 -12    6.60    8.60
  -7   0 -12    7.00    7.20
  -7   1 -12  212.88   19.80
  -7  -1  12  220.88   20.30
  -7   1 -12  214.18   18.60
   7   1  12  235.78   19.30
   7  -1 -12  244.28   19.70
   7   1  12  238.78   22.50
  -7   1 -12  211.68   19.50
  -7   1 -12  193.08   28.60
  -7  -1 -12  270.57   27.80
  -7  -1 -12  207.38   16.40
   7   1 -12  209.18   19.20
  -7  -1 -12  210.58   19.40
   7   1 -12  183.38   24.70
  -7  -1 -12  197.18   19.00
  -7   1  12  231.48   18.70
   7  -1  12  297.27   25.20
  -7   1  12  218.58   20.40
  -7   1  12  237.18   21.40
  -7  -1 -12  251.17   21.60
   7  -1  12  247.68   20.20
  -7   2 -12   -9.40    9.50
  -7   2 -12   20.50    9.30
  -7   2 -12  -27.50   15.90
   7   2  12   16.10   11.10
   7   2  12   -9.00    7.40
  -7   2 -12   -0.80    8.90
   7  -2 -12    0.70    8.20
  -7  -2  12    4.50   10.50
   7  -2  12    9.50   12.10
  -7   2  12    0.30    9.50
   7  -2  12   -6.70    8.70
  -7  -2 -12    1.30    8.20
  -7  -2 -12   -3.90   10.00
  -7   2  12   16.40   12.00
  -7   2  12   13.70    9.70
  -7  -2 -12   20.80   15.70
   7   2 -12    8.50   13.00
   7   3  12  131.69   16.20
  -7   3 -12   99.59   21.30
  -7  -3  12  142.69   13.90
  -7   3 -12  114.99   18.20
  -7   3 -12  132.29   19.00
  -7  -3  12  125.39   18.10
   7   3  12  141.19   20.50
  -7   3 -12  133.59   14.90
   7  -3 -12  125.99   17.10
  -7   3  12   82.79   17.20
  -7  -3 -12  143.99   16.30
  -7   3  12  140.59   17.00
   7  -3  12  124.29   17.90
  -7  -3 -12  121.69   16.80
  -7   3  12  119.29   17.40
  -7  -3 -12  166.38   26.40
   7   3 -12  114.29   17.00
   7   3 -12  112.09   18.10
  -7   4 -12    3.50   11.30
   7   4  12  -20.80   12.90
  -7   4 -12   49.00   21.10
   7   4  12  -15.20    9.10
  -7   4 -12  -13.50   11.50
   7  -4 -12   -0.50   10.70
  -7  -4  12    6.80   12.90
  -7  -4  12   -3.00    9.00
   7   4 -12   18.10   10.10
  -7  -4 -12  -12.40    9.00
   7   4 -12   18.50   11.40
  -7   4  12  -14.50   10.50
   7   4 -12    6.40   14.40
  -7  -4 -12   26.50   16.70
   7  -4  12   24.20   15.70
  -7  -4 -12  -14.30   17.40
  -7  -5  12   42.40   12.00
   7   5  12   52.99   12.40
  -7  -5  12   37.30   16.20
  -7   5 -12   51.29   14.20
  -7   5 -12   39.40   25.10
   7   5  12   17.60   15.10
   7  -5 -12   37.20   14.20
  -7   5 -12   49.90   14.70
  -7   5  12   73.99   14.80
   7  -5  12   67.29   18.10
   7   5 -12   39.90   12.10
   7   5 -12   90.59   17.10
  -7  -5 -12   28.50   11.40
  -7  -5 -12   43.00   21.00
  -8   0 -12   14.20    9.10
   8   0 -12    9.50    9.20
  -8   0  12    7.90   11.40
  -8   0 -12  -27.60   16.40
   8   0  12   28.20    9.80
   8   0  12    5.80   13.70
  -8   0 -12    4.10    7.30
   8   1  12   -5.70    8.30
   8   1  12  -15.40   12.20
   8  -1 -12   -2.50    9.10
  -8   1 -12   -8.50   17.80
  -8   1 -12   15.70   10.30
  -8   1 -12    1.80    8.50
  -8   1  12   -0.90    9.90
  -8  -1 -12    3.60    6.50
   8   1 -12   14.10    9.30
  -8  -1 -12    7.70    9.30
  -8   1  12    7.00   10.90
  -8   1  12   24.70   11.80
   8  -1  12   13.90   13.60
   8   1 -12  -16.80   14.00
   8  -1  12   15.70    9.70
  -8  -1 -12    9.40   17.50
   8   2  12   21.30   13.20
  -8   2 -12   12.90    9.70
   8  -2 -12   -2.10    9.30
  -8   2 -12   35.30   19.80
  -8  -2  12   -1.60   10.50
   8   2  12    5.10    8.70
  -8   2 -12   33.30   11.50
   8  -2  12   40.90   14.00
  -8  -2 -12  -10.20   20.80
  -8  -2 -12   -8.90    9.70
   8   2 -12   -1.60   14.20
   8  -2  12   -0.80    9.50
  -8   2  12   -1.60   13.50
  -8  -2 -12  -28.10   16.40
  -8   2  12   12.40   10.80
   8   2 -12    8.50   10.00
  -8   3 -12    2.80   10.60
   8   3  12    0.90   13.50
  -8   3 -12    9.80   11.90
  -8   3 -12   30.70   21.10
   8  -3 -12  -17.20    9.50
  -8  -3  12  -12.30   11.70
   8   3  12    6.90    9.10
  -8  -3 -12   10.20   15.10
  -8   3  12    8.50   11.60
  -8  -3 -12  -15.30   18.20
  -8  -3 -12   -6.70    9.10
   8  -3  12   14.90   16.00
  -8   3  12    0.70   11.10
   8   3 -12  -10.80   12.50
   8   3 -12   23.70   15.90
  -8  -4  12    9.40   13.60
  -8   4 -12    7.20   13.40
   8  -4 -12  -21.80   10.50
  -8  -4  12    0.10   10.20
   8   4  12   21.10   15.50
   8   4  12   -0.80    9.60
  -8   4 -12   -2.30   13.30
  -8   4 -12   18.90   21.60
   8  -4  12   30.90   17.60
   8   4 -12   25.60   14.50
  -8  -4 -12  -15.30   19.20
  -8   4  12   -6.90   12.30
  -9   0  12  115.09   18.30
   9   0  12  143.19   18.60
   9   0  12  137.29   19.30
   9   0 -12  123.59   17.70
  -9   0 -12   87.89   14.40
  -9   0 -12  117.59   15.00
  -9   0 -12  132.49   25.40
  -9   1 -12   52.39   21.70
  -9   1 -12   10.70   10.90
   9   1  12  -16.40   13.90
   9   1  12    5.60    9.40
  -9  -1  12    9.10   11.50
  -9   1 -12    5.10    9.50
   9  -1 -12    6.80   10.70
   9  -1  12   22.60   14.00
   9  -1  12   15.50   10.10
  -9   1  12  -11.50   11.50
   9   1 -12   14.10   10.60
  -9  -1 -12    0.80   11.20
  -9   1  12   14.30   11.30
  -9  -1 -12    0.80   19.40
   9   2  12   80.09   16.90
  -9  -2  12  100.89   17.80
  -9   2 -12   80.89   15.00
  -9   2 -12   94.39   14.30
   9   2  12  122.49   17.80
  -9   2 -12   87.69   24.80
   9  -2 -12  130.59   15.50
  -9   2  12   69.49   17.50
  -9  -2 -12   85.49   15.00
   9   2 -12  123.89   18.80
   9  -2  12  109.39   18.40
  -9  -2 -12   86.79   22.00
  -9   2  12  121.79   19.50
  -9   2  12   92.49   16.50
   9  -2  12   94.69   13.70
  -9  -3  12   -5.30   12.90
  -9   3 -12   15.40   13.50
  -9   3 -12  -18.10   12.90
  -9   3 -12   52.39   23.60
   9  -3 -12    3.30   10.10
   9   3  12   -1.40   10.40
   9   3  12    3.30   14.80
   9   3 -12   -9.50   19.90
  -9   3  12    3.60   11.50
   9   3 -12   12.70   12.70
  -9  -3 -12  -15.30   10.30
   9  -3  12    3.70   18.10
  -9   3  12   -4.30   12.50
  -9  -3 -12    7.00   20.80
  -9   4 -12   36.00   15.30
  -9  -4  12   48.70   11.90
   9   4  12    1.50   16.80
  -9  -4  12   22.80   13.90
  -9   4 -12   26.00   15.10
   9   4  12   41.40   11.60
   9  -4  12   88.79   19.70
   9   4 -12   30.40   15.40
  -9   4  12   52.99   15.50
  -9  -4 -12   40.20   23.00
 -10   0 -12  118.39   16.80
 -10   0  12  169.78   20.90
 -10   0 -12  124.09   26.40
  10   0  12  153.88   21.30
  10   0 -12  131.89   19.40
 -10   1 -12   38.70   13.70
  10  -1 -12   39.90   11.80
 -10  -1  12   65.09   15.80
  10   1  12   74.19   17.70
 -10   1 -12   67.59   25.80
  10   1  12   66.39   12.40
 -10   1 -12   79.79   12.90
 -10  -1 -12   43.30   13.40
  10  -1  12   45.90   17.80
 -10   1  12   34.20   13.50
 -10  -1 -12    0.70   22.60
  10   1 -12   66.19   13.60
  10  -1  12   64.89   13.30
 -10  -2  12  125.59   21.20
  10   2  12  148.29   20.30
 -10   2 -12  100.99   17.60
 -10   2 -12  107.99   26.70
  10   2  12  127.19   20.50
  10  -2 -12  122.59   18.70
 -10   2 -12  109.89   15.90
  10  -2  12  130.09   22.00
  10  -2  12  144.59   20.50
 -10   2  12  133.69   20.00
 -10   2  12  135.09   21.80
 -10  -2 -12  131.59   25.30
 -10  -2 -12   96.09   14.80
  10   2 -12  135.09   16.30
  10   3 -12   41.70   14.70
 -10   3  12   48.90   15.40
 -11   0 -12   24.30   26.50
  11   0 -12   11.80   12.70
 -11   0 -12  -11.60   13.00
  11   0  12   -0.40   11.70
   0   0  13   13.80    8.10
   0   0 -13    9.50    8.60
   0   0  13   -5.10   14.20
   0   0 -13   -3.80    7.20
   0   1 -13  415.56   24.60
   0  -1  13  336.97   25.40
   0   1  13  398.76   25.70
   0  -1 -13  340.37   27.40
   0  -1  13  438.46   25.80
   0  -1 -13  334.87   25.90
   0   1  13  342.97   26.00
   0   1 -13  400.76   27.90
   0  -1  13  431.06   26.40
   0   1 -13  343.37   24.80
   0  -2  13   -2.20    4.70
   0   2 -13   -4.80    6.50
   0  -2  13   -3.20   10.30
   0  -2  13   -4.70    9.40
   0   2 -13    2.70    9.60
   0   2  13   -1.50    5.50
   0   2 -13    3.40    7.50
   0  -2 -13   11.10    8.80
   0   2  13   -6.90    9.10
   0  -2 -13   19.50    9.20
   0  -2  13   13.50    8.10
   0   2  13   14.10    8.10
   0  -3 -13  258.57   22.80
   0   3 -13  258.07   19.70
   0  -3  13  190.68   20.60
   0   3  13  247.18   18.40
   0   3 -13  240.58   24.70
   0   3 -13  227.48   20.70
   0  -3  13  249.38   16.40
   0   3  13  240.68   19.80
   0  -3  13  281.47   20.90
   0   4 -13   -2.60    7.90
   0  -4  13    2.50   12.70
   0  -4 -13   16.30   11.30
   0   4  13   -3.30    8.90
   0  -4  13    6.10    6.30
   0  -4 -13   -8.30    9.70
   0   4  13    3.70    8.90
   0   4 -13   15.50   11.40
   0   4 -13   11.60   14.40
   0  -5 -13   83.79   14.30
   0   5  13   86.39   13.40
   0  -5  13   78.19   17.50
   0  -5 -13  119.39   17.90
   0   5  13   96.99   13.30
   0  -5  13  104.69   12.50
   0   5 -13  111.39   20.10
   0   5 -13   74.69   11.80
   0   6  13    4.70   12.90
   0  -6  13    2.70   16.60
   0  -6 -13  -11.40   16.20
   0   6 -13   16.90   21.20
   0   6  13  -22.10   12.50
   1   0  13  137.79   15.50
  -1   0  13  118.59   16.20
  -1   0 -13  150.38   18.10
   1   0 -13  144.39   17.00
  -1   0  13  172.78   16.10
   1   0 -13  156.18   16.20
  -1   0  13  141.99   15.40
  -1   0 -13  152.28   14.90
   1   0  13  165.18   16.70
   1   1  13  547.85   33.50
   1   1  13  524.85   31.10
   1   1  13  489.75   33.80
  -1   1 -13  614.04   33.20
  -1  -1  13  584.94   33.70
  -1   1 -13  535.55   33.00
   1  -1 -13  505.65   34.70
  -1   1 -13  593.14   36.30
   1  -1 -13  509.35   34.00
  -1  -1  13  492.25   33.20
  -1  -1  13  589.94   33.70
   1  -1  13  518.15   33.20
  -1   1  13  570.24   33.30
  -1   1  13  492.45   34.10
  -1   1  13  531.25   33.10
  -1  -1 -13  516.45   33.60
   1  -1  13  591.44   34.60
   1   1 -13  582.04   35.60
  -1  -1 -13  558.34   35.40
   1   1 -13  485.15   33.20
   1   2  13   76.99   13.30
  -1   2 -13  125.69   19.30
   1   2  13  102.19   12.00
  -1  -2  13  116.89   16.90
  -1   2 -13  104.89   13.80
   1  -2 -13   93.29   13.00
   1  -2 -13  115.29   16.20
   1   2  13  136.99   14.90
  -1   2 -13  103.09   14.50
  -1  -2  13  107.59   15.50
  -1  -2  13  150.78   16.50
  -1   2  13  170.58   18.40
  -1   2  13  122.59   14.70
   1   2 -13  125.59   14.80
  -1  -2 -13  151.78   17.60
   1   2 -13  141.39   14.50
   1  -2  13  101.69   15.60
   1  -2  13  104.79    9.50
  -1  -2 -13  120.89   16.20
   1   2 -13  136.09   17.90
   1  -2  13  113.19   14.40
   1  -2  13  128.99   18.80
   1   3  13  323.27   24.60
   1   3  13  347.97   23.30
   1  -3 -13  364.06   27.00
  -1   3 -13  313.87   25.00
  -1   3 -13  386.36   24.70
  -1  -3  13  337.67   21.90
  -1   3 -13  394.96   30.90
  -1   3  13  333.87   24.40
   1  -3  13  358.36   24.60
  -1  -3 -13  396.16   32.90
   1   3 -13  353.86   28.10
  -1   3  13  343.07   32.60
   1   3 -13  308.07   24.90
   1  -3  13  429.06   26.80
  -1   3  13  367.96   23.20
  -1  -3 -13  374.36   28.10
   1   3 -13  379.36   24.80
   1  -3  13  344.87   21.30
   1  -3  13  314.47   25.80
   1   4  13   52.29   10.40
  -1  -4  13   47.90    8.40
  -1   4 -13   47.30    9.60
   1   4  13   54.49   10.10
  -1  -4  13   28.50   12.90
  -1   4 -13   72.39   17.70
   1  -4 -13   41.80   12.30
   1  -4 -13   59.89   13.40
  -1  -4 -13   71.59   13.90
  -1   4  13   49.60    9.90
   1   4 -13   38.60   11.20
   1   4 -13   52.29   15.30
   1  -4  13   63.29    9.30
   1   4 -13   54.49    9.40
   1  -4  13   56.39   13.90
  -1  -4 -13   41.40   11.00
  -1   4  13   47.90   10.60
  -1  -5  13   67.89   29.00
   1  -5 -13  147.89   21.80
   1  -5 -13  141.49   22.80
  -1   5 -13  152.88   17.90
  -1   5 -13  155.98   23.80
   1   5  13  109.59   18.60
  -1  -5  13  155.28   14.70
   1   5  13  166.48   20.10
  -1  -5 -13  212.78   24.30
  -1   5  13  196.68   20.00
   1  -5  13  122.59   20.90
   1   5 -13  196.18   29.80
  -1  -5 -13  131.49   19.60
   1  -5  13  158.48   13.70
   1   5 -13  128.39   17.50
  -1   5  13  160.18   18.90
  -1   6 -13   17.00   10.60
  -1  -6  13   -8.00   16.70
   1   6  13  -21.20   12.60
   1   6  13  -13.40   13.40
  -1  -6  13   11.20   10.80
   1  -6 -13   34.00   17.10
  -1   6 -13   49.10   24.30
   1  -6  13   14.40    9.30
  -1   6  13  -14.50   12.50
  -1   6  13   30.60   12.90
   1   6 -13    1.90    9.90
  -1  -6 -13   25.80   17.20
   1   6 -13   22.00   22.60
   2   0 -13   24.00    9.20
   2   0  13   58.99    9.50
   2   0  13   69.39   10.80
   2   0 -13   44.50   10.20
   2   0  13   52.79    7.50
  -2   0 -13   52.99    8.10
  -2   0 -13   52.89   10.60
  -2   0  13   45.00   10.10
  -2   0  13   56.29   10.50
  -2   0 -13   35.20    8.50
  -2   0  13   52.49    9.70
  -2  -1  13   51.49    9.60
  -2  -1  13   28.10    9.00
  -2   1 -13   35.20    8.10
  -2   1 -13   30.30   10.30
  -2   1 -13   28.90   11.20
   2   1  13    6.90    9.00
   2  -1 -13   27.40    9.80
   2   1  13   30.80    6.50
  -2  -1  13   40.90   10.20
   2   1  13   23.20    9.40
   2  -1 -13   42.20   10.40
   2  -1  13   26.90   11.10
  -2   1  13   25.80    9.90
   2  -1  13   36.60    7.10
  -2  -1 -13   44.10   11.80
  -2   1  13   29.50    9.20
   2   1 -13   24.10    9.20
  -2   1  13   37.50    9.90
  -2  -1 -13   43.30    8.60
   2   1 -13   21.70    9.40
   2  -1  13   28.60    8.30
   2   2  13   37.80    9.60
   2   2  13   53.79    9.70
   2   2  13   36.00    7.30
  -2   2 -13   42.50    8.40
  -2  -2  13   42.20   11.00
  -2  -2  13   50.29   10.70
  -2  -2  13   46.10    8.80
  -2   2 -13   49.40   13.80
  -2   2 -13   59.49    9.70
   2  -2 -13   49.00   10.00
   2  -2 -13   30.50   11.50
  -2  -2 -13   43.00   10.90
  -2  -2 -13   47.10    9.50
  -2   2  13   39.10    9.60
   2  -2  13   44.90    5.90
  -2   2  13   42.60   10.20
   2  -2  13   49.70   14.30
   2   2 -13   29.30    9.20
   2  -2  13   45.20    9.60
  -2   2  13   27.10   10.70
   2   2 -13   51.69   11.60
   2  -2  13   33.40   10.90
   2   3  13   27.30    9.40
  -2   3 -13   60.59   15.50
   2   3  13   27.80    7.90
  -2  -3  13   24.80   11.70
  -2   3 -13   20.70    8.70
   2  -3 -13   35.70   11.00
  -2  -3  13   14.50    6.60
  -2   3  13   39.00   11.80
  -2   3  13   34.40    7.20
  -2   3  13   20.60    9.10
  -2  -3 -13   30.40   11.70
   2   3 -13   47.20   12.10
   2  -3  13   33.70    6.00
  -2   3  13   39.00   14.20
   2  -3  13   21.30    9.20
   2   3 -13   20.50    8.60
   2   3 -13   13.00    9.50
   2  -3  13   62.29   12.00
   2  -3  13   26.10   11.90
  -2  -3 -13   34.20   11.90
  -2  -4  13   22.80    7.90
   2   4  13    9.20   10.00
  -2   4 -13   12.90   15.70
   2  -4 -13   19.00   11.10
  -2   4 -13   19.80    8.60
   2  -4 -13   12.20   10.10
  -2  -4  13    8.30   11.00
   2   4  13   17.80    8.90
  -2  -4 -13    5.60   11.80
   2  -4  13   29.70   12.00
   2  -4  13   23.40    6.20
  -2  -4 -13   26.40    9.70
  -2   4  13    8.90    9.80
   2   4 -13   14.90   10.40
   2   4 -13   20.60    9.00
   2   4 -13    1.60   12.20
  -2   4  13   25.80    8.70
  -2   4  13   18.90   11.00
   2  -4  13   18.70   13.00
   2  -4  13   15.00    9.40
  -2  -5  13   18.90   14.60
   2  -5 -13   -3.70   12.00
  -2   5 -13   50.89   20.10
  -2   5 -13   -1.70    8.50
  -2  -5  13    6.80    8.40
   2   5  13   17.60   10.80
   2   5  13  -17.80   10.70
   2   5 -13    8.50    9.10
   2   5 -13   28.20   17.20
  -2   5  13   22.90   10.10
   2   5 -13   15.10   19.20
  -2   5  13    6.10   11.10
  -2  -5 -13    8.60   14.00
   2  -5  13    8.10    6.80
  -2  -6  13   -2.90   16.40
   2  -6 -13   19.80   15.30
  -2   6 -13  -36.20   24.00
  -2  -6  13    2.60    9.30
  -2   6 -13    8.40   12.00
   2   6  13   -5.70   12.80
  -2   6  13   -2.40   13.50
  -2  -6 -13   14.90   11.40
  -2  -6 -13   17.50   17.30
  -2   6  13   -1.30   12.30
   2   6 -13   42.50   21.90
   2  -6  13   -3.80    7.50
  -3   0  13  124.49   15.70
   3   0  13  161.58   14.20
  -3   0 -13  183.88   14.70
   3   0  13  142.49   15.90
  -3   0  13  127.79   16.70
  -3   0  13  141.09   16.00
  -3   0 -13  154.18   15.50
   3   0  13  170.08   18.40
   3   0 -13  153.68   16.40
   3   0 -13  157.88   18.20
  -3   0 -13  153.28   20.60
  -3  -1  13   16.00    8.90
  -3   1 -13    2.50    7.40
   3   1  13    7.90    6.10
  -3  -1  13    5.10    8.80
   3   1  13    7.80    8.80
  -3   1 -13   18.80   12.00
   3   1  13   -9.80    8.00
   3  -1 -13    7.50    8.90
  -3  -1  13    1.30    8.40
   3  -1 -13    7.90    9.60
  -3   1 -13   -7.80    6.20
   3  -1  13    2.40    9.60
  -3   1  13    4.10    9.40
  -3  -1 -13   -0.30   10.20
  -3   1  13   -5.00    8.30
  -3  -1 -13    1.40    8.10
  -3   1  13    3.30    8.80
   3  -1  13  -11.00    7.60
  -3  -1 -13    5.70    6.50
   3  -1  13   14.90    7.10
   3   1 -13    2.80    8.00
   3   1 -13    7.50    9.20
   3   2  13  104.49   15.50
  -3  -2  13   93.99   15.80
  -3   2 -13  124.79   14.20
   3   2  13  109.39   13.10
  -3   2 -13  115.89   12.90
   3  -2 -13  121.09   16.10
  -3   2 -13  174.88   24.00
   3  -2  13  161.98   20.40
   3   2 -13  108.29   16.80
  -3   2  13  111.99   14.50
   3  -2  13   81.79   11.80
  -3   2  13   90.39   14.50
  -3  -2 -13  111.59   16.80
   3   2 -13  123.09   16.70
  -3   2  13  143.79   16.00
  -3  -2 -13  122.99   19.10
  -3  -2 -13  127.19   12.50
   3   3  13   -7.20    7.30
  -3   3 -13   -3.60    7.40
  -3  -3  13    0.90   10.60
   3   3  13   -1.50    9.50
  -3   3 -13    4.80    7.70
  -3  -3  13   -3.70    6.60
   3  -3 -13   -8.40    8.90
  -3   3 -13   17.40   15.00
  -3   3  13    6.10    8.90
   3   3 -13    9.10    7.30
   3   3 -13   -3.10    9.50
  -3  -3 -13   13.40   11.60
  -3  -3 -13   -0.70   14.30
   3  -3  13   25.70   12.00
   3   3 -13    8.20   10.90
  -3   3  13    1.90    9.50
   3  -3  13    0.80    9.00
   3   4  13   45.50   11.00
  -3   4 -13   42.90    9.50
  -3   4 -13   52.29   19.20
  -3   4 -13   54.89    9.90
   3   4  13   51.69   10.20
  -3  -4  13   37.30   13.70
  -3  -4  13   52.09    9.00
   3  -4 -13   40.80   13.10
   3  -4  13   35.40   11.10
   3  -4  13   43.60    7.50
   3   4 -13   59.19   12.10
   3   4 -13   51.59   10.60
  -3   4  13   37.30   10.70
   3  -4  13   64.69   15.80
  -3   4  13   50.29    9.50
  -3  -4 -13   61.89   10.60
  -3  -4 -13   47.40   14.90
   3   4 -13   61.49   15.20
  -3   4  13   51.99   12.40
   3   5  13    4.90   10.90
  -3   5 -13    4.80    9.50
  -3   5 -13   15.00   11.50
  -3  -5  13   11.80   13.20
  -3  -5  13   -0.40    8.00
   3  -5 -13    5.30   12.50
  -3   5 -13    8.00   19.80
   3   5  13  -16.60   11.70
  -3  -5 -13    8.30   10.00
  -3   5  13   -2.40   12.00
   3  -5  13    4.50    6.40
   3   5 -13    2.70   16.00
   3   5 -13  -12.50   12.60
  -3   5  13   -1.60   10.50
  -3  -5 -13  -10.00   15.30
   3   5 -13    2.30    8.60
  -3  -6  13   22.10   14.80
  -3   6 -13  -19.10   26.20
  -3  -6  13   16.50   12.70
  -3   6 -13    0.80   12.60
   3   6  13   21.30   13.60
   3  -6 -13   27.10   15.70
   3   6  13  -16.40   14.00
  -3  -6 -13    1.00   19.40
   3   6 -13   -5.00   10.80
   3  -6  13   23.60    8.00
   3   6 -13   41.70   21.60
  -3  -6 -13  -16.90   11.40
  -3   6  13   -9.20   16.30
  -3   6  13   -2.20   14.30
   4   0  13   16.80    7.40
   4   0 -13   13.20    8.30
  -4   0 -13    0.30   11.00
  -4   0 -13   20.40    7.00
   4   0  13    2.40    8.50
   4   0  13   17.20    9.80
  -4   0  13   13.20    9.00
  -4   0  13    8.20    9.20
   4   0 -13   -6.50   10.60
  -4   0 -13    5.30    7.10
  -4   0 -13   16.00   12.40
  -4  -1  13   87.39   13.80
   4   1  13   93.49   12.70
  -4  -1  13   61.19   12.30
  -4   1 -13   69.29   16.10
  -4   1 -13   54.39   14.00
   4  -1 -13   75.49   16.40
  -4   1 -13   52.09    8.90
   4  -1 -13   59.79   10.80
  -4  -1  13   70.79   10.00
   4   1  13   74.89   12.10
   4   1  13   46.70   11.80
   4  -1  13   83.49   11.70
  -4   1  13   48.60   11.20
  -4   1  13  106.09   16.00
  -4  -1 -13   45.70   10.60
   4   1 -13   71.49   12.00
   4   1 -13   63.49   10.60
  -4   1  13   56.29   11.70
   4  -1  13   87.49   13.10
   4  -1  13   90.69   14.10
  -4  -1 -13   67.49   14.20
  -4  -1 -13   58.19    8.70
  -4  -2  13    2.30   10.90
  -4   2 -13   20.10   14.20
  -4   2 -13    3.80    7.20
   4  -2 -13    8.00    9.70
  -4   2 -13    3.80    8.00
   4   2  13  -12.10    9.30
  -4  -2 -13   -3.00   11.00
  -4   2  13   16.90    9.80
   4   2 -13   -1.80   10.80
   4  -2  13   18.70    8.20
   4  -2  13   34.00   13.30
  -4   2  13   -1.40   10.80
  -4  -2 -13   20.00   13.40
  -4  -2 -13   10.70    6.50
  -4   2  13    8.80    8.70
   4   2 -13    6.10    9.10
   4  -2  13   18.00   10.10
  -4   3 -13   41.70    9.90
   4   3  13   33.60    9.30
  -4  -3  13   42.40    8.10
  -4   3 -13   16.50   18.10
   4  -3 -13   29.70   11.50
   4   3  13   39.40   10.60
  -4  -3  13   26.20   11.40
  -4   3 -13   18.20    8.80
   4  -3  13   59.39   12.20
  -4  -3 -13   41.50    7.30
  -4   3  13   42.30   12.00
   4   3 -13   43.00    8.60
  -4  -3 -13   52.89   14.20
   4   3 -13   60.99   12.20
   4   3 -13   37.00   11.80
   4  -3  13   69.79   14.50
  -4   3  13   51.29   10.30
  -4   4 -13   -0.30   10.20
   4   4  13   -1.00    9.10
   4   4  13    3.00   10.90
  -4   4 -13   23.40   17.80
  -4  -4  13    4.10    8.00
  -4   4 -13   -0.60    9.50
   4  -4 -13   -3.10   10.20
  -4  -4 -13    0.80    6.10
  -4   4  13    3.10    8.30
  -4  -4 -13   -8.90   14.90
   4  -4  13    9.90   11.50
  -4   4  13   10.00   10.70
   4   4 -13   15.30   13.10
   4  -4  13   16.40   14.80
   4   4 -13    4.70   11.20
   4   4 -13   11.50    8.60
  -4   5 -13   -6.80   11.70
  -4  -5  13   20.00    9.70
  -4   5 -13  -42.70   22.70
   4  -5 -13    4.40   13.00
  -4  -5  13   18.90   13.50
   4   5  13   12.70   11.30
   4   5  13   18.60   13.40
  -4   5 -13   20.30   13.50
  -4  -5 -13   38.50   18.30
  -4   5  13   16.00   12.00
   4  -5  13   31.50   15.60
   4  -5  13   14.90    7.90
  -4  -5 -13    3.60    9.50
   4   5 -13  -12.10    9.50
  -4   5  13   -9.80   11.90
   4   5 -13   38.40   16.10
   4   5 -13    8.80   13.70
   5   0 -13  152.38   21.80
  -5   0  13   84.19   11.40
  -5   0 -13   79.19   10.50
   5   0 -13   74.09   12.10
  -5   0  13   79.69   11.60
  -5   0 -13  105.49   17.90
  -5   0  13   88.89   13.10
   5   0  13  106.99   17.40
   5   0  13  108.39   14.90
  -5   0 -13   97.09   12.90
  -5   1 -13  107.99   15.20
  -5   1 -13  110.29   19.20
   5   1  13   95.99   15.50
   5   1  13  153.78   17.80
  -5   1 -13  132.79   18.50
   5  -1 -13   95.49   13.30
  -5  -1  13   97.29   15.50
  -5   1  13  102.79   15.30
   5   1 -13   97.19   14.70
  -5   1  13  126.69   17.80
   5  -1  13  119.89   15.70
  -5   1  13   81.39   13.30
  -5  -1 -13   96.99   16.80
  -5  -1 -13   93.49   12.40
   5  -1  13   78.19   13.10
   5   1 -13  114.49   16.30
   5  -1  13  145.89   20.00
   5   2  13   72.69   10.50
  -5   2 -13   58.39   11.00
  -5   2 -13   56.79   17.80
  -5   2 -13   71.79   10.30
   5  -2 -13   78.29   12.20
  -5  -2  13   74.79   13.20
   5   2  13   78.19   13.20
   5   2 -13   66.29   13.60
   5  -2  13   75.99   12.80
  -5  -2 -13   66.99   10.70
  -5   2  13   94.49   15.40
   5  -2  13  107.59   15.30
   5  -2  13   97.49   14.50
   5   2 -13   85.19   12.40
  -5   2  13   86.49   11.40
  -5   2  13   61.79   13.50
  -5  -2 -13   93.59   16.90
   5   3  13   57.59    9.80
  -5   3 -13   47.00   11.60
  -5  -3  13   46.20    8.70
   5   3  13   31.50   12.40
  -5   3 -13   59.49   10.50
  -5  -3  13   36.30   13.00
  -5   3 -13   80.99   19.90
   5  -3 -13   49.60   12.80
   5  -3  13   52.09   14.20
   5   3 -13   54.29   13.60
  -5   3  13   73.79   11.60
   5  -3  13   44.50   12.90
  -5   3  13   67.49   13.30
  -5  -3 -13   85.69   17.90
  -5  -3 -13   48.10    7.40
  -5  -3 -13   45.80    9.10
   5   3 -13   85.09   13.60
  -5  -4  13   34.40   13.30
  -5   4 -13   38.00   21.00
  -5  -4  13   45.00   10.00
  -5   4 -13   31.70   11.90
   5  -4 -13   35.10   12.90
   5   4  13   43.00   10.60
  -5   4 -13   42.30   12.40
   5   4  13   30.80   12.40
   5  -4  13   73.09   17.30
   5   4 -13   31.60   14.40
   5   4 -13   53.59   11.30
  -5   4  13   23.20   11.40
   5   4 -13   80.29   15.60
   5  -4  13   16.20   13.60
  -5  -4 -13   36.30    9.00
  -5  -4 -13   56.69   17.90
  -5   5 -13    2.50   17.40
  -5  -5  13    3.40    9.80
  -5   5 -13   12.50   24.00
   5   5  13   18.70   11.80
   5  -5 -13  -11.50   14.30
  -5  -5  13    0.80   14.60
   5   5  13   19.90   14.40
  -5   5 -13    4.70   11.80
  -5   5  13   18.80   12.90
  -5   5  13   33.00   11.40
   5   5 -13   15.60   10.30
  -5  -5 -13   19.10   10.40
  -5  -5 -13   37.60   19.50
   5   5 -13    7.10   17.00
   5  -5  13   32.60   17.30
   5   5 -13    3.30   19.30
  -6   0 -13  173.98   15.60
   6   0 -13  150.38   17.90
  -6   0 -13  117.09   20.90
  -6   0  13  157.98   19.20
   6   0  13  153.58   21.40
   6   0  13  205.18   18.20
  -6   0  13  133.09   17.70
  -6   0  13  177.18   17.30
   6   1  13  151.38   19.40
  -6  -1  13  146.79   17.40
   6  -1 -13  152.58   17.40
  -6   1 -13  113.59   17.10
   6   1  13  136.89   16.00
  -6   1 -13  132.69   21.60
  -6  -1 -13  111.79   19.50
  -6  -1 -13  134.39   13.60
   6   1 -13  113.29   18.40
  -6   1  13  112.89   17.10
   6  -1  13  186.78   22.90
  -6   1  13  113.49   15.20
  -6   1  13  168.38   21.70
   6  -1  13  136.09   17.40
   6   1 -13  115.19   21.50
  -6  -2  13  125.89   18.10
  -6   2 -13  144.09   18.10
   6   2  13  110.09   15.00
   6   2  13  131.99   19.80
  -6   2 -13  117.99   21.20
  -6   2 -13   87.79   13.80
   6  -2 -13  143.79   18.00
  -6   2  13  142.59   17.60
  -6  -2 -13  119.49   16.00
   6   2 -13  137.39   18.30
  -6   2  13  127.99   16.80
   6  -2  13  122.49   17.20
  -6  -2 -13  101.19   19.30
   6   2 -13  117.89   17.40
   6  -2  13  181.28   23.50
  -6  -2 -13   95.59   12.00
  -6   2  13  102.89   16.20
   6   3  13  102.79   15.00
  -6   3 -13   83.89   22.00
  -6   3 -13   97.39   13.70
  -6   3 -13   61.09   13.60
   6   3  13   95.79   15.40
  -6  -3  13   87.39   12.70
   6  -3 -13   83.79   13.80
  -6  -3  13   58.19   14.40
   6   3 -13  102.89   14.20
  -6  -3 -13  102.99   20.10
  -6   3  13   67.09   13.10
   6   3 -13   75.89   16.10
  -6   3  13   82.39   14.00
   6  -3  13   88.69   17.00
  -6  -3 -13   62.49   11.80
  -6  -4  13   40.90   15.30
   6   4  13   47.90   15.10
   6   4  13   65.49   12.10
   6  -4 -13   92.89   14.50
  -6   4 -13   50.19   24.20
  -6  -4  13   70.09   11.20
  -6   4 -13   97.29   14.30
   6   4 -13   68.69   15.30
  -6  -4 -13   61.99   20.60
  -6  -4 -13  104.49   17.00
  -6   4  13   71.29   14.00
   6  -4  13  112.49   19.50
   6   4 -13   83.39   12.90
   6   4 -13   36.30   16.10
  -6   5 -13   55.49   27.80
  -6   5 -13   49.10   15.20
   6  -5 -13    9.70   16.00
  -6  -5  13   13.40   15.10
  -6   5 -13   27.20   15.10
  -6  -5  13   33.60   11.20
   6   5  13   33.10   12.70
   6   5  13   45.60   15.70
  -6   5  13   53.29   14.10
   6  -5  13   41.80   18.80
  -6  -5 -13   24.50   12.50
   6   5 -13   70.99   18.70
   6   5 -13   39.00   12.00
  -6  -5 -13   39.40   21.60
  -6   5  13   40.00   14.70
  -7   0  13  366.76   27.10
  -7   0 -13  324.27   26.40
  -7   0 -13  356.36   24.90
  -7   0 -13  349.77   35.80
   7   0  13  398.06   26.50
  -7   0 -13  336.77   32.90
   7   0  13  368.76   30.70
   7   0 -13  351.06   27.30
  -7   1 -13   19.00   10.10
  -7  -1  13    4.10   14.80
   7   1  13   -3.80   11.30
  -7   1 -13    0.80   11.20
  -7   1 -13   -4.10   17.50
   7  -1 -13  -15.10    9.70
   7   1 -13   -4.20    9.80
  -7   1  13   23.70   17.50
  -7  -1 -13   28.90   17.40
  -7   1  13   21.70   12.20
  -7   1  13   -4.50   10.20
  -7  -1 -13  -14.30    8.80
   7  -1  13    0.30    9.80
   7  -1  13   20.70   14.60
  -7  -1 -13    2.50    7.40
  -7   2 -13  281.97   23.90
  -7   2 -13  245.38   36.10
  -7  -2  13  246.68   24.30
   7   2  13  282.17   22.50
   7  -2 -13  242.98   23.60
  -7   2 -13  290.67   24.20
   7  -2  13  310.97   24.30
   7  -2  13  307.27   29.50
   7   2 -13  286.77   25.20
  -7   2  13  299.87   23.10
  -7  -2 -13  225.48   22.50
  -7  -2 -13  346.77   34.10
  -7   2  13  242.88   29.40
  -7   2  13  272.37   24.00
   7  -3 -13   -2.00   11.60
  -7   3 -13   13.30   12.60
  -7   3 -13  -11.60   11.70
   7   3  13    7.00    9.20
  -7  -3  13   -4.90   13.10
  -7   3 -13   -1.20   20.40
   7   3  13   -5.50   14.50
   7   3 -13   -0.90   11.70
   7  -3  13   -7.70   15.70
  -7  -3 -13   15.60   18.00
  -7   3  13    2.20   11.90
  -7  -3 -13   18.30   11.10
  -7   4 -13  186.58   30.40
   7   4  13  157.08   19.70
  -7   4 -13  174.68   19.60
  -7   4 -13  113.59   18.00
  -7  -4  13  174.98   17.50
  -7  -4  13  105.59   19.60
   7  -4 -13  119.79   17.20
   7   4  13  125.09   19.20
   7   4 -13  167.58   19.20
  -7  -4 -13  136.89   24.50
   7  -4  13  206.78   31.40
  -7  -4 -13  116.59   17.50
  -7   4  13  152.68   23.00
  -8   0 -13  153.68   19.20
   8   0  13  182.98   19.80
  -8   0 -13  120.49   16.60
   8   0 -13  128.29   16.30
   8   0  13  194.68   25.90
  -8   0 -13  117.79   25.50
  -8   0  13  152.68   19.20
  -8   1 -13   13.50   11.10
   8  -1 -13   17.40   11.20
   8   1  13  -10.20    9.60
  -8  -1  13    7.00   11.80
   8   1  13   -3.30   13.40
  -8   1 -13  -22.50   20.50
  -8   1 -13   -8.90   11.20
  -8  -1 -13    6.70    7.70
   8   1 -13    4.40   11.50
   8  -1  13    8.50   11.00
  -8  -1 -13   -7.10   19.70
   8  -1  13    3.40   15.80
  -8  -1 -13    6.60   10.00
  -8   1  13    2.70   11.50
  -8   2 -13  107.39   26.30
  -8  -2  13  106.09   18.50
   8   2  13  115.99   18.00
  -8   2 -13  139.79   21.00
  -8   2 -13  111.99   14.90
   8  -2 -13  121.69   19.40
   8   2  13  105.99   17.00
   8  -2  13  109.79   14.80
  -8  -2 -13   83.39   23.40
  -8   2  13  121.39   15.10
   8   2 -13  110.29   15.50
  -8  -2 -13  101.39   14.60
  -8   2  13   63.99   19.20
  -8   2  13  115.69   18.70
  -8   3 -13  -16.50   13.30
   8   3  13   28.40   15.40
   8   3  13   -3.50    9.80
   8  -3 -13   -9.50   11.30
  -8   3 -13   13.50   14.30
  -8   3 -13    7.80   25.90
  -8  -3  13    6.60   13.50
  -8   3  13   -2.00   13.50
   8  -3  13   30.40   18.70
  -8  -3 -13   -1.40   10.90
  -8   3  13    2.30   11.80
  -8  -3 -13  -23.10   20.40
   8   3 -13   -1.70   13.50
  -9   0  13  117.69   18.70
  -9   0 -13   56.59   16.20
  -9   0 -13   99.09   13.00
  -9   0 -13   84.29   26.20
   9   0  13  107.79   19.70
   9   0  13   95.69   14.90
   9   0 -13  132.49   20.50
   9   1  13  126.19   19.00
  -9  -1  13   72.09   15.30
   9   1  13   87.19   19.00
  -9   1 -13   58.49   13.70
   9  -1 -13   77.99   14.40
  -9   1 -13   58.49   26.60
  -9   1 -13   70.89   16.70
  -9   1  13   66.49   16.10
  -9  -1 -13  110.89   26.40
   9  -1  13   82.89   14.20
   9  -1  13   71.29   17.70
  -9   1  13  110.49   21.10
   9   1 -13   66.39   14.10
  -9  -1 -13   46.70   13.40
   9   2  13   71.79   13.20
  -9  -2  13   53.99   15.80
  -9   2 -13   93.09   15.50
  -9   2 -13  143.09   28.10
   9   2  13   51.79   18.40
  -9   2 -13   66.59   16.30
   9  -2 -13   67.69   14.10
  -9   2  13   66.89   16.00
   9  -2  13   71.99   14.50
  -9   2  13   57.19   14.90
  -9  -2 -13  100.69   26.50
   9   2 -13   81.99   16.40
  -9  -2 -13   49.99   13.10
   9  -2  13   87.19   19.00
 -10   0 -13  -13.80   13.70
 -10   0  13   -3.60   13.00
  10   0  13    9.80   13.20
  10   0 -13    0.30   14.00
 -10   0 -13  -29.70   25.70
   0   0 -14  287.87   24.40
   0   0  14  322.27   23.20
   0   0  14  286.67   22.80
   0   0  14  230.38   21.60
   0  -1  14    9.40    9.30
   0  -1  14    6.20   10.30
   0   1 -14    9.00    7.10
   0   1  14  -17.30    9.40
   0   1 -14   13.10   11.60
   0  -1 -14    2.10   10.10
   0  -1  14  -11.50   10.90
   0   1  14   -6.80   10.80
   0  -2  14  208.58   19.90
   0  -2  14  186.48   20.00
   0   2 -14  228.18   23.90
   0  -2 -14  205.58   23.00
   0   2 -14  235.08   18.90
   0   2  14  225.78   19.90
   0  -2  14  285.37   24.30
   0  -3  14    5.10    6.40
   0  -3  14   29.40   10.60
   0  -3 -14   21.00   13.40
   0   3  14    8.10   10.40
   0  -3  14   -3.60   11.60
   0   3  14    8.60    7.90
   0   3 -14    3.10    8.20
   0   3 -14    3.70   13.30
   0  -3  14   -2.30   12.30
   0  -4 -14  106.59   16.20
   0  -4  14  119.39   12.30
   0  -4 -14  103.49   17.40
   0   4  14  116.69   17.80
   0   4  14  106.79   17.20
   0   4 -14  107.69   16.80
   0  -4  14   89.39   17.00
   0   4 -14  127.99   22.20
   0   5 -14   55.29   21.70
   0  -5 -14    1.10   15.80
   0  -5  14   10.40    7.80
   0  -5  14   20.70   15.60
   0   5  14   23.90   12.70
   1   0 -14   44.10   11.40
  -1   0  14   26.60   10.70
  -1   0 -14   36.60   11.70
  -1   0  14   35.20   10.80
  -1   0  14   56.39   11.00
   1   0  14   23.20   10.80
  -1   0 -14   57.89    8.70
   1   0  14   36.60   11.30
  -1   1 -14   52.39    8.90
  -1   1 -14   47.50   12.80
  -1  -1  14   51.19   10.70
   1   1  14   42.80   11.60
   1   1  14   39.60    7.50
   1   1  14   38.50   10.60
  -1  -1  14   45.10   11.80
  -1  -1  14   45.10   12.30
   1  -1 -14   47.90   11.50
   1  -1  14   52.29   12.10
   1   1 -14   68.49   13.30
  -1   1  14   31.10   10.60
   1  -1  14   23.00   11.60
  -1   1  14   36.70   10.60
  -1   1  14   66.19   12.60
  -1  -1 -14   58.39   12.50
   1  -1  14   45.60   10.70
   1  -2 -14   36.00   11.90
  -1   2 -14   32.90    8.50
   1   2  14   24.60    7.40
  -1  -2  14   22.20   11.70
  -1   2 -14   48.30   15.20
  -1  -2  14   15.00    9.90
   1   2  14   17.70    9.90
  -1  -2  14   27.90   13.20
  -1   2  14   28.40   10.00
   1  -2  14   26.80   12.00
  -1  -2 -14   31.80   11.10
   1  -2  14   33.80   18.80
   1  -2  14   12.70    5.70
   1  -2  14   16.60   10.40
   1   2 -14   33.60    9.20
   1   2 -14    2.50   11.80
  -1   3 -14   47.60   16.80
   1  -3 -14   27.80   13.00
   1   3  14   24.90   10.50
  -1  -3  14   38.60    7.40
  -1   3 -14   18.30    8.80
  -1  -3  14    1.60   11.60
   1   3  14   30.20    8.50
   1  -3  14   26.10    6.40
  -1   3  14   16.00    8.00
   1  -3  14   33.70   13.30
   1   3 -14   38.60   14.50
  -1  -3 -14   41.80   12.60
   1  -3  14   51.49   13.30
   1   3 -14   27.10    9.50
  -1   3  14    7.10   10.70
   1  -3  14   32.00   10.30
   1   4  14    3.80   10.20
  -1  -4  14   -2.30    7.70
  -1   4 -14   -0.80    9.20
   1  -4 -14   -4.70   13.60
  -1   4 -14   31.50   18.50
  -1  -4  14    7.70   13.00
   1  -4 -14   26.10   14.30
   1   4 -14  -16.90    8.70
   1  -4  14   -3.70    6.40
  -1  -4 -14    1.40   11.90
  -1   4  14   11.00   15.10
   1  -4  14    4.50   13.90
   1   4 -14   41.60   17.50
  -1  -4 -14   32.40   14.00
   1   5  14   -3.40   11.90
  -1   5 -14  -11.20   21.70
   1  -5 -14   12.20   15.30
  -1  -5  14    6.60   15.10
  -1   5 -14   -4.70    9.80
  -1  -5  14    1.50    8.20
   1   5  14   25.10   12.40
   1  -5  14    0.70    7.20
   1  -5  14   17.70   21.30
  -1   5  14   -1.00   12.70
   1   5 -14   44.90   21.60
   1   5 -14   -8.90   10.10
  -1   5  14   24.40   12.50
  -1  -5 -14    7.10   16.50
   2   0  14   71.29   12.90
   2   0  14   53.99   11.70
  -2   0  14   70.89   12.20
   2   0 -14   78.79   13.00
  -2   0 -14  102.99   16.50
   2   0  14   97.39   13.10
  -2   0  14   76.69   12.40
  -2   0 -14   78.09    9.80
  -2   0  14   70.49   12.20
  -2  -1  14  121.19   17.50
   2   1  14  117.89   13.20
   2   1  14   94.79   13.60
   2  -1 -14  112.99   17.80
  -2   1 -14   97.19   16.30
  -2  -1  14  106.79   17.20
  -2   1 -14  110.29   14.40
  -2  -1  14   86.29   14.40
  -2  -1 -14  138.79   19.30
   2  -1  14   93.39   13.20
   2   1 -14  134.69   18.70
   2  -1  14  131.09   19.60
  -2   1  14  114.19   16.30
  -2   1  14   90.09   14.70
  -2   1  14  103.69   15.30
   2   2  14   56.49    9.30
  -2   2 -14   89.49   17.40
   2   2  14   60.29   11.90
   2  -2 -14   48.70   11.50
  -2   2 -14   77.59   10.30
  -2  -2  14   54.89   13.30
  -2  -2  14   83.09   13.80
   2  -2  14   91.89   16.00
  -2   2  14   64.59   12.50
   2   2 -14   74.59   14.80
  -2   2  14   56.09   15.00
   2   2 -14   69.79   10.10
  -2  -2 -14   73.69   14.20
   2  -2  14   69.19   12.90
   2  -2  14   56.29   11.20
   2  -2  14   60.09    7.20
  -2   3 -14   50.79   11.30
   2   3  14   64.79   12.70
  -2  -3  14   44.90   13.70
   2  -3 -14   59.49   12.10
  -2  -3  14   78.79   12.10
   2   3  14   57.79   11.90
  -2   3 -14   72.89   18.60
   2  -3  14   89.39   15.80
  -2  -3 -14   47.60   13.40
   2  -3  14   59.09   14.00
   2  -3  14   65.59    9.40
  -2   3  14   56.29   12.00
   2   3 -14   74.19   15.40
   2   3 -14   67.89   10.80
   2  -3  14   71.09   11.90
  -2   3  14   97.09   14.70
  -2   4 -14   34.20   10.90
  -2   4 -14   38.50   20.40
  -2  -4  14   41.60    8.80
   2  -4 -14   28.50   12.70
   2   4  14   38.10   11.40
   2   4  14   31.00   10.50
  -2   4  14   45.80   15.00
  -2  -4 -14   51.69   13.30
   2   4 -14   33.60    9.30
  -2   4  14   41.70   10.60
  -2  -4 -14   31.90   14.70
   2  -4  14   50.29   15.10
   2   4 -14   51.89   16.50
  -2   4  14    2.10   11.40
   2  -4  14   36.80    7.60
  -2  -5  14   21.00   15.40
   2   5  14   -5.20   13.00
   2   5  14   31.00   12.80
  -2  -5  14   21.10    9.10
  -2   5 -14    9.70   24.10
   2  -5 -14   21.50   15.30
  -2   5 -14   -6.90   10.40
   2   5 -14   22.00   11.30
  -2   5  14   22.20   13.00
  -2   5  14   26.50   15.70
   2  -5  14   24.90    8.10
  -2   5  14   28.50   13.10
  -2  -5 -14   42.50   17.70
   2   5 -14   43.70   20.60
  -3   0  14  148.79   21.50
   3   0  14  138.29   15.80
   3   0  14  108.99   17.10
  -3   0  14  126.39   19.10
   3   0  14  146.39   18.30
  -3   0 -14  158.18   23.60
  -3   0 -14  128.49   15.00
  -3   0  14  117.39   16.80
   3   0 -14  131.19   17.80
  -3  -1  14  308.17   26.40
  -3  -1  14  341.87   26.10
   3   1  14  358.16   27.00
  -3   1 -14  405.16   25.20
   3   1  14  327.87   23.90
  -3   1 -14  386.96   32.50
   3  -1 -14  336.57   26.70
  -3  -1  14  373.06   26.40
  -3   1  14  371.16   25.80
   3   1 -14  338.27   27.20
   3  -1  14  361.36   24.40
  -3  -1 -14  390.06   31.30
  -3   1  14  340.87   28.60
  -3  -1 -14  372.66   24.10
   3  -1  14  408.36   29.20
   3  -1  14  337.67   26.50
  -3   1  14  347.27   25.90
   3   2  14   83.29   12.90
  -3   2 -14  102.79   15.20
   3   2  14   82.89   12.30
   3  -2 -14  120.79   17.10
  -3   2 -14   71.29   10.60
  -3   2 -14  114.89   19.20
  -3  -2  14   79.09   14.30
  -3  -2 -14   91.49   15.50
  -3   2  14   86.59   15.60
   3  -2  14   88.19   13.30
   3   2 -14   79.39   14.00
  -3   2  14   98.79   16.10
   3  -2  14  138.69   17.80
   3  -2  14   83.99    9.40
  -3  -2 -14   94.19   10.90
  -3  -3  14  170.38   21.20
  -3   3 -14  200.88   19.60
  -3   3 -14  215.98   20.70
  -3   3 -14  270.27   32.20
   3   3  14  203.58   21.20
   3  -3 -14  229.68   22.60
   3   3  14  195.48   19.80
   3  -3  14  267.97   26.70
   3   3 -14  276.97   21.80
  -3   3  14  209.58   20.70
  -3  -3 -14  222.58   26.40
  -3   3  14  263.07   22.50
   3  -3  14  219.68   15.80
   3  -3  14  226.58   22.60
   3   3 -14  247.88   26.80
  -3   4 -14   16.30   21.20
  -3  -4  14   56.89   10.30
  -3  -4  14   24.40   14.60
   3   4  14   54.59   13.10
   3   4  14   57.89   11.70
   3  -4 -14   79.19   15.20
  -3   4 -14   36.00   11.50
  -3  -4 -14   37.30   16.20
  -3   4  14   67.19   13.00
  -3   4  14   69.99   15.20
  -3   4  14   61.09   11.40
   3  -4  14   63.99   16.90
   3   4 -14   62.79   16.90
   3  -4  14   59.29    8.10
   3   4 -14   56.89   11.70
  -3  -5  14   94.89   12.10
   3   5  14   81.79   14.90
  -3  -5  14   68.99   18.30
  -3   5 -14  101.49   27.60
  -3   5 -14   85.59   13.50
   3  -5 -14   67.89   16.10
   3   5  14   73.89   15.20
  -3   5  14  122.79   17.70
   3   5 -14   84.19   22.30
  -3  -5 -14   82.39   14.80
  -3   5  14   95.19   14.50
   3  -5  14   89.49   12.00
   3   5 -14   56.29   12.20
  -3   5  14   69.99   15.10
  -3  -5 -14   81.39   21.20
  -4   0  14   63.19   12.40
  -4   0 -14   48.80   11.90
  -4   0  14   74.79   13.70
  -4   0 -14   43.40   15.30
   4   0 -14   60.29   11.30
   4   0  14   66.39   10.90
   4   0  14   55.59   12.40
  -4   1 -14   14.90   15.20
   4  -1 -14   11.40   10.50
  -4   1 -14   11.80    8.50
  -4  -1  14   -0.80   10.00
  -4  -1  14  -11.80   10.50
  -4  -1  14    9.80   11.00
  -4   1 -14   -1.80    8.60
   4   1  14   11.00   11.80
  -4   1  14   10.60   10.20
  -4   1  14   12.90   11.00
  -4  -1 -14    5.50   15.60
   4  -1  14   20.50   13.20
   4  -1  14   10.80    9.00
   4   1 -14   -9.00    9.70
  -4  -1 -14    2.90    7.70
   4   2  14   47.00    9.60
  -4   2 -14   42.90   10.00
  -4   2 -14   42.60   17.60
   4  -2 -14   64.89   13.20
   4   2  14   40.20   12.40
  -4  -2  14   42.50   13.00
  -4   2 -14   49.99   10.20
  -4   2  14   50.09   12.30
  -4   2  14   56.19   13.30
   4  -2  14   26.40   12.00
  -4  -2 -14   41.60    8.60
  -4  -2 -14   54.69   16.30
   4  -2  14   54.39   16.10
   4   2 -14   41.20   12.40
   4   3  14    9.20    9.60
   4   3  14   -5.00   11.80
   4  -3 -14   -1.60   11.10
  -4  -3  14   -4.20   11.80
  -4   3 -14  -19.50   10.80
  -4   3 -14   -7.50    9.80
  -4   3 -14  -21.90   18.40
   4   3 -14   -4.10    8.80
  -4  -3 -14   -7.50   16.10
   4  -3  14    5.00   14.90
  -4   3  14   -1.40   12.50
  -4  -3 -14    1.20    7.70
  -4   3  14    1.90   11.10
   4   3 -14   15.40   13.90
   4  -3  14    1.50   12.20
   4  -4 -14   22.50   14.40
  -4  -4  14   22.40    9.80
  -4   4 -14   76.49   22.10
  -4   4 -14   31.60   11.80
   4   4  14    3.60   10.50
   4   4  14   29.40   13.70
  -4  -4  14    4.10   14.10
   4   4 -14    8.90   10.20
  -4  -4 -14   24.70   17.80
   4  -4  14   17.60    7.20
  -4   4  14   14.90   13.00
   4  -4  14   53.69   18.60
  -4  -4 -14   23.70    8.90
   4   4 -14   43.30   17.30
  -4   4  14   26.30   14.10
  -4   5 -14  -15.40   12.30
  -4  -5  14   -2.90   10.50
  -4  -5  14   17.40   13.90
   4  -5 -14    9.20   15.00
   4   5  14   17.90   17.60
  -4   5 -14  -28.00   25.80
   4   5  14  -10.80   12.60
   4  -5  14   13.30   18.60
   4   5 -14    0.90   19.30
  -4   5  14    1.70   15.90
  -4   5  14   -2.20   13.40
   4   5 -14   -7.40   11.20
  -4   5  14    6.30   14.80
   4  -5  14   -4.00    8.10
  -4  -5 -14   -7.10   20.50
  -4  -5 -14   -9.40   11.60
   5   0  14  202.08   24.80
  -5   0  14  221.28   21.90
  -5   0  14  261.47   22.20
  -5   0 -14  253.57   30.80
   5   0 -14  246.98   23.30
   5   0  14  275.07   22.20
  -5   0  14  241.28   23.10
  -5   1 -14  -11.00    9.50
  -5   1 -14    2.90    8.20
  -5   1 -14   14.50   15.10
  -5  -1  14    3.50   10.80
   5   1  14    9.40   11.40
   5   1  14   -0.30    8.80
   5  -1 -14   -8.90   10.60
   5   1 -14   16.00   10.50
   5  -1  14    4.00    9.80
  -5  -1 -14   12.50    7.90
  -5  -1 -14    6.30   15.50
  -5   1  14   -3.40   12.50
  -5   1  14    7.50   11.50
   5  -1  14   33.40   14.60
  -5   1  14    7.30   11.10
  -5   2 -14  141.59   23.90
   5   2  14  187.48   18.80
  -5  -2  14  182.88   21.60
   5   2  14  178.88   22.40
   5  -2 -14  145.59   21.40
  -5   2 -14  191.88   19.60
  -5   2 -14  191.18   20.40
  -5   2  14  227.08   21.30
  -5  -2 -14  223.08   29.10
   5  -2  14  193.88   20.10
   5  -2  14  250.87   27.30
   5   2 -14  170.18   22.40
  -5   2  14  205.58   20.80
  -5  -2 -14  192.08   16.40
  -5  -3  14   11.70   12.60
   5  -3 -14  -17.30   12.30
  -5   3 -14   10.80   12.40
   5   3  14    2.80    9.60
  -5   3 -14   31.70   20.40
  -5   3 -14   19.40   10.80
   5   3  14   -9.10   11.60
  -5   3  14   -6.10   12.10
  -5  -3 -14   36.50   17.60
  -5  -3 -14   11.40    8.60
  -5  -3 -14    2.20    7.30
   5   3 -14   -4.40   12.80
  -5   3  14   12.70   11.70
   5  -3  14   20.30   16.10
   5   4  14  100.79   14.20
  -5   4 -14   90.89   16.10
  -5  -4  14   66.99   12.20
   5  -4 -14   76.99   15.20
  -5  -4  14   76.99   17.50
  -5   4 -14   78.79   26.00
   5   4  14   52.09   15.30
  -5  -4 -14  104.29   22.20
  -5  -4 -14   79.89   13.70
  -5   4  14   98.29   15.90
   5   4 -14  120.19   20.10
  -5   4  14  121.99   19.90
   5  -4  14  128.29   21.10
   5   4 -14   82.49   13.80
   6   0  14   93.59   16.40
   6   0  14   95.19   13.00
   6   0 -14   64.19   13.80
  -6   0 -14   81.09   20.20
  -6   0 -14   84.89   12.50
  -6   0  14   80.19   19.20
  -6   0  14   96.69   13.60
  -6   0  14   70.49   14.30
  -6   1 -14   91.29   22.40
   6  -1 -14  100.29   15.40
   6   1  14  116.29   16.80
  -6   1 -14  123.89   17.90
  -6  -1  14  112.89   19.60
   6   1  14  103.19   17.30
  -6   1 -14   91.99   14.60
  -6   1  14  144.69   19.70
   6  -1  14  138.59   19.10
  -6  -1 -14   88.29   20.50
  -6   1  14   67.39   16.10
  -6  -1 -14  109.09   14.40
  -6   1  14  123.09   17.80
   6   1 -14  126.69   16.50
   6  -1  14  131.19   19.20
  -6   2 -14   45.30   13.20
   6  -2 -14   47.60   14.20
   6   2  14   68.89   11.60
  -6   2 -14   67.89   12.60
   6   2  14   74.79   15.40
  -6   2 -14   75.79   20.90
  -6  -2  14   58.59   14.60
  -6  -2 -14   65.59   13.00
   6  -2  14   65.69   12.70
  -6  -2 -14   48.70    8.90
  -6   2  14   62.19   17.30
   6  -2  14   51.69   17.00
  -6   2  14   47.40   13.40
   6   2 -14   69.69   13.60
  -6  -2 -14   78.49   20.90
  -6   2  14   65.49   15.30
  -6   3 -14   46.20   23.70
   6   3  14   88.39   16.10
  -6  -3  14   81.89   16.80
   6   3  14   83.89   13.10
   6  -3 -14   53.09   15.70
  -6   3 -14   76.99   14.90
  -6   3  14   85.59   16.40
   6   3 -14   87.99   16.30
   6  -3  14   80.49   19.80
  -6   3  14   79.09   14.70
  -6  -3 -14   53.79   21.00
  -6  -4  14   37.20   14.80
  -6   4 -14   43.90   30.00
   6  -4 -14   19.30   18.80
  -6  -4  14   45.40   13.30
   6   4  14    1.10   17.00
   6   4  14   40.10   12.80
  -6   4 -14   42.00   15.50
  -6   4  14    9.20   15.50
  -6   4  14   44.60   16.60
   6  -4  14   69.49   21.10
  -6  -4 -14    6.10   21.60
   6   4 -14   72.99   18.00
   6   4 -14   22.10   13.10
  -6  -4 -14   34.80   12.60
  -7   0 -14   10.40   18.90
   7   0  14   17.90   11.80
   7   0 -14  -18.40   11.70
   7   0  14  -18.30   14.60
  -7   0 -14   -4.30   10.40
  -7   0  14    4.70   11.70
  -7   0 -14   12.80   11.20
  -7   1 -14   33.70   20.00
  -7  -1  14   29.10   13.30
  -7   1 -14    5.30   11.90
   7   1  14   21.20   15.30
   7  -1 -14   19.80   12.90
  -7   1 -14   53.09   14.00
   7   1  14   20.70   11.20
  -7   1  14   51.79   14.50
  -7  -1 -14   70.09   22.20
   7   1 -14   16.00   13.70
   7  -1  14   59.69   12.40
  -7  -1 -14   32.10    9.80
  -7   1  14   55.99   13.90
  -7  -1 -14   29.80   12.20
   7   2  14    2.30   14.00
   7   2  14   10.20   10.70
  -7   2 -14  -33.60   20.10
  -7   2 -14   -4.90   12.30
  -7   2 -14   13.80   13.20
   7  -2 -14   -6.80   11.50
  -7  -2  14   -4.10   13.00
  -7   2  14   -4.90   13.10
   7   2 -14   23.80   13.80
  -7  -2 -14   -1.70   21.60
  -7   2  14   -8.20   13.70
   7  -2  14    5.20   12.50
   7  -2  14    9.80   18.60
  -7  -2 -14  -14.50    9.40
  -7   3 -14   33.90   14.80
   7  -3 -14   13.00   13.40
  -7  -3  14   22.10   14.70
  -7   3 -14   35.70   15.70
  -7   3 -14   42.90   25.30
   7   3  14   13.00   11.50
   7   3  14   10.50   15.40
  -7   3  14   -1.70   14.60
  -7  -3 -14   32.60   10.60
   7   3 -14   25.30   14.90
  -7   3  14   22.40   14.40
  -7  -3 -14   52.59   22.80
   7  -3  14   14.00   19.90
   8   0  14   25.50   13.30
   8   0  14   69.89   18.70
  -8   0  14   36.80   14.50
  -8   0 -14   24.40   24.50
  -8   0 -14   30.60   12.80
   8   0 -14   54.59   14.70
  -8   0 -14   26.80   11.40
  -8   1 -14  101.59   28.50
   8   1  14  148.69   20.80
   8   1  14  141.49   22.10
  -8   1 -14  130.29   16.00
   8  -1 -14  108.49   17.90
  -8   1 -14  149.59   19.90
  -8  -1  14  128.09   19.20
   8   1 -14  120.39   18.30
   8  -1  14  176.58   23.50
  -8   1  14  178.08   23.60
  -8  -1 -14  175.08   22.00
  -8  -1 -14  129.49   27.10
   8  -1  14  191.58   30.20
  -8   1  14  144.29   21.20
  -8   2 -14   46.50   27.60
  -8   2 -14   13.70   13.90
   8  -2 -14   14.40   14.10
  -8   2 -14   49.99   16.50
   8   2  14    6.40   19.90
   8   2  14   43.90   12.70
  -8  -2  14   17.60   15.10
   8   2 -14   18.30   15.90
  -8  -2 -14   25.80   14.80
  -8  -2 -14   20.10   25.30
   8  -2  14   50.69   14.40
  -8   2  14   21.60   16.00
  -8   2  14   24.40   14.80
   0   0  15   -6.20   12.30
   0   0  15   14.00   12.20
   0   0 -15  -10.00   12.30
   0   1  15   75.19   13.10
   0  -1  15   49.80   12.70
   0   1 -15   59.69   11.40
   0  -1  15   72.39   15.30
   0  -1  15   41.40   12.70
   0   1 -15   66.29   15.10
   0  -1 -15   71.49   15.10
   0   2 -15    5.90   13.70
   0   2 -15    6.60    8.30
   0  -2  15   17.40   11.80
   0  -2  15   -1.70   12.30
   0  -2  15   18.50   16.10
   0  -2 -15   22.60   12.40
   0   2  15   -5.50   11.80
   0  -3  15   28.60   14.50
   0  -3  15   33.20   15.20
   0   3  15   44.00   12.80
   0  -3 -15   53.69   15.10
   0   3 -15   16.60    9.40
   0   3  15   16.10    9.80
   0   3 -15   54.39   17.80
   0   4  15  -24.60   12.80
   0  -4  15   -2.10   15.90
   0   4 -15  -20.90    9.90
   0   4  15   -6.50   11.10
   0  -4  15   -4.30    8.10
   0  -4 -15   18.40   15.80
   0   4 -15   13.90   21.20
  -1   0 -15   55.69    9.70
  -1   0  15   42.40   13.00
  -1   0 -15   40.10   14.40
  -1   0  15   31.10   12.60
   1   0  15   68.19   13.40
  -1   0  15   37.60   13.60
   1   0 -15   45.40   13.60
   1   0  15   44.60   16.10
  -1  -1  15   29.30   12.40
   1  -1 -15   56.29   14.40
   1   1  15   40.70   12.80
  -1   1 -15   70.49   14.40
  -1  -1  15   50.39   13.50
  -1  -1  15   39.60   14.30
  -1   1 -15   34.30    9.20
  -1   1  15   37.40   12.70
   1   1 -15   52.59   14.00
  -1  -1 -15   41.70   14.00
   1  -1  15   33.30   14.40
   1  -1  15   50.59   12.90
   1   1 -15   55.89    9.50
  -1   1  15   17.70   11.50
   1   2  15   23.30    8.80
  -1  -2  15   55.09   15.90
   1   2  15   20.20   12.30
  -1  -2  15   17.40   12.70
  -1   2 -15   24.10   15.40
  -1   2 -15   22.50    9.80
   1  -2 -15   49.20   14.40
  -1  -2  15   26.90   12.30
   1  -2  15   35.80   12.20
   1   2 -15   21.00    9.80
  -1  -2 -15   35.70   13.40
  -1   2  15   42.90   12.40
   1  -2  15   51.49   17.00
   1  -2  15   44.40   14.40
   1   2 -15   18.20   15.00
   1  -3 -15   34.90   14.90
  -1   3 -15   50.19   19.00
  -1   3 -15   27.50   10.90
  -1  -3  15   36.70   14.60
   1   3  15    4.10   19.70
   1   3  15   28.00   13.00
   1   3 -15   39.60   10.50
  -1   3  15   47.00   12.30
  -1  -3 -15   23.90   14.30
   1   3 -15   23.80   16.00
  -1   3  15   15.50    9.20
   1  -3  15   16.90   21.50
   1  -3  15   26.00    8.20
  -1   4 -15   31.40   10.70
  -1  -4  15   12.50    9.00
   1   4  15   16.90   11.80
   1  -4 -15   66.59   18.20
  -1  -4  15   23.30   23.30
  -1   4 -15   35.50   22.00
   1   4  15   10.80   12.50
  -1   4  15    5.70   13.50
   1  -4  15    9.10    8.20
  -1   4  15   -5.50   11.40
  -1  -4 -15  -23.30   15.00
   1  -4  15   14.80   15.60
   1   4 -15   14.00   10.90
   1   4 -15   23.10   20.80
   2   0 -15  303.17   26.80
  -2   0  15  285.37   25.00
  -2   0  15  241.28   26.10
  -2   0  15  221.28   23.30
   2   0  15  312.77   25.50
  -2   0 -15  259.77   27.70
  -2   0 -15  261.57   21.40
   2   1  15    7.70    8.70
  -2  -1  15   12.50   16.90
   2  -1 -15   11.00   12.30
  -2  -1  15   19.90   12.10
  -2   1 -15   34.60   15.20
  -2  -1  15   18.90   11.80
  -2   1 -15   12.70    9.10
   2   1  15    3.40   12.50
   2  -1  15  -17.40   12.10
  -2   1  15   14.00   11.70
   2   1 -15    7.70   13.40
  -2  -1 -15   12.90   13.80
  -2   1  15   -0.70   11.70
  -2  -1 -15   17.70    9.40
  -2   1  15    8.90   14.20
   2  -1  15   29.60   14.80
   2   2  15  206.58   22.50
  -2  -2  15  192.18   22.20
   2  -2 -15  188.38   25.00
  -2  -2  15  281.57   26.10
  -2   2 -15  261.17   30.70
  -2   2 -15  227.88   21.10
   2   2  15  202.68   19.00
  -2  -2 -15  214.88   25.60
  -2   2  15  244.98   22.10
   2  -2  15  189.18   21.20
  -2   2  15  219.88   22.80
   2  -2  15  261.77   29.30
   2   2 -15  264.87   26.50
   2   2 -15  254.87   21.70
   2  -2  15  182.78   23.30
   2   3  15    2.10   12.60
   2   3  15   10.70   10.00
   2  -3 -15   -3.50   13.20
  -2   3 -15   17.90   10.50
  -2  -3  15    9.10   13.70
  -2   3 -15   24.80   18.20
  -2  -3 -15   17.40   15.20
   2   3 -15   -3.60   10.40
  -2   3  15    5.00   13.50
   2   3 -15   -5.30   15.20
  -2   3  15   17.30   12.80
   2  -3  15   19.30   16.20
   2  -3  15    0.20    6.90
   2  -4 -15   84.59   18.90
   2   4  15   90.09   15.50
   2   4  15  105.39   15.00
  -2   4 -15  166.68   20.90
  -2  -4  15   81.89   18.50
  -2   4 -15  142.49   25.90
  -2  -4 -15   97.59   18.60
   2  -4  15  130.99   13.00
  -2   4  15  101.69   20.10
   2   4 -15   95.79   13.70
  -2   4  15  104.89   16.10
   2   4 -15  113.49   22.60
   2  -4  15  144.69   33.60
   3   0  15   14.40   13.00
  -3   0 -15   30.60    9.70
  -3   0 -15   41.50   16.50
   3   0 -15   35.50   12.50
  -3   0  15   23.70   12.00
  -3   0  15   31.50   13.60
   3   0  15   13.50   10.30
  -3   0  15   11.20   13.20
   3  -1 -15    9.90   11.00
  -3   1 -15   18.50    9.30
  -3   1 -15   10.50   16.40
   3   1  15   -3.00    9.20
   3   1  15   -5.20   12.80
  -3  -1  15   18.90   13.10
  -3  -1  15    3.30   13.50
  -3   1  15    0.60   12.40
  -3   1  15   19.20   14.50
   3  -1  15    6.50    9.60
  -3  -1 -15   16.50    9.40
   3  -1  15   16.30   14.90
  -3  -1 -15   27.30   15.20
  -3   1  15    6.30   12.00
   3   1 -15   29.60   13.70
   3   2  15   13.40    9.90
   3   2  15   26.80   12.20
  -3   2 -15   13.40   10.10
  -3  -2  15    9.40   12.90
   3  -2 -15   12.20   11.70
  -3   2 -15   67.79   18.80
  -3  -2 -15    8.00    8.80
   3   2 -15   20.80   15.30
  -3   2  15   24.70   12.80
  -3  -2 -15   18.50   16.60
   3  -2  15   37.20   17.30
  -3   2  15   12.40   12.80
   3  -2  15   19.80    6.80
   3   3  15   11.60   10.80
  -3   3 -15   29.00   20.40
  -3   3 -15   10.30   10.80
   3  -3 -15   16.80   13.20
   3   3  15  -14.70   12.80
  -3   3  15   -3.70   12.90
  -3   3  15   20.60   14.10
   3  -3  15   16.00   16.80
   3  -3  15   12.90    6.80
   3  -3  15   -8.70   15.80
   3   3 -15   10.70   10.50
  -3  -3 -15   -8.50   16.70
   3   3 -15   11.90   16.70
  -3   4 -15   42.10   25.80
  -3  -4  15   18.50   14.20
   3   4  15   -3.70   12.10
   3  -4 -15  -13.90   13.80
  -3   4 -15  -22.80   10.80
   3   4  15  -23.70   13.60
  -3   4  15    2.50   16.50
  -3   4  15    3.70   14.10
   3   4 -15   18.50   11.20
   3  -4  15    1.60    7.40
  -3  -4 -15  -11.90   18.20
   3   4 -15   11.40   19.00
   3  -4  15   19.20   18.80
   4   0  15  102.99   17.40
  -4   0  15   99.29   15.80
   4   0 -15  130.29   16.80
   4   0  15   84.19   20.00
  -4   0  15  121.99   16.20
  -4   0 -15  107.89   16.50
  -4   0 -15  108.09   19.80
   4  -1 -15  187.68   22.50
  -4   1 -15  217.18   30.60
  -4   1 -15  170.28   19.10
  -4  -1  15  140.19   21.10
   4   1  15  199.78   23.20
   4   1  15  147.59   19.90
  -4   1  15  184.68   20.30
  -4   1  15  181.18   22.10
   4  -1  15  171.78   27.30
   4  -1  15  192.78   20.00
  -4  -1 -15  143.59   17.80
   4   1 -15  194.48   23.80
  -4  -1 -15  175.08   23.70
   4  -2 -15   87.89   15.20
  -4   2 -15   87.99   21.00
  -4  -2  15   77.19   15.90
   4   2  15  106.89   17.50
   4   2  15  135.09   21.80
  -4   2 -15   93.19   12.70
  -4   2 -15   52.59   15.80
  -4   2  15  130.89   20.20
  -4  -2 -15  126.99   21.70
   4   2 -15  103.29   17.10
  -4  -2 -15   87.19   13.20
  -4   2  15  118.49   16.80
   4  -2  15   88.79   19.50
   4  -3 -15  116.69   18.20
  -4   3 -15  102.49   26.90
  -4   3 -15   79.69   14.00
  -4  -3  15   78.89   17.10
   4   3  15   90.99   13.60
  -4  -3 -15   84.59   11.80
  -4  -3 -15  109.09   21.20
   4  -3  15  133.39   20.90
  -4   3  15  148.49   20.00
   4   3 -15  106.89   14.10
   4   3 -15   95.49   19.60
   4  -3  15  105.79   12.10
  -4   3  15   91.19   16.30
   4   4  15   44.50   14.30
  -4   4 -15   57.99   14.20
   4   4 -15   66.59   21.50
  -4   4  15   24.70   14.80
  -4  -4 -15   45.50   22.20
   5   0  15  -13.90   14.30
   5   0 -15    0.40   12.00
  -5   0 -15    9.80   18.80
  -5   0  15    4.10   14.80
  -5   0  15   -2.60   12.50
   5   0  15    6.10   11.60
  -5   0 -15    6.60   10.00
  -5   1 -15   97.99   14.70
  -5   1 -15   96.39   22.20
   5   1  15   89.89   13.40
  -5  -1  15   84.39   17.20
   5  -1 -15   98.49   16.40
   5   1  15   79.59   16.30
  -5   1 -15   86.69   12.90
  -5   1  15  105.09   16.10
  -5   1  15   53.59   17.70
  -5  -1 -15  113.49   20.60
   5  -1  15   98.59   14.10
   5   1 -15  108.09   16.50
  -5   1  15  125.29   17.30
   5  -1  15   77.79   19.20
  -5  -1 -15   96.99   12.80
   5   2  15   -9.30   14.20
  -5   2 -15    5.10   10.40
   5  -2 -15   -5.10   13.80
  -5   2 -15  -33.30   21.30
  -5  -2  15    0.60   13.70
   5   2  15    1.60   10.90
   5  -2  15   11.50   18.20
  -5   2  15    8.80   13.10
  -5  -2 -15   30.30   20.70
   5   2 -15  -12.30   14.20
  -5   2  15   22.80   13.90
  -5  -2 -15   -3.70    9.10
   5   3  15   45.90   15.80
   5  -3 -15   57.19   16.10
  -5   3 -15   81.39   25.50
  -5  -3  15   37.30   15.20
   5   3  15   55.99   13.40
  -5   3 -15   74.39   14.80
   5  -3  15   63.69   20.90
   5   3 -15   82.09   13.50
   5   3 -15   74.49   19.10
  -5   3  15   63.59   17.30
  -5  -3 -15   55.39   12.00
  -5   3  15   35.50   16.50
  -5  -3 -15   85.19   22.00
   6   0 -15    4.90   13.70
  -6   0  15   -0.80   13.40
   6   0  15   14.40   16.90
   6   0  15    7.60   12.40
  -6   0 -15   -8.90   19.90
  -6   0  15   29.60   20.00
  -6   0 -15   39.40   11.10
   6   1  15   51.29   15.50
   6  -1 -15   65.09   16.40
  -6  -1  15   59.39   16.60
   6   1  15   82.49   13.60
  -6   1 -15   81.19   13.30
  -6   1 -15   65.59   21.60
   6  -1  15  104.19   20.70
  -6  -1 -15   66.19   22.60
  -6  -1 -15   84.69   12.90
   6  -1  15   87.99   14.30
  -6   1  15   83.09   21.00
  -6   1  15   58.19   16.40
   6   1 -15   85.29   15.50
   6   2  15   18.20   15.40
   6  -2 -15  -29.20   13.90
   6   2  15    4.10   11.20
  -6   2 -15   21.70   14.30
  -6  -2  15  -11.60   14.00
  -6   2 -15   22.30   23.10
  -6  -2 -15    7.80   10.20
   6  -2  15   -4.20   12.80
  -6   2  15   13.20   14.90
  -6  -2 -15    1.90   20.90
  -6   2  15   18.70   15.70
   6   2 -15  -19.40   15.20
   6  -2  15    3.90   19.90
   7   0  15   54.79   14.90
  -7   0 -15   70.29   13.80
  -7   0 -15   63.69   25.50
  -7   0 -15   49.00   13.60
   7   0  15   76.99   20.00
  -7   0  15   59.49   16.50
   7   0 -15   43.10   15.80
  -7   1 -15   -7.30   33.50
   7   1  15   37.90   12.90
  -7   1 -15   13.90   14.00
   7   1  15  -43.40   25.00
  -7  -1  15  -23.40   13.00
   7  -1 -15  -16.00   14.90
  -7   1 -15   -9.00   12.90
  -7   1  15   35.90   14.90
  -7  -1 -15   63.79   23.00
   7   1 -15    4.90   15.30
  -7  -1 -15    3.30   13.10
  -7   1  15   -3.00   16.40
   7  -1  15   16.10   19.40
   7  -1  15   20.10   14.20
   0   0  16  363.16   29.90
   0   0 -16  247.58   30.90
   0   0 -16  361.26   26.00
   0  -1  16   23.20   15.40
   0   1 -16   -7.50    9.10
   0  -1  16   -0.80   16.60
   0   1 -16   17.00   14.80
   0  -1 -16    3.70   13.50
   0   1  16   -6.50   14.40
   0  -1  16   17.20   13.80
   0  -2  16  330.77   34.00
   0   2 -16  313.27   25.20
   0   2 -16  285.17   33.10
   0  -2 -16  255.57   29.50
   0   3 -16   36.60   20.70
   0  -3 -16   32.20   16.10
   0   3  16  -16.90   14.60
   0  -3  16   14.80   16.30
   0   3 -16   14.00   11.10
  -1   0 -16   84.59   16.50
  -1   0 -16   74.19   12.20
  -1   0  16   74.39   17.00
  -1   0  16   53.49   15.10
   1   0  16   59.29   16.40
   1   0 -16  108.49   17.60
   1   1  16   19.40   15.20
  -1   1 -16   36.80   16.40
  -1  -1  16   23.30   14.30
   1  -1 -16   24.60   15.00
  -1   1 -16   33.60   11.40
  -1  -1  16    2.70   16.80
  -1  -1  16    8.20   26.50
   1   1 -16   25.30   10.80
  -1  -1 -16   41.20   10.90
   1   1 -16   22.70   15.40
  -1   1  16    2.30   14.60
  -1  -1 -16   11.60   14.30
   1  -1  16   20.90   17.20
  -1  -2  16   20.40   14.90
   1   2  16   57.79   11.50
  -1   2 -16   79.29   12.30
  -1   2 -16   84.49   19.50
   1  -2 -16   53.89   18.20
  -1  -2  16   98.19   19.70
   1  -2  16   56.99   20.10
   1   2 -16   58.89   18.90
  -1  -2 -16   46.40   15.70
   1   2 -16   73.69   12.40
  -1   2  16   47.50   15.80
   1  -3 -16    6.70   16.10
   1   3  16    6.60   11.70
  -1  -3  16    6.20   15.30
   1   3  16  -15.90   14.60
  -1   3 -16    2.90   12.00
  -1   3 -16   45.20   22.60
   1  -3  16   21.20   16.80
  -1  -3 -16  -19.40   16.00
  -1   3  16    3.40   15.00
   1  -3  16  -15.30   18.80
   1   3 -16  -12.80   19.20
   1   3 -16    2.10   11.90
  -2   0  16   32.90   14.80
  -2   0 -16   40.50   10.40
  -2   0  16   70.99   16.30
   2   0 -16   32.80   15.40
   2   0  16   42.30   16.30
  -2   0  16   41.70   16.50
  -2   0 -16   27.50   17.70
   2   1  16  164.88   24.70
  -2   1 -16  141.99   19.70
   2  -1 -16  141.39   19.90
  -2  -1  16  168.98   27.10
  -2   1 -16  201.58   30.50
  -2  -1  16  132.19   21.40
  -2  -1 -16  151.78   20.90
   2   1 -16  191.38   28.40
  -2   1  16  175.08   23.70
  -2  -1 -16  159.68   18.90
   2  -1  16  216.88   28.70
  -2   1  16  132.09   21.90
  -2   2 -16   19.10   11.90
   2   2  16   24.90   15.40
  -2  -2  16   22.00   15.00
  -2   2 -16   22.80   19.50
   2  -2 -16   34.00   15.10
   2   2  16   33.50   11.50
   2  -2  16   54.09   20.10
   2   2 -16   33.20   12.00
   2   2 -16   32.10   16.70
  -2   2  16   13.60   15.70
  -2  -2 -16   35.40   11.20
  -2  -2 -16   55.79   17.70
   2   3  16  121.69   20.40
  -2   3 -16   88.59   14.50
   2  -3 -16   89.59   29.60
   2   3  16   59.99   18.00
  -2  -3  16   86.79   19.00
  -2   3 -16   86.49   23.80
  -2   3  16  117.59   17.80
   2  -3  16  116.19   22.20
   2   3 -16   92.99   15.00
   2   3 -16  104.09   21.50
  -2  -3 -16   83.09   18.90
  -3   0  16    4.20   14.50
   3   0  16  -14.80   16.10
  -3   0  16   37.70   16.20
  -3   0 -16    9.60   11.10
   3   0 -16    9.80   14.60
  -3   0 -16   46.10   17.80
   3   0  16   10.00   11.60
  -3   1 -16   -6.70   11.30
  -3  -1  16    2.40   13.60
   3   1  16   30.10   15.80
   3   1  16   26.40   11.90
  -3   1 -16   23.60   18.60
  -3  -1  16  -11.90   16.60
   3  -1 -16    1.40   13.60
  -3  -1 -16   47.80   19.10
   3   1 -16   20.10   16.20
   3  -1  16   10.90   18.90
  -3   1  16   -6.80   13.80
  -3  -1 -16    3.60   10.20
  -3   1  16  -12.00   14.80
   3   2  16  -34.60   15.10
   3  -2 -16    4.00   14.80
  -3  -2  16   24.00   16.30
  -3   2 -16   -3.10   11.00
  -3   2 -16   59.69   21.00
   3   2  16    5.90   11.70
  -3  -2 -16    1.20   10.10
  -3  -2 -16    2.10   18.80
  -3   2  16   16.30   15.60
   3   2 -16   15.30   11.00
   3  -2  16   10.30   19.70
   3   2 -16   25.10   17.50
  -3   2  16   15.80   15.30
   4   0  16  104.19   19.20
   4   0 -16  102.29   17.90
  -4   0 -16  104.29   13.50
  -4   0  16  140.89   18.90
  -4   0  16   78.29   16.30
  -4   0 -16  133.49   21.90
   4   1  16   82.09   13.70
  -4   1 -16   85.99   22.20
  -4   1 -16   46.00   12.10
   4   1  16   63.59   16.90
  -4  -1  16   53.99   17.80
   4  -1 -16   53.89   15.10
   4   1 -16   76.09   18.10
  -4   1  16   27.10   16.40
   4  -1  16   87.79   21.40
   4  -1  16   40.50   13.20
  -4   1  16   64.59   16.40
  -4  -1 -16   95.49   22.00
  -4  -1 -16   50.79   12.10
  -4   2 -16  114.39   30.10
  -4   2 -16   92.09   14.80
   4   2  16   53.09   19.20
   4   2  16   79.59   14.00
   4  -2 -16   63.09   20.10
  -4  -2  16   64.99   17.20
  -4  -2 -16   94.89   21.80
  -4  -2 -16   82.79   12.80
   4  -2  16  103.99   22.30
   4   2 -16   82.19   20.40
  -4   2  16   89.79   18.30
  -4   2  16  118.99   18.90
  -5   0 -16   13.10   22.90
  -5   0 -16   39.70   12.00
   5   0  16   -3.90   18.40
   5   0 -16   -7.60   15.40
  -5   0  16   -0.30   16.20
  -5   0  16   38.60   17.80
   5   1  16   22.50   13.50
   5   1  16  -11.30   17.10
  -5   1 -16   -3.00   11.90
  -5  -1  16    8.10   15.90
   5  -1 -16   28.60   15.00
   5  -1  16   -5.70   13.80
  -5   1  16  -21.40   16.40
   5   1 -16   12.00   16.70
  -5  -1 -16   36.50   23.80
  -5  -1 -16   -4.80   11.10
   5  -1  16   17.10   21.30
   0   0  17  -29.80   18.10
   0   0 -17   -0.20   25.70
   0   0 -17   -9.80   11.70
  -1   0 -17   -4.80   12.50
   1   0  17  -32.90   18.80
   1   0 -17   18.70   20.50
  -1   0  17    5.70   18.60

_computing_structure_solution     'SHELXT 2014/4 (Sheldrick, 2014)'
;
_shelx_hkl_checksum              73093
loop_
_space_group_symop_operation_xyz
'x, y, z'
'-x+1/2, -y, z+1/2'
'-x, y+1/2, -z'
'x+1/2, -y+1/2, -z+1/2'
'-x, -y, -z'
'x-1/2, y, -z-1/2'
'x, -y-1/2, z'
'-x-1/2, y-1/2, z-1/2'
loop_
_atom_site_label
_atom_site_type_symbol
_atom_site_fract_x
_atom_site_fract_y
_atom_site_fract_z
_atom_site_U_iso_or_equiv
_atom_site_adp_type
_atom_site_occupancy
_atom_site_site_symmetry_order
_atom_site_calc_flag
_atom_site_refinement_flags_posn
_atom_site_refinement_flags_adp
_atom_site_refinement_flags_occupancy
I1 I 0.35462(3) 0.7500 0.77703(3) 0.03770(17) Uani 1 2 d S T P
Br1 Br 0.71246(4) 0.7500 0.41705(5) 0.03283(18) Uani 1 2 d S T P
C2 C 0.3925(4) 0.7500 0.6047(4) 0.0235(8) Uani 1 2 d S T P
C1 C 0.5167(4) 0.7500 0.5726(4) 0.0281(9) Uani 1 2 d S T P
H1 H 0.5807 0.7500 0.6269 0.034 Uiso 1 2 calc R U P
C3 C 0.2972(4) 0.7500 0.5258(4) 0.0246(8) Uani 1 2 d S T P
C6 C 0.5433(4) 0.7500 0.4585(4) 0.0271(9) Uani 1 2 d S T P
C4 C 0.3293(5) 0.7500 0.4119(4) 0.0314(10) Uani 1 2 d S T P
H4 H 0.2658 0.7500 0.3571 0.038 Uiso 1 2 calc R U P
C5 C 0.4534(5) 0.7500 0.3773(4) 0.0301(9) Uani 1 2 d S T P
H5 H 0.4744 0.7500 0.3000 0.036 Uiso 1 2 calc R U P
C7 C 0.1666(4) 0.7500 0.5649(4) 0.0288(9) Uani 1 2 d S T P
H7A H 0.1531 0.6361 0.6123 0.035 Uiso 0.5 1 calc R U P
H7B H 0.1531 0.8639 0.6123 0.035 Uiso 0.5 1 calc R U P
C8 C 0.0750(4) 0.7500 0.4744(4) 0.0337(10) Uani 1 2 d S T P
N1 N -0.0013(5) 0.7500 0.4067(4) 0.0622(19) Uani 1 2 d S T P
loop_
_atom_site_aniso_label
_atom_site_aniso_U_11
_atom_site_aniso_U_22
_atom_site_aniso_U_33
_atom_site_aniso_U_23
_atom_site_aniso_U_13
_atom_site_aniso_U_12
I1 0.0265(2) 0.0632(3) 0.0233(2) 0.000 -0.00137(10) 0.000
Br1 0.0217(3) 0.0329(3) 0.0439(3) 0.000 0.00943(19) 0.000
C2 0.0123(15) 0.032(2) 0.027(2) 0.000 0.0032(15) 0.000
C1 0.0147(17) 0.030(2) 0.040(3) 0.000 -0.0001(17) 0.000
C3 0.0166(17) 0.0270(19) 0.030(2) 0.000 0.0004(16) 0.000
C6 0.0178(17) 0.0227(17) 0.041(3) 0.000 0.0039(17) 0.000
C4 0.026(2) 0.037(2) 0.031(2) 0.000 0.0003(18) 0.000
C5 0.031(2) 0.035(2) 0.024(2) 0.000 0.0091(18) 0.000
C7 0.0188(18) 0.042(2) 0.026(2) 0.000 0.0022(16) 0.000
C8 0.0216(19) 0.054(3) 0.026(2) 0.000 0.0045(17) 0.000
N1 0.025(2) 0.121(6) 0.041(3) 0.000 -0.012(2) 0.000
loop_
_atom_type_symbol
_atom_type_description
_atom_type_scat_dispersion_real
_atom_type_scat_dispersion_imag
_atom_type_scat_source
C C 0.0033 0.0016 'International Tables Vol C Tables 4.2.6.8 and 6.1.1.4'
H H 0.0000 0.0000 'International Tables Vol C Tables 4.2.6.8 and 6.1.1.4'
N N 0.0061 0.0033 'International Tables Vol C Tables 4.2.6.8 and 6.1.1.4'
Br Br -0.2901 2.4595 'International Tables Vol C Tables 4.2.6.8 and 6.1.1.4'
I I -0.4742 1.8119 'International Tables Vol C Tables 4.2.6.8 and 6.1.1.4'
loop_
_geom_angle_atom_site_label_1
_geom_angle_atom_site_label_2
_geom_angle_atom_site_label_3
_geom_angle
C3 C2 C1 121.7(4)
C3 C2 I1 121.1(3)
C1 C2 I1 117.2(3)
C6 C1 C2 117.8(4)
C6 C1 H1 121.1
C2 C1 H1 121.1
C2 C3 C4 118.1(4)
C2 C3 C7 119.3(4)
C4 C3 C7 122.6(4)
C5 C6 C1 122.9(4)
C5 C6 Br1 120.0(4)
C1 C6 Br1 117.0(4)
C3 C4 C5 121.4(4)
C3 C4 H4 119.3
C5 C4 H4 119.3
C6 C5 C4 118.0(4)
C6 C5 H5 121.0
C4 C5 H5 121.0
C8 C7 C3 114.3(4)
C8 C7 H7A 108.7
C3 C7 H7A 108.7
C8 C7 H7B 108.7
C3 C7 H7B 108.7
H7A C7 H7B 107.6
N1 C8 C7 177.0(5)
loop_
_geom_bond_atom_site_label_1
_geom_bond_atom_site_label_2
_geom_bond_distance
I1 C2 2.099(4)
Br1 C6 1.900(4)
C2 C3 1.398(6)
C2 C1 1.399(6)
C1 C6 1.393(7)
C1 H1 0.9500
C3 C4 1.403(7)
C3 C7 1.491(6)
C6 C5 1.375(7)
C4 C5 1.407(7)
C4 H4 0.9500
C5 H5 0.9500
C7 C8 1.469(7)
C7 H7A 0.9900
C7 H7B 0.9900
C8 N1 1.156(7)
