#------------------------------------------------------------------------------
#$Date: 2017-03-04 10:17:25 +0200 (Sat, 04 Mar 2017) $
#$Revision: 193311 $
#$URL: file:///home/coder/svn-repositories/cod/cif/4/03/23/4032334.cif $
#------------------------------------------------------------------------------
#
# This file is available in the Crystallography Open Database (COD),
# http://www.crystallography.net/
#
# All data on this site have been placed in the public domain by the
# contributors.
#
data_4032334
loop_
_publ_author_name
'Liao, Hai-Bing'
'Huang, Guang-Hui'
'Yu, Mei-Hua'
'Lei, Chun'
'Hou, Ai-Jun'
_publ_section_title
;
 Five Pairs of Meroterpenoid Enantiomers from Rhododendron capitatum.
;
_journal_issue                   3
_journal_name_full               'The Journal of organic chemistry'
_journal_page_first              1632
_journal_page_last               1637
_journal_paper_doi               10.1021/acs.joc.6b02800
_journal_volume                  82
_journal_year                    2017
_chemical_absolute_configuration ad
_chemical_formula_sum            'C23 H34 O4'
_chemical_formula_weight         374.50
_chemical_name_systematic
; 
 ? 
;
_space_group_crystal_system      triclinic
_space_group_IT_number           1
_space_group_name_Hall           'P 1'
_space_group_name_H-M_alt        'P 1'
_symmetry_space_group_name_Hall  'P 1'
_symmetry_space_group_name_H-M   'P 1'
_atom_sites_solution_hydrogens   geom
_audit_creation_method           SHELXL-2013
_cell_angle_alpha                82.6020(10)
_cell_angle_beta                 83.3040(10)
_cell_angle_gamma                81.4080(10)
_cell_formula_units_Z            1
_cell_length_a                   6.29610(10)
_cell_length_b                   8.10750(10)
_cell_length_c                   10.7109(2)
_cell_measurement_reflns_used    3246
_cell_measurement_temperature    140(2)
_cell_measurement_theta_max      69.13
_cell_measurement_theta_min      5.55
_cell_volume                     533.459(15)
_computing_cell_refinement       'Bruker SAINT'
_computing_data_collection       'Bruker APEX2'
_computing_data_reduction        'Bruker SAINT'
_computing_molecular_graphics    'Bruker SHELXTL'
_computing_publication_material  'Bruker SHELXTL'
_computing_structure_refinement  'SHELXL-2013 (Sheldrick, 2013)'
_computing_structure_solution    'SHELXS-97 (Sheldrick, 2008)'
_diffrn_ambient_temperature      140(2)
_diffrn_measured_fraction_theta_full 0.949
_diffrn_measured_fraction_theta_max 0.933
_diffrn_measurement_device_type  'Bruker APEX-II CCD'
_diffrn_measurement_method       '\f and \w scans'
_diffrn_radiation_type           CuK\a
_diffrn_radiation_wavelength     1.54178
_diffrn_reflns_av_R_equivalents  0.0242
_diffrn_reflns_av_unetI/netI     0.0445
_diffrn_reflns_Laue_measured_fraction_full 0.949
_diffrn_reflns_Laue_measured_fraction_max 0.933
_diffrn_reflns_limit_h_max       7
_diffrn_reflns_limit_h_min       -6
_diffrn_reflns_limit_k_max       9
_diffrn_reflns_limit_k_min       -9
_diffrn_reflns_limit_l_max       12
_diffrn_reflns_limit_l_min       -12
_diffrn_reflns_number            4162
_diffrn_reflns_point_group_measured_fraction_full 0.663
_diffrn_reflns_point_group_measured_fraction_max 0.650
_diffrn_reflns_theta_full        67.679
_diffrn_reflns_theta_max         69.244
_diffrn_reflns_theta_min         4.183
_exptl_absorpt_coefficient_mu    0.620
_exptl_absorpt_correction_T_max  0.7532
_exptl_absorpt_correction_T_min  0.5936
_exptl_absorpt_correction_type   multi-scan
_exptl_absorpt_process_details   sadabs
_exptl_crystal_colour            colourless
_exptl_crystal_density_diffrn    1.166
_exptl_crystal_description       plate
_exptl_crystal_F_000             204
_exptl_crystal_size_max          0.200
_exptl_crystal_size_mid          0.120
_exptl_crystal_size_min          0.020
_refine_diff_density_max         0.419
_refine_diff_density_min         -0.584
_refine_diff_density_rms         0.159
_refine_ls_abs_structure_details
; 
 Flack x determined using 710 quotients [(I+)-(I-)]/[(I+)+(I-)] 
 (Parsons and Flack (2004), Acta Cryst. A60, s61). 
;
_refine_ls_abs_structure_Flack   -0.05(12)
_refine_ls_extinction_method     none
_refine_ls_goodness_of_fit_ref   1.133
_refine_ls_hydrogen_treatment    constr
_refine_ls_matrix_type           full
_refine_ls_number_parameters     252
_refine_ls_number_reflns         2594
_refine_ls_number_restraints     3
_refine_ls_restrained_S_all      1.132
_refine_ls_R_factor_all          0.0513
_refine_ls_R_factor_gt           0.0458
_refine_ls_shift/su_max          0.003
_refine_ls_shift/su_mean         0.000
_refine_ls_structure_factor_coef Fsqd
_refine_ls_weighting_details
'w=1/[\s^2^(Fo^2^)+(0.1167P)^2^+0.0142P] where P=(Fo^2^+2Fc^2^)/3'
_refine_ls_weighting_scheme      calc
_refine_ls_wR_factor_gt          0.1304
_refine_ls_wR_factor_ref         0.1435
_reflns_Friedel_coverage         0.393
_reflns_Friedel_fraction_full    0.378
_reflns_Friedel_fraction_max     0.367
_reflns_number_gt                2563
_reflns_number_total             2594
_reflns_threshold_expression     'I > 2\s(I)'
_cod_data_source_file            jo6b02800_si_002.cif
_cod_data_source_block           cu_dm14118_0m
_cod_database_code               4032334
_shelx_space_group_comment
; 
The symmetry employed for this shelxl refinement is uniquely defined 
by the following loop, which should always be used as a source of 
symmetry information in preference to the above space-group names. 
They are only intended as comments. 
;
_shelx_estimated_absorpt_t_min   0.886
_shelx_estimated_absorpt_t_max   0.988
_shelxl_version_number           2013-4
_shelx_res_file
; 
TITL cu_dm14118_0m in P1 
CELL 1.54178 6.2961 8.1075 10.7109 82.602 83.304 81.408 
ZERR 1.00 0.0001 0.0001 0.0002 0.001 0.001 0.001 
LATT -1 
SFAC C  H  O 
UNIT 23 34 4 
L.S. 4 
ACTA 
BOND $H 
wpdb -1 
conf 
htab 
FMAP 2 
PLAN -3 
SIZE 0.020 0.120 0.200 
TEMP -133 
  
REM Instructions for potential hydrogen bonds 
EQIV $1 x+1, y, z 
HTAB O2 O1S_$1 
EQIV $2 x, y-1, z 
HTAB O3 O2_$2 
EQIV $3 x, y+1, z 
HTAB O1S O3_$3 
WGHT    0.116700    0.014200 
FVAR       1.72137 
O1    3    0.942259    0.864339   -0.149182    11.00000    0.03143    0.01914 = 
         0.03139    0.00142   -0.01130   -0.00746 
O2    3    1.058602    0.832061    0.286260    11.00000    0.03233    0.02564 = 
         0.02944   -0.00206   -0.00783   -0.00969 
AFIX 147 
H2    2    1.159229    0.836700    0.330207    11.00000   -1.50000 
AFIX   0 
O3    3    0.688020    0.016187    0.410965    11.00000    0.04106    0.02329 = 
         0.05509   -0.00210    0.01268   -0.01402 
AFIX 147 
H3    2    0.793242   -0.016711    0.360258    11.00000   -1.50000 
AFIX   0 
C2    1    0.854526    0.706860   -0.133131    11.00000    0.02602    0.02067 = 
         0.02998   -0.00290   -0.00919   -0.00607 
C3    1    0.733630    0.669438   -0.001413    11.00000    0.02115    0.01749 = 
         0.03160   -0.00081   -0.00731   -0.00405 
AFIX  13 
H3A   2    0.573897    0.703368    0.001788    11.00000   -1.20000 
AFIX   0 
C4    1    0.836398    0.718236    0.110413    11.00000    0.02021    0.01560 = 
         0.02959   -0.00153   -0.00614   -0.00313 
AFIX  13 
H4    2    0.722601    0.767813    0.173320    11.00000   -1.20000 
AFIX   0 
C4A   1    1.006539    0.832308    0.071724    11.00000    0.02176    0.01216 = 
         0.03220   -0.00096   -0.00601   -0.00124 
C5    1    1.119939    0.882573    0.162251    11.00000    0.02512    0.01437 = 
         0.02999   -0.00242   -0.00555   -0.00226 
C6    1    1.284515    0.981370    0.127246    11.00000    0.02542    0.01682 = 
         0.03875   -0.00581   -0.00630   -0.00307 
AFIX  43 
H6    2    1.361514    1.011332    0.190212    11.00000   -1.20000 
AFIX   0 
C7    1    1.336934    1.036580    0.000249    11.00000    0.02351    0.01383 = 
         0.03811   -0.00409   -0.00366   -0.00214 
C8    1    1.218367    0.994350   -0.090546    11.00000    0.02904    0.01506 = 
         0.03279    0.00008   -0.00343   -0.00180 
AFIX  43 
H8    2    1.248577    1.034413   -0.177185    11.00000   -1.20000 
AFIX   0 
C8A   1    1.056650    0.894035   -0.054368    11.00000    0.02136    0.01498 = 
         0.03233   -0.00276   -0.00755   -0.00072 
C9    1    1.037909    0.559455   -0.146309    11.00000    0.02929    0.02357 = 
         0.03029   -0.00598   -0.00152   -0.00526 
AFIX  23 
H9A   2    1.074914    0.540078   -0.236123    11.00000   -1.20000 
H9B   2    1.168696    0.581931   -0.111891    11.00000   -1.20000 
AFIX   0 
C10   1    0.947946    0.407907   -0.069529    11.00000    0.03082    0.02087 = 
         0.03516   -0.00720   -0.00384   -0.00499 
AFIX  23 
H10A  2    0.864672    0.353884   -0.121779    11.00000   -1.20000 
H10B  2    1.066213    0.323960   -0.037950    11.00000   -1.20000 
AFIX   0 
C11   1    0.801749    0.479415    0.040409    11.00000    0.02349    0.01628 = 
         0.03657   -0.00240   -0.00518   -0.00615 
AFIX  13 
H11   2    0.675636    0.417146    0.068233    11.00000   -1.20000 
AFIX   0 
C12   1    0.909720    0.524946    0.154383    11.00000    0.02205    0.01446 = 
         0.03088   -0.00217   -0.00332   -0.00520 
C13   1    0.789169    0.463440    0.279779    11.00000    0.02728    0.02079 = 
         0.03263   -0.00085   -0.00114   -0.00622 
AFIX  23 
H13A  2    0.632760    0.502193    0.277575    11.00000   -1.20000 
H13B  2    0.838934    0.512509    0.349369    11.00000   -1.20000 
AFIX   0 
C14   1    0.826619    0.269820    0.305949    11.00000    0.02910    0.02030 = 
         0.03660    0.00028    0.00218   -0.00705 
AFIX  23 
H14A  2    0.837882    0.221638    0.224686    11.00000   -1.20000 
H14B  2    0.965676    0.234889    0.342785    11.00000   -1.20000 
AFIX   0 
C15   1    0.648373    0.198305    0.395253    11.00000    0.02918    0.02324 = 
         0.03936    0.00205   -0.00006   -0.00889 
AFIX  13 
H15   2    0.508926    0.233829    0.356960    11.00000   -1.20000 
AFIX   0 
C16   1    0.622904    0.255276    0.524620    11.00000    0.06546    0.03305 = 
         0.04344   -0.00283    0.01509   -0.02097 
C17   1    0.439459    0.337508    0.567491    11.00000    0.11050    0.07333 = 
         0.09741   -0.03108    0.05872   -0.00718 
AFIX  93 
H17A  2    0.423374    0.373103    0.649582    11.00000   -1.20000 
H17B  2    0.322446    0.361577    0.516505    11.00000   -1.20000 
AFIX   0 
C18   1    0.811412    0.214339    0.600794    11.00000    0.12451    0.08768 = 
         0.03796    0.00707   -0.02201   -0.04146 
AFIX 137 
H18A  2    0.773697    0.258978    0.682486    11.00000   -1.50000 
H18B  2    0.934256    0.264906    0.555129    11.00000   -1.50000 
H18C  2    0.850190    0.092225    0.614837    11.00000   -1.50000 
AFIX   0 
C19   1    1.153296    0.472193    0.157398    11.00000    0.02268    0.01965 = 
         0.03438    0.00174   -0.00355   -0.00359 
AFIX 137 
H19A  2    1.200196    0.509660    0.231899    11.00000   -1.50000 
H19B  2    1.229798    0.523504    0.080642    11.00000   -1.50000 
H19C  2    1.185680    0.349675    0.161581    11.00000   -1.50000 
AFIX   0 
C20   1    0.703237    0.723444   -0.235535    11.00000    0.03341    0.03617 = 
         0.03600   -0.00593   -0.01542   -0.00598 
AFIX 137 
H20A  2    0.587193    0.816404   -0.222408    11.00000   -1.50000 
H20B  2    0.641048    0.618893   -0.231883    11.00000   -1.50000 
H20C  2    0.783620    0.745762   -0.318545    11.00000   -1.50000 
AFIX   0 
C21   1    1.516054    1.142226   -0.038811    11.00000    0.03165    0.02554 = 
         0.04424   -0.00380   -0.00216   -0.01071 
AFIX 137 
H21A  2    1.598895    1.106152   -0.116184    11.00000   -1.50000 
H21B  2    1.611492    1.128843    0.028882    11.00000   -1.50000 
H21C  2    1.454365    1.260448   -0.054557    11.00000   -1.50000 
AFIX   0 
C1S   1    0.267533    0.820521    0.561878    11.00000    0.06621    0.17038 = 
         0.04247    0.03025   -0.02134   -0.06066 
AFIX 137 
H1S1  2    0.269551    0.907479    0.617205    11.00000   -1.50000 
H1S2  2    0.370562    0.722078    0.586904    11.00000   -1.50000 
H1S3  2    0.122184    0.788403    0.569384    11.00000   -1.50000 
AFIX   0 
O1S   3    0.322271    0.879740    0.442554    11.00000    0.06770    0.13108 = 
         0.03687    0.01472   -0.01783   -0.07058 
AFIX 147 
H1S   2    0.439445    0.919006    0.437902    11.00000   -1.50000 
AFIX   0 
HKLF 4 1 1 0 0 0 1 0 0 0 1 
  
REM  cu_dm14118_0m in P1 
REM R1 =  0.0458 for    2563 Fo > 4sig(Fo)  and  0.0513 for all    2594 data 
REM    252 parameters refined using      3 restraints 
  
END 
  
WGHT      0.1123      0.0194 
  
REM Instructions for potential hydrogen bonds 
HTAB O2 O1S_$1 
HTAB O3 O2_$2 
HTAB O1S O3_$3 
  
REM Highest difference peak  0.419,  deepest hole -0.584,  1-sigma level  0.159 
Q1    1   0.8662  0.2398  0.6686  11.00000  0.05    0.42 
Q2    1   0.8904  0.4471  0.7008  11.00000  0.05    0.40 
Q3    1   0.8313  0.6883 -0.3180  11.00000  0.05    0.39 
;
_shelx_res_checksum              35041
_shelx_hkl_file
; 
   1   0   0 3134.18  198.35   4 
   2   0   0 800.825  30.266   6 
   2   0   0 798.695  51.049   4 
  -3   0   0 128.147   5.379   6 
   3   0   0 134.503   9.297   4 
   3   0   0 138.900   5.418   6 
   3   0   0 134.982   7.273   9 
  -4   0   0 119.238   5.034   6 
   4   0   0 123.171   8.841   4 
  -5   0   0 63.0423  2.9500   6 
   5   0   0 61.5544  2.0337  11 
   6   0   0 48.3126  1.8004   1 
   6   0   0 49.2069  1.6746  11 
   7   0   0 9.73707 0.42512  11 
   7   0   0 9.19708 0.50561   1 
   7  -1   0 26.0745  0.9398  11 
   7  -1   0 28.3690  0.9828   7 
   7  -1   0 24.9918  1.0502   1 
   6  -1   0 33.4555  1.3848   1 
   6  -1   0 34.5029  1.3188  11 
   5  -1   0 121.645   3.738  11 
   5  -1   0 123.167   4.067   1 
  -5   1   0 109.665   5.077   6 
   4  -1   0 99.2109  7.5019   4 
  -4   1   0 97.7596  4.2302   6 
   3  -1   0 355.315  23.576   4 
  -3   1   0 360.930  13.848   6 
   2  -1   0 131.772   8.720   4 
  -2   1   0 125.336   5.067   6 
   1  -1   0 9999.99  632.77   4 
   0   1   0 1476.85   40.15  14 
   2   1   0 312.489  13.041  10 
   2   1   0 280.519  19.684   4 
   2   1   0 323.405  11.710   6 
   3   1   0 2395.90  126.84   9 
   3   1   0 2534.97  103.23  10 
   3   1   0 2379.52  155.74   4 
   3   1   0 2503.52   92.49   6 
   4   1   0 148.095  10.428   4 
   4   1   0 148.508   6.075   6 
   6   1   0 153.863   4.588  11 
   7  -2   0 13.8883  0.5662  11 
   7  -2   0 12.7329  0.6206   1 
   7  -2   0 14.8136  0.6071   7 
   6  -2   0 83.8490  3.0012   1 
   6  -2   0 83.0863  2.7497  11 
   5  -2   0 30.5250  1.2988  11 
   5  -2   0 31.4631  1.3453   1 
   4  -2   0 13.6730  2.2123   4 
  -4   2   0 11.2832  1.0185   6 
   3  -2   0 12.9572  1.9110   4 
  -3   2   0 15.3438  0.9516   6 
   2  -2   0 415.828  27.451   4 
  -2   2   0 430.634  16.208   6 
   1  -2   0 6240.25  404.54   4 
  -1   2   0 6539.25  240.47   6 
   0  -2   0 1591.31  111.88   4 
   0   2   0 1772.34   66.53   6 
   0   2   0 1840.00   47.99  14 
   0   2   0 1869.67   74.43  10 
   1   2   0 2818.09  115.97  10 
   1   2   0 2687.16  103.69   6 
   2   2   0 799.039  52.245   4 
   2   2   0 886.213  31.129   6 
   2   2   0 811.391  34.797  10 
   2   2   0 791.587  42.710   9 
   3   2   0 371.326  24.780   4 
   3   2   0 400.302  16.463  10 
   3   2   0 405.327  14.780   6 
   3   2   0 355.975  20.189   9 
   6  -3   0 1.64071 0.32596   1 
   6  -3   0 2.15214 0.31762  11 
   5  -3   0 91.2396  3.1853  11 
   5  -3   0 100.365   3.995   5 
   5  -3   0 92.9844  3.4370   1 
   4  -3   0 71.8307  2.5468  11 
   4  -3   0 74.4330  3.4588   5 
   4  -3   0 76.2054  2.7291   1 
  -4   3   0 72.3893  3.3803   6 
   3  -3   0 31.3209  3.1170   4 
  -3   3   0 33.7070  1.7096   6 
   2  -3   0 1542.39  101.27   4 
  -2   3   0 1636.77   60.08   6 
   1  -3   0 2149.71  148.34   4 
  -1   3   0 2563.77   98.60  10 
  -1   3   0 2309.06   88.13   6 
   0   3   0 821.968  21.946  14 
   0   3   0 792.767  30.433   6 
   0   3   0 796.619  34.151  10 
   1   3   0 885.375  37.478  10 
   1   3   0 881.448  33.370   6 
   2   3   0 1195.13   44.04   6 
   2   3   0 1107.03   60.49   9 
   2   3   0 1192.15   49.34  10 
   3   3   0 87.6895  4.0308  10 
   3   3   0 77.7194  4.8454   9 
   3   3   0 88.0746  3.5950   6 
   4   3   0 107.334   5.024  10 
   6  -4   0 96.8155  3.3243   1 
   6  -4   0 97.3092  3.0632  11 
   5  -4   0 70.5048  2.5024  11 
   5  -4   0 74.4822  3.1667   5 
   5  -4   0 70.3744  2.6757   1 
   4  -4   0 7.22883 0.68390   1 
   4  -4   0 8.97774 0.66192   3 
   4  -4   0 9.26627 1.06084   5 
  -3   4   0 311.499  12.301   6 
  -2   4   0 1582.23   43.66  14 
  -2   4   0 1618.36   60.57   6 
  -1   4   0 930.742  25.954  14 
  -1   4   0 958.361  36.013   6 
  -1   4   0 958.206  40.394  10 
   0   4   0 482.137  20.751  10 
   0   4   0 486.530  11.200  15 
   0   4   0 486.371  13.247  14 
   0   4   0 467.642  18.358   6 
   1   4   0 1758.78   74.03  10 
   1   4   0 1741.53   66.01   6 
   2   4   0 2396.42   86.64   6 
   2   4   0 2301.24   97.01  10 
   2   4   0 2193.99  119.02   9 
   3   4   0 318.367  13.356  10 
   3   4   0 287.187  16.235   9 
   4   4   0 58.2816  3.0692  10 
   5  -5   0 33.5605  1.5960   5 
  -5   5   0 30.1115  1.6809   8 
   4  -5   0 75.5887  3.6957   5 
   4  -5   0 79.8913  3.1285   3 
  -4   5   0 71.6173  3.4392   8 
   3  -5   0 612.494  22.628   3 
  -3   5   0 587.783  22.436   8 
  -3   5   0 579.362  22.957   6 
  -2   5   0 118.588   5.033   6 
  -1   5   0 235.908   9.375   6 
  -1   5   0 237.500  10.719  10 
   0   5   0 690.744  26.308   6 
   0   5   0 687.420  29.706  10 
   1   5   0 614.798  23.042   6 
   1   5   0 588.315  26.064  10 
   2   5   0 32.0971  2.4653   9 
   2   5   0 30.6703  2.0366  10 
   3   5   0 165.505   7.749  10 
   4   5   0 133.728   4.586   7 
   5   5   0 126.170   4.182   7 
  -5   6   0 27.3706  1.3873   8 
   4  -6   0 25.0654  1.6370   5 
  -4   6   0 21.3805  1.4166   8 
   3  -6   0 90.5288  3.9440   3 
  -3   6   0 84.5331  3.9245   8 
   2  -6   0 54.2971  1.8977   2 
  -2   6   0 51.6365  2.6854   8 
   1  -6   0 55.1048  2.1711   2 
  -1   6   0 59.5345  2.7316   6 
   0   6   0 715.262  31.760  10 
   0   6   0 750.200  28.113   6 
   1   6   0 303.711  16.305   9 
   1   6   0 285.820  13.366  10 
   2   6   0 30.9703  2.7129   9 
   2   6   0 34.5891  2.2888  10 
   3   6   0 250.966   8.176   1 
   3   6   0 246.355   8.441   7 
   4   6   0 290.764   9.614   1 
   4   6   0 300.190   9.840   7 
   5   6   0 114.821   3.780   7 
   5   6   0 110.281   3.750   1 
   4  -7   0 60.5890  2.8465   5 
  -4   7   0 62.2365  2.0885   2 
  -4   7   0 63.6729  2.7311   8 
   3  -7   0 42.3655  2.0505   3 
  -3   7   0 38.7982  2.1258   8 
   2  -7   0 47.7752  2.6190   3 
  -2   7   0 51.0924  2.5792   8 
   1  -7   0 118.640   4.034   2 
  -1   7   0 114.559   5.028   8 
   0  -7   0 375.307  11.865   2 
   0   7   0 358.004  14.197   8 
   1   7   0 68.3398  4.7199   9 
   1   7   0 70.8721  3.2906   8 
   1   7   0 66.7891  3.4450   5 
   2   7   0 91.9022  3.2712   1 
   2   7   0 95.2781  4.1164   5 
   2   7   0 92.0657  3.5124   7 
   2   7   0 96.2345  4.2133   8 
   2   7   0 85.7081  5.9559   9 
   3   7   0 87.6481  3.2403   7 
   3   7   0 84.7588  3.0352   1 
   4   7   0 29.2363  1.1596   1 
   4   7   0 26.5084  1.2199   7 
   5   7   0 7.10879 0.39842   1 
   5   7   0 7.20263 0.39119   7 
   3  -8   0 105.336   4.272   3 
  -3   8   0 114.286   4.455   8 
   2  -8   0 19.7556  1.4578   3 
  -2   8   0 21.6639  1.3746   8 
   1  -8   0 38.3505  1.4563   2 
  -1   8   0 36.8377  2.0605   8 
   0  -8   0 84.4239  3.0960   2 
   0   8   0 92.3308  3.9177   8 
   0   8   0 81.7237  4.1077   5 
   1   8   0 15.4956  1.3466   5 
   1   8   0 17.4065  1.3874   8 
   2   8   0 44.6034  2.3559   8 
   2   8   0 45.4033  2.1120   5 
   2   8   0 42.0375  1.6717   1 
   2   8   0 42.3826  1.8728   7 
   3   8   0 2.87916 0.34316   1 
   3   8   0 2.46677 0.39918   7 
   4   8   0 26.9476  1.1174   7 
   4   8   0 26.5238  1.0584   1 
   5   8   0 123.451   4.031   1 
  -1   9   0 98.3314  4.0943   8 
   0  -9   0 23.6282  0.9771   2 
   0   9   0 21.4614  1.3881   5 
   0   9   0 23.2775  1.3972   8 
  -1  -9   0 3.32880 0.40956   2 
   1   9   0 3.19439 0.59272   8 
   1   9   0 1.99366 0.43632   5 
   2   9   0 33.0483  1.7446   8 
   3   9   0 47.0734  1.7754   7 
   3   9  -1 45.4883  1.6969   7 
   2   9  -1 77.1253  3.2938   8 
  -2  -9   1 74.5932  2.6768   2 
   1   9  -1 31.2312  1.6831   8 
   1   9  -1 31.1742  1.5457   5 
  -1  -9   1 30.5558  1.2833   2 
   0   9  -1 16.3911  1.1838   8 
   0   9  -1 14.0705  1.0283   5 
   0  -9   1 15.0290  0.7181   2 
  -1   9  -1 19.7946  1.2437   5 
  -1   9  -1 20.9490  1.2173   8 
   4   8  -1 11.8224  0.5756   1 
   4   8  -1 13.4269  0.6463   7 
   3   8  -1 24.3600  1.5002   8 
   3   8  -1 22.2152  0.9786   1 
   3   8  -1 23.8450  1.1077   7 
   2   8  -1 23.3803  1.0917   1 
   2   8  -1 25.1111  1.2744   7 
   2   8  -1 30.7514  1.4518   5 
   2   8  -1 27.8610  1.7092   8 
   1   8  -1 13.8145  1.2599   8 
   1   8  -1 14.1386  1.2195   5 
  -1  -8   1 14.7789  0.9679   2 
   0   8  -1 0.68045 0.50739   5 
   0   8  -1 1.17763 0.53340   8 
   0  -8   1 0.72427 0.33624   2 
  -1   8  -1 14.9448  1.2755   8 
   1  -8   1 15.4304  0.7625   2 
  -2   8  -1 74.3504  3.2981   8 
   2  -8   1 73.5998  3.3198   3 
  -3   8  -1 135.657   5.386   8 
   3  -8   1 136.207   5.240   3 
   5   7  -1 31.9047  1.1128   7 
   5   7  -1 29.1016  1.1196   1 
   4   7  -1 41.4980  1.5613   1 
   4   7  -1 40.8866  1.6344   7 
   3   7  -1 82.2170  3.8263   8 
   3   7  -1 81.7879  3.0895   7 
   3   7  -1 82.6737  2.9239   1 
   2   7  -1 41.3459  2.3444   8 
   2   7  -1 41.6406  2.1493   5 
   2   7  -1 41.6141  1.6631   1 
   2   7  -1 44.0086  1.8956   7 
   1   7  -1 29.4674  1.8441   8 
   1   7  -1 28.6194  1.8736   5 
   1   7  -1 28.1668  2.6077   9 
   0   7  -1 138.482   5.990   8 
   0  -7   1 147.199   4.942   2 
  -1   7  -1 17.9670  1.4797   8 
   1  -7   1 19.6821  1.0278   2 
  -2   7  -1 0.72004 0.48262   8 
  -2   7  -1 1.80156 0.24499   2 
   2  -7   1 2.26387 0.63863   3 
  -3   7  -1 26.3629  1.5870   8 
  -3   7  -1 28.2722  1.0616   2 
   3  -7   1 25.4264  1.5290   3 
  -4   7  -1 15.9366  0.6147   2 
  -4   7  -1 14.1567  0.9754   8 
   4  -7   1 15.0504  1.0753   5 
   5   6  -1 0.96289 0.18713   1 
   5   6  -1 0.35097 0.15554   7 
   4   6  -1 28.6317  1.2368   7 
   4   6  -1 28.2385  1.1588   1 
   3   6  -1 297.167  11.832   8 
   3   6  -1 294.764  10.115   7 
   3   6  -1 310.814   9.854   1 
   2   6  -1 166.580   5.189   1 
   2   6  -1 148.204   6.353   5 
   2   6  -1 140.366   7.327  10 
   1   6  -1 221.329   8.703   6 
   1   6  -1 206.704   9.970  10 
   0   6  -1 43.9625  2.7847  10 
   0   6  -1 44.5095  2.2254   6 
  -1   6  -1 54.0002  2.6754   6 
   1  -6   1 56.4203  2.1339   2 
  -2   6  -1 232.578   9.245   8 
   2  -6   1 232.562   7.436   2 
  -3   6  -1 21.9648  1.5209   8 
   3  -6   1 23.9259  1.5183   3 
  -4   6  -1 19.9912  1.3043   8 
   4  -6   1 20.2829  1.4735   5 
   5   5  -1 326.453  10.633   7 
   4   5  -1 123.484   4.451   7 
   4   5  -1 136.546   4.349   1 
   3   5  -1 14.6568  1.4694  10 
   2   5  -1 137.996   6.824  10 
   2   5  -1 154.991   5.995   6 
   2   5  -1 138.478   8.214   9 
   1   5  -1 1144.13   49.63  10 
   1   5  -1 1182.60   44.19   6 
   0   5  -1 4.16022 0.54585   6 
   0   5  -1 4.31484 0.78312  10 
  -1   5  -1 118.172   4.788   6 
  -1   5  -1 110.067   2.770  15 
  -2   5  -1 74.8459  3.4034   6 
  -3   5  -1 180.369   7.334   8 
   3  -5   1 181.696   7.371   3 
  -4   5  -1 51.2559  2.5425   8 
   4  -5   1 52.4235  2.2496   3 
   4  -5   1 49.2486  2.7467   5 
   5  -5   1 60.1391  2.6777   5 
   4   4  -1 74.4642  3.7687  10 
   3   4  -1 247.062  11.313  10 
   3   4  -1 261.675  10.143   6 
   2   4  -1 938.795  39.470  10 
   2   4  -1 879.583  48.259   9 
   2   4  -1 957.987  35.183   6 
   1   4  -1 704.398  30.488  10 
   1   4  -1 719.742  27.092   6 
   0   4  -1 1020.60   23.48  15 
   0   4  -1 984.372  43.016  10 
   0   4  -1 1029.33   38.34   6 
  -1   4  -1 938.782  25.709  14 
  -1   4  -1 959.100  39.967  10 
  -1   4  -1 919.280  35.650   6 
  -2   4  -1 585.086  22.473   6 
  -3   4  -1 194.104   7.912   6 
   4  -4   1 20.7639  1.0932   1 
   4  -4   1 21.4021  1.6753   5 
   4  -4   1 21.5373  1.1813   3 
   5  -4   1 5.59908 0.53406   1 
   5  -4   1 5.61360 0.65461   5 
   5  -4   1 5.04408 0.53483  11 
   6  -4   1 26.8184  1.0464  11 
   6  -4   1 26.5409  1.0865   1 
   4   3  -1 12.7349  1.1224   6 
   4   3  -1 12.9892  1.0333  10 
   3   3  -1 151.574   5.961   6 
   3   3  -1 139.149   6.586  10 
   2   3  -1 739.243  29.900  10 
   2   3  -1 637.502  36.503   9 
   2   3  -1 728.057  26.671   6 
   1   3  -1 383.493  16.751  10 
   1   3  -1 393.139  14.859   6 
   0   3  -1 2079.01   90.03  10 
   0   3  -1 2138.22   80.48   6 
   0   3  -1 2159.26   49.55  15 
   0   3  -1 2171.22   58.02  14 
  -1   3  -1 454.060  16.906   6 
  -1   3  -1 460.487  18.937  10 
  -1   3  -1 448.333  12.186  14 
   1  -3   1 406.378  28.344   4 
  -2   3  -1 467.966  17.633   6 
   2  -3   1 449.926  29.777   4 
  -3   3  -1 77.6758  3.3612   6 
   3  -3   1 73.7311  5.8936   4 
  -4   3  -1 248.008  10.609   6 
   4  -3   1 274.667  10.782   5 
   4  -3   1 267.137   8.076  11 
   4  -3   1 274.569   8.854   1 
   5  -3   1 14.9458  1.0047   5 
   5  -3   1 13.7832  0.9143   1 
   5  -3   1 13.4565  0.8816  11 
   6  -3   1 27.3362  1.1125  11 
   6  -3   1 27.1879  1.1756   1 
   4   2  -1 493.406  18.926   6 
   4   2  -1 482.577  20.946  10 
   3   2  -1 1094.21   41.29   6 
   3   2  -1 1081.07   46.04  10 
   2   2  -1 198.537   8.847  10 
   2   2  -1 207.048   7.937   6 
   1   2  -1 1437.86   60.91  10 
   1   2  -1 1451.89   54.44   6 
   0   2  -1 611.871  14.448  15 
   0   2  -1 612.248  23.506   6 
   0   2  -1 626.966  26.337  10 
   0   2  -1 634.900  16.951  14 
  -1   2  -1 2007.51   81.20  10 
   1  -2   1 1852.16  122.32   4 
  -2   2  -1 540.780  20.028   6 
   2  -2   1 508.820  33.842   4 
  -3   2  -1 530.731  20.300   6 
   3  -2   1 527.108  34.479   4 
  -4   2  -1 245.688   9.851   6 
   4  -2   1 248.376  17.046   4 
   5  -2   1 107.317   3.762   1 
   5  -2   1 104.930   3.466  11 
   6  -2   1 92.3873  2.9785  11 
   6  -2   1 91.0251  3.2582   1 
   7  -2   1 60.1969  2.0495   7 
   7  -2   1 57.4502  2.0463   1 
   6   1  -1 20.9678  0.8181  11 
   5   1  -1 219.445   6.371  11 
  -5  -1   1 213.151   8.796   6 
   4   1  -1 49.5352  4.2181   4 
   4   1  -1 50.9376  2.4461   6 
   3   1  -1 1423.75   98.10   4 
   3   1  -1 1588.76   58.33   6 
   3   1  -1 1611.60   65.02  10 
   2   1  -1 580.423  40.078   4 
   2   1  -1 661.013  23.870   6 
   2   1  -1 641.972  26.599  10 
   1   1  -1 2746.75   99.79   6 
   1   1  -1 2434.93  167.73   4 
   1   1  -1 2761.46  111.50  10 
  -1   1  -1 819.279  32.987   6 
   1  -1   1 965.646  74.190  13 
   1  -1   1 837.267  55.590   4 
  -2   1  -1 249.254   9.446   6 
   2  -1   1 240.589  16.058   4 
  -3   1  -1 322.899  12.570   6 
   3  -1   1 327.242  21.469   4 
  -4   1  -1 28.9204  1.5550   6 
   4  -1   1 27.3183  2.8912   4 
   5  -1   1 116.580   4.107   1 
   5  -1   1 124.470   3.795  11 
   6  -1   1 16.0455  0.7752  11 
   6  -1   1 14.2112  0.7905   1 
   7  -1   1 50.8384  1.6682  11 
   7  -1   1 50.1518  1.8576   1 
   7  -1   1 55.2323  1.8231   7 
   7   0  -1 2.46301 0.27335   1 
   7   0  -1 2.29246 0.20066  11 
   6   0  -1 38.3699  1.4581   1 
   6   0  -1 36.3681  1.3422  11 
   5   0  -1 55.0406  1.8661  11 
  -5   0   1 57.3061  2.7649   6 
   4   0  -1 588.443  38.479   4 
  -4   0   1 589.815  22.688   6 
   3   0  -1 12.8245  1.7244   4 
   3   0  -1 12.6467  0.8601   6 
   2   0  -1 851.669  31.235   6 
   2   0  -1 796.413  52.587   4 
   0   0   1 0.62833 0.14673  13 
   1   0   1 -1.2058  0.0999   4 
  -2   0  -1 720.066  27.912   6 
   2   0   1 757.381  47.171   4 
  -3   0  -1 779.244  30.779   6 
   3   0   1 817.499  52.105   4 
   3   0   1 837.312  42.269   9 
  -4   0  -1 43.2227  2.1446   6 
   4   0   1 47.4684  4.0163   4 
   4   0   1 46.2400  2.8900   9 
   5   0   1 53.6872  1.8013  11 
   6   0   1 114.638   3.502  11 
   6   0   1 110.662   3.839   1 
   7   0   1 5.99387 0.41771   1 
   7  -1  -1 10.3313  0.4551  11 
   7  -1  -1 9.39690 0.51427   1 
   6  -1  -1 2.00356 0.31735  11 
   6  -1  -1 3.61357 0.39100   1 
   5  -1  -1 108.356   3.551  11 
   5  -1  -1 111.259   4.709   8 
   5  -1  -1 116.885   3.871   1 
   4  -1  -1 156.726  10.973   4 
  -4   1   1 147.430   6.264   6 
   3  -1  -1 222.752  15.467   4 
  -3   1   1 236.589   9.070   6 
   2  -1  -1 1415.40   89.41   4 
   2  -1  -1 1410.24   53.05   6 
  -2   1   1 1389.63   53.03   6 
   1  -1  -1 8175.46  315.62   6 
   1  -1  -1 8712.15  533.72   4 
  -1   1   1 8152.09  307.70   6 
  -1   1   1 7758.77  698.70  13 
   0  -1  -1 2392.69  151.53   4 
  -1  -1  -1 5010.61  324.06   4 
   2   1   1 736.838  28.084   6 
   2   1   1 764.737  31.373  10 
   2   1   1 727.674  47.379   4 
   3   1   1 928.208  35.504   6 
   3   1   1 957.321  59.972   4 
   3   1   1 927.277  48.798   9 
   4   1   1 437.927  27.206   4 
   4   1   1 389.572  21.828   9 
   6   1   1 26.4417  0.9629  11 
   7  -2  -1 0.69481 0.18216   1 
   7  -2  -1 0.98182 0.16496  11 
   6  -2  -1 11.0610  0.6982  11 
   6  -2  -1 11.5439  0.7558   1 
   5  -2  -1 159.927   5.306   1 
   5  -2  -1 151.522   6.294   8 
   5  -2  -1 154.761   4.860  11 
   4  -2  -1 224.426  15.558   4 
  -4   2   1 220.491   8.977   6 
   3  -2  -1 206.845  14.250   4 
  -3   2   1 209.381   8.289   6 
   2  -2  -1 2670.20  170.95   4 
  -2   2   1 2717.05  101.47   6 
   1  -2  -1 6346.36  401.88   4 
  -1   2   1 6354.42  238.85   6 
   0  -2  -1 4874.52  297.48   4 
   0   2   1 4526.64  176.78   6 
  -1  -2  -1 479.528  28.295   4 
   1   2   1 408.723  18.933  10 
  -2  -2  -1 621.169  43.949   4 
   2   2   1 697.123  29.326  10 
   2   2   1 751.752  26.181   6 
   2   2   1 698.775  36.077   9 
   3   2   1 6.81565 1.07263   4 
   3   2   1 7.25599 0.68304  10 
  -4  -2  -1 437.335  29.653   4 
   4   2   1 481.258  24.345   9 
   6  -3  -1 55.6030  1.9844  11 
   6  -3  -1 59.7013  2.1692   1 
   5  -3  -1 69.4109  2.4468  11 
   5  -3  -1 69.6908  2.6193   1 
   4  -3  -1 22.8237  1.0691   1 
   4  -3  -1 21.7192  1.5037   5 
   4  -3  -1 21.1653  1.0507  11 
  -4   3   1 22.1652  1.4009   6 
   3  -3  -1 293.096  20.073   4 
  -3   3   1 302.696  11.729   6 
   2  -3  -1 2030.13  133.95   4 
  -2   3   1 2181.21   79.48   6 
   1  -3  -1 2000.06  126.77   4 
  -1   3   1 1994.08   75.25   6 
   0  -3  -1 12.5143  1.2052   4 
   0   3   1 14.4176  0.5298  14 
   0   3   1 14.7298  0.9994  10 
   0   3   1 15.3095  0.7441   6 
   1   3   1 231.689  10.213  10 
   1   3   1 235.718   8.945   6 
   2   3   1 954.572  50.182   9 
   2   3   1 972.854  40.871  10 
   3   3   1 622.973  33.147   9 
   3   3   1 639.299  26.949  10 
   4   3   1 122.279   7.039   9 
   6  -4  -1 72.5083  2.3762  11 
   6  -4  -1 73.8615  2.5741   1 
   5  -4  -1 20.0242  1.0475   1 
   5  -4  -1 21.3206  1.0508  11 
   5  -4  -1 22.2775  1.2147   5 
   4  -4  -1 58.0864  2.9086   5 
   4  -4  -1 55.2399  2.2175   1 
   3  -4  -1 457.304  30.189   4 
  -3   4   1 454.468  17.721   6 
   2  -4  -1 1080.11   76.66   4 
  -2   4   1 1219.22   45.48   6 
  -2   4   1 1297.34   50.98  10 
  -1   4   1 687.449  26.224   6 
  -1   4   1 710.561  29.499  10 
  -1   4   1 669.340  18.896  14 
   0   4   1 130.677   3.813  14 
   0   4   1 134.024   6.154  10 
   0   4   1 134.255   5.291   6 
   1   4   1 1490.27   56.13   6 
   1   4   1 1485.83   63.02  10 
   2   4   1 230.854  10.015  10 
   2   4   1 216.583  12.183   9 
   3   4   1 11.3892  1.3407   9 
   3   4   1 11.1518  1.1115  10 
   5  -5  -1 17.4754  0.9757   5 
  -5   5   1 16.5327  1.1443   8 
   4  -5  -1 122.636   5.463   5 
   3  -5  -1 1408.98   52.76   3 
  -2   5   1 319.885  12.599   6 
  -1   5   1 424.994  16.450   6 
  -1   5   1 425.914  18.652  10 
  -1   5   1 425.972  11.868  14 
   0   5   1 923.695  25.651  14 
   0   5   1 920.998  40.091  10 
   0   5   1 965.457  35.585   6 
   1   5   1 615.931  26.655  10 
   2   5   1 173.972   9.866   9 
   2   5   1 173.546   8.108  10 
   3   5   1 81.8449  4.1720  10 
   3   5   1 78.7551  5.0775   9 
   4   5   1 156.064   5.238   7 
   4   5   1 150.260   7.188  10 
   5   5   1 125.081   4.169   7 
  -5   6   1 27.9863  1.4167   8 
   4  -6  -1 202.740   8.544   5 
  -4   6   1 210.079   8.221   8 
   3  -6  -1 106.104   4.563   3 
  -3   6   1 103.854   4.577   8 
  -2   6   1 249.016   9.870   8 
   1  -6  -1 415.898  13.447   2 
  -1   6   1 420.387  16.399   6 
  -1   6   1 429.153  18.713  10 
   0   6   1 566.933  24.804  10 
   1   6   1 304.999  14.240  10 
   1   6   1 326.090  17.379   9 
   2   6   1 55.8325  3.4118  10 
   2   6   1 63.2723  4.2364   9 
   3   6   1 175.391  10.274   9 
   3   6   1 176.711   5.872   1 
   3   6   1 176.232   6.103   7 
   4   6   1 51.6582  1.9070   1 
   4   6   1 52.6588  2.0474   7 
   5   6   1 74.1358  2.5827   7 
   5   6   1 75.7925  2.5703   1 
   4  -7  -1 285.355  11.209   5 
  -4   7   1 279.168  10.805   8 
   3  -7  -1 108.245   4.477   3 
  -3   7   1 104.692   4.534   8 
   2  -7  -1 119.651   5.461   3 
  -2   7   1 133.241   5.395   8 
   1  -7  -1 180.854   5.944   2 
  -1   7   1 176.726   7.325   8 
   0  -7  -1 139.162   4.827   2 
   0   7   1 141.375   5.884   8 
   1   7   1 5.18993 1.20085   9 
   1   7   1 4.66560 0.88164   5 
   1   7   1 7.93323 0.93540   8 
   2   7   1 197.092   6.982   7 
   2   7   1 187.383  11.551   9 
   2   7   1 207.922   8.255   5 
   2   7   1 204.414   6.684   1 
   3   7   1 345.274  11.281   1 
   3   7   1 345.633  11.599   7 
   4   7   1 147.251   4.969   1 
   4   7   1 148.977   5.121   7 
   5   7   1 125.108   4.181   1 
   5   7   1 126.922   4.204   7 
   3  -8  -1 1.88300 0.52717   5 
   2  -8  -1 2.15848 0.58119   3 
  -2   8   1 1.09927 0.47672   8 
   1  -8  -1 151.066   4.930   2 
  -1   8   1 150.191   6.226   8 
   0  -8  -1 29.7785  1.3829   2 
   0   8   1 33.0660  1.8828   8 
   0   8   1 28.8009  2.0173   5 
   1   8   1 70.4161  3.4784   5 
   1   8   1 72.9945  3.3768   8 
   2   8   1 58.2099  2.3603   7 
   2   8   1 64.2244  2.7301   5 
   2   8   1 52.8682  2.1199   1 
   3   8   1 94.7235  3.3221   1 
   3   8   1 96.7003  3.5044   7 
   4   8   1 20.2542  0.9130   7 
   4   8   1 19.3520  0.8432   1 
   5   8   1 99.0912  3.2747   1 
  -2   9   1 105.814   4.235   8 
  -1   9   1 180.058   7.090   8 
   0  -9  -1 10.7761  0.6146   2 
   0   9   1 13.0273  1.0260   8 
   0   9   1 9.32704 0.93788   5 
  -1  -9  -1 3.37035 0.41689   2 
   1   9   1 3.16064 0.60638   8 
   1   9   1 2.41848 0.49000   5 
   3   9   1 24.3094  1.0196   7 
   3   9   1 21.8049  0.9038   1 
   4   9   1 5.81834 0.34436   7 
   3   9  -2 54.1301  1.9496   7 
   2   9  -2 51.9894  2.3156   8 
  -2  -9   2 49.3896  1.8721   2 
   1   9  -2 15.1189  1.1215   8 
   1   9  -2 14.9764  0.8681   5 
  -1  -9   2 14.8220  0.7647   2 
   0   9  -2 56.7714  2.6975   5 
   0   9  -2 64.0413  2.7328   8 
   0  -9   2 60.6278  2.0397   2 
  -1   9  -2 1.65896 0.42011   8 
   4   8  -2 50.8834  2.3262   8 
   4   8  -2 51.8346  1.8155   1 
   4   8  -2 52.2823  1.8850   7 
   3   8  -2 9.72791 0.68393   7 
   3   8  -2 8.20248 0.49863   1 
   3   8  -2 9.62582 0.94419   8 
   2   8  -2 16.5879  1.3734   8 
   2   8  -2 16.6622  0.9621   7 
   2   8  -2 18.0452  1.0263   5 
   1   8  -2 3.47829 0.60495   5 
   1   8  -2 5.09884 0.81185   8 
  -1  -8   2 4.34039 0.52942   2 
   0   8  -2 66.4336  3.2430   5 
   0   8  -2 69.8507  3.1561   8 
   0  -8   2 61.8862  2.4374   2 
  -1   8  -2 4.00928 0.66980   8 
   1  -8   2 4.55113 0.38207   2 
  -2   8  -2 13.2058  1.0846   8 
   2  -8   2 16.3611  1.2161   3 
   5   7  -2 60.1447  1.9696   7 
   5   7  -2 55.7556  1.9839   1 
   4   7  -2 33.6232  1.8791   8 
   4   7  -2 33.9647  1.3691   7 
   4   7  -2 32.2277  1.2809   1 
   3   7  -2 137.227   5.873   8 
   3   7  -2 141.964   4.895   7 
   3   7  -2 136.995   4.704   1 
   2   7  -2 171.776   5.837   1 
   2   7  -2 178.516   7.138   5 
   2   7  -2 171.467   6.086   7 
   2   7  -2 172.503   7.202   8 
   1   7  -2 225.212   9.085   8 
   0   7  -2 157.093   6.409   8 
   0  -7   2 149.027   5.231   2 
  -1   7  -2 4.72503 0.76298   8 
   1  -7   2 4.45715 0.51092   2 
  -2   7  -2 12.7596  1.1621   8 
   2  -7   2 11.5066  1.1461   3 
  -3   7  -2 100.729   3.260   2 
  -3   7  -2 99.9475  4.2489   8 
   3  -7   2 99.5647  4.2381   3 
   4  -7   2 -0.0726  0.3469   5 
   5   6  -2 7.37440 0.41066   7 
   5   6  -2 7.26233 0.40715   1 
   4   6  -2 30.3523  1.8644   8 
   4   6  -2 28.7545  1.2670   7 
   4   6  -2 30.2577  1.2029   1 
   3   6  -2 476.592  15.637   7 
   3   6  -2 460.049  18.159   8 
   3   6  -2 481.742  15.315   1 
   2   6  -2 492.376  19.029   5 
   2   6  -2 459.281  18.580   8 
   2   6  -2 495.821  16.128   7 
   2   6  -2 474.371  18.973   6 
   2   6  -2 504.182  15.740   1 
   1   6  -2 150.364   5.164   1 
   1   6  -2 152.889   6.572   5 
   1   6  -2 152.947   7.365  10 
   1   6  -2 155.206   6.435   6 
   0   6  -2 35.8818  1.9494   6 
  -1   6  -2 92.0875  4.1274   8 
  -1   6  -2 92.1774  4.1400   6 
  -1   6  -2 91.5208  3.0711   2 
   1  -6   2 96.0918  3.3166   2 
  -2   6  -2 45.4296  2.4032   8 
  -3   6  -2 78.7528  3.5807   8 
   3  -6   2 78.5697  3.5929   3 
   4  -6   2 40.5576  2.2211   5 
  -5   6  -2 23.9564  0.9209   2 
   5   5  -2 37.9943  1.4165   7 
   5   5  -2 38.6143  2.0582   8 
   5   5  -2 40.1427  1.4074   1 
   4   5  -2 318.161  10.719   7 
   4   5  -2 338.738  10.531   1 
   4   5  -2 315.767  12.660   8 
   3   5  -2 154.968   4.872   1 
   3   5  -2 138.405   6.882  10 
   3   5  -2 138.686   6.178   6 
   2   5  -2 263.677  10.234   6 
   2   5  -2 247.523  11.533  10 
   1   5  -2 62.0048  2.8031   6 
   1   5  -2 58.0372  3.2656  10 
   0   5  -2 148.156   7.036  10 
   0   5  -2 151.273   6.145   6 
  -1   5  -2 57.6274  1.4738  15 
  -1   5  -2 59.2688  2.7294   6 
  -2   5  -2 338.563  13.256   6 
   2  -5   2 333.388  10.683   2 
  -3   5  -2 54.4231  2.8183   8 
   3  -5   2 62.2428  2.8608   3 
   4  -5   2 136.763   6.003   5 
   4  -5   2 137.500   5.407   3 
   5  -5   2 6.57541 0.65014   5 
   5   4  -2 55.3919  1.9313   7 
   5   4  -2 54.8881  2.6866   8 
   4   4  -2 67.6516  2.3047   7 
   4   4  -2 59.9126  3.3252  10 
   3   4  -2 117.998   5.001   6 
   3   4  -2 113.365   5.510  10 
   2   4  -2 213.186   8.444   6 
   2   4  -2 210.835   9.540  10 
   1   4  -2 524.867  23.341  10 
   1   4  -2 559.100  20.786   6 
   0   4  -2 399.989  18.026  10 
   0   4  -2 431.875  16.055   6 
  -1   4  -2 315.243   7.555  15 
  -1   4  -2 326.672  12.462   6 
  -1   4  -2 318.356   8.982  14 
  -2   4  -2 273.127  10.786   6 
  -3   4  -2 220.574   8.927   6 
   4  -4   2 94.2496  4.3640   5 
   4  -4   2 94.5121  3.8739   3 
   5  -4   2 22.1186  1.0428   1 
   5  -4   2 21.2440  1.3307   5 
   5  -4   2 21.5405  1.0608  11 
   6  -4   2 72.8065  2.5291   1 
   6  -4   2 73.3519  2.6645   7 
   5   3  -2 32.7580  1.2243   7 
   5   3  -2 32.7861  1.8405   8 
   4   3  -2 38.3707  2.2026  10 
   4   3  -2 41.6320  2.1857   6 
   3   3  -2 124.351   5.236   6 
   3   3  -2 124.228   5.757  10 
   2   3  -2 58.7202  3.0292  10 
   2   3  -2 63.2396  2.7034   6 
   1   3  -2 1077.15   45.44  10 
   1   3  -2 1067.46   40.57   6 
   0   3  -2 841.148  31.300   6 
   0   3  -2 839.112  19.181  15 
   0   3  -2 795.759  35.034  10 
  -1   3  -2 201.698   7.851   6 
  -1   3  -2 198.183   5.661  14 
  -2   3  -2 203.886   8.103   6 
  -2   3  -2 197.991   5.834  14 
   2  -3   2 212.395  13.716   4 
  -3   3  -2 526.993  20.783   6 
   3  -3   2 552.181  35.246   4 
  -4   3  -2 74.0543  3.5283   6 
   4  -3   2 79.0907  2.6892  11 
   4  -3   2 80.4615  2.8853   1 
   4  -3   2 76.0319  3.6131   5 
   5  -3   2 9.02388 0.83010   5 
   5  -3   2 9.48462 0.72215   1 
   5  -3   2 8.24133 0.67215  11 
   6  -3   2 1.53414 0.29491  11 
   6  -3   2 1.18407 0.27998   1 
   6   2  -2 52.7838  1.6660  11 
   5   2  -2 13.7601  1.1807   8 
   4   2  -2 146.824   6.273   6 
   4   2  -2 151.214   6.793  10 
   3   2  -2 77.1742  3.7156  10 
   3   2  -2 79.3934  3.4632   6 
   2   2  -2 1826.79   76.81  10 
   2   2  -2 1816.88   68.78   6 
   1   2  -2 2264.26   97.64  10 
   1   2  -2 2375.29   87.35   6 
   0   2  -2 82.0554  5.0360   4 
   0   2  -2 69.0562  3.5093  10 
   0   2  -2 80.6035  1.8605  15 
  -1   2  -2 61.2907  1.8615  14 
  -1   2  -2 60.1214  2.5763   6 
  -1   2  -2 57.0023  2.8273  10 
   1  -2   2 65.8659  4.3860   4 
   1  -2   2 66.7462  5.6413  13 
  -2   2  -2 571.376  21.452   6 
   2  -2   2 554.113  36.231   4 
  -3   2  -2 362.043  13.931   6 
   3  -2   2 356.505  23.731   4 
  -4   2  -2 38.0512  1.9434   6 
   4  -2   2 36.2143  3.6182   4 
   5  -2   2 53.3628  2.0623   1 
   5  -2   2 50.7630  1.9094  11 
   6  -2   2 9.69814 0.63819  11 
   6  -2   2 10.6740  0.7087   1 
   7  -2   2 65.1863  2.3204   1 
   7  -2   2 70.7212  2.3498   7 
   7   1  -2 5.26469 0.34023   1 
   6   1  -2 47.3352  1.5433  11 
   6   1  -2 44.7574  1.6523   1 
   5   1  -2 59.3291  2.7835   8 
  -5  -1   2 56.4581  2.8539   6 
   4   1  -2 367.856  14.317   6 
   4   1  -2 358.645  24.115   4 
   3   1  -2 170.004   7.327  10 
   3   1  -2 162.778   6.701   6 
   3   1  -2 162.367  11.232   4 
   2   1  -2 806.418  32.299  10 
   2   1  -2 677.979  48.620   4 
   2   1  -2 803.885  28.997   6 
   1   1  -2 213.302   8.262   6 
   1   1  -2 214.791   9.228  10 
   0   1  -2 3022.93  121.05   6 
   0   1  -2 3099.02  135.33  10 
   0   1  -2 3527.54  203.71   4 
  -1   1  -2 1324.75   53.45   6 
  -1   1  -2 1382.44   38.53  14 
   1  -1   2 1566.07   90.10   4 
   1  -1   2 1405.86  120.30  13 
  -2   1  -2 672.403  26.838   6 
   2  -1   2 717.138  36.910   9 
   2  -1   2 734.871  45.409   4 
  -3   1  -2 14.4226  0.8832   6 
   3  -1   2 17.1275  1.8745   4 
  -4   1  -2 556.542  21.397   6 
   5  -1   2 43.1846  1.7618   1 
   5  -1   2 47.3117  1.6640  11 
   6  -1   2 88.6246  2.8692  11 
   6  -1   2 89.2083  3.1547   1 
   7  -1   2 288.342   9.519   1 
   7  -1   2 299.924   9.605   7 
   7   0  -2 50.3280  1.5122  11 
   7   0  -2 47.9799  1.7334   1 
   6   0  -2 16.8756  1.1830   8 
   6   0  -2 19.6301  0.8196  11 
   6   0  -2 18.9988  0.8663   1 
   5   0  -2 33.4228  1.2443   1 
   5   0  -2 31.6354  1.2046  11 
   5   0  -2 30.2538  1.7698   8 
  -5   0   2 30.6199  1.8527   6 
   4   0  -2 118.650   8.817   4 
   4   0  -2 119.842   5.129   6 
   3   0  -2 391.125  27.307   4 
   3   0  -2 445.906  16.238   6 
   2   0  -2 205.517   7.956   6 
   2   0  -2 199.261  13.382   4 
   1   0  -2 534.266  19.862   6 
   1   0  -2 512.107  33.370   4 
   0   0  -2 -1.1899  0.0957   4 
   0   0   2 -1.1537  0.0827  13 
  -1   0  -2 3500.49   88.81  14 
  -1   0  -2 3208.60  207.45   4 
   1   0   2 3117.49  277.62  13 
  -2   0  -2 797.520  31.043   6 
   2   0   2 847.012  42.774   9 
  -3   0  -2 1036.53   41.14   6 
   3   0   2 1103.78   56.62   9 
   3   0   2 1126.49   69.64   4 
   4   0   2 3.14009 0.65753   9 
   4   0   2 3.20781 1.04742   4 
   5   0   2 19.6234  0.8537  11 
   6   0   2 146.524   4.340  11 
   6   0   2 137.405   4.780   1 
   7   0   2 148.770   4.902   1 
   7  -1  -2 13.4098  0.6124   1 
   7  -1  -2 13.2147  0.5261  11 
   6  -1  -2 26.6200  1.5219   8 
   6  -1  -2 27.6460  1.1937   1 
   6  -1  -2 30.6310  1.1513  11 
   5  -1  -2 18.2249  0.8876   1 
   5  -1  -2 19.6596  1.3047   8 
   5  -1  -2 18.0957  0.8681  11 
   4  -1  -2 90.8536  7.2367   4 
  -4   1   2 94.6337  4.1279   6 
   3  -1  -2 197.611  14.054   4 
  -3   1   2 215.443   8.258   6 
   2  -1  -2 181.962  12.210   4 
   2  -1  -2 183.588   7.204   6 
   1  -1  -2 286.531  11.262   6 
  -1   1   2 301.346  25.216  13 
   0  -1  -2 358.987  22.957   4 
  -1  -1  -2 232.791  14.613   4 
  -1  -1  -2 221.996   5.319  15 
  -2  -1  -2 1835.19  119.96   4 
   2   1   2 1951.17   98.00   9 
   3   1   2 1.15756 0.63671   4 
   3   1   2 1.49645 0.52394   9 
   4   1   2 56.5420  4.4197   4 
   4   1   2 49.2383  3.3645   9 
   5   1   2 23.3207  1.8571   9 
   5   1   2 19.8039  0.8206  11 
   6   1   2 212.150   6.907   7 
   6   1   2 205.475   6.174  11 
   7   1   2 6.30941 0.37725   1 
   6  -2  -2 18.0710  0.8843   1 
   6  -2  -2 17.1767  0.8469  11 
   6  -2  -2 19.0932  1.1519   8 
   5  -2  -2 247.111   8.240   1 
   5  -2  -2 250.422   7.521  11 
   5  -2  -2 246.175   9.734   8 
   4  -2  -2 104.983   8.307   4 
  -4   2   2 110.894   4.737   6 
   3  -2  -2 596.073  40.041   4 
  -3   2   2 634.246  23.636   6 
   2  -2  -2 240.199  16.481   4 
  -2   2   2 256.394   9.702   6 
   1  -2  -2 343.671  22.090   4 
  -1   2   2 340.201  13.063   6 
  -1  -2  -2 103.418   6.150   4 
   1   2   2 82.6936  4.1758  10 
  -2  -2  -2 963.393  60.257   4 
   2   2   2 973.052  49.387   9 
   2   2   2 905.274  40.084  10 
  -3  -2  -2 25.6729  2.1698   4 
   3   2   2 30.2373  2.0961   9 
  -4  -2  -2 80.6718  5.8499   4 
   4   2   2 82.5703  4.9666   9 
   6  -3  -2 142.042   4.844   1 
   6  -3  -2 143.495   4.420  11 
   5  -3  -2 88.3152  2.9163  11 
   5  -3  -2 81.2594  3.7129   8 
   5  -3  -2 86.1775  3.1159   1 
   4  -3  -2 62.0693  2.3166   1 
   4  -3  -2 60.5728  2.1866  11 
   4  -3  -2 61.7092  2.9427   5 
   4  -3  -2 60.1933  2.8385   8 
  -4   3   2 59.4028  2.9360   6 
  -3   3   2 8.16518 0.80325   6 
   2  -3  -2 631.867  41.820   4 
  -2   3   2 662.253  24.723   6 
   1  -3  -2 131.752   8.791   4 
  -1   3   2 127.264   5.124   6 
   0  -3  -2 83.0551  5.6265   4 
   0   3   2 83.7268  3.3100   6 
   0   3   2 82.6469  2.3851  14 
   1   3   2 161.185   7.153  10 
   1   3   2 160.270   8.731   9 
   2   3   2 1340.31   67.82   9 
   2   3   2 1267.55   55.14  10 
   3   3   2 131.549   5.806  10 
   3   3   2 122.898   7.229   9 
   4   3   2 248.279  13.650   9 
   6  -4  -2 22.3447  0.9103  11 
   6  -4  -2 22.7817  0.9574   1 
  -6   4   2 22.7374  1.2275   8 
   5  -4  -2 30.1768  1.3289   1 
   5  -4  -2 29.5130  1.4428   5 
   5  -4  -2 28.2788  1.2856  11 
   4  -4  -2 79.6580  2.9472   1 
   4  -4  -2 78.8732  3.7656   5 
   3  -4  -2 65.0718  5.5966   4 
  -3   4   2 69.3626  3.1397   6 
   2  -4  -2 471.020  31.671   4 
  -2   4   2 497.042  18.671   6 
   1  -4  -2 152.164  11.018   4 
  -1   4   2 173.827   6.498   6 
   0   4   2 74.8959  3.8245  10 
   0   4   2 78.2275  2.3144  14 
   0   4   2 80.2995  3.2133   6 
   1   4   2 85.5097  4.1748  10 
   1   4   2 84.1289  5.0090   9 
   2   4   2 428.394  18.716  10 
   2   4   2 434.354  22.972   9 
   3   4   2 226.303   9.998  10 
   3   4   2 220.314  12.335   9 
   4   4   2 104.225   6.339   9 
  -5   5   2 17.4616  1.1799   8 
   4  -5  -2 207.537   8.681   5 
   3  -5  -2 453.394  18.799   5 
   3  -5  -2 484.982  18.033   3 
  -2   5   2 332.908  12.722   6 
  -2   5   2 312.033  14.404  10 
  -1   5   2 7.95392 1.06266  10 
  -1   5   2 11.0989  0.8905   6 
   0   5   2 180.039   8.341  10 
   1   5   2 253.052  13.637   9 
   1   5   2 243.069  11.202  10 
   2   5   2 552.207  29.125   9 
   2   5   2 540.389  23.759  10 
   3   5   2 81.0449  4.1775  10 
   3   5   2 80.3718  5.1680   9 
   4   5   2 210.631  12.152   9 
   4   5   2 217.326   7.204   7 
   5   5   2 59.2959  2.1014   7 
  -5   6   2 6.20130 0.63059   8 
   4  -6  -2 167.341   6.931   5 
  -4   6   2 161.219   6.643   8 
   3  -6  -2 84.7263  3.7414   3 
  -3   6   2 81.2029  3.7514   8 
   2  -6  -2 185.685   7.986   3 
  -2   6   2 201.459   7.856   8 
  -1   6   2 116.191   5.877  10 
   0   6   2 204.237   9.584  10 
   1   6   2 108.596   5.656  10 
   1   6   2 114.412   6.806   9 
   2   6   2 5.30443 1.22533   9 
   2   6   2 7.56836 1.19140  10 
   3   6   2 103.966   6.661   9 
   3   6   2 103.940   4.273   5 
   3   6   2 103.429   3.631   1 
   3   6   2 108.215   3.868   7 
   3   6   2 111.423   5.459  10 
   4   6   2 31.6674  1.3896   7 
   4   6   2 26.7735  2.9209   9 
   4   6   2 33.4388  1.2715   1 
   5   6   2 5.84289 0.41537   1 
   5   6   2 6.12331 0.43844   7 
   4  -7  -2 164.848   6.681   5 
  -4   7   2 163.252   6.451   8 
   3  -7  -2 239.403   9.580   3 
  -3   7   2 252.588   9.665   8 
   2  -7  -2 2.86880 0.68245   3 
  -2   7   2 2.31751 0.60867   8 
   1  -7  -2 26.0640  1.2129   2 
  -1   7   2 24.2348  1.9107   3 
  -1   7   2 26.3760  1.6795   8 
   0  -7  -2 113.821   3.975   2 
   0   7   2 107.863   6.934   9 
   0   7   2 114.455   4.963   3 
   0   7   2 115.607   4.882   8 
   1   7   2 285.913  12.019   5 
   1   7   2 299.213  16.369   9 
   2   7   2 14.3294  0.7887   1 
   2   7   2 13.5833  1.9951   9 
   2   7   2 11.1438  0.9575   7 
   2   7   2 19.2153  1.4605   5 
   3   7   2 95.8259  6.5824   9 
   3   7   2 104.816   3.831   7 
   3   7   2 107.529   3.623   1 
   4   7   2 205.635   6.759   1 
   4   7   2 203.037   6.955   7 
   5   7   2 155.627   5.123   7 
   5   7   2 151.946   5.071   1 
   3  -8  -2 17.5711  1.2464   5 
  -3   8   2 18.1325  1.0954   8 
   2  -8  -2 39.7987  2.1136   3 
  -2   8   2 42.8242  2.1173   8 
   0  -8  -2 160.942   5.438   2 
   0   8   2 167.093   6.648   8 
   0   8   2 156.585   7.123   5 
  -1  -8  -2 6.43192 0.64267   2 
   1   8   2 7.64693 1.03112   5 
   2   8   2 47.1213  2.2451   5 
   2   8   2 40.6133  1.7009   1 
   2   8   2 46.6605  1.9462   7 
   3   8   2 122.410   4.309   7 
   3   8   2 118.185   4.093   1 
   4   8   2 29.7329  1.2463   7 
   4   8   2 29.0431  1.1597   1 
   5   8   2 26.0441  0.9679   1 
   0  -9  -2 15.8105  0.7476   2 
   0   9   2 15.0060  1.2590   5 
   0   9   2 16.7881  1.1227   8 
  -1  -9  -2 67.6693  2.4538   2 
   1   9   2 68.1415  3.0918   5 
   3   9   2 9.60821 0.64647   7 
   4   9   2 0.38958 0.15418   7 
   2   9  -3 18.3747  1.0607   8 
   1   9  -3 1.05274 0.39112   8 
  -1  -9   3 0.46765 0.22987   2 
   0   9  -3 107.152   4.260   8 
   0   9  -3 101.885   4.302   5 
   4   8  -3 15.0123  0.8883   8 
   4   8  -3 14.2866  0.6234   7 
   4   8  -3 13.1772  0.5865   1 
   3   8  -3 7.40047 0.56301   7 
   3   8  -3 6.35090 0.44175   1 
   3   8  -3 7.42118 0.80537   8 
   2   8  -3 5.54837 0.78734   8 
   1   8  -3 42.5417  2.1015   5 
   1   8  -3 39.2429  2.1724   8 
  -1  -8   3 39.3047  1.6982   2 
   0   8  -3 137.511   6.177   5 
   0   8  -3 149.564   6.026   8 
   0  -8   3 147.366   4.887   2 
  -1   8  -3 0.75144 0.46733   8 
  -2   8  -3 0.96433 0.40852   8 
   2  -8   3 0.12493 0.40053   3 
   5   7  -3 68.1593  2.2898   1 
   4   7  -3 62.9562  2.2486   1 
   4   7  -3 63.9322  2.3431   7 
   4   7  -3 65.7305  2.9679   8 
   3   7  -3 67.0154  2.4037   1 
   3   7  -3 67.5225  3.1861   8 
   3   7  -3 65.3680  2.5423   7 
   2   7  -3 80.9321  3.5703   5 
   2   7  -3 80.4374  3.0902   7 
   2   7  -3 84.2380  3.8116   8 
   2   7  -3 78.9875  2.8793   1 
   1   7  -3 64.4202  3.1720   8 
   1   7  -3 65.0304  3.1657   5 
   1   7  -3 62.6196  2.6026   3 
   0   7  -3 15.3016  1.3900   8 
   0   7  -3 17.5113  1.6151   5 
   0  -7   3 20.3308  1.0923   2 
  -1   7  -3 19.7110  1.5171   8 
   1  -7   3 19.8526  1.0372   2 
  -2   7  -3 43.6056  2.2864   8 
   2  -7   3 45.7167  2.4304   3 
   3  -7   3 109.937   4.565   3 
   4  -7   3 9.75628 0.80832   5 
   5   6  -3 1.93822 0.22169   7 
   5   6  -3 1.68244 0.46243   8 
   5   6  -3 1.70398 0.21446   1 
   4   6  -3 21.6869  1.0184   7 
   4   6  -3 21.4863  0.9220   1 
   4   6  -3 20.8840  1.4812   8 
   3   6  -3 89.9572  3.2660   7 
   3   6  -3 91.3534  3.1128   1 
   3   6  -3 81.2065  3.9883   8 
   2   6  -3 238.322   9.763   8 
   2   6  -3 245.998   9.838   5 
   2   6  -3 251.498   8.080   1 
   2   6  -3 238.975   8.320   7 
   1   6  -3 1293.03   49.12   5 
   1   6  -3 1259.86   47.43   8 
   1   6  -3 1260.96   48.50   6 
   0   6  -3 263.654  10.668   8 
   0   6  -3 274.301  10.887   6 
   0  -6   3 273.522   8.898   2 
  -1   6  -3 43.4641  2.3865   8 
  -1   6  -3 45.0021  1.5762   2 
   1  -6   3 47.7967  1.8748   2 
  -2   6  -3 223.979   7.322   2 
  -2   6  -3 231.579   9.095   8 
  -3   6  -3 52.3303  1.9119   2 
   3  -6   3 49.3635  2.5557   3 
  -4   6  -3 1.70668 0.27687   2 
   4  -6   3 0.85039 0.52051   5 
   6   5  -3 7.26375 0.33030   1 
   5   5  -3 32.0599  1.8097   8 
   5   5  -3 34.2991  1.2462   1 
   5   5  -3 33.2888  1.2630   7 
   4   5  -3 336.878  10.925   7 
   4   5  -3 321.524  12.871   8 
   4   5  -3 330.857  10.704   1 
   3   5  -3 70.6430  2.4699   1 
   3   5  -3 68.2464  3.2741   8 
   3   5  -3 69.3648  2.5936   7 
   3   5  -3 66.9256  3.3723   6 
   2   5  -3 684.962  29.301  10 
   2   5  -3 671.936  26.153   6 
   1   5  -3 309.034  13.734  10 
   1   5  -3 308.722  12.229   6 
   0   5  -3 99.2737  4.2953   6 
  -1   5  -3 23.0095  1.4101   6 
  -2   5  -3 154.499   6.604   6 
   2  -5   3 161.923   5.214   2 
   3  -5   3 16.7862  1.3713   3 
   4  -5   3 123.690   5.575   5 
   4  -5   3 127.648   4.965   3 
  -5   5  -3 27.0821  1.1782   2 
   5  -5   3 29.5534  1.4407   5 
   6   4  -3 16.4145  0.6373   1 
   6   4  -3 16.8712  1.0348   8 
   5   4  -3 30.5118  1.7711   8 
   5   4  -3 29.7938  1.1427   1 
   5   4  -3 32.1316  1.1947   7 
   4   4  -3 152.070   4.813   1 
   4   4  -3 140.135   6.052   8 
   4   4  -3 142.467   4.942   7 
   3   4  -3 38.0792  2.2791  10 
   3   4  -3 40.2249  2.1576   6 
   2   4  -3 612.885  26.755  10 
   2   4  -3 630.882  23.920   6 
   1   4  -3 217.003   8.428   6 
   1   4  -3 205.463   9.453  10 
   0   4  -3 258.178  10.016   6 
   0   4  -3 251.447  11.237  10 
  -1   4  -3 717.474  27.727   6 
  -1   4  -3 733.086  16.937  15 
  -2   4  -3 27.9853  1.5575   6 
  -2   4  -3 27.9692  0.8735  15 
  -3   4  -3 75.0062  3.4512   6 
   3  -4   3 74.4409  3.4188   3 
   4  -4   3 68.8083  3.4914   5 
   4  -4   3 74.3985  3.0747   3 
   5  -4   3 233.281   8.413   7 
   5  -4   3 257.019   9.822   5 
   6   3  -3 25.6700  1.4210   8 
   5   3  -3 18.8116  0.8414   7 
   5   3  -3 19.4144  1.4456   8 
   4   3  -3 181.493   7.597   6 
   3   3  -3 328.143  13.188   6 
   3   3  -3 340.399  14.625  10 
   2   3  -3 294.261  12.997  10 
   2   3  -3 300.424  11.645   6 
   1   3  -3 119.871   4.920   6 
   1   3  -3 122.899   5.557  10 
   0   3  -3 137.288   5.403   6 
   0   3  -3 132.992   6.066  10 
  -1   3  -3 857.521  23.090  14 
  -1   3  -3 839.597  32.011   6 
  -1   3  -3 831.940  19.651  15 
  -2   3  -3 67.2188  2.1702  14 
  -2   3  -3 70.0795  3.0213   6 
  -3   3  -3 36.7510  1.9013   6 
  -4   3  -3 123.957   5.234   6 
   4  -3   3 118.257   3.925  11 
   4  -3   3 118.069   5.309   5 
   4  -3   3 122.743   4.808   3 
   4  -3   3 124.044   4.272   1 
   5  -3   3 262.148   8.620   1 
   5  -3   3 254.109  10.317   5 
   5  -3   3 261.587   7.878  11 
   6  -3   3 55.0310  2.0821   7 
   6  -3   3 52.0318  1.9642   1 
   6   2  -3 4.64580 0.34005   1 
   6   2  -3 5.01382 0.64313   8 
   6   2  -3 4.99861 0.33250  11 
   5   2  -3 296.933   9.714   7 
   5   2  -3 290.918  11.466   8 
   4   2  -3 33.5861  1.9598   6 
   3   2  -3 196.547   8.171   6 
   3   2  -3 207.161   8.981  10 
   2   2  -3 96.6623  3.9621   6 
   2   2  -3 90.9858  4.3323  10 
   1   2  -3 1195.35   45.11   6 
   1   2  -3 1190.59   50.42  10 
   0   2  -3 56.9185  2.7323  10 
   0   2  -3 60.1440  2.4305   6 
  -1   2  -3 119.435   8.057   4 
  -1   2  -3 121.950   4.876   6 
  -1   2  -3 124.107   3.522  14 
  -1   2  -3 120.128   2.962  15 
   1  -2   3 129.866  10.906  13 
  -2   2  -3 5.39876 0.38045  14 
  -2   2  -3 5.45608 0.53102   6 
  -2   2  -3 5.47520 0.86223   4 
  -3   2  -3 7.04985 0.66408   6 
  -3   2  -3 4.90689 0.42277  14 
  -3   2  -3 4.43273 0.95588   4 
   3  -2   3 5.64604 1.19810   4 
  -4   2  -3 339.536  23.926   4 
   4  -2   3 387.955  24.435   4 
   5  -2   3 170.066   5.222  11 
   5  -2   3 167.398   5.712   1 
   5  -2   3 165.222   6.701   5 
   6  -2   3 33.3227  1.3292   1 
   6  -2   3 31.0903  1.3958   7 
   6  -2   3 30.2789  1.2267  11 
   7  -2   3 76.7000  2.6716   1 
   7  -2   3 82.5857  2.7098   7 
   7   1  -3 13.7900  0.5693   1 
   6   1  -3 126.493   5.263   8 
   6   1  -3 131.756   3.922  11 
   6   1  -3 127.658   4.287   1 
   5   1  -3 80.8898  3.6575   8 
   5   1  -3 81.8321  2.7707   1 
   4   1  -3 180.515   7.515   6 
   3   1  -3 763.189  28.535   6 
   3   1  -3 724.956  47.900   4 
   2   1  -3 2005.81   74.56   6 
   2   1  -3 2043.76   83.18  10 
   2   1  -3 1873.04  125.32   4 
   1   1  -3 2253.66  147.13   4 
   1   1  -3 2375.39   87.49   6 
   1   1  -3 2340.59   97.72  10 
   0   1  -3 622.056  23.105   6 
   0   1  -3 571.066  38.784   4 
   0   1  -3 639.123  25.811  10 
  -1   1  -3 234.706   9.123   6 
  -1   1  -3 238.355   6.581  14 
  -1   1  -3 238.173  15.340   4 
  -1   1  -3 235.100   5.610  15 
   1  -1   3 247.102  20.649  13 
  -2   1  -3 599.426  16.019  14 
  -2   1  -3 602.406  22.225   6 
  -2   1  -3 544.833  37.420   4 
   2  -1   3 595.117  30.602   9 
  -3   1  -3 562.089  39.417   4 
  -3   1  -3 610.628  23.365   6 
   3  -1   3 670.697  39.795   4 
  -4   1  -3 44.8883  3.8969   4 
   4  -1   3 49.2454  4.2445   4 
   5  -1   3 88.6074  3.1228   1 
   5  -1   3 85.1188  2.8523  11 
   6  -1   3 72.0491  2.6137   1 
   6  -1   3 73.3004  2.3975  11 
   6  -1   3 71.2709  2.6925   7 
   7  -1   3 281.709   9.204   7 
   7  -1   3 281.805   9.107   1 
   7   0  -3 101.669   3.374   1 
   6   0  -3 26.8689  1.0897   1 
   6   0  -3 24.6363  1.4698   8 
   6   0  -3 26.1658  1.1008   1 
   6   0  -3 26.6094  1.0347  11 
   5   0  -3 40.5896  2.1448   8 
   5   0  -3 40.0246  1.4825  11 
   5   0  -3 41.3390  1.5479   1 
   4   0  -3 294.672  20.074   4 
   4   0  -3 294.488  11.806   6 
   3   0  -3 1.15899 0.70326   4 
   3   0  -3 0.76039 0.35147   6 
   2   0  -3 510.865  20.174   6 
   2   0  -3 487.666  33.917   4 
  -2   0   3 578.143  45.052  13 
   1   0  -3 1169.90   46.18   6 
   1   0  -3 1200.61   77.68   4 
  -1   0   3 1298.71  103.84  13 
   0   0  -3 371.865  23.743   4 
  -1   0  -3 3111.42  186.42   4 
  -1   0  -3 2976.89   68.25  15 
   1   0   3 2739.27  249.48  13 
  -2   0  -3 595.812  38.229   4 
  -2   0  -3 595.820  16.306  14 
   2   0   3 604.143  31.289   9 
  -3   0  -3 1973.65  138.58   4 
   3   0   3 2391.34  138.95   4 
   3   0   3 2189.81  113.14   9 
  -4   0  -3 401.543  27.897   4 
   4   0   3 452.943  22.804   9 
   5   0   3 99.8486  3.1796  11 
   5   0   3 101.471   3.486   1 
   6   0   3 210.789   6.912   1 
   6   0   3 209.416   6.255  11 
   6   0   3 206.261   7.015   7 
   7   0   3 103.754   3.464   1 
   6  -1  -3 4.72306 0.42013  11 
   6  -1  -3 4.87888 0.62470   8 
   6  -1  -3 5.72808 0.47872   1 
   5  -1  -3 12.5748  0.7614  11 
   5  -1  -3 10.8423  0.6694   1 
   5  -1  -3 10.7265  1.0623   8 
   4  -1  -3 41.7735  3.9700   4 
  -4   1   3 37.0235  2.0934   6 
   3  -1  -3 107.173   4.472   6 
   3  -1  -3 100.309   7.655   4 
   2  -1  -3 141.591   9.655   4 
   2  -1  -3 139.556   5.676   6 
   1  -1  -3 520.875  31.538   4 
   1  -1  -3 484.836  18.707   6 
  -1   1   3 468.952  41.996  13 
  -1  -1  -3 473.002  26.199   4 
  -1  -1  -3 410.676   9.557  15 
   1   1   3 344.767  35.189  13 
  -2  -1  -3 2417.47  153.00   4 
   2   1   3 2413.30  124.97   9 
  -3  -1  -3 166.221  11.316   4 
   3   1   3 174.080   9.413   9 
  -4  -1  -3 26.6391  2.5165   4 
   4   1   3 28.4123  2.1714   9 
   5   1   3 101.972   3.401   7 
   5   1   3 89.1638  5.7955   9 
   5   1   3 97.7568  3.0105  11 
   6   1   3 872.298  28.172   7 
   6   1   3 866.320  27.785   1 
   7   1   3 170.678   5.556   1 
   6  -2  -3 0.96818 0.26434   1 
   6  -2  -3 -0.2094  0.2926   8 
   6  -2  -3 0.49528 0.23474  11 
   5  -2  -3 68.2302  3.1214   8 
   5  -2  -3 66.9213  2.5169   1 
   5  -2  -3 66.4291  2.3544  11 
   4  -2  -3 137.038   4.245  11 
   4  -2  -3 134.852   5.638   5 
   4  -2  -3 132.528   4.570   1 
  -4   2   3 129.805   5.717   6 
   3  -2  -3 21.3729  2.4948   4 
  -3   2   3 24.9656  1.4027   6 
   2  -2  -3 259.249  17.343   4 
  -2   2   3 261.912  10.179   6 
   1  -2  -3 637.553  37.480   4 
  -1   2   3 525.212  49.838  13 
  -1   2   3 589.758  22.164   6 
   0  -2  -3 1508.70   85.77   4 
   0   2   3 1233.66  114.77  13 
   0   2   3 1311.09   50.85   6 
  -1  -2  -3 2179.33  127.65   4 
   1   2   3 1849.90  104.24   9 
  -2  -2  -3 1087.14   64.84   4 
   2   2   3 971.094  43.083  10 
   2   2   3 1001.41   53.11   9 
  -3  -2  -3 41.4807  3.1817   4 
   3   2   3 45.0541  2.9298   9 
  -4  -2  -3 40.9154  3.3233   4 
   4   2   3 42.2399  2.9782   9 
   5   2   3 692.264  22.199   7 
   5   2   3 675.777  36.200   9 
   6  -3  -3 26.9144  1.1618   1 
   6  -3  -3 28.8200  1.1113  11 
   5  -3  -3 115.240   4.862   8 
   5  -3  -3 115.888   4.064   1 
   5  -3  -3 114.626   3.753  11 
   4  -3  -3 187.856   7.522   8 
   4  -3  -3 190.902   7.806   5 
   4  -3  -3 182.342   6.333   1 
   4  -3  -3 189.067   5.840  11 
  -4   3   3 186.202   7.760   6 
   3  -3  -3 417.015  28.140   4 
  -3   3   3 428.541  16.490   6 
   2  -3  -3 222.259  15.430   4 
  -2   3   3 234.255   9.023   6 
   1  -3  -3 112.602   7.981   4 
  -1   3   3 118.448   4.647   6 
   0  -3  -3 430.443  27.663   4 
   1   3   3 393.143  20.647   9 
   1   3   3 387.733  16.821  10 
  -2  -3  -3 92.1788  5.8614   4 
   2   3   3 82.8200  4.0735  10 
   2   3   3 84.6419  5.0986   9 
  -3  -3  -3 128.516   8.305   4 
   3   3   3 118.982   7.161   9 
   4   3   3 126.635   7.469   9 
   5   3   3 1091.50   59.16   9 
   5   3   3 1163.81   36.47   7 
  -6   4   3 95.2801  3.8440   8 
   5  -4  -3 88.8369  3.1557   1 
   5  -4  -3 85.1072  2.9244  11 
   4  -4  -3 64.3696  2.4657   1 
   4  -4  -3 69.6195  3.2163   5 
   4  -4  -3 59.2342  2.9773   8 
   3  -4  -3 21.3032  1.3570   3 
  -3   4   3 19.5979  1.3202   6 
   2  -4  -3 47.7299  4.2502   4 
  -2   4   3 52.2520  2.3706   6 
   1  -4  -3 4.56592 1.00198   4 
  -1   4   3 5.09197 0.53391   6 
   0  -4  -3 131.727   9.460   4 
   0   4   3 152.928   6.584  10 
   1   4   3 96.3979  4.6301  10 
   1   4   3 94.3393  5.5771   9 
   2   4   3 139.519   6.293  10 
   2   4   3 129.241   7.687   9 
   3   4   3 37.1498  2.7732   9 
   4   4   3 33.5479  2.7165   9 
   5   4   3 93.0980  3.1622   7 
   5   4   3 89.6688  5.7491   9 
  -5   5   3 8.59250 0.84495   8 
   4  -5  -3 16.2735  1.4169   5 
   3  -5  -3 235.846  10.066   5 
   3  -5  -3 241.901   9.491   3 
  -2   5   3 9.64361 1.23948  10 
  -2   5   3 10.7377  0.8452   2 
  -1   5   3 25.9974  1.8542  10 
   0   5   3 321.295  14.312  10 
   1   5   3 811.859  41.457   9 
   1   5   3 761.578  33.834  10 
   2   5   3 47.9381  2.8091  10 
   2   5   3 47.0500  3.3638   9 
   3   5   3 261.710  14.272   9 
   3   5   3 248.709  11.532  10 
   4   5   3 432.411  13.385   1 
   4   5   3 410.444  13.684   7 
   4   5   3 399.758  22.580   9 
   5   5   3 246.479   8.158   7 
  -5   6   3 1.44237 0.36655   8 
   4  -6  -3 28.8020  1.7533   5 
  -4   6   3 30.5949  1.6811   8 
   3  -6  -3 75.6139  3.4118   3 
  -3   6   3 79.0813  3.5094   8 
  -3   6   3 72.9086  2.7907   2 
   2  -6  -3 134.445   6.158   3 
  -2   6   3 152.790   4.931   2 
  -2   6   3 143.369   6.004   8 
   1  -6  -3 107.837   3.706   2 
  -1   6   3 110.338   4.638   8 
  -1   6   3 103.768   5.533  10 
   0   6   3 29.4718  2.1814  10 
   0   6   3 31.3513  2.5265   9 
   1   6   3 46.2418  3.3797   9 
   1   6   3 45.4059  2.8672  10 
   2   6   3 2.94213 0.87284  10 
   2   6   3 2.78351 0.36365   1 
   2   6   3 2.53592 0.62979   5 
   2   6   3 2.75400 0.94883   9 
   3   6   3 587.257  19.225   7 
   3   6   3 589.576  31.378   9 
   3   6   3 563.875  22.526   5 
   3   6   3 594.334  18.794   1 
   4   6   3 66.4057  4.8285   9 
   4   6   3 70.8008  2.6519   7 
   4   6   3 71.0992  2.4954   1 
   5   6   3 52.6033  1.8621   1 
   5   6   3 51.3608  1.9153   7 
   6   6   3 46.6337  1.5977   1 
   4  -7  -3 50.7060  2.3640   5 
  -4   7   3 53.9639  2.3268   8 
   3  -7  -3 39.0716  1.9123   3 
   3  -7  -3 39.1636  2.3008   5 
  -3   7   3 40.8463  2.0610   8 
   2  -7  -3 5.60736 0.87253   3 
  -2   7   3 7.44043 0.91507   8 
   1  -7  -3 232.504   7.153   2 
  -1   7   3 226.114   8.749   8 
  -1   7   3 197.752  12.274   9 
  -1   7   3 215.837   9.008   3 
   0  -7  -3 132.102   4.388   2 
   0   7   3 123.031   5.425   3 
   0   7   3 120.193   7.571   9 
   1   7   3 3.89942 0.82881   5 
   1   7   3 1.70163 0.92146   9 
   2   7   3 224.043   7.530   1 
   2   7   3 231.175   9.331   5 
   2   7   3 223.778   7.851   7 
   2   7   3 227.434  13.020   9 
   3   7   3 145.475   4.894   1 
   3   7   3 141.005   5.117   7 
   4   7   3 0.51526 0.22180   1 
   4   7   3 0.68925 0.28858   7 
   5   7   3 28.1544  1.1146   7 
   5   7   3 28.3309  1.0992   1 
  -3   8   3 2.99094 0.46661   8 
   2  -8  -3 5.20237 0.71619   3 
  -2   8   3 6.60955 0.75581   8 
  -1   8   3 3.24323 0.64732   8 
   0  -8  -3 29.6080  1.3420   2 
  -1  -8  -3 18.6465  1.1337   2 
   1   8   3 18.9440  1.6322   5 
   2   8   3 206.755   8.442   5 
   3   8   3 37.7135  1.6462   7 
   3   8   3 36.9976  1.4723   1 
   4   8   3 29.5858  1.2718   7 
   4   8   3 30.5119  1.1920   1 
   5   8   3 70.8309  2.3216   7 
   5   8   3 67.5487  2.3464   1 
   1  -9  -3 53.6119  2.5400   3 
  -1   9   3 56.9596  2.4347   8 
   0  -9  -3 8.55162 0.50746   2 
   0   9   3 8.89121 0.92669   5 
  -1  -9  -3 91.2726  3.2484   2 
   1   9   3 97.8098  4.1229   5 
  -2  -9  -3 10.4340  0.7154   2 
   3   9   3 4.60938 0.35331   1 
   3   9   3 4.59657 0.43760   7 
   4   9   3 2.97189 0.27229   7 
   3   8  -4 15.0368  0.7514   7 
   3   8  -4 15.4707  0.6688   1 
   3   8  -4 16.5125  1.0528   8 
   2   8  -4 17.0587  1.1855   8 
   1   8  -4 276.020  10.893   5 
   1   8  -4 279.159  10.712   8 
  -1  -8   4 267.944   8.903   2 
   0   8  -4 308.205  11.560   8 
   0   8  -4 283.514  11.908   5 
   0  -8   4 301.566   9.548   2 
  -1   8  -4 2.53460 0.54177   8 
   2  -8   4 10.5745  0.8594   3 
   4   7  -4 7.69214 0.44463   1 
   4   7  -4 8.01165 0.53096   7 
   4   7  -4 9.23244 0.82995   8 
   3   7  -4 26.9920  1.1408   1 
   3   7  -4 27.1106  1.2630   7 
   3   7  -4 29.3923  1.7118   8 
   2   7  -4 165.716   5.805   1 
   2   7  -4 179.703   7.030   5 
   2   7  -4 173.518   6.054   7 
   2   7  -4 176.721   7.186   8 
   1   7  -4 325.727  13.215   5 
   1   7  -4 332.243  12.900   8 
   0   7  -4 188.348   7.914   8 
   0   7  -4 197.658   8.267   5 
   0  -7   4 197.572   6.545   2 
  -1   7  -4 23.7133  1.6117   8 
   1  -7   4 27.0084  1.1653   2 
  -2   7  -4 61.5415  2.8845   8 
   2  -7   4 63.0419  3.0652   3 
   3  -7   4 30.3518  1.5300   3 
   5   6  -4 77.7533  3.3475   8 
   5   6  -4 78.1653  2.6748   1 
   5   6  -4 81.9671  2.6983   7 
   4   6  -4 109.871   3.727   1 
   4   6  -4 108.430   4.703   8 
   4   6  -4 110.016   3.836   7 
   3   6  -4 70.0781  2.5902   1 
   3   6  -4 74.9774  2.7580   7 
   3   6  -4 71.9122  3.4371   8 
   2   6  -4 170.543   7.109   8 
   2   6  -4 172.773   5.759   1 
   2   6  -4 169.892   5.985   7 
   2   6  -4 169.161   7.046   5 
   1   6  -4 293.906  12.010   5 
   1   6  -4 297.403  11.322   3 
   1   6  -4 296.158  11.711   8 
   0   6  -4 230.948   9.420   8 
   0  -6   4 238.935   7.836   2 
  -1   6  -4 357.434  14.123   8 
   1  -6   4 370.731  11.760   2 
  -2   6  -4 199.925   6.457   2 
   2  -6   4 201.756   8.314   3 
  -3   6  -4 28.9729  1.1626   2 
   3  -6   4 28.0495  1.7242   3 
  -4   6  -4 2.88142 0.30672   2 
   4  -6   4 3.82036 0.66380   5 
   5   5  -4 55.9312  2.6205   8 
   5   5  -4 55.8972  2.0048   7 
   5   5  -4 56.9107  1.9696   1 
   4   5  -4 70.9115  3.3075   8 
   4   5  -4 69.7255  2.5655   7 
   4   5  -4 69.0420  2.4558   1 
   3   5  -4 114.887   3.917   1 
   3   5  -4 114.232   4.085   7 
   2   5  -4 1024.36   38.77   8 
   2   5  -4 1069.15   33.15   1 
   2   5  -4 1055.55   39.70   6 
   2   5  -4 1017.07   39.94   5 
   2   5  -4 1014.40   33.74   7 
   1   5  -4 832.172  31.658   6 
   1   5  -4 815.433  35.305  10 
   0   5  -4 110.261   4.802   6 
  -1   5  -4 1.07956 0.42354   6 
  -1   5  -4 1.04060 0.22939   2 
   1  -5   4 0.93068 0.34940   2 
  -2   5  -4 7.18853 0.59076   2 
   2  -5   4 10.7571  0.6305   2 
  -3   5  -4 129.446   4.415   2 
   3  -5   4 128.972   5.554   3 
  -4   5  -4 18.7415  0.9666   2 
   4  -5   4 20.2658  1.6151   5 
  -5   5  -4 61.3901  2.1172   2 
   5  -5   4 59.3144  2.5475   5 
   6   4  -4 18.7428  0.7113   1 
   6   4  -4 18.5366  1.0623   8 
   5   4  -4 7.83373 0.84278   8 
   5   4  -4 7.21172 0.41304   1 
   5   4  -4 6.79676 0.48126   7 
   4   4  -4 117.839   3.901   1 
   4   4  -4 111.957   4.984   8 
   4   4  -4 116.508   4.026   7 
   3   4  -4 247.451  11.826  10 
   3   4  -4 264.999  10.392   5 
   3   4  -4 279.203   8.667   1 
   3   4  -4 269.674  10.778   6 
   2   4  -4 197.398   8.029   6 
   2   4  -4 195.576   8.915  10 
   1   4  -4 107.185   4.617   6 
   1   4  -4 109.252   5.150  10 
   0   4  -4 91.5398  3.9477   6 
  -1   4  -4 476.377  18.442   6 
  -2   4  -4 301.955  11.945   6 
  -3   4  -4 1.93052 0.54526   6 
   3  -4   4 2.97129 0.66761   3 
   4  -4   4 80.0823  3.8754   5 
   4  -4   4 79.3071  3.3298   3 
   5  -4   4 44.7200  2.1593   5 
   6  -4   4 42.9924  1.6338   7 
   6   3  -4 27.3879  1.0461   1 
   6   3  -4 29.8441  0.9647  11 
   6   3  -4 28.8221  1.4838   8 
   5   3  -4 39.9170  1.5890   7 
   5   3  -4 42.0518  1.4990   1 
   5   3  -4 43.1260  2.1690   8 
   4   3  -4 186.393   6.228   7 
   4   3  -4 184.601   6.060   1 
   4   3  -4 183.635   7.491   8 
   3   3  -4 342.966  13.735   6 
   3   3  -4 351.529  15.206  10 
   2   3  -4 19.8096  1.2539   6 
   2   3  -4 19.7924  1.3401  10 
   1   3  -4 590.556  25.172  10 
   1   3  -4 585.770  22.536   6 
   0   3  -4 506.808  19.419   6 
  -1   3  -4 74.0703  3.1986   6 
  -1   3  -4 74.4887  1.8563  15 
  -2   3  -4 36.3535  1.0286  15 
  -2   3  -4 36.0036  1.7672   6 
  -2   3  -4 32.8467  1.2593  14 
  -3   3  -4 205.771   8.295   6 
   4  -3   4 388.453  15.555   5 
   4  -3   4 381.607  14.684   3 
   4  -3   4 395.421  12.718   1 
   5  -3   4 142.135   5.206   7 
   5  -3   4 141.465   4.987   1 
   5  -3   4 151.743   6.047   5 
   5  -3   4 148.023   4.611  11 
   6  -3   4 20.6259  0.8828   1 
   6  -3   4 19.9002  0.9708   7 
   6   2  -4 39.1201  1.2952  11 
   6   2  -4 38.3583  1.3908   1 
   6   2  -4 37.4402  1.8735   8 
   5   2  -4 225.470   9.023   8 
   5   2  -4 225.940   7.612   7 
   5   2  -4 230.264   7.398   1 
   4   2  -4 157.774   5.170   1 
   4   2  -4 157.338   6.726   6 
   3   2  -4 50.9412  2.5116   6 
   3   2  -4 49.2523  2.6094  10 
   2   2  -4 440.876  18.886  10 
   2   2  -4 437.199  16.993   6 
   1   2  -4 88.5092  3.6748   6 
   1   2  -4 88.3437  4.0912  10 
   0   2  -4 1576.16   65.84  10 
   0   2  -4 1485.52   58.94   6 
   0  -2   4 1623.57  132.74  13 
  -1   2  -4 166.966  11.084   4 
  -1   2  -4 173.906   4.069  15 
  -1   2  -4 163.681   6.690   6 
   1  -2   4 177.050  15.104  13 
  -2   2  -4 355.512  13.292   6 
  -2   2  -4 328.866  22.252   4 
  -2   2  -4 354.282   8.153  15 
  -2   2  -4 338.535   9.576  14 
  -3   2  -4 283.592  18.994   4 
  -3   2  -4 293.556  11.290   6 
   4  -2   4 866.208  27.122   1 
   4  -2   4 836.294  24.536  11 
   4  -2   4 828.376  32.748   5 
   5  -2   4 83.6638  3.6502   5 
   5  -2   4 86.2346  2.8689  11 
   5  -2   4 86.4184  3.0960   1 
   5  -2   4 85.3136  3.2719   7 
   6  -2   4 38.8801  1.6423   7 
   6  -2   4 41.1438  1.5675   1 
   6   1  -4 77.2403  2.6107   1 
   6   1  -4 73.0132  2.3953  11 
   6   1  -4 76.7089  3.2860   8 
   5   1  -4 39.6813  1.4911   1 
   5   1  -4 40.5334  2.1350   8 
   4   1  -4 601.020  23.379   6 
   3   1  -4 95.9289  4.4003   6 
  -3  -1   4 105.068   9.390  13 
   2   1  -4 890.305  34.689  10 
   2   1  -4 813.419  31.133   6 
   2   1  -4 745.498  52.251   4 
   1   1  -4 44.8238  2.1518  10 
   1   1  -4 43.1850  3.2189   4 
   1   1  -4 43.6530  1.9767   6 
   0   1  -4 975.951  41.507  10 
   0   1  -4 943.281  37.184   6 
   0  -1   4 1034.06   83.82  13 
  -1   1  -4 382.327  23.837   4 
  -1   1  -4 358.878  14.173   6 
  -1   1  -4 378.984   8.718  15 
   1  -1   4 367.557  32.123  13 
  -2   1  -4 54.3315  3.9199   4 
  -2   1  -4 53.2768  1.4068  15 
  -2   1  -4 54.4442  1.6608  14 
  -2   1  -4 52.7973  2.2886   6 
   2  -1   4 58.9596  3.3212   9 
  -3   1  -4 411.225  26.712   4 
  -4   1  -4 196.557  13.445   4 
   5  -1   4 79.7953  3.0055   7 
   5  -1   4 76.8962  2.8447   1 
   5  -1   4 79.8124  2.6384  11 
   6  -1   4 8.82718 0.62720   1 
   6  -1   4 10.2634  0.7015   7 
   7  -1   4 91.9043  3.0258   7 
   7  -1   4 86.7522  2.9908   1 
   6   0  -4 24.8339  0.9951  11 
   6   0  -4 26.1059  1.4355   8 
   6   0  -4 25.5819  1.0549   1 
   5   0  -4 418.890  15.790   8 
   5   0  -4 402.973  12.096  11 
   5   0  -4 411.834  13.308   1 
   4   0  -4 307.032  12.199   6 
   4   0  -4 298.993  20.736   4 
   3   0  -4 513.426  33.275   4 
   3   0  -4 501.394  19.690   6 
   2   0  -4 287.713  11.103   6 
   2   0  -4 253.760  18.605   4 
  -2   0   4 305.678  24.606  13 
   1   0  -4 2651.68  174.34   4 
   1   0  -4 2629.22  103.61   6 
  -1   0   4 2972.73  233.19  13 
   0   0  -4 737.843  28.311   6 
   0   0   4 759.562  63.905  13 
  -1   0  -4 200.097   4.678  15 
  -1   0  -4 216.140  12.862   4 
   1   0   4 184.723  17.443  13 
   1   0   4 188.206  10.551   9 
  -2   0  -4 355.973  20.810   4 
   2   0   4 334.539  17.092   9 
   2   0   4 274.336  27.880  13 
  -3   0  -4 322.920  21.167   4 
   3   0   4 325.827  17.381   9 
  -4   0  -4 383.520  24.984   4 
   4   0   4 376.172  20.399   9 
   5   0   4 114.761   3.930   1 
   5   0   4 117.040   3.597  11 
   5   0   4 110.484   4.042   7 
   6   0   4 22.7688  1.0514   7 
   6   0   4 22.4314  1.0038   1 
   7   0   4 37.6993  1.4092   1 
   7   0   4 40.7481  1.3844   7 
   6  -1  -4 33.4035  1.2704  11 
   6  -1  -4 35.3886  1.3740   1 
   6  -1  -4 33.9929  1.7240   8 
   5  -1  -4 72.2996  2.5618   1 
   5  -1  -4 68.5388  2.4007  11 
   5  -1  -4 67.5461  3.2024   8 
   4  -1  -4 58.7099  2.5831   5 
   4  -1  -4 54.0730  1.9330  11 
   4  -1  -4 53.7746  2.0280   1 
  -4   1   4 53.6185  2.7685   6 
   3  -1  -4 245.209  17.010   4 
   3  -1  -4 252.501   9.992   6 
   2  -1  -4 489.197  32.342   4 
   2  -1  -4 506.506  19.165   6 
   1  -1  -4 874.785  53.955   4 
   1  -1  -4 816.153  32.016   6 
  -1   1   4 843.405  72.058  13 
   0  -1  -4 185.498  12.179   4 
  -1  -1  -4 2698.12  151.17   4 
   1   1   4 2127.24  202.45  13 
   1   1   4 2332.05  123.39   9 
  -2  -1  -4 4666.85  283.98   4 
   2   1   4 4297.14  231.50   9 
  -3  -1  -4 1499.42   96.22   4 
   3   1   4 1527.07   78.70   9 
  -4  -1  -4 120.456   8.658   4 
   4   1   4 127.321   7.275   9 
   5   1   4 22.5478  0.9531   1 
   5   1   4 21.1186  1.9532   9 
   5   1   4 20.8256  1.0075   7 
   6   1   4 170.043   5.759   7 
   6   1   4 171.494   5.658   1 
   7   1   4 71.3674  2.4119   1 
   6  -2  -4 1.89590 0.29693   1 
   6  -2  -4 1.66302 0.28010  11 
   6  -2  -4 1.67750 0.38240   8 
   5  -2  -4 35.8385  1.9688   8 
   5  -2  -4 35.4814  1.4632  11 
   5  -2  -4 37.8951  1.5484   1 
   4  -2  -4 1.06542 0.28781   1 
   4  -2  -4 0.62189 0.28700  11 
   4  -2  -4 1.51371 0.44717   8 
   4  -2  -4 2.10165 0.53759   5 
  -4   2   4 0.74014 0.45214   6 
   3  -2  -4 52.7087  4.7038   4 
  -3   2   4 55.5781  2.6213   6 
   2  -2  -4 387.815  25.473   4 
  -2   2   4 386.832  14.973   6 
   1  -2  -4 29.5621  2.4134   4 
  -1   2   4 27.7996  1.3253   6 
  -1   2   4 26.4698  3.0799  13 
   0  -2  -4 812.538  51.225   4 
   0   2   4 735.569  68.664  13 
   0   2   4 860.550  41.794   9 
  -1  -2  -4 1305.73   91.43   4 
   1   2   4 1580.06   74.79   9 
  -2  -2  -4 770.396  47.127   4 
   2   2   4 706.852  38.682   9 
  -3  -2  -4 275.055  18.125   4 
   3   2   4 282.085  15.142   9 
  -4  -2  -4 283.298  19.184   4 
   4   2   4 301.535  16.022   9 
   5   2   4 714.107  38.883   9 
   5   2   4 754.287  23.905   7 
   6   2   4 250.005   8.292   7 
   6   2   4 252.316   8.151   1 
   7   2   4 54.1690  1.8377   1 
   6  -3  -4 0.73243 0.22026  11 
   6  -3  -4 1.08325 0.24624   1 
   5  -3  -4 44.7794  2.2812   8 
   5  -3  -4 46.9391  1.7649  11 
   5  -3  -4 46.9908  1.8504   1 
   4  -3  -4 78.5600  2.9602   1 
   4  -3  -4 80.6781  2.7940  11 
   4  -3  -4 82.4064  3.7550   5 
   4  -3  -4 79.5033  3.5968   8 
   3  -3  -4 110.511   8.552   4 
  -3   3   4 113.875   4.833   6 
   2  -3  -4 56.2953  4.7718   4 
  -2   3   4 61.1673  2.6801   6 
   1  -3  -4 164.273  11.175   4 
   0  -3  -4 0.90241 0.51452   4 
   0   3   4 0.52054 0.41018   9 
   1   3   4 886.108  37.644  10 
   1   3   4 884.332  46.222   9 
  -2  -3  -4 367.007  23.103   4 
   2   3   4 365.041  19.175   9 
   2   3   4 342.858  15.490  10 
  -3  -3  -4 127.612   8.598   4 
   3   3   4 128.971   7.482   9 
   4   3   4 649.390  34.515   9 
   5   3   4 831.941  44.742   9 
   5   3   4 861.484  27.503   7 
   5  -4  -4 96.3443  3.4391   1 
   5  -4  -4 98.5407  3.1959  11 
   4  -4  -4 178.304   7.500   5 
   4  -4  -4 176.874   7.176   8 
   3  -4  -4 72.8742  3.2890   8 
   3  -4  -4 69.8994  3.6508   5 
  -3   4   4 74.0531  3.3525   6 
   2  -4  -4 142.022  10.271   4 
   1  -4  -4 165.946  11.460   4 
   0  -4  -4 557.773  37.571   4 
   0   4   4 610.320  30.769   9 
  -1  -4  -4 497.165  32.979   4 
   1   4   4 533.411  27.209   9 
   1   4   4 509.527  22.197  10 
   2   4   4 175.424   9.934   9 
   2   4   4 177.083   8.075  10 
   3   4   4 79.7085  5.0452   9 
   4   4   4 1293.69   67.85   9 
   5   4   4 116.628   3.872   7 
   5   4   4 104.047   6.791   9 
  -5   5   4 0.04717 0.24747   2 
   4  -5  -4 3.77309 0.68868   5 
  -4   5   4 5.68289 0.64123   2 
   3  -5  -4 1.80257 0.69678   5 
   3  -5  -4 1.00461 0.47692   3 
  -3   5   4 1.34770 0.43798   2 
   2  -5  -4 104.960   4.674   3 
  -2   5   4 103.515   3.751   2 
  -1   5   4 198.850  10.966   9 
  -1   5   4 193.506   9.187  10 
   0   5   4 349.621  18.298   9 
   0   5   4 325.501  15.052  10 
   1   5   4 493.058  26.039   9 
   1   5   4 480.451  21.313  10 
   2   5   4 41.4227  2.5318  10 
   2   5   4 38.0658  2.9666   9 
   3   5   4 273.437  15.229   9 
   4   5   4 1423.99   45.07   1 
   4   5   4 1432.78   45.84   7 
   4   5   4 1384.35   74.16   9 
   5   5   4 175.453   5.698   1 
   5   5   4 169.876   5.838   7 
   6   5   4 2.55063 0.24553   1 
   4  -6  -4 6.04956 0.73525   5 
  -4   6   4 6.43381 0.71142   8 
   3  -6  -4 14.1502  1.1248   3 
   3  -6  -4 14.6558  1.4942   5 
  -3   6   4 16.5626  0.9326   2 
  -3   6   4 16.7311  1.3001   8 
   2  -6  -4 26.3166  1.9968   3 
  -2   6   4 25.5817  1.2699   2 
  -2   6   4 28.5201  1.6816   8 
   1  -6  -4 477.981  15.331   2 
  -1   6   4 487.527  15.310   2 
  -1   6   4 484.749  18.396   8 
   0  -6  -4 93.5994  3.3649   2 
   0   6   4 98.9711  5.9168   9 
   0   6   4 96.0209  5.0347  10 
   0   6   4 94.4270  4.2763  12 
   0   6   4 87.5320  4.3007   3 
   1   6   4 237.687   9.045   3 
   1   6   4 200.351   8.908  12 
   1   6   4 237.811  12.850   9 
   1   6   4 228.795  10.616  10 
   2   6   4 23.0799  1.6617   5 
   2   6   4 23.3219  1.0653   1 
   2   6   4 23.1950  2.2702   9 
   2   6   4 23.8237  2.1743  10 
   3   6   4 740.571  23.162   1 
   3   6   4 714.926  38.415   9 
   3   6   4 714.741  23.656   7 
   3   6   4 710.374  27.800   5 
   4   6   4 434.842  14.622   7 
   4   6   4 448.363  14.304   1 
   5   6   4 41.2081  1.5875   7 
   5   6   4 39.8783  1.5131   1 
   6   6   4 29.8466  1.0835   1 
  -4   7   4 16.9589  0.9597   8 
   3  -7  -4 11.1867  1.2232   5 
   3  -7  -4 14.0184  0.8702   3 
  -3   7   4 13.2586  1.0306   8 
   2  -7  -4 216.728   8.851   3 
  -2   7   4 221.319   8.702   8 
   1  -7  -4 13.3849  0.7398   2 
  -1   7   4 11.9019  1.1457   8 
  -1   7   4 12.3281  1.3766   3 
   0  -7  -4 4.02840 0.50794   2 
   0   7   4 1.98207 0.93145   9 
   0   7   4 2.76612 0.72255   3 
   1   7   4 153.046   6.183   3 
   1   7   4 154.075   9.053   9 
   1   7   4 146.626   6.723   5 
   2   7   4 715.441  28.459   5 
   2   7   4 740.266  23.458   1 
   3   7   4 254.006   8.883   7 
   3   7   4 265.016   8.591   1 
   4   7   4 138.094   4.873   7 
   4   7   4 139.092   4.694   1 
   5   7   4 85.8755  2.9400   1 
   5   7   4 85.9964  2.9874   7 
   2  -8  -4 14.1888  1.0830   3 
  -2   8   4 12.7154  0.9979   8 
  -1   8   4 14.6236  1.2806   3 
  -1   8   4 16.0397  1.1663   8 
   0  -8  -4 103.304   3.587   2 
  -1  -8  -4 223.388   7.475   2 
   1   8   4 230.484   9.469   5 
   2   8   4 410.959  16.250   5 
   3   8   4 118.042   4.117   7 
   3   8   4 110.027   3.893   1 
   4   8   4 1.74243 0.25469   1 
   4   8   4 1.46999 0.31001   7 
   5   8   4 67.8342  2.4149   1 
   5   8   4 75.5473  2.4129   7 
   1  -9  -4 22.0448  1.2690   3 
   0  -9  -4 54.1808  1.7998   2 
   0   9   4 53.4828  2.6570   5 
  -1  -9  -4 59.6271  2.1886   2 
   1   9   4 63.3578  2.8504   5 
  -2  -9  -4 68.0798  2.4399   2 
   3   9   4 31.2876  1.2994   7 
   2   8  -5 47.7339  2.1845   8 
  -2  -8   5 45.7435  1.7797   2 
   1   8  -5 124.380   4.864   8 
   1   8  -5 112.649   4.776   5 
  -1  -8   5 117.840   3.984   2 
   0   8  -5 236.003   9.401   5 
   0   8  -5 236.519   9.109   8 
   0  -8   5 231.808   7.460   2 
  -1   8  -5 0.69460 0.20951   3 
  -1   8  -5 0.45088 0.37107   8 
   4   7  -5 42.1089  1.5475   7 
   4   7  -5 45.4465  1.9521   8 
   4   7  -5 39.5962  1.4804   1 
   3   7  -5 43.4233  2.2005   8 
   3   7  -5 41.9414  1.6109   1 
   3   7  -5 46.3969  1.7510   7 
   2   7  -5 111.672   4.619   5 
   2   7  -5 115.207   4.868   8 
   1   7  -5 257.225  10.130   8 
   1   7  -5 255.126  10.342   5 
  -1  -7   5 253.493   8.433   2 
   0   7  -5 161.293   6.278   3 
   0   7  -5 157.202   6.569   8 
   0   7  -5 158.150   6.827   5 
   0  -7   5 160.477   5.409   2 
  -1   7  -5 20.1186  1.3858   8 
   1  -7   5 20.3502  0.8815   2 
   2  -7   5 3.37391 0.68356   3 
   3  -7   5 33.7778  1.5107   3 
   5   6  -5 44.7598  1.5830   1 
   5   6  -5 46.5795  1.5658   7 
   5   6  -5 46.0142  2.0186   8 
   4   6  -5 12.3175  1.0798   8 
   4   6  -5 14.5064  0.7394   7 
   4   6  -5 14.5875  0.6736   1 
   3   6  -5 24.9497  1.1893   7 
   3   6  -5 23.7130  1.0506   1 
   3   6  -5 24.0657  1.6080   8 
   2   6  -5 160.934   5.668   7 
   2   6  -5 155.871   5.413   1 
   2   6  -5 163.337   6.734   8 
   2   6  -5 162.497   6.623   5 
   1   6  -5 369.170  14.035   3 
   1   6  -5 361.121  14.431   8 
   1   6  -5 382.633  14.895   5 
   0   6  -5 38.9821  2.2797   8 
   0  -6   5 43.2715  1.8511   2 
  -1   6  -5 4.58564 0.79736   8 
   1  -6   5 4.57925 0.55074   2 
   2  -6   5 25.1542  1.9141   3 
  -3   6  -5 34.6861  1.2920   2 
   3  -6   5 36.4197  1.9118   3 
  -4   6  -5 10.1921  0.4555   2 
   4  -6   5 7.48725 0.83397   5 
   5   5  -5 8.33468 0.47211   7 
   5   5  -5 8.46846 0.44254   1 
   5   5  -5 9.09737 0.80127   8 
   4   5  -5 14.5714  1.2343   8 
   4   5  -5 16.1470  0.7422   1 
   4   5  -5 15.0184  0.8179   7 
   3   5  -5 116.969   4.961   8 
   3   5  -5 113.606   4.068   7 
   3   5  -5 110.083   3.885   1 
   2   5  -5 846.433  28.077   7 
   2   5  -5 846.909  33.202   5 
   2   5  -5 848.834  32.306   8 
   2   5  -5 891.365  27.561   1 
   1   5  -5 576.468  23.744   6 
   1   5  -5 617.719  23.082   3 
   1   5  -5 619.002  23.270   8 
   1   5  -5 638.366  24.075   5 
   0   5  -5 102.642   4.431   8 
   0   5  -5 99.0715  4.4918   6 
   0  -5   5 98.8745  3.6317   2 
  -1   5  -5 85.8095  2.8660   2 
   1  -5   5 85.3372  3.1351   2 
  -2   5  -5 240.867   7.785   2 
  -3   5  -5 76.0206  2.6885   2 
   3  -5   5 74.0545  3.5340   3 
  -4   5  -5 8.93428 0.61049   2 
   4  -5   5 7.62938 0.96016   5 
  -5   5  -5 14.1379  0.6466   2 
   6   4  -5 56.2973  1.9066   1 
   6   4  -5 57.3203  2.3843   8 
   5   4  -5 37.9920  1.9120   8 
   5   4  -5 37.2947  1.4402   7 
   5   4  -5 36.7100  1.3725   1 
   4   4  -5 136.469   5.714   8 
   4   4  -5 137.452   4.714   7 
   4   4  -5 134.586   4.559   1 
   3   4  -5 1167.10   44.70   5 
   3   4  -5 1191.41   37.27   1 
   3   4  -5 1155.82   37.89   7 
   3   4  -5 1151.80   43.56   8 
   2   4  -5 790.742  29.971   5 
   2   4  -5 733.065  29.809   6 
   2   4  -5 758.122  33.166  10 
   2   4  -5 812.291  24.848   1 
   1   4  -5 4.99441 0.67789   6 
   0   4  -5 35.0184  1.8734   6 
   0  -4   5 34.4645  3.9856  13 
  -1   4  -5 207.420   8.390   6 
  -2   4  -5 252.049  10.305   6 
  -2   4  -5 262.188   8.329   2 
   2  -4   5 258.116   8.257   2 
  -3   4  -5 15.9424  0.9008   2 
   3  -4   5 16.2724  1.4286   3 
   4  -4   5 10.9528  1.1812   5 
   5  -4   5 42.4047  1.9953   5 
   6   3  -5 19.5868  0.7696   1 
   6   3  -5 20.5292  1.0992   8 
   6   3  -5 20.0755  0.7067  11 
   5   3  -5 55.6679  1.9611   1 
   5   3  -5 55.7778  2.6292   8 
   5   3  -5 55.1696  2.0656   7 
   4   3  -5 107.984   4.610   8 
   4   3  -5 103.681   3.738   7 
   4   3  -5 106.608   3.595   1 
   3   3  -5 761.546  31.014   6 
   3   3  -5 810.554  34.506  10 
   3   3  -5 804.457  31.045   5 
   3   3  -5 844.966  25.812   1 
   2   3  -5 100.441   4.419   6 
   2   3  -5 100.926   4.812  10 
   1   3  -5 128.104   5.691   6 
   1   3  -5 149.907   6.382  10 
   0   3  -5 94.4731  3.9997   6 
   0  -3   5 93.4637  8.8953  13 
  -1   3  -5 64.3046  2.8642   6 
  -2   3  -5 107.012   4.522   6 
   3  -3   5 68.3105  3.1157   3 
   3  -3   5 60.4780  3.3563   5 
   4  -3   5 21.2767  1.6936   5 
   5  -3   5 24.2244  1.3821   5 
   5  -3   5 22.2470  1.1887   7 
   5  -3   5 23.9328  1.0690   1 
   6  -3   5 18.9344  0.8171   1 
   6  -3   5 20.6343  0.9285   7 
   6   2  -5 1.24006 0.18336   1 
   6   2  -5 1.57511 0.19845  11 
   6   2  -5 1.06977 0.31941   8 
   5   2  -5 22.5323  0.9159   1 
   5   2  -5 20.4103  1.3773   8 
   4   2  -5 117.023   4.185   7 
   4   2  -5 123.476   5.109   8 
   4   2  -5 118.983   4.009   1 
   3   2  -5 152.923   6.767   6 
  -3  -2   5 169.799  14.867  13 
   2   2  -5 215.342   9.491  10 
   2   2  -5 212.023   8.613   6 
   1   2  -5 565.072  23.655  10 
   1   2  -5 510.616  21.187   6 
  -1  -2   5 584.491  47.770  13 
   0   2  -5 215.272   8.477   6 
   0  -2   5 216.030  19.095  13 
  -1   2  -5 381.208  14.758   6 
   1  -2   5 386.831  33.358  13 
  -2   2  -5 11.3562  0.4312  15 
  -2   2  -5 11.6625  1.2007   4 
  -2   2  -5 8.85660 0.76323   6 
  -3   2  -5 93.2667  6.6399   4 
   4  -2   5 320.354  10.409   1 
   4  -2   5 318.076  12.783   5 
   4  -2   5 311.737  10.694   7 
   5  -2   5 113.635   3.914   1 
   5  -2   5 109.637   4.088   7 
   5  -2   5 112.742   4.694   5 
   6  -2   5 51.4155  2.0255   7 
   6  -2   5 53.1765  1.9174   1 
   6   1  -5 6.39564 0.63482   8 
   6   1  -5 7.17376 0.42049   1 
   6   1  -5 7.38379 0.43958  11 
   5   1  -5 349.388  11.294   1 
   5   1  -5 346.816  13.429   8 
   4   1  -5 488.641  15.340   1 
   4   1  -5 495.166  18.193   8 
   4   1  -5 427.128  18.653   6 
   4   1  -5 491.532  15.723   7 
   3   1  -5 74.8896  3.4956   6 
   2   1  -5 754.088  29.971   6 
  -2  -1   5 813.062  67.212  13 
   1   1  -5 232.202   9.457   6 
   1   1  -5 234.338  15.801   4 
  -1  -1   5 257.218  21.273  13 
   0   1  -5 84.8770  3.6682   6 
   0  -1   5 96.1424  8.4640  13 
  -1   1  -5 379.314  23.365   4 
  -1   1  -5 355.249  13.889   6 
   1  -1   5 354.651  31.580  13 
  -2   1  -5 221.433   5.387  15 
  -2   1  -5 231.092  14.810   4 
  -3   1  -5 430.789  27.950   4 
   4  -1   5 185.794   7.756   5 
   4  -1   5 188.177   6.260   1 
   5  -1   5 197.684   6.929   7 
   5  -1   5 204.499   6.737   1 
   6  -1   5 60.7456  2.3710   7 
   6  -1   5 64.8107  2.2793   1 
   7  -1   5 3.60733 0.26429   7 
   7  -1   5 2.26388 0.21781   1 
   6   0  -5 10.8530  0.8422   8 
   6   0  -5 10.2854  0.5406  11 
   6   0  -5 11.6541  0.5849   1 
   5   0  -5 322.490  12.331   8 
   5   0  -5 321.471   9.458  11 
   5   0  -5 310.450  10.365   1 
   4   0  -5 222.679   8.676   5 
   4   0  -5 222.991   7.243   1 
   4   0  -5 205.336   9.039   6 
   4   0  -5 226.251   8.769   8 
   3   0  -5 166.756   6.875   6 
   3   0  -5 161.896  11.718   4 
   2   0  -5 604.304  23.641   6 
   2   0  -5 590.952  39.813   4 
  -2   0   5 649.898  52.921  13 
   1   0  -5 1647.53  106.91   4 
   1   0  -5 1651.90   63.54   6 
  -1   0   5 1747.22  143.04  13 
   0   0  -5 151.752   5.954   6 
   0   0   5 150.940  13.616  13 
  -1   0  -5 287.991  17.453   4 
   1   0   5 275.965  14.273   9 
   1   0   5 242.661  23.631  13 
  -2   0  -5 102.188   6.427   4 
   2   0   5 80.2931  8.8293  13 
   2   0   5 96.7851  5.3802   9 
  -3   0  -5 334.815  21.324   4 
   3   0   5 317.454  17.517   9 
  -4   0  -5 166.102  11.414   4 
   4   0   5 165.103   9.395   9 
   5   0   5 128.807   4.689   7 
   5   0   5 137.103   4.548   1 
   6   0   5 14.0940  0.7183   1 
   6   0   5 14.2332  0.7724   7 
   7   0   5 1.24752 0.17672   7 
   7   0   5 1.40234 0.19222   1 
   6  -1  -5 86.8792  3.0019   1 
   6  -1  -5 84.6799  2.7377  11 
   6  -1  -5 89.0989  3.6026   8 
   5  -1  -5 0.16113 0.36586   8 
   5  -1  -5 0.39660 0.24675  11 
   5  -1  -5 0.20484 0.22247   1 
   4  -1  -5 241.293   9.555   8 
   4  -1  -5 242.546   9.700   5 
   4  -1  -5 242.078   7.995   1 
   4  -1  -5 242.087   7.331  11 
   3  -1  -5 80.5207  6.4287   4 
   3  -1  -5 78.7375  3.6402   6 
   2  -1  -5 791.047  30.220   6 
   1  -1  -5 558.590  21.652   6 
   1  -1  -5 584.706  36.529   4 
  -1   1   5 558.210  48.794  13 
   0  -1  -5 743.887  49.419   4 
   0   1   5 805.888  66.444  13 
  -1  -1  -5 21.8763  1.7673   4 
   1   1   5 19.1585  2.6544  13 
  -2  -1  -5 706.430  44.236   4 
   2   1   5 678.014  36.274   9 
  -3  -1  -5 307.462  19.988   4 
   3   1   5 304.657  16.547   9 
  -4  -1  -5 109.327   7.864   4 
   4   1   5 112.599   6.646   9 
   5   1   5 71.2748  2.4834   1 
   5   1   5 69.5729  2.5938   7 
   5   1   5 67.0165  4.5158   9 
   6   1   5 63.9765  2.2448   1 
   6   1   5 62.0156  2.3288   7 
   7   1   5 31.6984  1.1480   1 
   6  -2  -5 67.4944  2.7382   8 
   6  -2  -5 61.8007  2.0869  11 
   5  -2  -5 22.9447  1.0776   1 
   5  -2  -5 23.3883  1.4255   8 
   5  -2  -5 21.4468  1.0384  11 
   4  -2  -5 8.11859 0.65629   1 
   4  -2  -5 10.5069  1.0024   5 
   4  -2  -5 9.04788 0.95524   8 
   4  -2  -5 9.27490 0.70660  11 
   3  -2  -5 324.954  23.640   4 
  -3   2   5 375.924  13.870   6 
   2  -2  -5 205.875  14.737   4 
  -2   2   5 225.844   8.611   6 
   1  -2  -5 487.252  29.300   4 
  -1   2   5 414.597  38.999  13 
   0  -2  -5 702.282  41.732   4 
   0   2   5 597.847  55.986  13 
   1   2   5 1038.95   97.06  13 
   1   2   5 1231.88   59.09   9 
  -2  -2  -5 775.373  47.959   4 
   2   2   5 725.506  39.372   9 
  -3  -2  -5 169.470  11.400   4 
   3   2   5 172.880   9.667   9 
  -4  -2  -5 403.620  26.221   4 
   4   2   5 400.504  21.740   9 
   5   2   5 14.3360  1.8173   9 
   5   2   5 18.6532  0.8052   1 
   5   2   5 16.7270  0.8952   7 
   6   2   5 86.2051  2.9665   1 
   6   2   5 87.7542  3.0661   7 
   7   2   5 25.7688  0.9529   1 
   5  -3  -5 23.2442  1.0819  11 
   5  -3  -5 24.9714  1.1079   1 
   5  -3  -5 23.8649  1.4092   8 
   4  -3  -5 42.4307  2.0488   8 
   4  -3  -5 36.0269  1.5807   1 
   4  -3  -5 35.2009  2.0615   5 
   4  -3  -5 34.7840  1.5310  11 
   3  -3  -5 312.327  12.969   5 
   3  -3  -5 328.990  12.312   3 
   3  -3  -5 307.498  10.491   1 
   3  -3  -5 318.435  10.481   1 
  -3   3   5 326.125  12.613   6 
   2  -3  -5 324.987  21.819   4 
   1  -3  -5 136.022   9.513   4 
   0  -3  -5 134.955   9.223   4 
  -1  -3  -5 129.370   8.784   4 
  -2  -3  -5 20.6375  2.0012   4 
   2   3   5 28.1181  1.9915   9 
  -3  -3  -5 722.234  47.352   4 
   3   3   5 759.270  39.136   9 
  -4  -3  -5 483.802  31.645   4 
   4   3   5 495.216  26.330   9 
   5   3   5 446.112  13.878   1 
   5   3   5 430.135  14.192   7 
   5   3   5 414.659  23.307   9 
   6   3   5 57.5587  2.0610   7 
   6   3   5 57.3330  2.0126   1 
   7   3   5 59.7343  1.9980   1 
   4  -4  -5 5.12812 0.75604   5 
   4  -4  -5 6.34429 0.74146   8 
   3  -4  -5 143.430   5.855   8 
   3  -4  -5 140.769   6.381   5 
   2  -4  -5 81.7766  6.5619   4 
   1  -4  -5 20.2836  2.2578   4 
   0  -4  -5 185.956  13.632   4 
   0   4   5 221.800  11.263   9 
  -1  -4  -5 294.111  19.917   4 
   1   4   5 316.381  16.533   9 
   1   4   5 303.293  13.515  10 
   2   4   5 88.2950  5.4336   9 
   3   4   5 184.280  10.558   9 
   4   4   5 154.604   5.498   7 
   4   4   5 158.389   9.353   9 
   4   4   5 162.399   5.260   1 
   5   4   5 20.1914  0.9980   7 
   5   4   5 21.3664  0.9046   1 
   6   4   5 0.12880 0.18898   1 
  -5   5   5 112.008   4.481   8 
   4  -5  -5 199.482   8.132   5 
  -4   5   5 196.668   6.611   2 
   3  -5  -5 32.7735  2.1861   5 
   3  -5  -5 32.7897  1.7512   3 
  -3   5   5 30.3151  1.5218   2 
   2  -5  -5 59.9920  3.1064   3 
  -2   5   5 62.7163  2.4424   2 
   1  -5  -5 32.5431  1.3545   2 
  -1   5   5 33.9282  1.4830   2 
   0   5   5 100.013   5.224  10 
   0   5   5 104.050   6.175   9 
   1   5   5 197.167  11.041   9 
   1   5   5 191.949   9.114  10 
   2   5   5 267.602  11.807  10 
   2   5   5 248.127  14.311   9 
   3   5   5 227.773  12.725   9 
   3   5   5 224.136   7.687   7 
   3   5   5 221.461   7.392   1 
   3   5   5 223.858   9.067   5 
   4   5   5 122.940   4.293   7 
   4   5   5 119.435   4.054   1 
   4   5   5 113.947   7.346   9 
   5   5   5 65.0660  2.4105   7 
   5   5   5 64.7882  2.3016   1 
   6   5   5 0.45188 0.16395   1 
   4  -6  -5 9.77986 0.84251   5 
  -4   6   5 10.3608  0.8265   8 
   3  -6  -5 16.1096  1.5227   5 
   3  -6  -5 17.0183  1.0740   3 
  -3   6   5 16.1296  0.9120   2 
  -3   6   5 16.9371  1.2476   8 
   2  -6  -5 8.31645 1.10068   3 
  -2   6   5 10.6579  1.0377   8 
  -2   6   5 10.7872  0.7587   2 
   1  -6  -5 395.834  12.643   2 
  -1   6   5 394.910  12.632   2 
  -1   6   5 403.513  15.113  12 
   0  -6  -5 200.217   6.643   2 
   0   6   5 204.580  11.372   9 
   0   6   5 197.139   8.072  12 
   0   6   5 194.856   8.326   3 
   1   6   5 209.533  11.584   9 
   1   6   5 192.992   8.679   5 
   1   6   5 203.026   8.172   3 
   1   6   5 199.488   8.170  12 
   2   6   5 108.630   4.951  12 
   2   6   5 112.848   6.954   9 
   2   6   5 111.953   3.886   1 
   2   6   5 112.671   5.105   5 
   3   6   5 461.672  14.878   1 
   3   6   5 465.783  17.938   5 
   3   6   5 447.853  15.279   7 
   4   6   5 57.2213  2.2475   7 
   4   6   5 54.4133  2.0675   1 
   5   6   5 2.29068 0.32935   7 
   5   6   5 2.30779 0.28554   1 
   6   6   5 2.00934 0.20986   1 
   3  -7  -5 4.91046 0.76291   5 
   3  -7  -5 5.50153 0.43203   3 
  -3   7   5 5.63295 0.63216   8 
   2  -7  -5 84.7033  3.8466   3 
  -2   7   5 86.1678  3.6985   8 
   1  -7  -5 4.63529 0.38609   2 
  -1   7   5 3.02776 0.76529   3 
   0  -7  -5 252.481   8.388   2 
   0   7   5 261.291  10.331   3 
   0   7   5 256.885  10.125  12 
  -1  -7  -5 296.742   9.988   2 
   1   7   5 295.300  16.983   9 
   1   7   5 315.766  11.929   3 
   1   7   5 318.488  12.715   5 
   2   7   5 614.078  23.489   5 
   2   7   5 580.308  19.258   1 
   3   7   5 574.249  19.298   7 
   3   7   5 592.124  18.842   1 
   4   7   5 87.9626  3.2896   7 
   4   7   5 90.1202  3.1219   1 
   5   7   5 85.8527  2.9047   1 
   5   7   5 83.6534  2.9498   7 
   2  -8  -5 18.7823  1.1195   3 
  -2   8   5 19.8380  1.2753   3 
  -1   8   5 82.9807  3.7038   3 
   0  -8  -5 38.6950  1.5452   2 
   0   8   5 40.5609  2.0421   3 
  -1  -8  -5 269.260   9.091   2 
   1   8   5 292.832  11.521   5 
   2   8   5 502.299  19.682   5 
   3   8   5 38.8896  1.5489   1 
   3   8   5 42.9737  1.7502   7 
   4   8   5 43.0589  1.6742   7 
   4   8   5 41.6478  1.5621   1 
   0   9   5 8.77221 0.88774   5 
  -1  -9  -5 66.1155  2.3483   2 
   1   9   5 70.9345  3.0713   5 
  -2  -9  -5 90.4401  3.0880   2 
   3   9   5 69.9412  2.5237   7 
   3   7  -6 24.7013  1.0971   7 
   3   7  -6 27.7289  1.4230   8 
   2   7  -6 28.0034  1.5552   8 
  -2  -7   6 24.3726  1.2430   2 
   1   7  -6 56.9659  2.7134   8 
   1   7  -6 56.9233  2.6748   5 
  -1  -7   6 58.1615  2.2361   2 
   0   7  -6 8.45348 0.60331   3 
   0   7  -6 12.1147  1.0874   5 
   0   7  -6 10.6594  0.9787   8 
   0  -7   6 9.61728 0.67337   2 
  -1   7  -6 56.4297  2.4788   3 
  -2   7  -6 23.9455  1.2745   3 
   2  -7   6 22.9217  1.4305   3 
   4   6  -6 11.9205  0.5963   1 
   4   6  -6 15.8318  0.9708   8 
   4   6  -6 13.4804  0.6628   7 
   3   6  -6 2.30211 0.55446   8 
   3   6  -6 1.19568 0.31073   7 
   3   6  -6 1.22147 0.25004   1 
   2   6  -6 7.08884 0.92498   8 
   2   6  -6 7.95189 0.79958   5 
   1   6  -6 65.3452  3.1608   8 
   1   6  -6 68.9247  3.1871   5 
  -1  -6   6 61.9559  2.5812   2 
   0   6  -6 5.93006 0.85465   8 
   0   6  -6 5.66854 0.67015   3 
   0   6  -6 4.38788 0.80562   5 
   0  -6   6 4.11850 0.57420   2 
   1  -6   6 95.2465  3.3075   2 
   2  -6   6 96.8442  4.3948   3 
   3  -6   6 28.6818  1.5543   3 
   5   5  -6 15.2606  0.6400   1 
   5   5  -6 16.1145  0.9363   8 
   5   5  -6 15.6209  0.6558   7 
   4   5  -6 22.5123  1.0453   7 
   4   5  -6 23.6330  0.9631   1 
   4   5  -6 22.2054  1.3892   8 
   3   5  -6 91.5623  3.2407   1 
   3   5  -6 92.3544  3.4085   7 
   3   5  -6 96.3363  4.1995   8 
   2   5  -6 84.8159  3.2011   7 
   2   5  -6 85.6899  3.8068   5 
   2   5  -6 80.3014  2.9942   1 
   2   5  -6 85.2935  3.7922   5 
   2   5  -6 88.9613  3.9207   8 
   1   5  -6 142.442   5.633   3 
   1   5  -6 140.060   5.945   8 
   1   5  -6 139.026   6.097   5 
   0   5  -6 169.194   6.833   3 
   0  -5   6 167.050   5.787   2 
   1  -5   6 83.9643  3.0863   2 
  -2   5  -6 6.65620 0.48778   2 
   2  -5   6 4.44851 0.89553   3 
  -3   5  -6 -0.4064  0.1998   2 
   3  -5   6 1.34138 0.55050   3 
  -4   5  -6 32.2477  1.2691   2 
   4  -5   6 32.9620  1.8950   5 
   5   4  -6 5.84352 0.63667   8 
   5   4  -6 6.32622 0.44836   7 
   5   4  -6 5.42981 0.37561   1 
   4   4  -6 25.1105  1.5840   8 
   4   4  -6 27.8383  1.2013   7 
   4   4  -6 26.3808  1.0950   1 
   3   4  -6 109.354   3.898   7 
   3   4  -6 110.183   4.732   8 
   3   4  -6 107.380   4.458   5 
   3   4  -6 105.319   3.708   1 
   2   4  -6 399.208  15.765   8 
   2   4  -6 405.712  13.634   7 
   2   4  -6 414.137  16.184   5 
   2   4  -6 423.954  13.319   1 
   2   4  -6 404.198  16.164   5 
   1   4  -6 190.460   8.003   6 
   1   4  -6 198.597   7.640   3 
   1   4  -6 192.280   8.082   5 
   0   4  -6 8.75991 0.88785   3 
   0   4  -6 4.47551 0.69470   6 
   0  -4   6 5.44165 0.66412   2 
  -1   4  -6 42.1788  1.5279   2 
  -1   4  -6 36.5604  2.0876   6 
   1  -4   6 40.7371  1.7357   2 
  -2   4  -6 50.8069  1.9105   2 
   2  -4   6 47.9332  2.7619   3 
  -3   4  -6 21.3052  1.0738   2 
   3  -4   6 23.4715  1.7508   3 
  -4   4  -6 64.7396  2.3721   2 
   4  -4   6 62.9275  3.2297   5 
  -5   4  -6 2.67441 0.33732   2 
   6   3  -6 31.2505  1.4201   8 
   5   3  -6 37.2071  1.3859   1 
   5   3  -6 37.1134  1.4726   7 
   5   3  -6 37.5368  1.8829   8 
   4   3  -6 357.757  11.284   1 
   4   3  -6 345.145  11.540   7 
   4   3  -6 337.681  13.425   8 
   3   3  -6 131.389   4.287   1 
   3   3  -6 126.109   5.356   8 
   3   3  -6 123.576   4.451   7 
   3   3  -6 122.198   5.242   5 
   2   3  -6 339.671  14.381   6 
   2   3  -6 385.693  11.855   1 
   1   3  -6 88.3574  4.0205   6 
  -1  -3   6 94.0285  9.0157  13 
   0   3  -6 127.276   5.349   6 
   0  -3   6 127.535  11.976  13 
  -1   3  -6 152.808   6.275   6 
  -2   3  -6 97.8433  3.3823   2 
   3  -3   6 7.77945 1.00296   3 
   3  -3   6 8.36257 1.15153   5 
   4  -3   6 200.320   8.459   5 
   5  -3   6 6.99266 0.67937   5 
   6  -3   6 6.88083 0.48403   7 
   6   2  -6 22.4415  0.8375   1 
   6   2  -6 21.0049  0.7620  11 
   6   2  -6 21.4165  1.1028   8 
   5   2  -6 3.12901 0.31532   1 
   5   2  -6 2.08426 0.46798   8 
   4   2  -6 290.686   9.336   1 
   4   2  -6 277.174  11.170   8 
   4   2  -6 289.665   9.613   7 
   3   2  -6 565.799  21.762   5 
   3   2  -6 523.590  21.731   6 
   3   2  -6 565.973  18.357   7 
   3   2  -6 549.766  21.158   8 
   3   2  -6 583.940  17.984   1 
   2   2  -6 93.5786  4.3484   6 
  -2  -2   6 105.007   9.697  13 
   1   2  -6 58.6574  2.7767   6 
  -1  -2   6 60.9420  6.2006  13 
   0   2  -6 224.026   9.019   6 
   0  -2   6 232.735  20.432  13 
   1  -2   6 686.257  59.171  13 
  -2   2  -6 2.92656 0.24538  15 
   3  -2   6 17.3850  1.4120   3 
   4  -2   6 54.3708  2.1110   1 
   4  -2   6 58.9575  2.9658   5 
   5  -2   6 53.1274  2.0394   1 
   5  -2   6 55.3926  2.4792   5 
   6  -2   6 27.4337  1.1684   7 
   6  -2   6 26.1307  1.0573   1 
   6   1  -6 34.9632  1.1737  11 
   6   1  -6 34.6758  1.2763   1 
   6   1  -6 34.6980  1.6117   8 
   5   1  -6 67.4477  2.2385  11 
   5   1  -6 67.3633  3.0407   8 
   5   1  -6 67.1834  2.3977   1 
   4   1  -6 615.780  23.641   8 
   4   1  -6 636.440  20.118   1 
   4   1  -6 624.542  20.564   7 
   3   1  -6 73.9570  3.5426   6 
   3   1  -6 75.5441  2.6432   1 
   3   1  -6 75.7657  3.4241   5 
   2   1  -6 19.2650  1.2796   6 
  -2  -1   6 19.5470  2.6824  13 
   1   1  -6 715.490  28.097   6 
  -1  -1   6 755.138  63.274  13 
   0   1  -6 85.3859  3.5399   6 
   0   1  -6 77.9253  5.8482   4 
   0  -1   6 90.5368  8.2261  13 
  -1   1  -6 172.629  12.669   4 
   1  -1   6 217.617  17.584  13 
  -2   1  -6 66.8712  4.7347   4 
  -2   1  -6 64.5279  1.6929  15 
  -3   1  -6 213.141  14.219   4 
   4  -1   6 131.342   4.470   1 
   4  -1   6 135.618   5.721   5 
   4  -1   6 125.763   4.678   7 
   5  -1   6 52.9473  2.2566   7 
   5  -1   6 59.1462  2.1267   1 
   6  -1   6 122.617   4.315   7 
   6  -1   6 124.788   4.176   1 
   6   0  -6 13.7358  0.6357   1 
   6   0  -6 14.2345  0.5976  11 
   6   0  -6 13.8643  0.8362   8 
   5   0  -6 217.161   6.715  11 
   5   0  -6 228.432   7.349   1 
   5   0  -6 221.215   8.749   8 
   4   0  -6 325.437  10.430   1 
   4   0  -6 313.531  12.455   5 
   4   0  -6 318.219  12.382   8 
   3   0  -6 169.261   7.085   6 
   2   0  -6 82.7119  5.9559   4 
   2   0  -6 75.1967  3.4400   6 
  -2   0   6 72.4467  7.4819  13 
   1   0  -6 59.6397  2.7485   6 
   1   0  -6 63.8027  4.6588   4 
  -1   0   6 61.8951  6.2553  13 
   0   0  -6 172.774  12.037   4 
   0   0   6 191.838  16.492  13 
  -1   0  -6 187.089  13.527   4 
   1   0   6 229.498  18.756  13 
  -2   0  -6 41.4561  3.0646   4 
   2   0   6 32.0102  4.4010  13 
   2   0   6 43.1843  2.6343   9 
  -3   0  -6 7.98016 1.21481   4 
   3   0   6 7.40223 1.07888   9 
   4   0   6 15.2237  0.7841   1 
   4   0   6 15.1010  0.9291   7 
   4   0   6 17.1359  1.3463   5 
   5   0   6 39.3845  1.7019   7 
   5   0   6 40.4864  1.5833   1 
   6   0   6 9.06430 0.53547   1 
   6   0   6 7.51092 0.59419   7 
   6  -1  -6 83.8033  3.4397   8 
   6  -1  -6 86.6637  2.6436  11 
   5  -1  -6 162.846   5.704   1 
   5  -1  -6 174.083   5.264  11 
   5  -1  -6 174.354   6.824   8 
   4  -1  -6 12.7836  1.1551   8 
   4  -1  -6 16.0806  0.8265   1 
   4  -1  -6 17.0077  0.8721  11 
   4  -1  -6 16.2793  1.1368   5 
   3  -1  -6 281.917  11.462   5 
   3  -1  -6 282.186  11.311   6 
   3  -1  -6 282.323   9.259   1 
   2  -1  -6 230.157  16.185   4 
   2  -1  -6 246.185   9.528   6 
   1  -1  -6 1.35771 0.61457   4 
  -1   1   6 1.86505 0.95928  13 
   0  -1  -6 333.634  20.915   4 
   0   1   6 307.177  28.250  13 
  -1  -1  -6 24.4959  2.1149   4 
  -2  -1  -6 613.803  39.522   4 
   2   1   6 618.772  32.413   9 
  -3  -1  -6 66.1756  4.8761   4 
   3   1   6 66.3212  4.2145   9 
   4   1   6 97.9209  5.8641   9 
   4   1   6 89.5761  4.1742   5 
   4   1   6 97.4338  3.2933   1 
   5   1   6 33.0388  1.4945   7 
   5   1   6 35.4779  1.3901   1 
   6   1   6 24.7839  1.1201   7 
   6   1   6 25.3899  1.0411   1 
   7   1   6 25.0162  0.9316   1 
   5  -2  -6 80.7601  3.4458   8 
   5  -2  -6 81.0797  2.6686  11 
   5  -2  -6 77.3139  2.8502   1 
   4  -2  -6 173.841   7.103   8 
   4  -2  -6 175.946   5.528  11 
   4  -2  -6 178.658   5.978   1 
   4  -2  -6 175.595   7.285   5 
   3  -2  -6 56.6743  2.8775   5 
   3  -2  -6 53.1897  2.4010   3 
   3  -2  -6 53.8759  2.0561   1 
   3  -2  -6 54.9520  2.5766   8 
  -3   2   6 50.7903  2.6082   6 
   2  -2  -6 179.825  12.612   4 
   1  -2  -6 37.0002  3.1344   4 
  -1   2   6 35.1289  4.1770  13 
   0  -2  -6 64.4490  4.4596   4 
   0   2   6 52.8294  6.1127  13 
  -1  -2  -6 2.78735 0.76684   4 
   1   2   6 5.49341 1.58334  13 
  -2  -2  -6 227.281  16.111   4 
   2   2   6 266.666  13.460   9 
  -3  -2  -6 389.161  25.423   4 
   3   2   6 393.304  21.072   9 
   4   2   6 165.662   5.542   1 
   4   2   6 170.833   9.675   9 
   4   2   6 166.846   5.769   7 
   4   2   6 166.020   6.807   5 
   5   2   6 26.9986  1.1137   1 
   5   2   6 24.6908  2.2634   9 
   5   2   6 27.4518  1.2499   7 
   6   2   6 24.7323  1.0740   7 
   6   2   6 24.4272  1.0021   1 
   7   2   6 13.8254  0.5735   1 
   5  -3  -6 14.7128  0.9548   8 
   5  -3  -6 14.2743  0.7484  11 
   5  -3  -6 13.2777  0.7125   1 
   4  -3  -6 104.663   4.691   5 
   4  -3  -6 109.487   4.540   8 
   4  -3  -6 107.103   3.794   1 
   3  -3  -6 217.929   8.466   3 
   3  -3  -6 209.814   9.092   5 
   3  -3  -6 218.367   8.535   8 
  -3   3   6 216.029   8.398  12 
   2  -3  -6 14.7274  2.2562   4 
   1  -3  -6 50.5486  4.1866   4 
   0  -3  -6 30.1091  2.6904   4 
  -1  -3  -6 629.401  43.320   4 
   1   3   6 721.512  35.517   9 
  -2  -3  -6 5.49766 1.06414   4 
  -3  -3  -6 8.67443 1.36692   4 
   3   3   6 11.9467  1.5539   9 
   4   3   6 14.1853  0.8324   7 
   4   3   6 13.3439  0.7102   1 
   4   3   6 13.8537  1.7872   9 
   5   3   6 42.8758  1.5857   1 
   5   3   6 40.3038  1.7000   7 
   6   3   6 44.7245  1.6409   7 
   6   3   6 41.3034  1.5623   1 
   4  -4  -6 47.5552  2.4044   5 
   3  -4  -6 36.7275  1.8458   3 
   3  -4  -6 30.4183  2.1970   5 
   3  -4  -6 36.3258  1.8791   8 
   2  -4  -6 130.065   5.689   3 
  -2   4   6 130.588   4.652   2 
  -2   4   6 135.103   5.510  12 
   1  -4  -6 3.52564 1.05258   4 
   0  -4  -6 108.475   7.837   4 
  -1  -4  -6 10.5352  1.5185   4 
   1   4   6 9.51073 1.28124   9 
   1   4   6 7.95780 1.06609  10 
  -2  -4  -6 62.7305  5.1968   4 
   2   4   6 81.0272  4.6669   9 
   3   4   6 7.25543 1.28222   9 
   3   4   6 9.34034 1.00083   5 
   3   4   6 7.40278 0.54142   1 
   4   4   6 329.053  10.587   1 
   4   4   6 320.625  17.963   9 
   4   4   6 325.930  10.923   7 
   5   4   6 8.28789 0.56877   1 
   5   4   6 10.0769  0.7203   7 
   6   4   6 13.9213  0.6414   7 
   6   4   6 13.3672  0.6392   1 
   4  -5  -6 174.908   7.087   5 
  -4   5   6 173.434   5.792   2 
   3  -5  -6 148.314   6.742   5 
   3  -5  -6 159.217   6.136   3 
  -3   5   6 150.286   5.252   2 
   2  -5  -6 34.1425  2.1022   3 
  -2   5   6 33.7619  2.1175  12 
  -2   5   6 36.2457  1.6123   2 
   1  -5  -6 104.026   3.423   2 
  -1   5   6 99.1679  3.5567   2 
  -1   5   6 96.8909  4.4736  12 
   0   5   6 253.858   8.356   2 
   0   5   6 258.587  10.256  12 
   0   5   6 277.448  12.115  10 
   1   5   6 13.9067  1.7563   9 
   1   5   6 16.4020  1.7273  10 
   2   5   6 106.125   4.988   5 
   2   5   6 99.7432  4.7387  12 
   2   5   6 105.491   4.463   3 
   2   5   6 110.803   3.735   1 
   2   5   6 111.319   6.639   9 
   3   5   6 177.523   7.567   5 
   3   5   6 179.167  10.587   9 
   3   5   6 176.880   6.366   7 
   3   5   6 192.144   6.101   1 
   4   5   6 104.946   3.633   1 
   4   5   6 108.619   3.883   7 
   4   5   6 101.772   6.587   9 
   5   5   6 65.0486  2.4162   7 
   5   5   6 63.2346  2.2871   1 
   6   5   6 66.2590  2.2751   1 
   4  -6  -6 2.90059 0.39264   5 
  -4   6   6 3.94771 0.47076   8 
   3  -6  -6 4.05942 0.45945   3 
   3  -6  -6 3.31251 0.75073   5 
  -3   6   6 3.81428 0.41576   2 
  -3   6   6 4.86986 0.62277   8 
  -2   6   6 120.067   4.087   2 
   1  -6  -6 75.9439  2.5573   2 
  -1   6   6 71.4144  3.6007  12 
  -1   6   6 73.8108  2.5663   2 
   0  -6  -6 57.6681  2.2046   2 
   0   6   6 55.5305  3.0762   3 
   0   6   6 55.9918  3.0268  12 
   1   6   6 32.4981  2.8036   9 
   1   6   6 35.3071  2.2886  12 
   1   6   6 35.8248  2.4521   5 
   1   6   6 36.5954  2.0894   3 
   2   6   6 87.9551  4.1596  12 
   2   6   6 80.2565  5.5666   9 
   2   6   6 92.8170  4.2801   5 
   2   6   6 89.2728  3.1211   1 
   2   6   6 86.5535  3.4923   3 
   3   6   6 9.34270 0.65852   1 
   3   6   6 9.37647 0.92980   5 
   3   6   6 8.66073 0.81172   7 
   3   6   6 11.8246  1.7109   9 
   4   6   6 5.06660 0.46209   1 
   4   6   6 6.78756 0.63320   7 
   5   6   6 28.0466  1.2038   7 
   5   6   6 27.6283  1.1216   1 
   6   6   6 7.94112 0.39480   1 
   3  -7  -6 12.6064  0.9986   5 
  -3   7   6 11.2384  0.7484   8 
   2  -7  -6 39.9398  2.0455   3 
  -1   7   6 165.299   6.682  12 
  -1   7   6 162.389   6.913   3 
   0  -7  -6 37.1910  1.5621   2 
   0   7   6 39.0643  2.3263  12 
   0   7   6 38.5648  2.2212   3 
  -1  -7  -6 218.401   7.535   2 
   1   7   6 226.285   9.698   5 
   1   7   6 240.516   9.219  12 
   1   7   6 230.256   9.000   3 
   2   7   6 110.403   5.012   5 
   3   7   6 12.2152  0.6931   1 
   3   7   6 12.7328  0.9231   7 
   4   7   6 8.52871 0.56008   1 
   4   7   6 7.17288 0.65283   7 
   5   7   6 100.315   3.352   7 
   5   7   6 94.2966  3.2762   1 
   2  -8  -6 19.1154  0.9679   3 
  -2   8   6 17.3039  1.1074   3 
   1  -8  -6 4.68827 0.69435   3 
  -1   8   6 2.22270 0.52708   3 
   0  -8  -6 32.3096  1.2298   2 
   0   8   6 33.4389  1.6840   3 
   0   8   6 29.9735  2.0575   5 
  -1  -8  -6 92.0419  3.2338   2 
   1   8   6 92.8602  4.3148   5 
  -2  -8  -6 197.710   6.902   2 
   2   8   6 224.532   8.551   5 
   3   8   6 56.6280  2.2238   7 
   4   8   6 32.9919  1.3415   7 
  -1  -9  -6 14.1212  0.6033   2 
   1   9   6 13.5023  0.9055   5 
   2   7  -7 6.36393 0.62188   8 
  -2  -7   7 3.41873 0.41638   2 
   1   7  -7 6.89976 0.62010   5 
   1   7  -7 7.26767 0.71618   8 
  -1  -7   7 5.76359 0.51123   2 
   0   7  -7 24.3733  1.3640   5 
   0  -7   7 21.9735  0.9001   2 
  -1   7  -7 7.58610 0.54517   3 
   3   6  -7 57.8995  2.5779   8 
   3   6  -7 55.8847  2.1369   7 
   2   6  -7 24.4178  1.2870   5 
   2   6  -7 25.5568  1.5294   8 
   1   6  -7 0.53752 0.43733   5 
   1   6  -7 0.97306 0.45285   5 
   1   6  -7 0.64338 0.44390   8 
  -1  -6   7 0.64121 0.37897   2 
   0   6  -7 60.1874  2.5922   3 
   0   6  -7 55.6498  2.9008   5 
   0  -6   7 59.2910  2.2812   2 
  -1   6  -7 8.68678 0.84438   3 
  -2   6  -7 17.7152  1.1919   3 
   2  -6   7 19.9362  1.4855   3 
   3  -6   7 10.2341  1.0413   5 
   3  -6   7 11.8234  0.6956   3 
   4   5  -7 39.2621  1.5441   7 
   4   5  -7 37.8785  1.4442   1 
   4   5  -7 42.1798  1.9272   8 
   3   5  -7 94.9811  3.3484   1 
   3   5  -7 99.1515  4.2041   8 
   3   5  -7 98.1452  3.5269   7 
   2   5  -7 73.6813  3.4183   8 
   2   5  -7 73.6598  3.3630   5 
   1   5  -7 15.0011  0.9608   3 
   1   5  -7 13.4811  1.2465   8 
   1   5  -7 17.6472  1.4108   5 
  -1  -5   7 16.6805  1.1366   2 
   0   5  -7 168.338   6.843   3 
   0  -5   7 170.253   5.817   2 
  -1   5  -7 91.2437  4.0404   3 
   1  -5   7 90.5052  3.2175   2 
   2  -5   7 151.800   6.534   3 
  -3   5  -7 44.6482  1.6469   2 
   3  -5   7 49.0191  2.3323   3 
  -4   5  -7 147.881   4.779   2 
   4  -5   7 151.385   6.179   5 
   5   4  -7 15.3909  0.6455   1 
   5   4  -7 15.4664  0.9000   8 
   4   4  -7 6.18937 0.70323   8 
   4   4  -7 6.00756 0.44196   1 
   4   4  -7 6.53947 0.55138   7 
   3   4  -7 121.116   5.083   8 
   3   4  -7 119.064   4.094   1 
   3   4  -7 119.406   4.286   7 
   2   4  -7 3.67248 0.66769   5 
   2   4  -7 3.76155 0.68697   8 
   2   4  -7 6.48470 0.52809   1 
   1   4  -7 78.4590  3.7339   5 
   1   4  -7 78.7417  3.4180   3 
   0   4  -7 4.48725 0.66757   3 
   0  -4   7 3.97371 0.59684   2 
  -1   4  -7 58.1215  2.0716   2 
   1  -4   7 61.9214  2.3461   2 
  -2   4  -7 80.9801  2.7897   2 
   2  -4   7 75.8264  3.8776   3 
  -3   4  -7 137.584   4.643   2 
   3  -4   7 138.875   5.877   3 
  -4   4  -7 83.9792  2.9176   2 
   4  -4   7 82.8144  3.8991   5 
  -5   4  -7 63.4724  2.1712   2 
   5   3  -7 17.7299  1.0532   8 
   5   3  -7 17.9462  0.7585   1 
   4   3  -7 52.8724  1.9389   1 
   4   3  -7 52.5024  2.0794   7 
   4   3  -7 53.1801  2.5281   8 
   3   3  -7 4.68949 0.62219   5 
   3   3  -7 4.95443 0.45710   1 
   3   3  -7 6.45389 0.61793   7 
   3   3  -7 5.94600 0.76881   8 
   2   3  -7 15.0849  1.2441   8 
   2   3  -7 12.0415  1.1292   5 
   2   3  -7 13.3505  0.7399   1 
   1   3  -7 172.592   7.148   5 
   1   3  -7 160.450   7.034   6 
   1   3  -7 171.229   6.780   3 
   1   3  -7 170.493   7.159   5 
   0   3  -7 49.1006  2.4317   6 
   0   3  -7 49.9700  2.3986   3 
   0  -3   7 47.1232  2.0626   2 
  -1   3  -7 131.084   4.403   2 
   1  -3   7 134.076   4.572   2 
  -2   3  -7 139.889   4.592   2 
   2  -3   7 130.467   5.990   3 
  -3   3  -7 310.142   9.907   2 
   3  -3   7 302.880  12.663   5 
   3  -3   7 304.697  12.130   3 
  -4   3  -7 133.294   4.583   2 
   4  -3   7 136.454   5.955   5 
  -5   3  -7 0.51417 0.25911   2 
   5   2  -7 21.3380  0.9301   1 
   5   2  -7 25.4759  1.3080   8 
   4   2  -7 14.9066  1.1866   8 
   4   2  -7 14.1788  0.7139   1 
   4   2  -7 12.6100  0.8888   7 
   3   2  -7 78.7323  2.7393   1 
   3   2  -7 75.7541  3.4875   8 
   3   2  -7 77.4616  2.9331   7 
   3   2  -7 74.6585  3.4520   5 
   2   2  -7 9.77317 0.81645   3 
   2   2  -7 9.85993 1.02778   5 
   2   2  -7 11.0517  0.7071   1 
   2   2  -7 11.2673  1.1252   6 
   1   2  -7 131.875   5.397   6 
  -1  -2   7 120.653  12.034  13 
   0  -2   7 65.0015  6.8544  13 
   1  -2   7 85.6040  8.6428  13 
  -2   2  -7 0.32504 0.26117   2 
   3  -2   7 302.721  12.550   5 
   3  -2   7 305.696  12.012   3 
   4  -2   7 70.1154  3.4878   5 
   5  -2   7 4.19517 0.51108   7 
   5   1  -7 23.4046  1.2820   8 
   5   1  -7 21.7602  0.9361   1 
   5   1  -7 21.6827  0.9037  11 
   4   1  -7 53.0933  2.1506   7 
   4   1  -7 51.2949  2.5317   8 
   4   1  -7 53.9970  1.9841   1 
   3   1  -7 22.3194  1.2057   7 
   3   1  -7 23.6703  1.4591   8 
   3   1  -7 21.8912  1.4596   5 
   3   1  -7 23.3968  1.0324   1 
   2   1  -7 209.582   8.561   6 
  -1  -1   7 181.629  16.727  13 
   0  -1   7 26.0867  3.4182  13 
  -1   1  -7 39.4649  3.2215   4 
  -2   1  -7 177.841  11.982   4 
   3  -1   7 47.7192  2.7769   5 
   3  -1   7 50.1035  2.5204   3 
   4  -1   7 14.9129  0.8040   1 
   4  -1   7 15.8460  1.4023   5 
   5  -1   7 11.8758  0.6819   1 
   5  -1   7 13.2102  0.9081   7 
   6  -1   7 116.095   3.935   7 
   6  -1   7 109.587   3.770   1 
   5   0  -7 124.283   4.946   8 
   5   0  -7 118.987   4.119   1 
   5   0  -7 122.167   3.801  11 
   4   0  -7 50.8099  2.5074   8 
   4   0  -7 53.3404  1.9805   1 
   3   0  -7 171.049   5.837   1 
   3   0  -7 168.272   6.104   7 
   3   0  -7 177.813   7.017   8 
   3   0  -7 179.800   7.306   5 
  -2   0   7 134.662  12.742  13 
   1   0  -7 143.790   9.597   4 
  -1   0   7 130.159  12.856  13 
   0   0  -7 1045.85   62.78   4 
   0   0   7 914.929  84.235  13 
  -1   0  -7 46.1742  3.6385   4 
  -2   0  -7 329.901  20.016   4 
   2   0   7 275.742  27.227  13 
  -3   0  -7 53.4841  4.1799   4 
   4   0   7 28.2557  1.4378   7 
   4   0   7 34.3430  1.9776   5 
   4   0   7 31.1916  1.2942   1 
   5   0   7 7.43092 0.67303   7 
   5   0   7 7.80999 0.57474   1 
   6   0   7 5.26337 0.40586   1 
   6   0   7 4.00231 0.42680   7 
   5  -1  -7 163.798   6.373   8 
   5  -1  -7 156.982   4.934  11 
   5  -1  -7 163.087   5.382   1 
   5  -1  -7 160.431   5.392   1 
   4  -1  -7 52.1594  1.8820  11 
   4  -1  -7 47.8470  2.4090   8 
   4  -1  -7 51.8921  1.9418   1 
   4  -1  -7 49.6326  2.3353   5 
   3  -1  -7 296.518  11.763   8 
   3  -1  -7 311.756  10.008   1 
   3  -1  -7 304.732  12.360   5 
   2  -1  -7 51.6001  4.4829   4 
   1  -1  -7 261.279  16.624   4 
  -1   1   7 233.011  22.211  13 
   0  -1  -7 543.730  32.149   4 
   0   1   7 445.581  43.196  13 
  -1  -1  -7 175.106  11.803   4 
  -2  -1  -7 14.5573  1.6389   4 
  -3  -1  -7 296.719  19.883   4 
   3   1   7 307.006  16.410   9 
   4   1   7 43.8957  1.8849   7 
   4   1   7 41.7779  3.1174   9 
   4   1   7 46.1656  1.7005   1 
   4   1   7 44.0309  2.3768   5 
   5   1   7 179.968   6.251   7 
   5   1   7 180.854   6.006   1 
   6   1   7 1.09400 0.24991   1 
   6   1   7 0.68890 0.24838   7 
   5  -2  -7 87.2015  3.1307   1 
   5  -2  -7 92.7361  3.7413   8 
   5  -2  -7 92.4173  2.9178  11 
   4  -2  -7 5.19363 0.50653   1 
   4  -2  -7 4.22803 0.47942  11 
   4  -2  -7 4.69830 0.63048   5 
   4  -2  -7 3.52920 0.41780   1 
   4  -2  -7 4.14960 0.59177   8 
  -4   2   7 5.14784 0.72891  12 
   3  -2  -7 0.72007 0.32042   3 
   3  -2  -7 -0.2693  0.4126   5 
   3  -2  -7 0.15075 0.35031   8 
  -3   2   7 0.77602 0.47319  12 
   2  -2  -7 7.33989 0.88361   3 
   1  -2  -7 140.001   9.237   4 
  -1   2   7 117.405  12.203  13 
   0  -2  -7 76.3932  5.3164   4 
   0   2   7 62.9116  7.2701  13 
  -1  -2  -7 23.0207  2.2213   4 
   1   2   7 21.4119  3.2738  13 
  -2  -2  -7 61.9142  4.7069   4 
  -3  -2  -7 57.5846  4.7638   4 
   3   2   7 69.9709  4.2321   9 
   4   2   7 1.69334 0.38878   7 
   4   2   7 1.97164 0.32988   1 
   4   2   7 3.58069 0.93713   9 
   4   2   7 1.90585 0.55956   5 
   5   2   7 29.9188  1.3828   7 
   5   2   7 30.7648  1.2564   1 
   6   2   7 22.3630  0.9823   7 
   6   2   7 20.9949  0.9115   1 
   5  -3  -7 5.32446 0.41279  11 
   4  -3  -7 21.9349  1.3536   5 
   4  -3  -7 21.7934  1.2844   8 
   3  -3  -7 39.4828  2.3164   5 
   3  -3  -7 38.5273  1.9523   8 
   3  -3  -7 37.9582  1.7956   3 
  -3   3   7 34.9357  2.0493  12 
   2  -3  -7 79.0324  3.7167   3 
  -2   3   7 81.5175  3.6036  12 
   1  -3  -7 67.5648  5.3390   4 
   1  -3  -7 65.2668  2.2758   2 
   0  -3  -7 73.3978  5.5875   4 
  -1  -3  -7 311.315  20.551   4 
  -2  -3  -7 135.299   9.423   4 
   3   3   7 49.6692  3.5323   9 
   3   3   7 50.0664  1.8555   1 
   3   3   7 47.2084  2.7134   5 
   4   3   7 51.5364  3.8386   9 
   4   3   7 53.4406  2.5308   5 
   4   3   7 56.3639  2.2230   7 
   4   3   7 57.8729  2.0453   1 
   5   3   7 38.0355  1.6298   7 
   5   3   7 38.8585  1.4942   1 
   6   3   7 2.72365 0.30295   1 
   6   3   7 1.98901 0.30081   7 
   4  -4  -7 1.67402 0.44003   5 
  -4   4   7 1.25964 0.37232   2 
   3  -4  -7 7.15825 0.75822   8 
   3  -4  -7 6.53062 0.65260   3 
   3  -4  -7 6.93763 1.02841   5 
  -3   4   7 7.43551 0.72624   2 
  -3   4   7 5.99224 0.88500  12 
   2  -4  -7 189.415   7.621   3 
  -2   4   7 191.245   7.404  12 
  -2   4   7 172.024   6.219   2 
   1  -4  -7 89.2528  2.9500   2 
  -1   4   7 85.7059  3.1856   2 
  -1   4   7 84.9584  3.9482  12 
   0  -4  -7 78.8394  5.9485   4 
   0  -4  -7 76.9009  2.7254   2 
   0   4   7 76.5960  2.7186   2 
   0   4   7 70.8936  3.5318  12 
  -1  -4  -7 42.4909  3.6318   4 
   2   4   7 73.7924  3.7934   5 
   2   4   7 68.3429  2.6082   1 
   2   4   7 76.2388  4.8157   9 
   2   4   7 75.9104  3.3813   3 
   3   4   7 18.6515  2.0805   9 
   3   4   7 14.2854  1.0355   7 
   3   4   7 16.2129  1.4406   5 
   3   4   7 18.2241  0.8661   1 
   4   4   7 36.2538  3.0912   9 
   4   4   7 42.8595  1.8057   7 
   4   4   7 42.9121  1.6158   1 
   5   4   7 1.24482 0.27425   1 
   5   4   7 1.43039 0.32125   7 
   6   4   7 28.3321  1.0869   1 
   6   4   7 28.3310  1.1130   7 
   4  -5  -7 8.92133 0.67198   5 
  -4   5   7 9.39390 0.59978   2 
   3  -5  -7 218.770   9.438   5 
   3  -5  -7 229.656   8.659   3 
  -3   5   7 230.845   7.457   2 
   2  -5  -7 108.255   4.840   3 
  -2   5   7 109.307   4.773  12 
  -2   5   7 111.803   3.879   2 
   1  -5  -7 16.4920  0.7575   2 
  -1   5   7 16.4821  1.5096  12 
  -1   5   7 16.5710  0.9482   2 
   0  -5  -7 89.1378  3.1186   2 
   0   5   7 84.9565  4.3092   3 
   0   5   7 87.4700  4.0934  12 
   1   5   7 77.4071  3.8195  12 
   1   5   7 79.6920  3.8215   3 
   2   5   7 42.3359  2.5998  12 
   2   5   7 45.5811  2.1942   3 
   2   5   7 42.7557  2.6572   5 
   2   5   7 43.0702  3.3078   9 
   3   5   7 62.6993  4.5122   9 
   3   5   7 61.3205  2.6405   7 
   3   5   7 75.3937  3.3321   5 
   3   5   7 66.4904  2.4238   1 
   4   5   7 1.05879 0.26418   1 
   4   5   7 0.99205 0.35501   7 
   5   5   7 67.9336  2.5685   7 
   5   5   7 69.8891  2.4416   1 
   6   5   7 90.7912  3.0770   1 
   6   5   7 93.0914  3.0606   7 
   3  -6  -7 3.07700 0.62974   5 
   2  -6  -7 28.7730  1.7880   3 
  -2   6   7 32.6221  1.2318   2 
  -2   6   7 32.7426  1.9176  12 
  -1   6   7 125.282   5.410  12 
   0  -6  -7 156.468   5.160   2 
   0   6   7 155.665   6.527  12 
   0   6   7 147.323   6.661   3 
  -1  -6  -7 7.09747 0.67736   2 
   1   6   7 12.4522  1.2020   3 
   1   6   7 6.42773 1.17188   5 
   1   6   7 7.46216 1.13129  12 
   2   6   7 57.4088  3.1007  12 
   2   6   7 58.2913  3.1479   5 
   3   6   7 97.4739  3.4788   1 
   3   6   7 98.2963  3.7493   7 
   3   6   7 103.970   4.399   5 
   4   6   7 95.4334  3.5010   7 
   4   6   7 93.2856  3.2744   1 
   5   6   7 13.7696  0.7053   7 
   5   6   7 11.6574  0.6032   1 
   2  -7  -7 13.4653  0.9073   3 
   1  -7  -7 64.6022  3.2144   3 
  -1   7   7 69.5740  3.1849  12 
  -1   7   7 67.9950  3.2510   3 
   0  -7  -7 10.4003  0.6450   2 
   0   7   7 7.61244 1.07120  12 
   0   7   7 10.1071  1.0468   3 
  -1  -7  -7 39.4846  1.6678   2 
   1   7   7 39.6766  2.4847   5 
   1   7   7 41.2020  1.9840   3 
   1   7   7 42.3700  2.4368  12 
   2   7   7 40.6296  2.3136   5 
   3   7   7 17.9277  1.0133   7 
   3   7   7 17.1696  0.8253   1 
   4   7   7 23.3668  0.9822   1 
   4   7   7 24.0150  1.1264   7 
   5   7   7 138.662   4.598   1 
   5   7   7 140.926   4.685   7 
   1  -8  -7 3.61386 0.53439   3 
  -1   8   7 2.67918 0.44078   3 
   0   8   7 0.22394 0.46888   5 
  -1  -8  -7 3.85436 0.38214   2 
   1   8   7 3.51095 0.67420   5 
  -2  -8  -7 19.0067  0.9105   2 
   2   8   7 19.1719  1.1457   5 
   3   8   7 6.02389 0.53795   7 
   4   8   7 44.9802  1.6824   7 
   2   6  -8 40.3630  1.8542   8 
  -2  -6   8 38.5417  1.5957   2 
   1   6  -8 10.3279  0.8962   5 
  -1  -6   8 8.42744 0.65169   2 
   0   6  -8 7.55735 0.84960   5 
   0   6  -8 8.97218 0.95708   5 
   0  -6   8 7.93696 0.54556   2 
  -1   6  -8 125.711   5.044   3 
  -2   6  -8 37.5461  1.7694   3 
   2  -6   8 37.2100  1.8843   3 
   3   5  -8 43.8199  1.7548   7 
   3   5  -8 44.3512  2.0806   8 
   2   5  -8 53.4141  2.4349   5 
   2   5  -8 50.3023  2.4341   8 
   1   5  -8 5.93889 0.83035   5 
  -1  -5   8 5.11144 0.60984   2 
   0   5  -8 66.4162  3.0368   3 
   0  -5   8 70.0756  2.6068   2 
  -1   5  -8 80.5306  3.5716   3 
  -2   5  -8 61.8485  2.9025   3 
   2  -5   8 63.1251  3.0970   3 
   3  -5   8 96.3985  4.2830   5 
   3  -5   8 91.6509  3.7863   3 
   4   4  -8 42.8701  1.6456   7 
   4   4  -8 42.1710  1.9511   8 
   4   4  -8 41.3536  1.5315   1 
   3   4  -8 7.35959 0.76972   8 
   3   4  -8 6.84213 0.49996   1 
   3   4  -8 8.27196 0.68073   7 
   2   4  -8 27.7798  1.6702   5 
   1   4  -8 115.192   4.727   3 
   1   4  -8 116.396   5.196   5 
  -1  -4   8 115.896   4.185   2 
   0   4  -8 381.113  14.754   3 
   0  -4   8 382.095  12.384   2 
  -1   4  -8 100.923   4.407   3 
   1  -4   8 100.103   3.508   2 
  -2   4  -8 118.665   3.921   2 
   2  -4   8 117.625   5.327   3 
  -3   4  -8 35.5197  1.3818   2 
   3  -4   8 33.5434  2.2233   5 
   3  -4   8 34.4777  1.9053   3 
  -4   4  -8 107.398   3.565   2 
   4  -4   8 107.606   4.640   5 
   5   3  -8 17.9558  0.9337   8 
   4   3  -8 10.6810  0.7152   7 
   4   3  -8 9.70607 0.53934   1 
   4   3  -8 9.42821 0.83093   8 
   3   3  -8 9.95322 0.77085   7 
   3   3  -8 10.8032  0.9499   8 
   3   3  -8 9.94912 0.58682   1 
   3   3  -8 8.33862 0.72905   5 
   2   3  -8 81.4791  3.7872   5 
   1   3  -8 89.3563  4.2387   5 
   1   3  -8 90.7793  3.9004   3 
   0   3  -8 223.465   9.000   3 
   0  -3   8 227.235   7.565   2 
  -1   3  -8 18.8220  0.8980   2 
   1  -3   8 19.9763  1.1054   2 
  -2   3  -8 44.8692  1.7408   2 
   2  -3   8 42.1423  2.6258   3 
  -3   3  -8 380.931  12.253   2 
   3  -3   8 378.227  15.596   5 
   3  -3   8 391.055  14.921   3 
  -4   3  -8 543.104  17.294   2 
   4  -3   8 551.480  21.518   5 
  -5   3  -8 6.80823 0.46591   2 
   5   2  -8 28.7616  1.0926   1 
   5   2  -8 27.8561  1.0222  11 
   5   2  -8 30.4695  1.3957   8 
   4   2  -8 20.0592  1.0113   7 
   4   2  -8 19.9981  0.8857   1 
   4   2  -8 18.4415  1.1773   8 
   3   2  -8 73.1918  3.3697   8 
   3   2  -8 78.9797  3.4218   5 
   3   2  -8 77.0535  2.9434   7 
   3   2  -8 75.7027  2.7312   1 
   2   2  -8 10.1416  1.0975   5 
   2   2  -8 10.4116  0.7689   3 
   1   2  -8 83.6177  3.6790   3 
   0  -2   8 93.9123  3.4780   2 
  -1   2  -8 74.0953  2.7107   2 
   1  -2   8 80.2584  2.8515   2 
  -2   2  -8 193.654   6.439   2 
   2  -2   8 197.886   8.211   3 
  -3   2  -8 847.027  27.009   2 
   3  -2   8 878.962  32.525   3 
   3  -2   8 851.111  33.670   5 
   4  -2   8 93.2094  4.3278   5 
   5   1  -8 115.616   4.453   8 
   5   1  -8 110.863   3.434  11 
   5   1  -8 109.306   3.741   1 
   4   1  -8 61.4530  2.2564   1 
   4   1  -8 63.1438  2.8009   8 
   3   1  -8 76.1328  2.9931   7 
   3   1  -8 78.5877  3.4461   8 
   3   1  -8 79.5760  2.7953   1 
   3   1  -8 75.0777  3.5240   5 
   2   1  -8 21.5775  1.7029   5 
   2   1  -8 19.7934  1.2208   3 
   1   1  -8 75.5899  3.4007   3 
   0   1  -8 4.13922 0.36324   2 
   0  -1   8 3.26875 0.54029   2 
  -1   1  -8 70.7257  2.5920   2 
   1  -1   8 74.4745  2.6805   2 
  -2   1  -8 217.194   7.020   2 
   2  -1   8 209.567   8.813   3 
   3  -1   8 209.816   9.073   5 
   3  -1   8 216.387   8.615   3 
   4  -1   8 21.4810  1.6801   5 
   5  -1   8 19.3854  1.0374   7 
   5  -1   8 19.9254  0.8917   1 
   5   0  -8 8.04995 0.46215   1 
   5   0  -8 7.99427 0.48106  11 
   5   0  -8 7.91078 0.65574   8 
  -5   0   8 8.37989 0.71361  12 
   4   0  -8 75.9796  2.4761  11 
   4   0  -8 72.3787  3.1982   8 
   4   0  -8 71.9691  2.6207   1 
   3   0  -8 25.4907  1.5988   5 
   3   0  -8 20.8882  1.3988   8 
   3   0  -8 25.7924  1.1181   1 
   2   0  -8 139.978   5.699   3 
   2   0  -8 138.597   6.147   5 
   0   0  -8 162.178  10.603   4 
   0   0   8 142.073  14.482  13 
  -1   0  -8 88.2703  6.4855   4 
   1   0   8 88.0668  9.1717  13 
   2   0   8 550.563  21.213   3 
   3   0   8 35.5041  2.2449   5 
   3   0   8 34.2142  1.9375   3 
   4   0   8 70.1842  3.3608   5 
   4   0   8 67.4109  2.4628   1 
   4   0   8 66.2039  2.6852   7 
   5   0   8 7.03235 0.66220   7 
   5   0   8 7.79456 0.55242   1 
   6   0   8 9.08054 0.58996   7 
   6   0   8 8.08751 0.46583   1 
   5  -1  -8 16.0412  0.6750  11 
   5  -1  -8 13.4872  0.6622   1 
   5  -1  -8 14.1547  0.8408   8 
   4  -1  -8 8.26257 0.61836  11 
   4  -1  -8 8.36265 0.79161   8 
   4  -1  -8 9.89680 0.59171   1 
  -4   1   8 9.78182 0.93889  12 
   3  -1  -8 109.731   4.923   5 
   2  -1  -8 216.509   8.522   3 
   2  -1  -8 210.918   9.029   5 
  -1   1   8 218.240   7.316   2 
   0  -1  -8 103.145   6.958   4 
   0   1   8 84.2875  9.4963  13 
  -1  -1  -8 465.454  29.884   4 
   1   1   8 450.154  40.582  13 
  -2  -1  -8 97.2505  7.0789   4 
   3   1   8 272.880   9.110   1 
   3   1   8 275.255  10.850   3 
   3   1   8 287.463  11.485   5 
   4   1   8 17.4854  1.4152   5 
   4   1   8 16.2167  1.0066   7 
   4   1   8 16.2113  0.8458   1 
   5   1   8 173.058   6.076   7 
   5   1   8 177.030   5.846   1 
   6   1   8 35.6998  1.3279   1 
   6   1   8 35.4445  1.4070   7 
   5  -2  -8 1.22560 0.27243   8 
   4  -2  -8 64.8540  2.6738   5 
   4  -2  -8 56.0010  2.6783   8 
  -4   2   8 64.9003  2.8038  12 
   3  -2  -8 81.3140  3.8970   5 
  -3   2   8 82.6420  3.6174  12 
   2  -2  -8 58.7310  2.8292   3 
   2  -2  -8 54.1038  3.1426   5 
  -2   2   8 60.5864  2.7949  12 
   1  -2  -8 8.15662 1.01751   3 
  -1   2   8 10.2337  0.8395   2 
  -1   2   8 7.41298 0.89568  12 
   0  -2  -8 843.360  54.350   4 
   0  -2  -8 832.473  26.430   2 
   0   2   8 855.861  26.584   2 
   2   2   8 192.195   7.915   3 
   3   2   8 51.0023  2.3732   3 
   3   2   8 52.5850  1.9631   1 
   3   2   8 53.2750  2.8963   5 
   4   2   8 218.294   8.573   5 
   4   2   8 205.501   7.154   7 
   4   2   8 206.913   6.877   1 
   4   2   8 198.600  11.619   9 
   5   2   8 17.3402  0.8108   1 
   5   2   8 14.5836  0.8725   7 
   6   2   8 4.66666 0.37275   1 
   6   2   8 5.47585 0.44538   7 
   4  -3  -8 12.4049  0.8024   5 
   4  -3  -8 13.3859  0.8573   8 
  -4   3   8 12.5360  0.8606   2 
   3  -3  -8 25.8558  1.7561   5 
  -3   3   8 26.3302  1.3262   2 
  -3   3   8 23.6462  1.5790  12 
   2  -3  -8 55.4109  2.6099   3 
  -2   3   8 51.3225  2.5608  12 
  -2   3   8 45.0714  2.0901   2 
   1  -3  -8 44.1962  2.4832   3 
  -1   3   8 43.0898  1.8768   2 
  -1   3   8 42.9811  2.3155  12 
   0  -3  -8 58.0292  2.1286   2 
   0   3   8 58.9832  2.2155   2 
   0   3   8 56.3886  2.8662  12 
  -1  -3  -8 18.6578  0.9239   2 
   1   3   8 15.6586  1.5431   3 
   2   3   8 25.1091  2.1006   5 
   2   3   8 27.4943  1.7856   3 
   3   3   8 4.40524 0.45740   1 
   3   3   8 5.62555 0.93948   5 
   3   3   8 4.47562 1.02149   9 
   3   3   8 3.97276 0.54934   7 
   4   3   8 127.310   4.367   1 
   4   3   8 128.067   4.605   7 
   4   3   8 128.857   5.357   5 
   5   3   8 38.0941  1.4805   1 
   5   3   8 37.9380  1.6195   7 
   6   3   8 58.1615  2.0598   1 
   6   3   8 60.2186  2.1326   7 
   4  -4  -8 4.27124 0.38528   5 
  -4   4   8 3.28390 0.38638   2 
   3  -4  -8 4.67137 0.80775   5 
  -3   4   8 3.43969 0.50901   2 
  -3   4   8 5.65844 0.79684  12 
   2  -4  -8 10.2249  1.0449   3 
  -2   4   8 9.07756 1.04462  12 
  -2   4   8 7.87702 0.73031   2 
  -1   4   8 40.9347  1.7017   2 
  -1   4   8 36.7350  2.2356  12 
   0  -4  -8 167.393   5.388   2 
   0   4   8 155.476   6.669  12 
   0   4   8 162.013   5.317   2 
  -1  -4  -8 27.8729  1.2895   2 
   1   4   8 24.8005  1.9963   3 
   1   4   8 32.1287  2.1932  12 
   2   4   8 25.3499  2.0885   5 
   2   4   8 25.8546  1.6474   3 
   3   4   8 200.036  11.446   9 
   3   4   8 196.074   6.680   1 
   3   4   8 212.945   8.539   5 
   3   4   8 197.477   6.984   7 
   4   4   8 79.8888  2.9797   7 
   4   4   8 75.5919  2.7486   1 
   5   4   8 50.0688  2.0193   7 
   5   4   8 52.9371  1.8935   1 
   6   4   8 64.2457  2.1936   7 
   6   4   8 61.4373  2.1516   1 
   3  -5  -8 49.9374  2.5458   5 
  -3   5   8 49.9686  1.8376   2 
   2  -5  -8 10.2574  0.9960   3 
  -2   5   8 11.2781  0.7261   2 
  -2   5   8 11.3979  1.1720  12 
   1  -5  -8 205.766   9.018   3 
  -1   5   8 227.093   7.089   2 
  -1   5   8 221.477   8.752  12 
   0  -5  -8 65.9634  2.3751   2 
   0   5   8 60.8694  3.4284   3 
   0   5   8 67.2765  3.3337  12 
  -1  -5  -8 17.6158  0.9746   2 
   1   5   8 19.4093  1.7647  12 
   1   5   8 17.3592  1.5846   3 
   2   5   8 17.2159  1.1762   3 
   2   5   8 15.5290  1.6050   5 
   2   5   8 19.5610  1.7577  12 
   3   5   8 94.8109  3.6977   7 
   3   5   8 100.027   3.454   1 
   3   5   8 101.848   4.527   5 
   4   5   8 23.5797  1.2070   7 
   4   5   8 24.2005  1.0435   1 
   5   5   8 27.9832  1.1265   1 
   5   5   8 29.1719  1.2383   7 
   3  -6  -8 2.51256 0.45893   5 
   2  -6  -8 55.7220  2.5279   3 
  -2   6   8 54.3960  2.6051  12 
   1  -6  -8 42.9911  2.3540   3 
  -1   6   8 41.9711  2.3658  12 
  -1   6   8 43.9280  2.5110   3 
   0  -6  -8 171.180   5.420   2 
   0   6   8 162.892   6.859  12 
   0   6   8 158.437   7.000   3 
  -1  -6  -8 165.156   5.486   2 
   1   6   8 157.372   6.813  12 
   1   6   8 160.873   7.285   5 
   1   6   8 168.221   6.780   3 
   2   6   8 184.752   7.539  12 
   2   6   8 183.703   7.935   5 
   3   6   8 56.3771  2.6938   5 
   3   6   8 57.3448  2.3325   7 
   4   6   8 10.5317  0.7788   7 
   4   6   8 10.4519  0.5707   1 
   5   6   8 9.36453 0.47244   1 
   5   6   8 9.13558 0.53991   7 
   2  -7  -8 18.4333  0.8838   3 
  -1   7   8 18.8219  1.2613  12 
  -1   7   8 16.2180  1.2466   3 
   0  -7  -8 12.3652  0.5322   2 
   0   7   8 12.4007  1.2222  12 
   0   7   8 9.36959 0.95721   3 
  -1  -7  -8 2.69152 0.35787   2 
   1   7   8 2.13952 0.37082   3 
   1   7   8 2.10661 0.66621  12 
   1   7   8 3.09733 0.73765   5 
  -2  -7  -8 58.5640  2.2014   2 
   2   7   8 59.4363  2.9170   5 
   3   7   8 10.0653  0.7441   7 
   4   7   8 6.11229 0.50315   7 
   0   8   8 4.69412 0.65674   5 
  -1  -8  -8 55.2331  1.8323   2 
   1   8   8 52.2450  2.5669   5 
  -2  -8  -8 27.6884  1.0590   2 
   2   8   8 25.1405  1.2145   5 
   0   6  -9 27.2464  1.4801   5 
  -2  -5   9 20.9365  1.0283   2 
   1   5  -9 5.88986 0.73541   5 
  -1  -5   9 5.00681 0.52353   2 
   0   5  -9 59.3958  2.9553   5 
   0   5  -9 63.1251  2.5454   3 
   0  -5   9 57.0924  2.1302   2 
  -1   5  -9 191.789   7.579   3 
  -2   5  -9 3.97690 0.59184   3 
   2  -5   9 4.04999 0.65220   3 
   3   4  -9 13.8387  0.7777   7 
   2   4  -9 20.2315  1.2737   5 
  -2  -4   9 19.5286  1.1013   2 
   1   4  -9 31.5501  1.8820   5 
  -1  -4   9 29.6591  1.4613   2 
   0   4  -9 6.58685 0.78650   3 
   0  -4   9 6.59234 0.63547   2 
  -1   4  -9 76.9023  3.4939   3 
   2  -4   9 43.6008  2.3965   3 
   3  -4   9 5.45273 0.54747   3 
   3  -4   9 3.69209 0.75283   5 
   4   3  -9 26.9999  1.2872   8 
   4   3  -9 26.3393  1.0275   1 
   3   3  -9 9.85060 0.74286   7 
   2   3  -9 18.0155  1.3990   5 
   1   3  -9 361.277  13.911   3 
   1   3  -9 360.264  14.620   5 
  -1  -3   9 367.873  11.848   2 
   0   3  -9 416.376  16.201   3 
   0  -3   9 421.944  13.528   2 
  -1   3  -9 47.8403  2.4605   3 
   1  -3   9 46.4242  1.7779   2 
  -2   3  -9 41.0545  1.5538   2 
   2  -3   9 39.3716  2.3904   3 
  -3   3  -9 74.4801  2.6267   2 
   3  -3   9 74.4853  3.3081   3 
   3  -3   9 74.8856  3.7262   5 
  -4   3  -9 117.666   3.829   2 
   4  -3   9 111.682   4.895   5 
   4   2  -9 11.1022  0.7562   8 
   4   2  -9 10.9947  0.5686   1 
   3   2  -9 7.08717 0.65030   5 
   3   2  -9 7.34322 0.68746   7 
   2   2  -9 37.7237  2.1602   5 
   1   2  -9 166.150   7.281   5 
   1   2  -9 176.627   6.860   3 
  -1  -2   9 162.685   5.822   2 
   0   2  -9 59.6693  2.9444   3 
   0  -2   9 60.0610  2.4119   2 
  -1   2  -9 5.89587 0.48039   2 
   1  -2   9 6.83909 0.58291   2 
  -2   2  -9 197.963   6.369   2 
   2  -2   9 186.244   8.068   3 
  -3   2  -9 405.871  12.936   2 
   3  -2   9 407.617  15.615   3 
   3  -2   9 400.983  16.373   5 
  -4   2  -9 1.02462 0.30618   2 
   4  -2   9 0.89167 0.48432   5 
  -5   2  -9 2.21230 0.29891   2 
   4   1  -9 31.9511  1.5542   8 
   4   1  -9 32.5360  1.2577   1 
   4   1  -9 31.9688  1.2085  11 
   3   1  -9 2.80288 0.52925   5 
   2   1  -9 32.8767  1.5361   3 
   2   1  -9 29.3252  1.9630   5 
   1   1  -9 159.356   6.739   3 
  -1  -1   9 170.413   5.727   2 
   0   1  -9 81.5748  3.8563   3 
   0  -1   9 87.2618  3.1775   2 
  -1   1  -9 80.7552  2.8337   2 
   1  -1   9 80.4780  2.8751   2 
  -2   1  -9 776.940  24.447   2 
   2  -1   9 775.050  29.651   3 
  -3   1  -9 83.2179  2.9644   2 
   3  -1   9 79.2302  4.0939   5 
   3  -1   9 81.6050  3.6789   3 
  -4   1  -9 5.67107 0.55251   2 
   4  -1   9 3.77924 0.72957   5 
   4   0  -9 1.86369 0.38679   8 
   4   0  -9 2.14831 0.32004  11 
  -4   0   9 2.52179 0.51350  12 
   3   0  -9 9.01598 0.92465   5 
   2   0  -9 209.775   8.647   5 
   2   0  -9 200.743   8.031   3 
   1   0  -9 55.8618  2.7375   3 
  -1   0   9 54.1411  2.2965   2 
   0   0  -9 123.302   4.044   2 
   0   0   9 124.113   4.362   2 
  -1   0  -9 573.598  17.981   2 
   1   0   9 565.024  17.949   2 
  -2   0  -9 410.429  13.001   2 
   2   0   9 400.441  15.917   3 
   3   0   9 201.282   7.973   3 
   3   0   9 196.049   8.538   5 
   4   0   9 11.2691  1.1377   5 
   5   0   9 0.41517 0.28110   7 
  -4   1   9 10.3523  0.8743  12 
   3  -1  -9 42.7164  2.2890   5 
  -3   1   9 44.8068  2.2207  12 
   2  -1  -9 124.708   5.626   5 
   2  -1  -9 127.531   5.171   3 
  -2   1   9 121.568   4.442   2 
   1  -1  -9 26.3764  1.7815   3 
  -1   1   9 29.0032  1.7740  12 
  -1   1   9 31.2849  1.4768   2 
   0  -1  -9 105.698   3.567   2 
   0   1   9 107.859   3.797   2 
  -1  -1  -9 682.247  21.485   2 
  -2  -1  -9 304.331   9.958   2 
   2   1   9 311.679  12.257   3 
   3   1   9 68.8791  3.6068   5 
   3   1   9 70.7870  3.1540   3 
   4   1   9 57.5599  2.3954   7 
   4   1   9 58.5748  2.1916   1 
   4   1   9 64.3420  2.9974   5 
   5   1   9 12.9416  0.7582   7 
   5   1   9 11.4087  0.6334   1 
   6   1   9 95.1098  3.2710   7 
  -4   2   9 20.0235  0.9988   2 
  -4   2   9 19.5718  1.1672  12 
   3  -2  -9 11.2462  1.0908   5 
  -3   2   9 10.1891  0.9887  12 
  -3   2   9 10.1857  0.8166   2 
   2  -2  -9 26.9083  1.9644   5 
   2  -2  -9 29.6784  1.6347   3 
  -2   2   9 26.3150  1.3804   2 
  -2   2   9 28.6905  1.7275  12 
   1  -2  -9 173.516   7.272   3 
  -1   2   9 176.628   5.938   2 
  -1   2   9 172.384   6.966  12 
   0  -2  -9 416.061  13.273   2 
   0   2   9 430.239  13.434   2 
   0   2   9 411.501  15.674  12 
  -1  -2  -9 625.946  19.682   2 
   1   2   9 620.994  24.052   3 
  -2  -2  -9 31.0616  1.3905   2 
   2   2   9 30.4087  2.3444   5 
   2   2   9 30.7380  1.9941   3 
   3   2   9 23.6217  1.9141   5 
   3   2   9 24.9114  1.2961   3 
   4   2   9 1.25886 0.31569   1 
   4   2   9 1.55761 0.56111   5 
   4   2   9 1.70836 0.39247   7 
   5   2   9 15.2385  0.7411   1 
   5   2   9 14.9773  0.8490   7 
   6   2   9 2.53498 0.27277   7 
  -4   3   9 7.26173 0.52686   2 
   3  -3  -9 7.98615 0.90093   5 
  -3   3   9 8.13107 0.67244   2 
  -3   3   9 7.72785 0.85224  12 
   2  -3  -9 65.2407  3.0034   3 
   2  -3  -9 63.7956  3.4025   5 
  -2   3   9 68.9196  3.1090  12 
  -2   3   9 61.6980  2.4818   2 
   1  -3  -9 132.753   5.849   3 
  -1   3   9 136.258   5.663  12 
  -1   3   9 136.555   4.677   2 
   0  -3  -9 363.004  11.784   2 
   0   3   9 384.408  11.843   2 
   0   3   9 365.461  14.058  12 
  -1  -3  -9 1.68656 0.33050   2 
   1   3   9 2.38943 0.78406   3 
   1   3   9 2.41958 0.74700  12 
   2   3   9 159.312   7.352   5 
   2   3   9 169.842   6.925   3 
   3   3   9 161.554   7.079   5 
   4   3   9 18.2350  0.8891   1 
   4   3   9 18.7241  1.0478   7 
   4   3   9 19.4110  1.1973   5 
   5   3   9 77.4274  2.6859   1 
   5   3   9 76.5898  2.8405   7 
   6   3   9 12.6277  0.5853   7 
   3  -4  -9 16.6772  1.2061   5 
  -3   4   9 17.3249  1.1697  12 
  -3   4   9 17.2134  0.8431   2 
   2  -4  -9 23.2269  1.3448   3 
  -2   4   9 21.3732  1.0690   2 
  -2   4   9 18.9470  1.5060  12 
   1  -4  -9 375.381  15.080   3 
  -1   4   9 388.583  14.580  12 
  -1   4   9 388.453  12.263   2 
   0  -4  -9 115.613   3.935   2 
   0   4   9 121.196   5.147  12 
  -1  -4  -9 42.9372  1.7182   2 
   1   4   9 40.5467  2.4524  12 
   1   4   9 43.3954  2.5256   3 
   2   4   9 148.146   6.136   3 
   2   4   9 147.076   6.682   5 
   3   4   9 94.4615  4.4375   5 
   4   4   9 28.5905  1.2042   1 
   4   4   9 30.1465  1.3772   7 
   5   4   9 73.3796  2.6831   7 
   5   4   9 72.8394  2.5355   1 
   3  -5  -9 49.6367  2.3004   5 
   2  -5  -9 24.7963  1.3274   3 
  -2   5   9 22.4794  1.4770  12 
  -2   5   9 24.0896  0.9406   2 
   1  -5  -9 121.354   5.261   3 
  -1   5   9 120.276   5.149  12 
   0  -5  -9 24.5619  1.0231   2 
   0   5   9 24.3688  1.9119   3 
   0   5   9 23.3009  1.8578  12 
  -1  -5  -9 1.52970 0.32370   2 
   1   5   9 2.06067 0.64380   3 
   1   5   9 2.01826 0.73229  12 
  -2  -5  -9 86.9272  3.0823   2 
   2   5   9 82.8335  3.5207   3 
   2   5   9 85.9509  4.2334   5 
   2   5   9 87.7205  3.9979  12 
   3   5   9 73.9927  3.4823   5 
   4   5   9 1.29803 0.32385   7 
   4   5   9 0.70118 0.21423   1 
   5   5   9 39.6637  1.4820   1 
   5   5   9 42.7777  1.5983   7 
   2  -6  -9 132.429   5.061   3 
   2  -6  -9 132.017   5.582   5 
  -2   6   9 128.722   5.148  12 
   1  -6  -9 45.3590  2.2804   3 
  -1   6   9 45.7942  2.3155  12 
  -1   6   9 44.9634  2.3792   3 
   0   6   9 23.5000  1.7200  12 
   0   6   9 17.8614  1.4513   3 
  -1  -6  -9 18.9407  0.9211   2 
   1   6   9 21.0302  1.2957   3 
   1   6   9 16.5408  1.5991   5 
   1   6   9 18.6760  1.6045  12 
  -2  -6  -9 133.788   4.651   2 
   2   6   9 142.678   6.080   5 
   2   6   9 139.764   5.750  12 
   3   6   9 66.7300  2.9016   5 
   4   6   9 21.6375  0.9074   1 
   4   6   9 24.3339  1.0699   7 
  -1   7   9 26.7544  1.4355  12 
  -1   7   9 28.7714  1.4168   3 
   0   7   9 90.1312  3.7196   3 
   0   7   9 93.1009  3.8800  12 
  -1  -7  -9 156.686   4.948   2 
   1   7   9 148.456   6.481   5 
  -2  -7  -9 30.6446  1.2033   2 
   2   7   9 27.8166  1.5906   5 
  -3  -7  -9 30.1332  1.2118   2 
   1   5 -10 13.2983  0.8416   5 
   0   5 -10 45.2836  2.2021   5 
  -2  -4  10 2.96768 0.38497   2 
   1   4 -10 33.4073  1.8187   5 
  -1  -4  10 32.1122  1.3503   2 
   0   4 -10 47.8435  2.1456   3 
   0   4 -10 53.4280  2.5760   5 
   0  -4  10 46.6201  1.7017   2 
  -1   4 -10 3.18347 0.54241   3 
   1  -4  10 1.98155 0.65414   3 
  -2   4 -10 19.3134  1.2036   3 
   2  -4  10 18.2657  1.2263   3 
   2   3 -10 15.9159  1.0765   5 
  -2  -3  10 14.7909  0.8890   2 
   1   3 -10 22.0221  1.5556   5 
  -1  -3  10 22.3116  1.1300   2 
   0   3 -10 110.216   4.528   3 
   0  -3  10 103.740   3.675   2 
  -1   3 -10 56.0795  2.7340   3 
   2  -3  10 50.5511  2.5942   3 
   3  -3  10 17.1201  1.3798   5 
  -3  -2  10 7.47654 0.61356   2 
   2   2 -10 0.13003 0.39226   5 
  -2  -2  10 0.74799 0.36722   2 
   1   2 -10 60.4012  2.6879   3 
   1   2 -10 59.1378  3.0641   5 
  -1  -2  10 57.9607  2.3501   2 
   0   2 -10 42.9086  2.2948   3 
   0  -2  10 46.6349  1.8712   2 
  -2   2 -10 34.2997  1.3313   2 
   2  -2  10 35.1078  2.1018   3 
  -3   2 -10 21.4307  0.9566   2 
   3  -2  10 19.8038  1.1593   3 
   3  -2  10 20.1400  1.6512   5 
  -4   2 -10 12.4681  0.6515   2 
   4  -2  10 12.6637  0.9845   5 
   3   1 -10 30.4570  1.4305   5 
  -3  -1  10 30.5465  1.3898   2 
   2   1 -10 49.1243  2.5413   5 
  -2  -1  10 47.8447  2.0221   2 
   1   1 -10 66.9213  3.0280   3 
   1   1 -10 67.1086  3.4006   5 
  -1  -1  10 62.3907  2.5583   2 
   0   1 -10 130.076   5.761   3 
   0  -1  10 142.499   4.724   2 
  -1   1 -10 76.3793  2.5853   2 
  -2   1 -10 7.66519 0.60460   2 
   2  -1  10 8.34297 1.08144   3 
  -3   1 -10 7.94437 0.63096   2 
   3  -1  10 8.48134 0.78167   3 
   3  -1  10 7.89130 1.11415   5 
  -4   1 -10 1.66429 0.34682   2 
   4  -1  10 2.55202 0.55570   5 
  -4   0  10 4.65933 0.53147  12 
   3   0 -10 23.9924  1.3143   5 
  -3   0  10 23.3986  1.1737   2 
  -3   0  10 24.2658  1.3883  12 
   2   0 -10 141.409   6.039   5 
  -2   0  10 136.250   4.818   2 
   1   0 -10 41.1650  2.2152   3 
  -1   0  10 43.1920  2.2062  12 
  -1   0  10 42.4536  1.8465   2 
   0   0 -10 40.9159  2.3287   3 
   0   0  10 43.4938  1.7942   2 
  -1   0 -10 170.512   5.585   2 
   1   0  10 171.787   7.367   3 
  -2   0 -10 30.2755  1.3251   2 
   2   0  10 30.1186  1.9731   3 
  -3   0 -10 38.7804  1.6284   2 
   3   0  10 41.3395  2.4676   5 
   3   0  10 37.7831  1.8943   3 
  -4   0 -10 2.30720 0.39273   2 
   4   0  10 2.10886 0.53209   5 
  -4   1  10 0.99415 0.33857  12 
   3  -1 -10 24.3506  1.3487   5 
  -3   1  10 24.2449  1.3855  12 
  -3   1  10 21.3210  1.1254   2 
   2  -1 -10 39.9769  2.2876   5 
   2  -1 -10 39.1997  1.8239   3 
  -2   1  10 41.9166  2.1075  12 
  -2   1  10 38.7037  1.7173   2 
   1  -1 -10 12.6920  1.1765   3 
  -1   1  10 12.8305  1.1745  12 
  -1   1  10 13.0247  0.9196   2 
   0   1  10 115.689   3.995   2 
  -1  -1 -10 19.0473  0.9222   2 
   1   1  10 18.9838  1.7359   3 
  -2  -1 -10 104.049   3.686   2 
   2   1  10 109.425   4.790   3 
  -3  -1 -10 9.59757 0.72818   2 
   3   1  10 9.70586 1.17758   5 
   3   1  10 8.60189 0.70589   3 
   4   1  10 18.8332  1.3121   5 
   5   1  10 8.65055 0.62259   7 
   3  -2 -10 129.723   5.262   5 
  -3   2  10 126.692   4.283   2 
  -3   2  10 121.776   5.025  12 
   2  -2 -10 8.48723 0.73553   3 
   2  -2 -10 8.36669 1.03926   5 
  -2   2  10 7.97388 0.92132  12 
  -2   2  10 7.42346 0.66996   2 
   1  -2 -10 36.3351  2.1312   3 
  -1   2  10 42.8738  2.1967  12 
  -1   2  10 39.6310  1.6994   2 
   0   2  10 215.826   8.637  12 
   0   2  10 225.652   7.173   2 
  -1  -2 -10 211.041   6.821   2 
   1   2  10 205.988   8.724   3 
  -2  -2 -10 68.1041  2.4878   2 
   2   2  10 68.9196  3.3130   3 
   2   2  10 64.2800  3.6063   5 
  -3  -2 -10 56.0260  2.1632   2 
   3   2  10 55.1818  3.0338   5 
   4   2  10 26.1968  1.4725   5 
   5   2  10 68.6405  2.5230   7 
   3  -3 -10 38.7509  1.8538   5 
  -3   3  10 38.9739  1.8536  12 
  -3   3  10 35.1780  1.4251   2 
   2  -3 -10 22.3478  1.6008   5 
   2  -3 -10 22.3077  1.2014   3 
  -2   3  10 21.8650  1.0517   2 
  -2   3  10 21.6085  1.4412  12 
   1  -3 -10 116.948   5.228   3 
  -1   3  10 122.190   4.124   2 
  -1   3  10 126.429   5.157  12 
   0  -3 -10 389.555  12.164   2 
   0   3  10 384.239  14.608  12 
  -1  -3 -10 118.142   4.023   2 
   1   3  10 118.431   5.317   3 
  -2  -3 -10 81.9148  2.9355   2 
   2   3  10 79.9805  4.1543   5 
   2   3  10 83.2297  3.7340   3 
   3   3  10 34.9151  2.1802   5 
   4   3  10 17.0479  0.9422   7 
   5   3  10 48.5996  1.8662   7 
   5   3  10 49.7957  1.7495   1 
   3  -4 -10 10.5159  0.7350   5 
   2  -4 -10 63.2869  2.5872   3 
   2  -4 -10 63.9642  3.0617   5 
  -2   4  10 60.5060  2.8135  12 
  -2   4  10 60.2992  2.1162   2 
   1  -4 -10 146.260   6.180   3 
  -1   4  10 151.354   6.083  12 
   0   4  10 117.566   5.412   3 
   0   4  10 124.936   5.188  12 
  -1  -4 -10 25.2203  1.0786   2 
   1   4  10 21.3858  1.7213   3 
   1   4  10 22.6985  1.7169  12 
  -2  -4 -10 15.6577  0.8619   2 
   2   4  10 15.2591  1.0658   3 
   2   4  10 13.2472  1.4367   5 
   3   4  10 48.7384  2.5621   5 
   4   4  10 20.1179  1.0175   7 
   5   4  10 1.12601 0.23468   7 
   2  -5 -10 32.4242  1.8241   5 
  -2   5  10 33.9026  1.6871  12 
   1  -5 -10 65.1542  2.9663   3 
  -1   5  10 65.7681  3.0105  12 
  -1   5  10 65.2154  3.1643   3 
   0   5  10 164.025   6.655  12 
   0   5  10 165.370   6.868   3 
  -1  -5 -10 97.5041  3.3525   2 
   1   5  10 99.1866  4.7249   5 
   1   5  10 99.3681  4.3021   3 
   1   5  10 101.196   4.342  12 
  -2  -5 -10 0.16367 0.23824   2 
   2   5  10 -0.6931  0.4533   5 
  -3  -5 -10 10.5689  0.7012   2 
   3   5  10 11.6394  0.9567   5 
   4   5  10 17.0911  0.8598   7 
   1  -6 -10 121.148   4.981   3 
  -1   6  10 123.300   4.953  12 
  -1   6  10 130.161   5.097   3 
   0   6  10 53.7337  2.5741  12 
   0   6  10 54.7528  2.4967   3 
  -1  -6 -10 62.3179  2.0818   2 
   1   6  10 60.0837  2.4856   3 
   1   6  10 63.3808  2.8740  12 
   1   6  10 59.3917  3.0482   5 
  -2  -6 -10 33.3646  1.3190   2 
   2   6  10 34.4673  1.8929   5 
  -3  -6 -10 29.0869  1.1828   2 
   1   7  10 13.6744  0.9844   5 
   2   7  10 5.32049 0.45319   5 
   1   3 -11 1.02596 0.42529   5 
  -1  -3  11 0.62007 0.22664   2 
   0   3 -11 22.1926  1.1812   3 
   0   3 -11 24.8192  1.5632   5 
  -1   3 -11 24.1356  1.2964   3 
   1  -3  11 19.3941  1.4316   3 
  -2   3 -11 12.3760  0.9807   3 
   2  -3  11 14.5028  0.9488   3 
   2   2 -11 9.78590 0.76153   5 
  -2  -2  11 9.45185 0.62351   2 
   1   2 -11 13.6262  1.2127   5 
  -1  -2  11 13.4815  0.7513   2 
   0   2 -11 0.27159 0.36801   3 
  -1   2 -11 18.8173  1.2934   3 
   1  -2  11 21.9536  1.6547   3 
   2  -2  11 35.9550  1.9045   3 
   3  -2  11 12.1581  1.0686   5 
   2   1 -11 6.74832 0.71838   5 
  -2  -1  11 5.43056 0.49668   2 
  -2  -1  11 5.41606 0.62721  12 
   1   1 -11 39.6490  1.8306   3 
   1   1 -11 39.5825  2.2429   5 
  -1  -1  11 37.9402  1.5795   2 
   0   1 -11 7.58150 0.87078   3 
   0  -1  11 7.33009 0.49171   2 
  -1   1 -11 25.9453  1.5939   3 
   1  -1  11 21.5482  1.7544   3 
  -2   1 -11 19.8762  0.8007   2 
   2  -1  11 21.0422  1.4352   3 
  -3   1 -11 5.20034 0.39736   2 
   3  -1  11 5.77619 0.81454   5 
  -4   1 -11 9.62416 0.49715   2 
   4  -1  11 9.92468 0.69457   5 
  -3   0  11 4.62936 0.41223   2 
  -3   0  11 5.35556 0.56580  12 
   2   0 -11 32.6960  1.7839   5 
  -2   0  11 31.1047  1.6174  12 
  -2   0  11 30.9281  1.3305   2 
   1   0 -11 46.0080  2.5489   5 
   1   0 -11 45.3609  2.1942   3 
  -1   0  11 47.2687  1.8203   2 
   0   0 -11 36.2103  2.0047   3 
   0   0  11 35.2319  1.3418   2 
   1   0  11 142.232   6.158   3 
  -2   0 -11 0.86861 0.25659   2 
   2   0  11 1.62873 0.57386   3 
  -3   0 -11 18.5548  0.8701   2 
   3   0  11 17.4382  1.4647   5 
  -4   0 -11 19.2227  0.8378   2 
   4   0  11 17.4899  1.0527   5 
  -3   1  11 24.6243  1.0280   2 
  -3   1  11 26.6771  1.3249  12 
   2  -1 -11 0.79935 0.46091   5 
  -2   1  11 0.98569 0.30150   2 
  -2   1  11 0.80675 0.42013  12 
   1  -1 -11 23.5182  1.3870   3 
  -1   1  11 23.2753  1.0772   2 
  -1   1  11 21.2617  1.4159  12 
   0  -1 -11 17.7145  1.4740   3 
  -1  -1 -11 44.4121  1.5771   2 
   1   1  11 45.4513  2.5575   3 
  -2  -1 -11 2.66184 0.35313   2 
   2   1  11 3.00313 0.65892   3 
  -3  -1 -11 16.3019  0.8243   2 
   3   1  11 14.6431  1.3479   5 
  -4  -1 -11 23.4263  1.0255   2 
   4   1  11 23.9699  1.1996   5 
  -3   2  11 53.3788  2.2948  12 
   2  -2 -11 30.4099  1.7945   5 
  -2   2  11 33.1916  1.2763   2 
  -2   2  11 31.9131  1.6977  12 
   1  -2 -11 2.68595 0.53853   3 
  -1   2  11 3.31304 0.35832   2 
  -1   2  11 2.51808 0.60480  12 
   0  -2 -11 33.1835  1.9682   3 
  -1  -2 -11 21.6706  0.8885   2 
   1   2  11 18.8204  1.6363   3 
  -2  -2 -11 30.1464  1.2085   2 
   2   2  11 23.7950  1.9941   5 
   2   2  11 27.8021  1.6598   3 
  -3  -2 -11 22.6946  1.0381   2 
   3   2  11 23.1708  1.6522   5 
  -4  -2 -11 4.34519 0.42071   2 
   2  -3 -11 2.86577 0.55586   5 
  -2   3  11 4.29272 0.28587   2 
  -2   3  11 5.80752 0.67174  12 
   1  -3 -11 6.24213 0.72062   3 
  -1   3  11 6.16329 0.79376  12 
   0  -3 -11 29.6553  1.7747   3 
   0   3  11 27.5736  1.7113  12 
   0   3  11 27.7001  1.8674   3 
  -1  -3 -11 33.0007  1.2643   2 
   1   3  11 35.2621  2.0333   3 
  -2  -3 -11 44.1763  1.7485   2 
   2   3  11 48.0740  2.6833   5 
   2   3  11 47.3850  2.1648   3 
  -3  -3 -11 2.76668 0.36916   2 
   3   3  11 1.15643 0.51756   5 
  -4  -3 -11 10.0933  0.6313   2 
   2  -4 -11 6.40834 0.68341   5 
  -2   4  11 5.88385 0.65025  12 
   1  -4 -11 12.0164  0.9562   3 
  -1   4  11 14.1646  1.1100  12 
   0  -4 -11 2.35641 0.60334   3 
   0   4  11 2.49198 0.63573  12 
   0   4  11 1.62009 0.57224   3 
  -1  -4 -11 21.3656  0.8447   2 
   1   4  11 19.8427  1.3769   3 
  -2  -4 -11 66.4024  2.3461   2 
   2   4  11 66.8946  3.2934   5 
  -3  -4 -11 42.4215  1.6389   2 
   3   4  11 43.6235  2.1190   5 
   1  -5 -11 37.1896  1.6969   3 
  -1   5  11 37.4492  1.8271  12 
  -1   5  11 39.5249  1.9042   3 
   0  -5 -11 72.8405  3.3356   3 
   0   5  11 74.9471  3.2973   3 
   0   5  11 79.0605  3.2951  12 
   1   5  11 11.4184  0.7720   3 
   1   5  11 11.1799  1.0104  12 
   1   5  11 9.36391 1.05208   5 
  -2  -5 -11 22.5759  0.9008   2 
   2   5  11 19.1527  1.3670   5 
  -3  -5 -11 45.6194  1.6556   2 
   1   6  11 41.7505  2.0750   5 
   2   6  11 21.9325  1.1571   5 
  -1   2 -12 7.94156 0.68566   3 
   1  -2  12 6.90744 0.75381   3 
   1   1 -12 6.58028 0.71357   5 
   0   1 -12 12.3492  0.8512   3 
  -1   1 -12 1.15035 0.41998   3 
   1  -1  12 0.34400 0.46626   3 
   2  -1  12 12.3902  0.8176   3 
   1   0 -12 14.4065  1.1436   5 
   0   0 -12 28.2983  1.5125   3 
   0   0  12 26.2400  1.7151   3 
  -1   0 -12 48.8025  2.4155   3 
   1   0  12 49.4639  2.4893   3 
   2   0  12 33.0773  1.9744   5 
   2   0  12 30.3479  1.5433   3 
   3   0  12 2.43356 0.50580   5 
   1  -1 -12 54.0831  2.1471   3 
   1  -1 -12 50.1234  2.5987   5 
   0  -1 -12 31.1269  1.6913   3 
   0   1  12 32.2661  1.9202   3 
  -1  -1 -12 7.22161 0.88723   3 
   1   1  12 8.42143 0.92765   3 
   2   1  12 0.11843 0.32001   3 
   2   1  12 0.52011 0.51751   5 
  -3  -1 -12 4.44332 0.32758   2 
   3   1  12 4.07672 0.61375   5 
   1  -2 -12 5.91666 0.79921   5 
   1  -2 -12 6.09925 0.51218   3 
  -1   2  12 7.35007 0.72809  12 
   0  -2 -12 31.3613  1.6502   3 
   0   2  12 27.9972  1.7609   3 
   1   2  12 2.94371 0.60510   3 
  -2  -2 -12 19.2818  0.7399   2 
   2   2  12 18.0703  1.4884   5 
  -3  -2 -12 15.0832  0.6738   2 
   3   2  12 14.7196  1.0793   5 
   1  -3 -12 20.0479  0.9218   3 
  -1   3  12 17.9669  1.1232  12 
   0  -3 -12 5.82648 0.67064   3 
   0   3  12 6.06789 0.75728   3 
   1   3  12 14.3850  1.0185   3 
  -2  -3 -12 22.4522  0.8348   2 
   2   3  12 21.2961  1.5133   5 
  -3  -3 -12 141.986   4.528   2 
   3   3  12 138.244   5.657   5 
   0  -4 -12 4.38141 0.55959   3 
   0   4  12 5.20840 0.60465   3 
   1   4  12 34.7445  1.9910   5 
   1   4  12 36.6289  1.5689   3 
   2   4  12 31.5352  1.7124   5 
   0   0   0    0.00    0.00   0 
;
_shelx_hkl_checksum              34483
loop_
_space_group_symop_operation_xyz
'x, y, z'
loop_
_atom_site_label
_atom_site_type_symbol
_atom_site_fract_x
_atom_site_fract_y
_atom_site_fract_z
_atom_site_U_iso_or_equiv
_atom_site_adp_type
_atom_site_occupancy
_atom_site_site_symmetry_order
_atom_site_calc_flag
_atom_site_refinement_flags_posn
_atom_site_refinement_flags_adp
O1 O 0.9423(3) 0.8643(2) -0.14918(17) 0.0266(5) Uani 1 1 d . .
O2 O 1.0586(3) 0.8321(2) 0.28626(17) 0.0283(4) Uani 1 1 d . .
H2 H 1.1592 0.8367 0.3302 0.042 Uiso 1 1 calc R U
O3 O 0.6880(4) 0.0162(3) 0.4110(2) 0.0404(6) Uani 1 1 d . .
H3 H 0.7932 -0.0167 0.3603 0.061 Uiso 1 1 calc R U
C2 C 0.8545(4) 0.7069(3) -0.1331(2) 0.0247(6) Uani 1 1 d . .
C3 C 0.7336(4) 0.6694(3) -0.0014(2) 0.0231(6) Uani 1 1 d . .
H3A H 0.5739 0.7034 0.0018 0.028 Uiso 1 1 calc R U
C4 C 0.8364(4) 0.7182(3) 0.1104(2) 0.0215(5) Uani 1 1 d . .
H4 H 0.7226 0.7678 0.1733 0.026 Uiso 1 1 calc R U
C4A C 1.0065(4) 0.8323(3) 0.0717(2) 0.0220(5) Uani 1 1 d . .
C5 C 1.1199(4) 0.8826(3) 0.1623(2) 0.0230(5) Uani 1 1 d . .
C6 C 1.2845(4) 0.9814(3) 0.1272(3) 0.0265(6) Uani 1 1 d . .
H6 H 1.3615 1.0113 0.1902 0.032 Uiso 1 1 calc R U
C7 C 1.3369(4) 1.0366(3) 0.0002(3) 0.0250(6) Uani 1 1 d . .
C8 C 1.2184(5) 0.9943(3) -0.0905(3) 0.0260(6) Uani 1 1 d . .
H8 H 1.2486 1.0344 -0.1772 0.031 Uiso 1 1 calc R U
C8A C 1.0566(4) 0.8940(3) -0.0544(2) 0.0227(6) Uani 1 1 d . .
C9 C 1.0379(5) 0.5595(3) -0.1463(2) 0.0274(6) Uani 1 1 d . .
H9A H 1.0749 0.5401 -0.2361 0.033 Uiso 1 1 calc R U
H9B H 1.1687 0.5819 -0.1119 0.033 Uiso 1 1 calc R U
C10 C 0.9479(4) 0.4079(3) -0.0695(3) 0.0284(6) Uani 1 1 d . .
H10A H 0.8647 0.3539 -0.1218 0.034 Uiso 1 1 calc R U
H10B H 1.0662 0.3240 -0.0379 0.034 Uiso 1 1 calc R U
C11 C 0.8017(4) 0.4794(3) 0.0404(2) 0.0250(6) Uani 1 1 d . .
H11 H 0.6756 0.4171 0.0682 0.030 Uiso 1 1 calc R U
C12 C 0.9097(4) 0.5249(3) 0.1544(2) 0.0222(5) Uani 1 1 d . .
C13 C 0.7892(4) 0.4634(3) 0.2798(2) 0.0269(6) Uani 1 1 d . .
H13A H 0.6328 0.5022 0.2776 0.032 Uiso 1 1 calc R U
H13B H 0.8389 0.5125 0.3494 0.032 Uiso 1 1 calc R U
C14 C 0.8266(5) 0.2698(3) 0.3059(3) 0.0290(6) Uani 1 1 d . .
H14A H 0.8379 0.2216 0.2247 0.035 Uiso 1 1 calc R U
H14B H 0.9657 0.2349 0.3428 0.035 Uiso 1 1 calc R U
C15 C 0.6484(5) 0.1983(3) 0.3953(3) 0.0308(6) Uani 1 1 d . .
H15 H 0.5089 0.2338 0.3570 0.037 Uiso 1 1 calc R U
C16 C 0.6229(7) 0.2553(4) 0.5246(3) 0.0476(9) Uani 1 1 d . .
C17 C 0.4395(12) 0.3375(8) 0.5675(7) 0.098(2) Uani 1 1 d . .
H17A H 0.4234 0.3731 0.6496 0.118 Uiso 1 1 calc R U
H17B H 0.3224 0.3616 0.5165 0.118 Uiso 1 1 calc R U
C18 C 0.8114(12) 0.2143(8) 0.6008(4) 0.0807(17) Uani 1 1 d . .
H18A H 0.7737 0.2590 0.6825 0.121 Uiso 1 1 calc R U
H18B H 0.9343 0.2649 0.5551 0.121 Uiso 1 1 calc R U
H18C H 0.8502 0.0922 0.6148 0.121 Uiso 1 1 calc R U
C19 C 1.1533(4) 0.4722(3) 0.1574(2) 0.0259(5) Uani 1 1 d . .
H19A H 1.2002 0.5097 0.2319 0.039 Uiso 1 1 calc R U
H19B H 1.2298 0.5235 0.0806 0.039 Uiso 1 1 calc R U
H19C H 1.1857 0.3497 0.1616 0.039 Uiso 1 1 calc R U
C20 C 0.7032(5) 0.7234(4) -0.2355(3) 0.0339(6) Uani 1 1 d . .
H20A H 0.5872 0.8164 -0.2224 0.051 Uiso 1 1 calc R U
H20B H 0.6410 0.6189 -0.2319 0.051 Uiso 1 1 calc R U
H20C H 0.7836 0.7458 -0.3185 0.051 Uiso 1 1 calc R U
C21 C 1.5161(5) 1.1422(4) -0.0388(3) 0.0332(6) Uani 1 1 d . .
H21A H 1.5989 1.1062 -0.1162 0.050 Uiso 1 1 calc R U
H21B H 1.6115 1.1288 0.0289 0.050 Uiso 1 1 calc R U
H21C H 1.4544 1.2604 -0.0546 0.050 Uiso 1 1 calc R U
C1S C 0.2675(9) 0.8205(11) 0.5619(4) 0.091(2) Uani 1 1 d . .
H1S1 H 0.2696 0.9075 0.6172 0.136 Uiso 1 1 calc R U
H1S2 H 0.3706 0.7221 0.5869 0.136 Uiso 1 1 calc R U
H1S3 H 0.1222 0.7884 0.5694 0.136 Uiso 1 1 calc R U
O1S O 0.3223(6) 0.8797(6) 0.4426(3) 0.0738(11) Uani 1 1 d . .
H1S H 0.4394 0.9190 0.4379 0.111 Uiso 1 1 calc R U
loop_
_atom_site_aniso_label
_atom_site_aniso_U_11
_atom_site_aniso_U_22
_atom_site_aniso_U_33
_atom_site_aniso_U_23
_atom_site_aniso_U_13
_atom_site_aniso_U_12
O1 0.0314(11) 0.0191(8) 0.0314(9) 0.0014(6) -0.0113(7) -0.0075(8)
O2 0.0323(11) 0.0256(9) 0.0294(9) -0.0021(7) -0.0078(7) -0.0097(7)
O3 0.0411(13) 0.0233(10) 0.0551(12) -0.0021(8) 0.0127(9) -0.0140(9)
C2 0.0260(13) 0.0207(11) 0.0300(11) -0.0029(9) -0.0092(10) -0.0061(10)
C3 0.0211(13) 0.0175(11) 0.0316(12) -0.0008(9) -0.0073(10) -0.0040(9)
C4 0.0202(13) 0.0156(12) 0.0296(11) -0.0015(9) -0.0061(9) -0.0031(9)
C4A 0.0218(12) 0.0122(10) 0.0322(12) -0.0010(9) -0.0060(9) -0.0012(9)
C5 0.0251(14) 0.0144(10) 0.0300(12) -0.0024(8) -0.0055(10) -0.0023(9)
C6 0.0254(14) 0.0168(10) 0.0387(13) -0.0058(9) -0.0063(10) -0.0031(9)
C7 0.0235(14) 0.0138(10) 0.0381(13) -0.0041(9) -0.0037(10) -0.0021(9)
C8 0.0290(15) 0.0151(10) 0.0328(12) 0.0001(8) -0.0034(10) -0.0018(10)
C8A 0.0214(13) 0.0150(11) 0.0323(13) -0.0028(9) -0.0075(10) -0.0007(9)
C9 0.0293(14) 0.0236(12) 0.0303(11) -0.0060(9) -0.0015(10) -0.0053(10)
C10 0.0308(15) 0.0209(12) 0.0352(13) -0.0072(10) -0.0038(10) -0.0050(10)
C11 0.0235(14) 0.0163(11) 0.0366(13) -0.0024(9) -0.0052(10) -0.0062(9)
C12 0.0221(13) 0.0145(11) 0.0309(12) -0.0022(9) -0.0033(9) -0.0052(9)
C13 0.0273(14) 0.0208(12) 0.0326(12) -0.0009(9) -0.0011(10) -0.0062(10)
C14 0.0291(15) 0.0203(12) 0.0366(13) 0.0003(10) 0.0022(10) -0.0070(10)
C15 0.0292(15) 0.0232(13) 0.0394(14) 0.0020(11) -0.0001(11) -0.0089(11)
C16 0.065(2) 0.0330(14) 0.0434(17) -0.0028(12) 0.0151(15) -0.0210(15)
C17 0.111(5) 0.073(3) 0.097(4) -0.031(3) 0.059(4) -0.007(3)
C18 0.125(5) 0.088(4) 0.0380(19) 0.007(2) -0.022(2) -0.041(3)
C19 0.0227(13) 0.0197(11) 0.0344(12) 0.0017(9) -0.0036(9) -0.0036(9)
C20 0.0334(16) 0.0362(14) 0.0360(13) -0.0059(11) -0.0154(11) -0.0060(12)
C21 0.0316(16) 0.0255(12) 0.0442(15) -0.0038(11) -0.0022(12) -0.0107(11)
C1S 0.066(3) 0.170(7) 0.042(2) 0.030(3) -0.021(2) -0.061(4)
O1S 0.068(2) 0.131(3) 0.0369(12) 0.0147(15) -0.0178(12) -0.071(2)
loop_
_atom_type_symbol
_atom_type_description
_atom_type_scat_dispersion_real
_atom_type_scat_dispersion_imag
_atom_type_scat_source
C C 0.0181 0.0091 'International Tables Vol C Tables 4.2.6.8 and 6.1.1.4'
H H 0.0000 0.0000 'International Tables Vol C Tables 4.2.6.8 and 6.1.1.4'
O O 0.0492 0.0322 'International Tables Vol C Tables 4.2.6.8 and 6.1.1.4'
loop_
_geom_angle_atom_site_label_1
_geom_angle_atom_site_label_2
_geom_angle_atom_site_label_3
_geom_angle
C8A O1 C2 116.87(18)
C5 O2 H2 109.5
C15 O3 H3 109.5
O1 C2 C20 105.1(2)
O1 C2 C3 113.13(19)
C20 C2 C3 110.8(2)
O1 C2 C9 110.2(2)
C20 C2 C9 112.1(2)
C3 C2 C9 105.7(2)
C2 C3 C4 115.6(2)
C2 C3 C11 106.02(19)
C4 C3 C11 90.95(18)
C2 C3 H3A 113.9
C4 C3 H3A 113.9
C11 C3 H3A 113.9
C4A C4 C3 114.2(2)
C4A C4 C12 118.9(2)
C3 C4 C12 90.02(17)
C4A C4 H4 110.7
C3 C4 H4 110.7
C12 C4 H4 110.7
C8A C4A C5 117.1(2)
C8A C4A C4 122.0(2)
C5 C4A C4 120.9(2)
O2 C5 C6 121.8(2)
O2 C5 C4A 116.8(2)
C6 C5 C4A 121.4(2)
C5 C6 C7 120.3(2)
C5 C6 H6 119.8
C7 C6 H6 119.8
C6 C7 C8 118.9(3)
C6 C7 C21 120.8(3)
C8 C7 C21 120.3(2)
C8A C8 C7 120.1(2)
C8A C8 H8 120.0
C7 C8 H8 120.0
O1 C8A C8 116.2(2)
O1 C8A C4A 121.8(2)
C8 C8A C4A 122.0(2)
C10 C9 C2 104.8(2)
C10 C9 H9A 110.8
C2 C9 H9A 110.8
C10 C9 H9B 110.8
C2 C9 H9B 110.8
H9A C9 H9B 108.9
C11 C10 C9 105.02(19)
C11 C10 H10A 110.7
C9 C10 H10A 110.7
C11 C10 H10B 110.7
C9 C10 H10B 110.7
H10A C10 H10B 108.8
C10 C11 C3 107.1(2)
C10 C11 C12 118.4(2)
C3 C11 C12 90.29(18)
C10 C11 H11 112.9
C3 C11 H11 112.9
C12 C11 H11 112.9
C13 C12 C19 110.3(2)
C13 C12 C11 110.2(2)
C19 C12 C11 117.7(2)
C13 C12 C4 112.65(18)
C19 C12 C4 115.7(2)
C11 C12 C4 88.73(17)
C12 C13 C14 111.45(19)
C12 C13 H13A 109.3
C14 C13 H13A 109.3
C12 C13 H13B 109.3
C14 C13 H13B 109.3
H13A C13 H13B 108.0
C15 C14 C13 113.4(2)
C15 C14 H14A 108.9
C13 C14 H14A 108.9
C15 C14 H14B 108.9
C13 C14 H14B 108.9
H14A C14 H14B 107.7
O3 C15 C16 107.4(2)
O3 C15 C14 110.5(2)
C16 C15 C14 114.0(3)
O3 C15 H15 108.2
C16 C15 H15 108.2
C14 C15 H15 108.2
C17 C16 C18 122.1(5)
C17 C16 C15 120.1(5)
C18 C16 C15 117.8(4)
C16 C17 H17A 120.0
C16 C17 H17B 120.0
H17A C17 H17B 120.0
C16 C18 H18A 109.5
C16 C18 H18B 109.5
H18A C18 H18B 109.5
C16 C18 H18C 109.5
H18A C18 H18C 109.5
H18B C18 H18C 109.5
C12 C19 H19A 109.5
C12 C19 H19B 109.5
H19A C19 H19B 109.5
C12 C19 H19C 109.5
H19A C19 H19C 109.5
H19B C19 H19C 109.5
C2 C20 H20A 109.5
C2 C20 H20B 109.5
H20A C20 H20B 109.5
C2 C20 H20C 109.5
H20A C20 H20C 109.5
H20B C20 H20C 109.5
C7 C21 H21A 109.5
C7 C21 H21B 109.5
H21A C21 H21B 109.5
C7 C21 H21C 109.5
H21A C21 H21C 109.5
H21B C21 H21C 109.5
O1S C1S H1S1 109.5
O1S C1S H1S2 109.5
H1S1 C1S H1S2 109.5
O1S C1S H1S3 109.5
H1S1 C1S H1S3 109.5
H1S2 C1S H1S3 109.5
C1S O1S H1S 109.5
loop_
_geom_bond_atom_site_label_1
_geom_bond_atom_site_label_2
_geom_bond_distance
O1 C8A 1.376(3)
O1 C2 1.448(3)
O2 C5 1.367(3)
O2 H2 0.8400
O3 C15 1.451(3)
O3 H3 0.8400
C2 C20 1.515(3)
C2 C3 1.540(4)
C2 C9 1.541(3)
C3 C4 1.546(3)
C3 C11 1.558(3)
C3 H3A 1.0000
C4 C4A 1.506(4)
C4 C12 1.592(3)
C4 H4 1.0000
C4A C8A 1.396(3)
C4A C5 1.402(4)
C5 C6 1.391(4)
C6 C7 1.394(4)
C6 H6 0.9500
C7 C8 1.397(4)
C7 C21 1.506(4)
C8 C8A 1.387(4)
C8 H8 0.9500
C9 C10 1.532(4)
C9 H9A 0.9900
C9 H9B 0.9900
C10 C11 1.528(4)
C10 H10A 0.9900
C10 H10B 0.9900
C11 C12 1.573(3)
C11 H11 1.0000
C12 C13 1.527(3)
C12 C19 1.532(4)
C13 C14 1.546(3)
C13 H13A 0.9900
C13 H13B 0.9900
C14 C15 1.520(4)
C14 H14A 0.9900
C14 H14B 0.9900
C15 C16 1.500(4)
C15 H15 1.0000
C16 C17 1.309(7)
C16 C18 1.491(8)
C17 H17A 0.9500
C17 H17B 0.9500
C18 H18A 0.9800
C18 H18B 0.9800
C18 H18C 0.9800
C19 H19A 0.9800
C19 H19B 0.9800
C19 H19C 0.9800
C20 H20A 0.9800
C20 H20B 0.9800
C20 H20C 0.9800
C21 H21A 0.9800
C21 H21B 0.9800
C21 H21C 0.9800
C1S O1S 1.331(5)
C1S H1S1 0.9800
C1S H1S2 0.9800
C1S H1S3 0.9800
O1S H1S 0.8400
loop_
_geom_hbond_atom_site_label_D
_geom_hbond_atom_site_label_H
_geom_hbond_atom_site_label_A
_geom_hbond_distance_DH
_geom_hbond_distance_HA
_geom_hbond_distance_DA
_geom_hbond_angle_DHA
_geom_hbond_site_symmetry_A
O2 H2 O1S 0.84 1.77 2.591(3) 166.0 1_655
O3 H3 O2 0.84 2.06 2.864(3) 159.5 1_545
O1S H1S O3 0.84 1.83 2.669(4) 173.8 1_565
loop_
_geom_torsion_atom_site_label_1
_geom_torsion_atom_site_label_2
_geom_torsion_atom_site_label_3
_geom_torsion_atom_site_label_4
_geom_torsion
C8A O1 C2 C20 169.1(2)
C8A O1 C2 C3 48.1(3)
C8A O1 C2 C9 -69.9(3)
O1 C2 C3 C4 -38.9(3)
C20 C2 C3 C4 -156.6(2)
C9 C2 C3 C4 81.8(2)
O1 C2 C3 C11 -137.9(2)
C20 C2 C3 C11 104.4(3)
C9 C2 C3 C11 -17.2(3)
C2 C3 C4 C4A 14.3(3)
C11 C3 C4 C4A 122.6(2)
C2 C3 C4 C12 -107.8(2)
C11 C3 C4 C12 0.49(17)
C3 C4 C4A C8A 3.1(3)
C12 C4 C4A C8A 107.5(2)
C3 C4 C4A C5 -177.67(19)
C12 C4 C4A C5 -73.2(3)
C8A C4A C5 O2 175.2(2)
C4 C4A C5 O2 -4.1(3)
C8A C4A C5 C6 -3.8(3)
C4 C4A C5 C6 176.9(2)
O2 C5 C6 C7 -177.3(2)
C4A C5 C6 C7 1.7(3)
C5 C6 C7 C8 1.5(3)
C5 C6 C7 C21 -179.4(2)
C6 C7 C8 C8A -2.3(3)
C21 C7 C8 C8A 178.6(2)
C2 O1 C8A C8 150.7(2)
C2 O1 C8A C4A -31.9(3)
C7 C8 C8A O1 177.4(2)
C7 C8 C8A C4A 0.0(4)
C5 C4A C8A O1 -174.29(19)
C4 C4A C8A O1 5.0(3)
C5 C4A C8A C8 3.0(3)
C4 C4A C8A C8 -177.7(2)
O1 C2 C9 C10 154.09(19)
C20 C2 C9 C10 -89.2(3)
C3 C2 C9 C10 31.5(2)
C2 C9 C10 C11 -33.6(3)
C9 C10 C11 C3 22.9(3)
C9 C10 C11 C12 -77.1(3)
C2 C3 C11 C10 -3.4(3)
C4 C3 C11 C10 -120.5(2)
C2 C3 C11 C12 116.5(2)
C4 C3 C11 C12 -0.49(18)
C10 C11 C12 C13 -136.1(2)
C3 C11 C12 C13 114.2(2)
C10 C11 C12 C19 -8.4(3)
C3 C11 C12 C19 -118.1(2)
C10 C11 C12 C4 110.2(2)
C3 C11 C12 C4 0.48(17)
C4A C4 C12 C13 130.1(2)
C3 C4 C12 C13 -111.9(2)
C4A C4 C12 C19 1.9(3)
C3 C4 C12 C19 119.9(2)
C4A C4 C12 C11 -118.5(2)
C3 C4 C12 C11 -0.48(17)
C19 C12 C13 C14 -61.2(3)
C11 C12 C13 C14 70.5(3)
C4 C12 C13 C14 167.9(2)
C12 C13 C14 C15 -156.3(2)
C13 C14 C15 O3 177.3(2)
C13 C14 C15 C16 -61.6(3)
O3 C15 C16 C17 -117.0(4)
C14 C15 C16 C17 120.1(4)
O3 C15 C16 C18 62.7(4)
C14 C15 C16 C18 -60.1(4)
