#------------------------------------------------------------------------------
#$Date: 2017-09-07 09:19:30 +0300 (Thu, 07 Sep 2017) $
#$Revision: 200310 $
#$URL: file:///home/coder/svn-repositories/cod/cif/4/03/27/4032730.cif $
#------------------------------------------------------------------------------
#
# This file is available in the Crystallography Open Database (COD),
# http://www.crystallography.net/
#
# All data on this site have been placed in the public domain by the
# contributors.
#
data_4032730
loop_
_publ_author_name
'Anguera, Gonzalo'
'Kauffmann, Brice'
'Borrell, Jos\'e I'
'Borr\'os, Salvador'
'S\'anchez-Garc\'ia, David'
_publ_section_title
;
 Stable 5,5'-Substituted 2,2'-Bipyrroles: Building Blocks for Macrocyclic
 and Materials Chemistry.
;
_journal_issue                   13
_journal_name_full               'The Journal of organic chemistry'
_journal_page_first              6904
_journal_page_last               6912
_journal_paper_doi               10.1021/acs.joc.7b00961
_journal_volume                  82
_journal_year                    2017
_chemical_formula_sum            'C34 H28 N2 O4 S2'
_chemical_formula_weight         592.70
_space_group_crystal_system      triclinic
_space_group_IT_number           2
_space_group_name_Hall           '-P 1'
_space_group_name_H-M_alt        'P -1'
_symmetry_space_group_name_Hall  '-P 1'
_symmetry_space_group_name_H-M   'P -1'
_atom_sites_solution_hydrogens   geom
_audit_creation_method           SHELXL-2014/7
_cell_angle_alpha                113.515(11)
_cell_angle_beta                 93.0640(10)
_cell_angle_gamma                114.23(3)
_cell_formula_units_Z            1
_cell_length_a                   8.282(6)
_cell_length_b                   9.706(9)
_cell_length_c                   10.928(7)
_cell_measurement_reflns_used    616
_cell_measurement_temperature    100(2)
_cell_measurement_theta_max      71.4
_cell_measurement_theta_min      30.3
_cell_volume                     709.3(10)
_computing_cell_refinement
;
CrystalClear-SM Expert 2.1 b43 (Rigaku, 2015)
;
_computing_data_collection
;
CrystalClear-SM Expert 2.1 b43 (Rigaku, 2015)
;
_computing_data_reduction
;
CrystalClear-SM Expert 2.1 b43 (Rigaku, 2015)
;
_computing_structure_refinement  'SHELXL-2014/7 (Sheldrick, 2014)'
_computing_structure_solution    'SHELXT (Sheldrick, 2015)'
_diffrn_ambient_temperature      100(2)
_diffrn_detector                 PILT
_diffrn_detector_area_resol_mean 5.8140
_diffrn_measured_fraction_theta_full 0.973
_diffrn_measured_fraction_theta_max 0.969
_diffrn_measurement_device_type
;
AFC11 (Right): Eulerian 3 circle
;
_diffrn_measurement_method       'profile data from \w-scans'
_diffrn_radiation_type           CuK\a
_diffrn_radiation_wavelength     1.54178
_diffrn_reflns_av_R_equivalents  0.0479
_diffrn_reflns_av_unetI/netI     0.0377
_diffrn_reflns_Laue_measured_fraction_full 0.973
_diffrn_reflns_Laue_measured_fraction_max 0.969
_diffrn_reflns_limit_h_max       8
_diffrn_reflns_limit_h_min       -9
_diffrn_reflns_limit_k_max       11
_diffrn_reflns_limit_k_min       -9
_diffrn_reflns_limit_l_max       13
_diffrn_reflns_limit_l_min       -13
_diffrn_reflns_number            9217
_diffrn_reflns_point_group_measured_fraction_full 0.973
_diffrn_reflns_point_group_measured_fraction_max 0.969
_diffrn_reflns_theta_full        67.679
_diffrn_reflns_theta_max         68.738
_diffrn_reflns_theta_min         5.637
_diffrn_source                   'rotating anode'
_exptl_absorpt_coefficient_mu    2.010
_exptl_absorpt_correction_T_max  1.000
_exptl_absorpt_correction_T_min  0.875
_exptl_absorpt_correction_type   multi-scan
_exptl_crystal_colour            yellow
_exptl_crystal_density_diffrn    1.387
_exptl_crystal_description       prism
_exptl_crystal_F_000             310
_exptl_crystal_size_max          0.100
_exptl_crystal_size_mid          0.100
_exptl_crystal_size_min          0.100
_refine_diff_density_max         0.327
_refine_diff_density_min         -0.398
_refine_diff_density_rms         0.105
_refine_ls_extinction_coef       0.019(2)
_refine_ls_extinction_expression Fc^*^=kFc[1+0.001xFc^2^\l^3^/sin(2\q)]^-1/4^
_refine_ls_extinction_method     'SHELXL-2014/7 (Sheldrick 2014'
_refine_ls_goodness_of_fit_ref   1.118
_refine_ls_hydrogen_treatment    constr
_refine_ls_matrix_type           full
_refine_ls_number_parameters     192
_refine_ls_number_reflns         2539
_refine_ls_number_restraints     0
_refine_ls_restrained_S_all      1.118
_refine_ls_R_factor_all          0.0491
_refine_ls_R_factor_gt           0.0451
_refine_ls_shift/su_max          0.000
_refine_ls_shift/su_mean         0.000
_refine_ls_structure_factor_coef Fsqd
_refine_ls_weighting_details
'w=1/[\s^2^(Fo^2^)+(0.0719P)^2^+0.2270P] where P=(Fo^2^+2Fc^2^)/3'
_refine_ls_weighting_scheme      calc
_refine_ls_wR_factor_gt          0.1225
_refine_ls_wR_factor_ref         0.1264
_reflns_Friedel_coverage         0.000
_reflns_number_gt                2282
_reflns_number_total             2539
_reflns_threshold_expression     'I > 2\s(I)'
_cod_data_source_file            jo7b00961_si_003.cif
_cod_data_source_block           pb2_a
_cod_original_cell_volume        709.4(9)
_cod_database_code               4032730
_shelx_shelxl_version_number     2014/7
_shelx_space_group_comment
;
The symmetry employed for this shelxl refinement is uniquely defined
by the following loop, which should always be used as a source of
symmetry information in preference to the above space-group names.
They are only intended as comments.
;
_shelx_estimated_absorpt_t_min   0.824
_shelx_estimated_absorpt_t_max   0.824
_shelx_res_file
;

    pb2_a.res created by SHELXL-2014/7


TITL pb2_a.res in P-1
REM Old TITL pb2 in P-1

REM SHELXT solution in P-1
REM R1 0.126,  Rweak 0.006,  Alpha 0.045,  Orientation as input
REM Formula found by SHELXT:  C17 N O2 S

CELL  1.54178   8.2825   9.7058  10.9280  113.515   93.064  114.229
ZERR    1.000   0.0062   0.0085   0.0065    0.011    0.001    0.027
LATT  1
SFAC C H N O S
DISP $C  0.01916  0.00957 85.93609!source kissel
DISP $H -0.00001  0.00000  0.64302!source kissel
DISP $N  0.03298  0.01886 166.49108!source kissel
DISP $O  0.05170  0.03357 293.70081!source kissel
DISP $S  0.33600  0.56503 4905.57877!source kissel
UNIT 34 28 2 4 2
TEMP 100.150
SIZE 0.10 0.10 0.10
L.S. 20
ACTA
CONF
BOND $H
LIST 4
FMAP 2
PLAN 20
WGHT    0.071900    0.227000
EXTI    0.019175
FVAR       1.55671
S001  5    0.937070    0.666207    0.497206    11.00000    0.02607    0.02368 =
         0.03779    0.00798    0.00054    0.01388
O002  4    0.221158    0.500325    0.207397    11.00000    0.02225    0.01674 =
         0.03126    0.00510   -0.00487    0.00688
O003  4    0.177464    0.723711    0.236136    11.00000    0.02742    0.02321 =
         0.02628    0.00397   -0.00334    0.01364
N004  3    0.687069    0.963188    0.552774    11.00000    0.01981    0.01801 =
         0.01864    0.00492    0.00063    0.00874
AFIX  43
H004  2    0.758344    1.056421    0.625854    11.00000   -1.20000
AFIX   0
C005  1    1.027626    0.975637    0.670134    11.00000    0.02325    0.02188 =
         0.02419    0.01065    0.00331    0.01077
AFIX  43
H005  2    1.026757    1.078874    0.717684    11.00000   -1.20000
AFIX   0
C006  1    0.450349    0.765456    0.370859    11.00000    0.01979    0.01911 =
         0.01993    0.00796    0.00431    0.00919
C007  1    0.719990    0.825712    0.496250    11.00000    0.02074    0.01757 =
         0.02004    0.00788    0.00528    0.00958
C008  1    0.271955    0.666700    0.267389    11.00000    0.02209    0.01993 =
         0.01961    0.00656    0.00448    0.01021
C009  1    0.574484    0.698577    0.381604    11.00000    0.02048    0.01835 =
         0.02087    0.00934    0.00514    0.00867
C00A  1    0.528429    0.934166    0.479371    11.00000    0.01916    0.01858 =
         0.01833    0.00692    0.00394    0.00822
C00B  1    0.887953    0.835199    0.557598    11.00000    0.02206    0.02063 =
         0.02303    0.01151    0.00546    0.00938
C00C  1    0.562178    0.534149    0.280789    11.00000    0.01814    0.01878 =
         0.02188    0.00659    0.00030    0.00897
C00D  1    0.617873    0.522694    0.160524    11.00000    0.02764    0.02496 =
         0.02867    0.01150    0.00732    0.01272
AFIX  43
H00D  2    0.666714    0.618634    0.146554    11.00000   -1.20000
AFIX   0
C00E  1    0.491635    0.388389    0.299988    11.00000    0.03412    0.02187 =
         0.02451    0.00986    0.00127    0.01015
AFIX  43
H00E  2    0.454496    0.393638    0.379847    11.00000   -1.20000
AFIX   0
C00F  1    1.172746    0.943568    0.704573    11.00000    0.02266    0.02850 =
         0.02848    0.01393    0.00109    0.00836
AFIX  43
H00F  2    1.277375    1.024362    0.776885    11.00000   -1.20000
AFIX   0
C00G  1    0.601374    0.369735    0.061176    11.00000    0.03876    0.03617 =
         0.02970    0.01038    0.01235    0.02268
AFIX  43
H00G  2    0.638058    0.363857   -0.018941    11.00000   -1.20000
AFIX   0
C00H  1    0.027218    0.209741    0.047913    11.00000    0.03039    0.02178 =
         0.03273    0.00712   -0.00096    0.00738
AFIX 137
H00A  2   -0.087549    0.129531   -0.020599    11.00000   -1.50000
H00B  2    0.030603    0.181417    0.122410    11.00000   -1.50000
H00C  2    0.125995    0.205603    0.007095    11.00000   -1.50000
AFIX   0
C00I  1    0.046905    0.385747    0.102326    11.00000    0.02371    0.02338 =
         0.03540    0.00505   -0.00771    0.00700
AFIX  23
H00H  2    0.046326    0.417044    0.028431    11.00000   -1.20000
H00I  2   -0.053466    0.391221    0.142261    11.00000   -1.20000
AFIX   0
C00J  1    0.530788    0.226549    0.080912    11.00000    0.03911    0.02484 =
         0.03347    0.00201   -0.00113    0.02033
AFIX  43
H00J  2    0.519618    0.124321    0.014179    11.00000   -1.20000
AFIX   0
C00K  1    1.142401    0.782336    0.620635    11.00000    0.02519    0.03405 =
         0.03881    0.01935    0.00566    0.01647
AFIX  43
H00K  2    1.222930    0.740460    0.629178    11.00000   -1.20000
AFIX   0
C00L  1    0.476438    0.235715    0.200950    11.00000    0.03842    0.01985 =
         0.03585    0.01081   -0.00479    0.01207
AFIX  43
H00L  2    0.429940    0.139795    0.215015    11.00000   -1.20000
AFIX   0
HKLF 4

REM  pb2_a.res in P-1
REM R1 =  0.0451 for    2282 Fo > 4sig(Fo)  and  0.0491 for all    2539 data
REM    192 parameters refined using      0 restraints

END

WGHT      0.0719      0.2250

REM Highest difference peak  0.327,  deepest hole -0.398,  1-sigma level  0.105
Q1    1   0.3785  0.3621  0.3930  11.00000  0.05    0.33
Q2    1   1.2846  1.0965  0.7040  11.00000  0.05    0.29
Q3    1   0.3627  0.1296  0.2501  11.00000  0.05    0.27
Q4    1   0.2521  0.2835  0.2973  11.00000  0.05    0.26
Q5    1  -0.0549  0.4180  0.0833  11.00000  0.05    0.26
Q6    1  -0.1170  0.5608  0.2511  11.00000  0.05    0.26
Q7    1   0.3666  0.7221  0.3297  11.00000  0.05    0.25
Q8    1   0.1303  0.4913  0.2682  11.00000  0.05    0.25
Q9    1   0.9624  0.6722  0.4023  11.00000  0.05    0.25
Q10   1  -0.0219  0.4939  0.2696  11.00000  0.05    0.25
Q11   1   1.0717  0.7563  0.5585  11.00000  0.05    0.25
Q12   1   0.5731  0.3602 -0.0552  11.00000  0.05    0.25
Q13   1   1.2153  0.9432  0.6514  11.00000  0.05    0.25
Q14   1   0.3047  0.5364  0.4242  11.00000  0.05    0.25
Q15   1   0.7303  0.6640  0.1674  11.00000  0.05    0.25
Q16   1   0.6201  0.2221 -0.1076  11.00000  0.05    0.24
Q17   1   0.7531  0.7970  0.2840  11.00000  0.05    0.24
Q18   1   0.9927  0.9011  0.4793  11.00000  0.05    0.24
Q19   1   0.2563  0.4136  0.3608  11.00000  0.05    0.24
Q20   1   0.8368  0.7159  0.2767  11.00000  0.05    0.24
;
_shelx_res_checksum              31701
_shelx_hkl_file
;
   0   0  -2  237.07    5.93
   0   0   2  230.42    5.80
   0   0   2  230.76    6.38
   0   0  -2  236.21    5.26
   0   0   2  250.25    6.63
   0   0  -3  887.66   10.50
   0   0   3  866.37    9.81
   0   0   3  892.68   10.49
   0   0  -3  896.54    9.64
   0   0   3  911.06    9.85
   0   0  -4 3022.48   21.01
   0   0   4 2961.83   20.82
   0   0   4 3082.48   20.71
   0   0  -4 2908.59   24.73
   0   0   4 2996.67   20.25
   0   0   5 1090.68   13.86
   0   0   5 1141.80   14.09
   0   0   6  129.32    5.33
   0   0   6  119.59    4.67
   0   0  -7 1060.26  150.73
   0   0  -7 1026.37  145.82
   0   0   7 1154.14  164.09
   0   0  -8  126.72    5.27
   0   0   8  114.93    5.02
   0   0   9  555.39   12.47
   0   0  10  185.58   39.24
   0   0  11    7.76    2.91
   0  -1  12    2.44    2.45
   0   1 -12    3.78    2.52
   0  -1  12    3.96    2.79
   0  -1  11    1.03    2.52
   0   1 -11   -0.03    3.80
   0  -1  11    0.70    3.80
   0  -1  10   16.45    3.25
   0   1 -10   14.20    3.26
   0   1 -10   12.18    3.06
   0  -1  10   10.33    2.95
   0  -1  10   16.02    4.71
   0  -1   9   28.34    3.01
   0   1  -9   31.59    4.37
   0   1  -9   24.79    2.69
   0  -1   9   29.27    4.16
   0   1  -8  171.18    5.50
   0   1  -8  176.00    5.36
   0   1  -8  146.06    4.62
   0  -1   8  149.94    5.69
   0  -1   8  131.66    6.10
   0  -1   8  152.05    5.93
   0   1  -7  605.37   47.68
   0   1  -7  848.77   27.47
   0  -1   7  777.54   25.59
   0  -1   7  566.34   28.22
   0  -1   7  747.37   24.66
   0   1  -7  789.49   26.28
   0  -1   6    2.05    2.74
   0  -1   6    2.07    3.38
   0   1  -6    1.81    3.99
   0  -1   5   68.28    3.93
   0   1  -5   67.89    3.33
   0  -1   5   70.44    4.03
   0   1  -5   67.35    4.54
   0   1  -4  332.01    6.12
   0  -1   4  336.30    6.18
   0  -1   4  340.72    6.83
   0   1  -4  348.23    6.44
   0  -1   4  370.56    6.53
   0   1  -4  352.77    6.72
   0  -1   3 6253.44   33.15
   0   1   0  945.07   10.24
   0  -1   0 1008.72   10.46
   0  -1  -1 4335.99   24.83
   0   1   2   23.29    3.09
   0  -1  -2   21.96    6.34
   0   1   2   23.24    4.85
   0  -1  -2   22.09    3.44
   0   1   3  700.72   14.74
   0  -1  -3  696.74    9.51
   0   1   3  687.29    9.10
   0   1   3  689.27    8.66
   0  -1  -3  693.30    8.57
   0  -1  -4  602.11   10.89
   0  -1  -4  611.78    9.89
   0   1   4  617.94    9.51
   0  -1  -5   62.25    3.89
   0   1   5   64.03    4.66
   0  -1  -6    5.18    3.22
   0   1   6    6.10    3.26
   0  -1  -6   14.49    4.38
   0  -1  -6   14.20    3.34
   0  -1  -6   15.09    3.13
   0   1   6   12.83    2.57
   0   1   6   12.65    3.33
   0   1   6   14.76    4.40
   0  -1  -7   76.73    4.20
   0   1   7   89.78   12.94
   0  -1  -7   94.83    4.75
   0  -1  -7  102.27    5.07
   0  -1  -7  109.17    5.10
   0   1   7   95.73    4.59
   0   1   7   96.36    5.57
   0   1   8   56.46    4.71
   0  -1  -8   90.05    5.60
   0   1   8   73.78    3.69
   0   1   8   82.55    5.03
   0  -1  -9 1383.21   35.08
   0   1   9 1451.33   35.91
   0  -1 -10  270.45   18.13
   0   1  10  271.54   18.02
   0   1  10  300.46   20.05
   0   1  11    6.22    3.51
   0  -1 -11   23.31    6.55
   0   1  11   17.46    5.18
   0  -2  12   10.64    2.74
   0   2 -12   15.40    3.72
   0   2 -12   16.97    3.80
   0  -2  12   14.83    3.36
   0  -2  11    0.35    2.82
   0   2 -11    0.42    3.21
   0   2 -11    0.12    3.08
   0   2 -11    0.90    2.66
   0  -2  11    0.27    2.82
   0  -2  10   11.86    4.40
   0   2 -10   10.46    4.26
   0   2 -10    9.26    3.61
   0   2 -10    8.67    3.04
   0  -2  10    9.59    3.33
   0  -2   9  540.73   12.05
   0   2  -9  592.32   12.39
   0   2  -9  509.50   10.90
   0  -2   9  502.94   11.36
   0  -2   9  546.22   12.08
   0  -2   9  532.07   20.58
   0   2  -8  735.96   84.50
   0   2  -8  699.29   80.45
   0   2  -8  482.04   91.95
   0   2  -8  641.29   73.73
   0  -2   8  701.02   80.76
   0  -2   8  596.47   76.35
   0   2  -7 1160.55   40.97
   0   2  -7  908.08  219.81
   0   2  -7 1509.56   47.98
   0   2  -7  628.27  190.84
   0  -2   7 1545.13   49.56
   0  -2   7 1491.32   48.43
   0   2  -6  261.28    7.68
   0  -2   6  260.00    7.54
   0  -2   6  264.48    7.60
   0   2  -5    8.02    2.09
   0   2  -5    9.29    4.00
   0  -2   5    8.07    2.45
   0  -2   4  441.23    8.78
   0   2  -4  474.79    7.29
   0   2  -4  500.01    8.07
   0  -2   4  455.40    7.28
   0  -2   4  487.98    7.29
   0  -2   3  364.73    8.11
   0   2  -3  389.24    6.59
   0   2  -3  398.94    6.56
   0  -2   3  427.69    8.07
   0  -2   3  375.44    6.29
   0  -2   1 1625.54   16.32
   0   2  -1 1860.12   71.06
   0   2  -1 1705.78   14.03
   0   2  -1 1692.86   13.73
   0  -2   1 1630.42   14.69
   0  -2   1 1786.50   14.87
   0   2   0 1540.89   15.38
   0   2   0 1585.39   13.41
   0   2   0 1572.29   13.72
   0  -2   0 1575.25   13.45
   0   2   2  255.35    5.36
   0   2   2  259.01    6.38
   0   2   2  249.91    5.18
   0  -2  -2  253.83    5.60
   0   2   2  252.29    5.92
   0  -2  -2  253.43    6.47
   0   2   3   50.62    3.39
   0  -2  -3   49.10    4.97
   0  -2  -3   48.74    2.86
   0   2   3   49.24    4.06
   0  -2  -3   48.87    4.24
   0  -2  -4  250.45    7.29
   0   2   4  255.92    7.54
   0  -2  -4  261.61    7.58
   0   2   5  231.31   20.80
   0  -2  -5  287.77   10.86
   0  -2  -5  295.35   10.33
   0   2   5  274.01    9.56
   0   2   5  203.03   58.61
   0  -2  -5  279.70   10.51
   0  -2  -6  152.70    5.02
   0   2   6  124.88   18.43
   0  -2  -6  139.12    5.32
   0  -2  -6  144.94    4.71
   0  -2  -6  149.51    5.26
   0   2   6  141.89    4.80
   0   2   6  150.95    5.06
   0  -2  -6  150.58    5.50
   0  -2  -7  871.97   72.44
   0   2   7 1009.07   41.51
   0  -2  -7  938.56   21.64
   0  -2  -7  932.47   18.89
   0   2   7  940.42   17.92
   0   2   7  968.56   19.03
   0   2   8  782.25   71.55
   0  -2  -8  645.41   30.68
   0   2   8  814.75   35.48
   0   2   8  922.65   40.94
   0   2   9   52.89    9.17
   0  -2  -9   76.49    8.11
   0   2   9   83.45    8.61
   0  -2 -10    0.51    2.40
   0  -2 -10    1.19    3.01
   0   2  10    1.60    3.17
   0   3 -12   75.29    5.54
   0   3 -12   83.89    6.39
   0   3 -12   70.46    5.32
   0  -3  12   75.96    5.67
   0   3 -11  103.60   22.02
   0   3 -11  114.17   24.55
   0   3 -11   97.17   20.89
   0  -3  11  104.26   22.29
   0  -3  10  226.26    6.93
   0   3 -10  221.75    7.06
   0   3 -10  212.97    6.78
   0   3 -10  203.53    6.30
   0  -3  10  203.03    5.86
   0  -3   9   72.23    4.26
   0   3  -9   72.42    3.78
   0   3  -9   68.47    4.77
   0   3  -9   73.38    3.78
   0   3  -9   68.62    4.38
   0  -3   9   67.03    4.08
   0  -3   9   66.24    3.91
   0   3  -8  222.13   25.93
   0   3  -8  214.72   25.25
   0   3  -8  205.28   24.13
   0   3  -8  210.35   24.44
   0  -3   8  208.15   24.52
   0  -3   8  172.24   21.81
   0   3  -7  356.16   12.85
   0   3  -6    8.15    2.66
   0  -3   6    7.68    3.82
   0  -3   6    9.22    2.91
   0   3  -5 2365.87   39.94
   0   3  -5 2384.32   24.40
   0  -3   5 2414.96   25.47
   0  -3   5 2372.35   37.42
   0  -3   4 1364.24   15.09
   0   3  -4 1432.37   12.95
   0   3  -4 1446.71   13.12
   0  -3   4 1391.19   12.98
   0  -3   4 1370.74   15.19
   0  -3   3   12.66    3.27
   0   3  -3   12.31    3.70
   0   3  -3   12.10    3.35
   0  -3   3   10.94    3.44
   0  -3   3   12.63    3.90
   0  -3   2  140.21    5.19
   0   3  -2  158.71    5.65
   0   3  -2  153.42    4.93
   0  -3   2  139.18    4.58
   0   3  -1  574.04    9.17
   0  -3   1  508.98   11.32
   0  -3   1  572.46    8.27
   0   3   0  732.01   10.42
   0   3   0  799.77    9.73
   0  -3   0  751.93    9.94
   0  -3   0  726.91    9.53
   0   3   1 3928.12   35.92
   0  -3  -1 3904.39   35.92
   0  -3  -1 4217.26   39.02
   0   3   2 1783.68   19.07
   0  -3  -2 1744.43   24.73
   0   3   2 1813.45   19.55
   0  -3  -2 1804.15   19.66
   0   3   3   39.52    3.42
   0  -3  -3   36.69    3.99
   0   3   3   38.54    3.25
   0  -3  -3   40.18    4.63
   0   3   4  103.91    6.05
   0  -3  -4   78.32    5.43
   0  -3  -4   67.16    4.66
   0   3   4   69.16    3.99
   0   3   4   48.18    8.23
   0   3   4   77.67    4.43
   0  -3  -4   76.85    5.03
   0   3   5 1042.25   21.36
   0   3   5 1030.19   74.69
   0  -3  -5 1008.91   21.53
   0  -3  -5  968.77   39.17
   0   3   5 1003.97   20.63
   0   3   5 1031.10   48.66
   0   3   5 1046.86   22.22
   0  -3  -5  983.82   21.39
   0  -3  -6  161.51   12.78
   0   3   6  170.47    7.77
   0  -3  -6  138.94    6.26
   0  -3  -6  151.61    6.99
   0   3   6  141.02    6.52
   0   3   6  146.44    6.39
   0  -3  -7    0.42    3.13
   0   3   7    1.81    2.99
   0  -3  -7    0.85    3.73
   0  -3  -7    2.52    3.42
   0   3   7    2.37    2.67
   0   3   7    2.96    3.43
   0  -3  -8   90.81   70.53
   0   3   8  193.30   26.25
   0  -3  -8  236.98   24.18
   0   3   8  225.74   20.83
   0   3   8  245.93   23.76
   0  -3  -9   15.60    7.60
   0   3   9   19.26    5.07
   0  -3  -9   29.72    3.76
   0   3   9   25.58    3.21
   0   3   9   32.61    4.17
   0  -4  13   15.46    4.86
   0   4 -13   12.16    3.86
   0   4 -13   10.56    3.65
   0   4 -13   11.86    4.24
   0  -4  12   17.23    4.07
   0   4 -12   17.63    3.99
   0   4 -12   16.97    3.86
   0   4 -12   17.33    4.43
   0  -4  12   15.05    3.44
   0  -4  11    3.63    3.59
   0   4 -11    2.35    2.84
   0   4 -11    1.81    3.14
   0   4 -11    1.77    3.91
   0  -4  11    2.01    3.73
   0  -4  10    4.34    3.25
   0   4 -10    4.72    4.07
   0   4 -10    3.81    3.95
   0   4 -10    3.60    3.08
   0  -4  10    2.20    3.12
   0  -4   9    1.77    3.00
   0   4  -9    0.16    3.81
   0   4  -9    0.64    2.71
   0   4  -9    0.81    3.44
   0   4  -9    1.17    4.16
   0  -4   9    1.36    4.07
   0  -4   9    1.41    3.31
   0  -4   8    0.85    2.78
   0   4  -8    0.93    2.82
   0   4  -8    0.99    2.69
   0   4  -8   -0.01    2.90
   0   4  -8    1.06    3.44
   0   4  -8   -0.42    3.42
   0  -4   8    2.09    2.92
   0  -4   8    0.43    2.56
   0   4  -7    2.45    2.07
   0   4  -7    1.17    3.83
   0   4  -7    1.97    2.09
   0   4  -7    0.89    3.00
   0  -4   7    1.17    2.95
   0  -4   7    1.58    2.48
   0   4  -6  778.94   10.89
   0   4  -6  721.05    9.65
   0  -4   6  757.87   10.98
   0  -4   6  768.61   10.34
   0   4  -5  955.08   12.90
   0   4  -5  954.66   12.61
   0  -4   5  938.20   12.96
   0  -4   5  982.14   13.51
   0   4  -4  112.01    4.17
   0   4  -4  110.82    4.60
   0  -4   4  102.37    4.37
   0  -4   4  106.83    4.71
   0   4  -3  145.91    5.03
   0   4  -3  145.58    4.46
   0  -4   3  145.97    4.63
   0   4  -2 3518.33   33.05
   0  -4   2 3453.35   32.70
   0   4  -1  178.55    5.52
   0  -4   1  169.59    5.23
   0   4   0 1075.43   13.51
   0  -4   0 1039.24   13.06
   0   4   0 1023.60   13.21
   0  -4   0 1031.07   13.16
   0   4   1  437.07    7.75
   0  -4  -1  392.40    7.10
   0   4   1  386.25    7.02
   0  -4  -1  400.50    7.25
   0   4   2 1304.94   17.44
   0   4   2 1251.61   12.70
   0  -4  -2 1279.69   13.63
   0   4   3  236.47   33.90
   0   4   3  255.03   36.48
   0  -4  -3  224.96   32.49
   0  -4  -3  179.93   25.89
   0   4   3  222.04   31.72
   0   4   3  202.12   28.99
   0  -4  -3  218.01   31.35
   0   4   4  210.69   32.63
   0   4   4  241.48   10.80
   0  -4  -4  203.78    7.75
   0  -4  -4  196.38    6.78
   0   4   4  205.91    8.41
   0   4   4  213.18    7.19
   0   4   4  202.18   10.86
   0  -4  -4  209.31    7.79
   0  -4  -5 1572.98   69.71
   0  -4  -5 1797.41   42.48
   0   4   5 1811.67   37.05
   0   4   5 1914.27   42.65
   0  -4  -6    4.59    6.18
   0   4   6   22.62    4.73
   0  -4  -6    9.87    4.68
   0  -4  -6   19.88    3.74
   0   4   6   20.92    4.07
   0   4   6   18.32    2.84
   0  -4  -7   33.38   47.55
   0   4   7  132.39   18.36
   0  -4  -7  159.98   17.45
   0   4   7  169.28   15.83
   0   4   7  154.18   17.09
   0  -4  -8   33.30   26.68
   0   4   8   98.33   10.86
   0  -4  -8   96.83    8.69
   0   4   8  114.40    5.22
   0   4   8  114.38    5.48
   0  -5  13    5.63    3.65
   0   5 -13    6.04    3.01
   0   5 -13    6.98    3.42
   0   5 -13    5.86    3.00
   0  -5  12    0.44    3.35
   0   5 -12    0.94    2.62
   0   5 -12   -0.26    3.66
   0   5 -12   -0.08    3.72
   0  -5  11   24.98    3.78
   0   5 -11   27.87    4.06
   0   5 -11   29.03    4.21
   0   5 -11   28.04    4.43
   0  -5  10   11.24    3.18
   0   5 -10   12.86    3.09
   0   5 -10   12.90    3.94
   0   5 -10   12.55    3.72
   0  -5   9    1.32    2.33
   0   5  -9    4.42    3.74
   0   5  -9    2.02    3.44
   0  -5   8  218.40   64.64
   0   5  -8  394.69    9.85
   0   5  -8  379.16    9.30
   0   5  -8  406.13   10.86
   0   5  -8  411.78   10.47
   0   5  -8  394.89    9.60
   0  -5   8  379.95   10.12
   0   5  -7  111.34   24.65
   0   5  -7  158.71   22.95
   0   5  -7  101.46   26.57
   0   5  -7  125.49   20.55
   0   5  -7  165.65   23.95
   0  -5   7  161.30   23.49
   0  -5   7  161.14   23.39
   0   5  -6   21.95   11.65
   0   5  -6   77.82    4.13
   0   5  -6   75.79    4.42
   0  -5   6   79.23    5.07
   0  -5   6   77.65    5.03
   0   5  -5  187.09   14.36
   0   5  -5  207.48    6.76
   0  -5   5  200.46    6.55
   0  -5   5  196.73    6.74
   0   5  -4  613.79    9.00
   0   5  -4  605.50    8.88
   0   5  -3  903.45   10.50
   0  -5   3  885.48   10.93
   0  -5   2  436.08    7.20
   0   5  -1  179.50    5.91
   0  -5   1  174.67    6.25
   0  -5   1  176.69    6.64
   0   5   0    1.93    2.40
   0  -5   0    0.35    3.36
   0  -5   0    1.43    2.90
   0   5   1  239.98   34.47
   0   5   1  243.23   34.84
   0   5   1  211.03   30.38
   0   5   1  207.55   30.02
   0   5   1  205.50   29.38
   0  -5  -1  209.15   30.21
   0   5   2  475.27   11.46
   0   5   2  449.11   11.45
   0   5   2  224.46   63.33
   0  -5  -2  441.32   12.12
   0   5   2  421.02    9.78
   0   5   2  443.33   11.49
   0  -5  -2  436.82   11.39
   0   5   3  341.58   10.94
   0   5   3  464.20   21.32
   0  -5  -3  390.82   11.53
   0   5   3  409.48   11.41
   0  -5  -3  391.20   10.86
   0   5   4  400.05   46.05
   0   5   4  475.18   14.27
   0  -5  -4  308.05  115.69
   0   5   4  490.36   12.33
   0  -5  -5   11.44   12.63
   0   5   5   61.20    8.52
   0  -5  -5   22.37    8.01
   0  -5  -5   56.33    5.97
   0   5   5   66.97    4.03
   0   5   5   59.54    4.23
   0  -5  -6    2.90    5.40
   0  -5  -6   10.55    3.46
   0   5   6   15.69    2.96
   0  -5  -7   -0.16    2.53
   0   5   7    3.04    2.96
   0  -5  -7    2.24    3.16
   0   5   7    2.31    2.99
   0   6 -13  494.69   25.73
   0   6 -13  457.27   24.74
   0   6 -13  443.63   24.15
   0  -6  12   94.73   11.92
   0   6 -12  106.75    6.36
   0   6 -12  104.95    7.25
   0   6 -12  119.72    7.36
   0  -6  11   64.38    7.25
   0   6 -11   88.27   19.00
   0   6 -11   74.29   16.21
   0   6 -10    1.72    4.02
   0   6 -10    2.65    4.16
   0   6  -9  399.57   10.00
   0   6  -9  343.73   21.60
   0   6  -9  390.14   11.09
   0   6  -9  382.64   10.50
   0   6  -8  240.52    7.13
   0   6  -8  206.37    7.24
   0   6  -8  202.72    7.13
   0   6  -8  224.85    7.37
   0   6  -8  213.88    6.82
   0  -6   8  193.76    6.90
   0   6  -7   30.69    3.13
   0   6  -7   37.47    3.87
   0   6  -7   32.53    3.30
   0   6  -7   36.47    3.27
   0   6  -7   34.81    3.18
   0  -6   7   37.73    3.59
   0   6  -6  377.24   43.46
   0   6  -6  381.62   44.11
   0   6  -6  404.25   46.63
   0   6  -6  393.67   45.62
   0   6  -6  372.19   43.24
   0   6  -6  396.84   45.78
   0  -6   6  370.98   43.03
   0   6  -5    8.03    2.48
   0   6  -5    5.93    2.63
   0   6  -5    8.62    2.52
   0  -6   5   11.27    4.04
   0   6  -4 2046.76   90.53
   0   6  -4 2526.80   80.26
   0   6  -4 2476.23   79.48
   0   6  -4 1675.71  381.78
   0  -6   4 2406.37   75.76
   0   6  -3  412.86   82.61
   0   6  -3  684.97   22.85
   0   6  -3  659.66   21.69
   0   6  -3  648.09   21.34
   0  -6   3  630.06   22.47
   0   6  -2  255.82   53.33
   0   6  -2  262.90   64.96
   0   6  -2  340.71   48.81
   0  -6   2  384.71   54.96
   0  -6   2  377.87   53.96
   0   6  -1  272.58   41.25
   0   6  -1  294.12   42.04
   0   6  -1  275.52   39.48
   0   6  -1  286.71   40.86
   0  -6   1  287.65   41.59
   0  -6   1  301.09   43.21
   0   6   0  655.69   15.49
   0   6   0  627.87   14.92
   0   6   0  662.83   14.87
   0   6   0  603.10   13.28
   0  -6   0  609.08   14.63
   0   6   1 4050.03  141.46
   0   6   1 3963.04  101.33
   0   6   1 3960.76   91.01
   0   6   1 4141.50  176.19
   0   6   1 3725.50   83.09
   0  -6  -1 3814.50   86.84
   0   6   2  180.64   44.87
   0   6   2  242.50   41.28
   0   6   2  265.08   20.18
   0   6   2  263.16    6.78
   0   6   3  569.04  252.23
   0   6   3  958.71   56.97
   0   6   4   55.69    9.93
   0   6   4  104.20   22.08
   0   6   5  353.57   39.43
   0  -6  -5  307.12   60.91
   0   6   5  381.88   24.49
   0   6   6  156.34   14.70
   0  -6  -6  104.22   21.32
   0   6   6  187.45   10.30
   0   7 -12  104.57    5.35
   0   7 -12   96.50    5.30
   0   7 -11  142.66   13.71
   0   7 -11   97.31   19.56
   0   7 -11  131.95   12.59
   0   7 -10   28.64    3.10
   0   7 -10   15.98    3.81
   0   7 -10   26.88    3.30
   0   7 -10   30.86    4.04
   0   7  -9  599.56   27.31
   0   7  -9  509.75   35.12
   0   7  -9  557.25   26.55
   0   7  -9  544.69   24.62
   0   7  -8   85.05    5.39
   0   7  -8   77.88    5.41
   0   7  -8   82.35    5.06
   0   7  -8   77.88    4.62
   0   7  -7  601.45   12.66
   0   7  -7  599.38   19.97
   0   7  -7  611.24   13.73
   0   7  -7  597.61   12.77
   0   7  -6  111.66    4.50
   0   7  -6  115.00    5.03
   0   7  -6  100.67   14.01
   0   7  -6  101.00    4.26
   0  -7   6   98.50    5.48
   0   7  -5  156.18    9.31
   0   7  -5  175.56    7.30
   0   7  -5  148.61    8.63
   0  -7   5  166.88    6.77
   0   7  -4  309.85   10.21
   0   7  -4  295.06   10.11
   0   7  -4  323.44   11.89
   0   7  -4  298.13   12.78
   0  -7   4  297.58   10.28
   0   7  -3  363.10   11.58
   0   7  -3  349.03   11.59
   0   7  -3  332.64   18.21
   0   7  -3  345.34   10.63
   0  -7   3  344.07   11.28
   0  -7   3  343.64   11.86
   0   7  -2  692.74   17.37
   0   7  -2  742.68   19.41
   0   7  -2  676.81   16.89
   0   7  -2  671.98   16.25
   0  -7   2  643.36   20.31
   0  -7   2  648.07   16.89
   0   7  -1  184.73    8.63
   0   7  -1  178.54    7.36
   0   7   0 1091.88   32.92
   0   7   0  497.98   88.86
   0   7   0 1064.32   23.25
   0   7   1   55.64   16.62
   0   7   1   88.52    9.42
   0   7   1   99.85    4.40
   0   7   2    8.48    6.20
   0   7   2    4.77    3.44
   0   7   2   12.60    3.59
   0   7   3    1.71    4.67
   0   7   3    9.14    4.03
   0   7   3   12.08    3.35
   0   7   4    0.40    2.75
   0  -7  -4   -0.61    3.17
   0   8 -12   25.45    2.99
   0   8 -12   11.36    5.31
   0   8 -12   33.82    3.82
   0   8 -11    0.90    3.59
   0   8 -11   -0.78    4.06
   0   8 -11    0.67    4.55
   0   8 -10   27.68    4.00
   0   8 -10   27.61    4.64
   0   8 -10   29.98    4.42
   0   8  -9  217.26   47.74
   0   8  -9  212.07   49.89
   0   8  -9  116.74   27.09
   0   8  -9  281.39   59.29
   0   8  -8  108.06    6.36
   0   8  -8   94.95   12.30
   0   8  -8  108.47    6.90
   0   8  -8  121.30    7.62
   0   8  -7   89.04    8.28
   0   8  -7  107.74   13.28
   0   8  -7   91.53    9.48
   0   8  -7   89.20    8.56
   0   8  -6 1582.22   28.81
   0   8  -6 1161.34  133.02
   0   8  -6 1424.88   24.74
   0   8  -5  339.30    9.78
   0   8  -5  243.70   34.31
   0   8  -4  244.85   29.74
   0   8  -4  231.90   34.69
   0   8  -3   37.81    5.35
   0   8  -3   12.26    4.51
   0   8  -3   36.40    3.86
   0   8  -2 1167.11   35.85
   0   8  -2  431.18  217.87
   0   8  -2 1207.43   21.91
   0   8  -1  897.51  120.83
   0   8  -1 1054.94   97.66
   0   8  -1 1135.24   49.87
   0   8   0    2.80    3.53
   0   8   0    4.41    3.90
   0   8   0    6.69    3.50
   0   8   1  155.01   45.51
   0   8   1  106.15   36.81
   0   8   1  203.91   19.20
   0   8   2    8.32   11.03
   0   8   2   49.69    4.25
   0  -8  -3    9.82    7.45
   0   8   3   56.97    4.41
   0   9 -11    5.26    2.73
   0   9 -11    0.07    2.60
   0   9 -11    4.86    3.31
   0   9 -10   26.89    3.96
   0   9 -10   17.28    4.16
   0   9 -10   23.66    3.36
   0   9  -9  330.28   23.93
   0   9  -9  388.29   38.92
   0   9  -9  466.39   30.10
   0   9  -8   10.94    3.59
   0   9  -8    8.24    4.64
   0   9  -8   12.22    3.34
   0   9  -7   81.24   17.52
   0   9  -7   50.03   12.68
   0   9  -6   68.33   14.99
   0   9  -6   23.48   10.33
   0   9  -5    1.29    3.50
   0   9  -4    6.51    4.32
   0   9  -4    0.13    3.53
   0   9  -3   30.72   16.52
   0   9  -3   10.92   18.16
   0   9  -2   19.34    4.81
   0   9  -2   33.91    5.02
   0   9  -2   32.06    2.80
   0   9  -1    3.81    3.36
   0   9  -1    2.74    3.50
   0   9  -1    9.69    2.73
   0   9   0    0.76    3.35
   0   9   1   21.34    6.05
   0  10  -9   19.15    6.65
   0  10  -9   11.61    5.60
   0  10  -8   22.75    6.18
   0  10  -8   14.15    6.06
   0  10  -7    7.11    3.53
   0  10  -7    1.37    3.18
   0  10  -7    2.41    3.36
   0  10  -6    0.93    3.33
   0  10  -6    2.32    3.63
   0  10  -6    0.35    3.44
   0  10  -5  114.10   22.45
   0  10  -5  144.04   12.06
   0  10  -5   16.59   27.99
   0  10  -4  104.17   62.75
   0  10  -3   31.32    6.64
   0  10  -3   51.15   13.46
   0  10  -2   11.96    7.20
   0  10  -2    9.00    7.23
  -1  11  -5   37.17   11.58
  -1  11  -6    1.73    3.46
  -1  11  -6   -3.64    4.40
  -1  11  -7   54.22   15.70
  -1  10  -1   42.08    6.48
  -1  10  -2  184.36   61.86
  -1  10  -4  116.70    9.94
  -1  10  -5    0.63    2.90
  -1  10  -5    0.25    2.99
  -1  10  -6    4.12    3.53
  -1  10  -6    2.03    4.12
  -1  10  -7  133.71   12.21
  -1  10  -7   40.22   36.39
  -1  10  -8    2.91    3.81
  -1  10  -9  159.24   31.37
  -1  10 -10    8.27    4.30
   1  -9  -2  147.77   45.14
  -1   9   2  291.38   16.06
  -1   9   1  163.76  127.62
  -1   9   1  652.46   32.62
  -1   9   0   46.61   24.36
  -1   9   0   64.08   13.60
  -1   9   0   88.70    6.82
  -1   9  -1   47.25   24.52
  -1   9  -1  127.33   20.67
  -1   9  -1  157.19   14.58
  -1   9  -2  122.56   24.40
  -1   9  -2  131.32   33.26
  -1   9  -3  212.10   56.73
  -1   9  -3  454.31   14.67
  -1   9  -3  286.58   48.58
  -1   9  -4   65.41    4.25
  -1   9  -4   74.08    4.15
  -1   9  -4   56.42    8.13
  -1   9  -5  247.86   54.23
  -1   9  -5  145.72  101.86
  -1   9  -6  221.93   11.09
  -1   9  -6  384.71   27.02
  -1   9  -7   12.89    3.63
  -1   9  -7   15.52   11.97
  -1   9  -7    6.89    3.80
  -1   9  -8   13.43    3.69
  -1   9  -8   -0.35   13.46
  -1   9  -8    4.10    3.59
  -1   9  -9  274.04   25.26
  -1   9  -9  233.06   24.73
  -1   9  -9  193.29   30.01
  -1   9  -9  259.30   23.78
  -1   9 -10  136.22   15.12
  -1   9 -10  139.95   13.49
  -1   9 -10  168.18    9.60
  -1   9 -11  265.43   11.96
  -1   9 -11  271.43   10.17
   1  -8  -4   79.87   16.41
  -1   8   4  148.35    8.30
  -1   8   3   17.06    6.95
  -1   8   3   57.02    4.77
  -1   8   2    0.98    3.46
  -1   8   2    0.74    3.25
  -1   8   2    0.57    3.06
  -1   8   1    6.68    6.73
  -1   8   1   12.59    5.14
  -1   8   1   15.10    2.62
  -1   8   0   40.12   19.86
  -1   8   0   73.62    7.73
  -1   8   0   94.41    3.57
  -1   8  -1  241.17   43.26
  -1   8  -1  415.38   11.75
  -1   8  -1  320.34   13.04
  -1   8  -1  354.95    7.71
  -1   8  -2  111.06    6.18
  -1   8  -2  112.17    6.26
  -1   8  -3  402.66    9.96
  -1   8  -3  413.15   10.16
  -1   8  -4  159.57    7.26
  -1   8  -4  170.60   11.89
  -1   8  -4  158.10   13.42
  -1   8  -5   46.08    3.68
  -1   8  -5   57.86    4.28
  -1   8  -5   50.77    4.93
  -1   8  -6  394.61   39.64
  -1   8  -6  530.22   14.83
  -1   8  -6  559.60   13.83
  -1   8  -7  126.54    5.80
  -1   8  -7  153.43    7.34
  -1   8  -7  122.94    5.76
  -1   8  -8   23.70    4.26
  -1   8  -8   20.49    4.55
  -1   8  -8   20.70    4.11
  -1   8  -8   21.81    4.37
  -1   8  -9   43.52    3.59
  -1   8  -9   43.13    3.65
  -1   8  -9   42.61    4.13
  -1   8  -9   40.81    4.34
  -1   8 -10    1.25    2.48
  -1   8 -10   -0.42    3.59
  -1   8 -10    0.42    3.80
  -1   8 -10   -0.16    3.66
  -1   8 -11    0.95    3.09
  -1   8 -11   -0.91    3.33
  -1   8 -11   -0.21    2.62
  -1   8 -11    1.32    2.95
  -1   8 -12    0.30    3.13
  -1   8 -12    0.25    3.55
   1  -7  -5    0.30    2.91
  -1   7   5    0.39    3.13
   1  -7  -5    0.80    3.18
   1  -7  -4   -1.08    4.40
  -1   7   4    0.94    3.46
   1  -7  -4   -0.78    3.26
  -1   7   4    0.56    2.70
  -1   7   3    1.84    3.35
  -1   7   3    7.84    4.60
  -1   7   3    9.39    2.95
  -1   7   2   71.26   27.78
  -1   7   2  110.69    9.47
  -1   7   2   96.80    7.71
  -1   7   2  118.95    6.76
  -1   7   1  518.00   32.79
  -1   7   1  506.95   83.81
  -1   7   1  466.23   97.14
  -1   7   1  648.11   14.39
  -1   7   0  658.29   17.18
  -1   7   0  626.76   16.32
  -1   7   0  675.85   19.85
  -1   7   0  622.64   19.72
  -1   7   0  580.29   14.48
   1  -7   0  571.30   14.96
  -1   7  -1   75.42    4.77
  -1   7  -1   69.10    4.64
  -1   7  -1   48.01   14.80
  -1   7  -1   72.83    4.37
  -1   7  -1   65.67    3.30
   1  -7   1   68.09    4.72
  -1   7  -2  126.41   10.06
  -1   7  -2  151.81    6.16
  -1   7  -2  140.79    5.86
   1  -7   2  142.97    5.35
   1  -7   2  143.00    6.03
  -1   7  -3 1149.32  135.09
  -1   7  -3 1299.92  151.07
  -1   7  -3 1354.83  155.41
  -1   7  -3 1426.31  163.46
   1  -7   3 1210.86  138.90
   1  -7   3 1225.12  140.66
  -1   7  -4   68.62    9.34
  -1   7  -4   91.35   11.31
  -1   7  -4  113.56   13.58
  -1   7  -4  119.18   14.44
   1  -7   4   94.19   11.63
  -1   7  -5    0.44    2.43
  -1   7  -5    0.56    3.30
  -1   7  -5    0.12    2.57
  -1   7  -5    2.39    3.09
   1  -7   5    1.51    3.14
  -1   7  -6   45.91    3.03
  -1   7  -6   49.40    3.68
  -1   7  -6   47.55    3.53
  -1   7  -7   24.94    3.23
  -1   7  -7   25.19    3.06
  -1   7  -7   24.06    3.81
  -1   7  -7   26.38    3.87
  -1   7  -7   23.45    3.06
   1  -7   7   21.69    3.96
  -1   7  -8    3.09    3.42
  -1   7  -8    2.35    3.68
  -1   7  -8    1.27    2.92
  -1   7  -8    4.02    4.10
  -1   7  -9   32.48    4.58
  -1   7  -9   22.95    3.55
  -1   7  -9   31.81    4.20
  -1   7  -9   31.15    4.26
  -1   7 -10  111.98    4.67
  -1   7 -10  101.94    7.28
  -1   7 -10  115.91    6.00
  -1   7 -10  108.23    5.31
  -1   7 -11   39.05    3.59
  -1   7 -11   21.27    3.23
  -1   7 -11   39.53    4.41
  -1   7 -12   56.63    4.04
  -1   7 -12   57.43    4.46
  -1   7 -12   51.92    4.03
  -1   6   6   30.98    5.37
   1  -6  -6   26.78    4.72
  -1   6   6   38.87    4.46
   1  -6  -5   -0.74    3.78
  -1   6   5    8.40    3.56
   1  -6  -5    8.00    4.08
  -1   6   4  354.48   19.30
  -1   6   4  356.49   16.19
  -1   6   3 1045.37   79.55
  -1   6   3 1008.15   63.95
  -1   6   3  787.22  156.63
  -1   6   3 1153.45   26.79
  -1   6   2  544.56   14.32
  -1   6   2  545.44   14.15
  -1   6   2  537.21   14.07
  -1   6   2  552.81   20.29
   1  -6  -2  531.29   14.79
  -1   6   2  556.01   13.80
   1  -6  -2  515.82   14.20
  -1   6   1  353.41    8.95
  -1   6   1  364.17    8.82
  -1   6   1  368.55    9.82
  -1   6   1  290.59   50.70
  -1   6   1  353.22    8.43
   1  -6  -1  354.22    9.79
  -1   6   0 1063.12  150.93
  -1   6   0 1069.84  151.93
  -1   6   0  639.62   98.25
  -1   6   0 1175.18  166.76
  -1   6   0 1019.43  144.64
   1  -6   0 1036.90  147.59
  -1   6  -1 1942.93   61.70
   1  -6   1 2229.87   70.23
   1  -6   1 2190.07   70.17
  -1   6  -2 1075.18   34.52
   1  -6   2 1085.60   34.97
   1  -6   2  967.96   31.25
  -1   6  -3  951.51   31.00
  -1   6  -4 2127.28   67.98
   1  -6   4 2140.91   68.88
  -1   6  -5  961.28   31.61
  -1   6  -5  993.22   32.11
  -1   6  -5  761.89   74.11
  -1   6  -6  439.69   85.32
  -1   6  -6  735.30  104.47
  -1   6  -6  768.72  109.35
  -1   6  -6  683.67  102.32
  -1   6  -6  732.08  104.14
   1  -6   6  750.26  106.80
   1  -6   6  771.93  110.03
  -1   6  -7  806.52   25.22
  -1   6  -7  798.93   17.79
  -1   6  -7  828.30   18.89
  -1   6  -7  895.31   19.55
  -1   6  -7  709.02   49.67
  -1   6  -7  809.72   17.32
   1  -6   7  789.70   18.12
   1  -6   7  809.66   19.17
  -1   6  -8   37.26    3.53
  -1   6  -8   38.01    3.39
  -1   6  -8   36.55    3.46
  -1   6  -8   41.29    3.59
  -1   6  -8   39.18    3.89
  -1   6  -8   37.85    3.17
   1  -6   8   37.91    3.50
   1  -6   8   41.20    4.63
  -1   6  -9  975.41   21.10
  -1   6  -9  947.76   21.75
  -1   6  -9 1013.79   23.36
  -1   6  -9  938.08   24.44
  -1   6  -9  975.24   21.81
  -1   6 -10  229.26   11.09
  -1   6 -10  231.62   11.37
  -1   6 -10  228.35   11.19
  -1   6 -11  100.32   21.29
  -1   6 -11  109.02   23.37
   1  -6  12    0.40    2.86
  -1   6 -12   -0.63    3.20
  -1   6 -12    1.21    3.20
  -1   6 -13   17.87    5.35
  -1   6 -13   16.98    5.36
  -1   5   8   35.76   12.68
   1  -5  -8   66.37    7.54
  -1   5   8   73.21    4.83
  -1   5   7  218.94   35.03
   1  -5  -7  232.47   18.10
  -1   5   7  262.31   13.85
   1  -5  -6  279.27   59.66
  -1   5   6  382.51   80.25
   1  -5  -5   83.56   75.31
  -1   5   4  928.44   31.60
  -1   5   4 1203.54   47.57
  -1   5   3 1083.96   22.28
  -1   5   3  986.85   24.57
  -1   5   3  927.60   90.50
   1  -5  -3  989.52   21.27
  -1   5   3 1023.18   21.69
  -1   5   3 1013.27   22.04
   1  -5  -3 1012.93   21.89
  -1   5   2   18.05    3.86
  -1   5   2   18.81    4.45
  -1   5   2   26.16    5.03
  -1   5   2   16.37    4.12
  -1   5   2   23.20    4.40
  -1   5   2   25.43    4.45
   1  -5  -2   26.54    4.88
  -1   5   1    5.16    2.78
   1  -5  -1    4.89    2.69
  -1   5   0  153.01    5.44
   1  -5   0  152.94    5.32
   1  -5   0  150.01    5.69
   1  -5   1 3342.90   25.93
   1  -5   1 3393.11   26.02
  -1   5  -2  181.11    5.57
   1  -5   2  174.04    5.48
  -1   5  -3   30.83    3.61
   1  -5   3   28.12    3.33
  -1   5  -4   98.91    4.83
   1  -5   4   99.46    4.63
  -1   5  -5  340.50   12.00
   1  -5   5  339.91   12.39
   1  -5   5  335.21    9.38
   1  -5   6   18.08    3.95
   1  -5   6   16.93    4.06
  -1   5  -7  818.10  118.56
  -1   5  -7  919.30  130.56
  -1   5  -7  783.78  114.40
  -1   5  -7  899.18  127.78
   1  -5   7  961.71  136.79
   1  -5   8   74.47   29.63
  -1   5  -8  150.78    5.13
  -1   5  -8  142.57    4.42
  -1   5  -8  153.81    5.02
  -1   5  -8  148.15    5.27
   1  -5   8  145.82    5.95
   1  -5   8  139.12    5.13
   1  -5   9  178.33    9.30
  -1   5  -9  183.72    7.90
  -1   5  -9  183.34    8.43
  -1   5  -9  178.33    7.60
   1  -5  10  963.06   26.87
  -1   5 -10  887.53   16.63
   1  -5  11  566.64  119.30
  -1   5 -11  570.69  119.73
  -1   5 -11  566.88  118.95
   1  -5  12  278.34   15.22
  -1   5 -12  315.43   16.36
  -1   5 -12  299.63   15.98
   1  -5  13    2.28    2.73
  -1   5 -13    2.73    3.52
  -1   4   9   19.26    8.53
   1  -4  -8   17.70   54.99
  -1   4   8  101.57   15.99
  -1   4   8  158.94   10.97
  -1   4   8  140.01   10.38
  -1   4   8  150.60   12.90
   1  -4  -7   -0.43    2.84
  -1   4   7    2.36    4.24
  -1   4   7    1.77    2.77
  -1   4   7    1.66    2.78
   1  -4  -6   99.91   18.77
  -1   4   6  144.05    7.67
  -1   4   6  141.00    4.45
  -1   4   6  141.08    4.84
   1  -4  -5  875.15   26.89
  -1   4   5 1079.37   45.09
   1  -4  -5  698.01   33.87
  -1   4   5  829.27   23.63
  -1   4   5  793.92   48.88
  -1   4   5  813.60   26.78
   1  -4  -5  881.24   21.49
  -1   4   4  610.96   70.39
  -1   4   4  566.55   65.21
   1  -4  -4  565.87   65.23
  -1   4   3  394.93   17.69
  -1   4   3  385.77   13.46
  -1   4   3  370.56   12.38
  -1   4   3  372.69   13.02
   1  -4  -3  373.02   13.46
  -1   4   2  728.63   12.01
  -1   4   2  727.11    9.68
   1  -4  -2  742.39   10.20
  -1   4   1  104.52    4.67
   1  -4  -1  107.63    3.93
  -1   4   1  115.57    4.45
   1  -4  -1  112.48    4.23
   1  -4   0 1845.26   19.71
  -1   4   0 1931.80   20.44
   1  -4   0 1907.26   20.63
  -1   4  -1  249.36    5.97
   1  -4   1  216.17   14.07
   1  -4   1  238.87    5.56
  -1   4  -1  240.66    5.00
  -1   4  -2  158.66    4.92
   1  -4   2  165.22    4.60
   1  -4   2  156.93    5.05
   1  -4   3 1447.31   18.69
  -1   4  -3 1574.28   17.37
   1  -4   3 1484.57   17.59
   1  -4   4  140.92    5.52
  -1   4  -4  135.63    4.45
   1  -4   4  130.79    4.76
   1  -4   5  244.29    5.49
   1  -4   6  143.23    5.36
  -1   4  -7   59.40    8.19
  -1   4  -7   84.88    4.49
  -1   4  -7  102.53    4.75
   1  -4   7  106.58    5.32
  -1   4  -8    6.39    2.48
  -1   4  -8    5.76    2.13
  -1   4  -9    7.16    2.79
  -1   4  -9    7.17    3.40
  -1   4  -9    5.91    3.42
   1  -4   9    5.20    2.14
   1  -4  10  282.45   14.39
  -1   4 -10  259.57    6.55
  -1   4 -10  249.95    7.23
   1  -4  10  215.76    8.14
   1  -4  11   13.08    3.16
  -1   4 -11   18.27    4.21
  -1   4 -11   19.25    3.82
   1  -4  12   48.05    4.97
  -1   4 -12   46.78    4.56
  -1   4 -12   44.24    5.02
   1  -3  -9   28.02   19.51
  -1   3   9   52.42   10.94
  -1   3   9   77.67    5.23
  -1   3   9   79.42    6.16
   1  -3  -8  513.14  315.37
  -1   3   8  890.54  229.64
  -1   3   8 1181.88   11.96
  -1   3   8  963.16  230.92
   1  -3  -7  303.06   39.78
  -1   3   7  445.81   19.59
  -1   3   7  475.58    9.70
  -1   3   7  481.75   11.50
   1  -3  -6  266.38    8.03
  -1   3   6  256.42    9.48
   1  -3  -6  220.42    6.53
  -1   3   6  252.82    7.45
  -1   3   6  219.94   15.25
  -1   3   6  242.86    7.63
   1  -3  -6  243.63    7.96
   1  -3  -5  584.80   83.13
  -1   3   5  634.36   90.32
   1  -3  -5  529.75   75.33
  -1   3   5  541.24   76.90
  -1   3   5  552.62   78.62
  -1   3   5  578.80   82.43
   1  -3  -5  554.35   78.96
   1  -3  -4  794.91   10.64
  -1   3   4  791.93   10.21
   1  -3  -4  786.32   10.16
  -1   3   3  654.37    8.57
  -1   3   3  693.30    9.53
   1  -3  -3  664.89    8.96
  -1   3   2 2774.37   27.13
  -1   3   2 2668.87   26.98
   1  -3  -2 2714.63   27.28
  -1   3   1 1878.13   17.71
  -1   3   1 1901.46   14.70
  -1   3   1 1836.93   14.49
   1  -3  -1 1902.40   15.05
  -1   3   1 1904.71   15.18
   1  -3  -1 1922.02   15.42
  -1   3   0 2943.56   19.36
   1  -3   0 2944.77   20.62
  -1   3   0 2982.24   19.82
   1  -3   0 3010.86   19.82
  -1   3  -1  409.50    7.06
  -1   3  -1  402.65    6.69
   1  -3   1  409.78    7.30
  -1   3  -1  389.28    6.29
   1  -3   2 1240.73   14.86
  -1   3  -2 1283.75   12.05
  -1   3  -2 1239.31   11.80
   1  -3   2 1241.68   12.13
  -1   3  -3 4759.62   26.59
  -1   3  -3 4982.94   27.53
   1  -3   3 4926.08   27.92
  -1   3  -4   49.30    2.92
  -1   3  -4   68.85    4.53
   1  -3   4   48.24    2.75
   1  -3   4   51.99    4.55
  -1   3  -4   52.29    3.23
  -1   3  -5  571.07    9.18
  -1   3  -5  553.63    9.17
  -1   3  -6  341.71   12.27
  -1   3  -7   31.37    3.00
  -1   3  -7   30.79    2.48
  -1   3  -7   38.15    3.90
  -1   3  -7   35.48    3.22
  -1   3  -7   28.08    3.61
  -1   3  -7   37.73    2.66
   1  -3   7   40.38    3.70
  -1   3  -8   10.33    3.27
  -1   3  -8   14.42    3.63
  -1   3  -8    9.65    2.82
  -1   3  -8    8.26    2.71
  -1   3  -8   11.32    2.80
  -1   3  -8    9.23    2.93
   1  -3   8    8.93    4.51
   1  -3   8    4.84    2.67
  -1   3  -9  403.08    9.36
  -1   3  -9  387.98    8.67
  -1   3  -9  390.86    9.47
  -1   3  -9  387.58    9.78
  -1   3  -9  376.51    8.91
   1  -3   9  366.35    9.51
   1  -3   9  325.79   18.40
  -1   3 -10  261.22    6.73
  -1   3 -10  273.53    7.08
  -1   3 -10  263.13    6.90
   1  -3  10  257.60   11.31
  -1   3 -11    1.20    3.55
  -1   3 -11    0.77    4.26
  -1   3 -11    1.43    3.89
   1  -3  11    1.15    2.60
  -1   3 -12  204.71    8.62
  -1   3 -12  224.23   11.27
  -1   3 -12  201.15    7.67
   1  -3  12  136.03    8.19
   1  -2 -10    9.23    5.45
   1  -2 -10   18.29    3.77
  -1   2  10   13.88    3.31
   1  -2  -9   24.79    8.53
   1  -2  -9   52.59    6.34
  -1   2   9   48.40    5.76
  -1   2   9   48.66    5.75
  -1   2   9   56.64    6.87
   1  -2  -8  219.47   31.02
  -1   2   8  269.46   25.45
  -1   2   8  285.62    7.06
  -1   2   8  301.58    8.07
   1  -2  -7  346.76    9.98
  -1   2   7  341.45   16.19
   1  -2  -7  324.04    9.51
   1  -2  -7  342.23    9.42
  -1   2   7  333.13    9.14
  -1   2   7  344.11    9.42
  -1   2   7  340.44    9.68
   1  -2  -7  328.70   10.06
   1  -2  -6   16.34    3.42
  -1   2   6   13.12    3.42
   1  -2  -6   14.70    3.90
   1  -2  -6   16.56    2.91
   1  -2  -6   16.00    3.83
  -1   2   6   15.38    3.17
  -1   2   6   15.72    2.79
   1  -2  -6   15.60    3.63
   1  -2  -5    5.09    3.95
   1  -2  -5    3.82    3.90
   1  -2  -4 1894.20   17.87
   1  -2  -4 1922.52   17.50
  -1   2   4 1885.15   16.99
  -1   2   4 1846.79   17.58
   1  -2  -4 1860.09   17.11
  -1   2   3 2385.84   27.32
  -1   2   3 2654.60   26.22
   1  -2  -3 2562.97   25.72
  -1   2   3 2540.04   25.68
  -1   2   3 2581.11   25.77
   1  -2  -3 2569.92   26.08
  -1   2   2   90.84    4.64
  -1   2   2   95.01    4.73
  -1   2   2   90.29    3.78
  -1   2   2  114.79    5.40
   1  -2  -2   97.49    4.50
  -1   2   1   21.86    3.72
  -1   2   1   24.30    4.37
  -1   2   1   23.45    2.57
   1  -2  -1   21.95    3.43
  -1   2   1   24.43    4.02
   1  -2  -1   23.62    3.35
  -1   2   0    4.51    1.59
  -1   2   0    4.40    3.64
  -1   2   0    2.57    2.73
  -1   2   0    2.83    2.71
   1  -2   0    1.45    3.01
  -1   2  -1 2566.76   17.44
  -1   2  -1 2588.58   17.74
  -1   2  -1 2556.39   17.42
  -1   2  -2 2421.69   17.62
  -1   2  -2 2452.84   17.09
   1  -2   2 2408.36   17.57
   1  -2   2 2498.47   17.86
  -1   2  -3   59.03    3.18
  -1   2  -3   65.12    5.15
   1  -2   3   60.95    3.26
  -1   2  -3   67.21    3.98
   1  -2   3   66.20    3.38
  -1   2  -4  108.30    4.76
   1  -2   4  100.94    3.99
   1  -2   4  102.21    4.26
  -1   2  -4  105.92    4.51
   1  -2   4  101.55    3.73
  -1   2  -4  104.04    4.25
  -1   2  -5 1835.94   19.98
   1  -2   5 1773.73   21.77
   1  -2   5 1992.57   22.30
  -1   2  -5 1800.86   19.03
   1  -2   5 1867.67   19.89
  -1   2  -5 1850.33   20.42
  -1   2  -6 1613.73   16.52
   1  -2   6 1601.50   15.57
  -1   2  -6 1583.25   17.32
   1  -2   6 1607.12   15.31
  -1   2  -6 1603.74   15.77
  -1   2  -7   17.15    3.96
  -1   2  -7   24.25    3.12
  -1   2  -7   23.96    3.85
  -1   2  -7   23.84    2.33
  -1   2  -7   12.55    3.70
  -1   2  -7   24.77    2.84
   1  -2   7   25.09    3.31
   1  -2   7    5.10    5.99
  -1   2  -8   29.65    3.96
  -1   2  -8   22.59    3.16
  -1   2  -8   23.36    3.22
  -1   2  -8   24.42    2.70
  -1   2  -8   21.81    3.35
   1  -2   8   23.89    4.26
   1  -2   8   16.72    3.55
  -1   2  -9  611.08   14.84
  -1   2  -9  599.24   14.27
  -1   2  -9  572.73   13.53
   1  -2   9  566.08   16.73
  -1   2 -10   41.40    4.06
  -1   2 -10   40.35    4.07
  -1   2 -10   36.77    3.06
   1  -2  10   38.87    4.12
   1  -2  10   38.57    3.61
   1  -2  11   12.34    3.68
  -1   2 -11   12.52    3.89
  -1   2 -11   11.88    3.56
  -1   2 -11   11.35    2.79
   1  -2  11   10.38    2.86
   1  -2  12  125.52    7.51
  -1   2 -12  127.23    8.02
  -1   2 -12  138.22    8.41
   1  -2  12  130.54    8.10
   1  -1 -11  133.14   24.72
  -1   1  11  171.25    8.88
   1  -1 -11  159.29    7.19
  -1   1  11  229.05    9.25
   1  -1 -10    8.67    3.82
   1  -1 -10   13.63    4.26
  -1   1  10   13.17    2.97
  -1   1   9  120.15   23.19
   1  -1  -9  150.93   11.41
   1  -1  -9  178.77    9.49
  -1   1   9  154.76    7.89
  -1   1   9  168.76    9.14
  -1   1   9  160.79    8.87
  -1   1   8  439.47   12.05
   1  -1  -8  453.94   10.58
   1  -1  -8  463.19   10.23
  -1   1   8  423.40    9.33
  -1   1   8  439.32   10.89
  -1   1   7  879.47   20.62
   1  -1  -7  936.96   21.18
  -1   1   7  630.77  117.19
   1  -1  -7  909.48   20.14
   1  -1  -7  899.07   19.94
  -1   1   7  873.48   18.38
  -1   1   7  902.50   21.10
  -1   1   7  898.67   19.47
   1  -1  -7  884.93   19.49
   1  -1  -6   17.83    2.90
   1  -1  -6   17.97    3.86
   1  -1  -6   17.74    2.22
   1  -1  -6   17.22    2.31
  -1   1   6   17.54    2.54
  -1   1   6   14.10    2.05
  -1   1   6   16.15    3.93
   1  -1  -6   16.71    3.16
   1  -1  -5   20.72    2.43
   1  -1  -5   20.82    3.12
  -1   1   5   21.27    3.05
  -1   1   5   22.81    4.02
   1  -1  -5   22.07    3.81
   1  -1  -4  562.29   10.16
   1  -1  -4  581.30    9.95
  -1   1   4  568.38    9.22
   1  -1  -4  577.94   10.07
  -1   1   3  443.59    8.84
   1  -1  -3  478.10    8.16
   1  -1  -3  492.84    8.20
  -1   1   3  498.33    7.73
   1  -1  -3  492.24    7.73
  -1   1   2 1447.39   16.06
   1  -1  -2 1494.77   14.41
   1  -1  -2 1485.21   13.49
  -1   1   2 1500.49   13.20
  -1   1   2 1504.48   13.32
   1  -1  -2 1502.66   13.41
   1  -1  -1 1967.50   17.99
  -1   1   1 1969.79   15.10
   1  -1  -1 1951.20   15.43
  -1   1   0  341.92    8.82
   1  -1   0  404.45   10.03
  -1   1   0  379.65    6.66
  -1   1   0  371.61    6.64
  -1   1   0  369.72    6.38
  -1   1   0  361.52    6.27
  -1   1  -1  247.47    6.12
  -1   1  -1  235.76    5.26
   1  -1   1  247.94    6.14
  -1   1  -1  241.55    6.83
  -1   1  -2 1731.25   14.20
   1  -1   2 1735.79   14.36
   1  -1   2 1750.92   14.45
  -1   1  -2 1825.22   14.35
  -1   1  -2 1774.13   14.78
  -1   1  -3  593.22    8.48
   1  -1   3  586.66    8.09
   1  -1   3  597.79    9.04
  -1   1  -3  607.36    7.88
  -1   1  -3  600.98    8.84
  -1   1  -4    7.94    2.96
   1  -1   4    7.16    3.40
   1  -1   4    7.98    3.59
  -1   1  -4    6.96    2.66
   1  -1   4   10.34    3.40
  -1   1  -4    7.86    3.05
  -1   1  -5 1012.46   13.07
   1  -1   5  995.36   13.29
   1  -1   5 1024.58   13.42
  -1   1  -5 1006.74   14.35
   1  -1   5 1011.13   12.70
  -1   1  -5 1045.67   13.84
  -1   1  -6 1335.80   14.06
   1  -1   6 1299.74   17.72
   1  -1   6 1348.72   13.89
   1  -1   6 1358.60   15.64
  -1   1  -6 1360.08   14.53
  -1   1  -7   60.22    9.08
  -1   1  -7   62.45    9.48
  -1   1  -7   59.06    9.47
  -1   1  -7   69.65   10.38
  -1   1  -7   60.32    8.97
  -1   1  -7   18.27   12.93
  -1   1  -7   55.61    8.50
   1  -1   7   58.48    8.97
   1  -1   7   59.45    8.89
   1  -1   7   56.63    8.92
  -1   1  -7   57.79    8.97
  -1   1  -8  311.62   10.56
  -1   1  -8  297.16    9.55
  -1   1  -8  293.80    9.93
  -1   1  -8  295.07    9.68
  -1   1  -8  286.74    9.43
   1  -1   8  284.82    9.63
  -1   1  -8  294.02   10.76
  -1   1  -9    5.18    3.26
  -1   1  -9    3.68    2.95
  -1   1  -9    1.07    2.77
  -1   1  -9    1.68    3.43
   1  -1   9    2.06    2.82
   1  -1  10    2.88    3.65
  -1   1 -10    3.51    3.46
  -1   1 -10    2.31    2.92
  -1   1 -10    1.57    3.23
   1  -1  10    1.03    3.18
   1  -1  10    2.57    3.87
   1  -1  11   92.61   16.50
  -1   1 -11  120.13    7.71
  -1   1 -11  124.05    7.70
   1  -1  11  118.70    7.28
  -1   0  11  439.41   30.42
   1   0 -11  369.66   47.24
  -1   0  11  252.10   21.91
   1   0 -11  473.33   31.51
  -1   0  11  497.13   32.66
  -1   0  10  220.37    7.83
   1   0 -10  217.56    9.63
   1   0 -10  231.69    8.57
  -1   0  10  216.54   10.09
  -1   0   9  120.83    9.52
   1   0  -9  139.35    6.26
   1   0  -9  143.90    6.26
  -1   0   9  116.17   10.13
  -1   0   9  130.05    7.92
  -1   0   9  156.73    7.29
  -1   0   8   16.42    3.55
   1   0  -8   16.17    3.78
   1   0  -8   14.44    2.99
   1   0  -8   13.89    3.12
  -1   0   8   12.25    2.33
  -1   0   8   14.14    2.74
  -1   0   8   14.52    3.35
   1   0  -7  205.43   29.45
   1   0  -7  205.03   29.55
   1   0  -7  203.35   29.19
  -1   0   7  191.63   27.48
  -1   0   7  204.43   29.41
  -1   0   7  193.68   27.87
  -1   0   7  195.26   28.12
   1   0  -7  204.48   29.58
   1   0  -6  344.93   12.29
  -1   0   6  357.00    7.15
  -1   0   6  351.60    6.86
   1   0  -6  344.37   12.35
   1   0  -5  304.50    6.22
   1   0  -5  316.08    6.50
  -1   0   5  316.45    6.06
  -1   0   5  333.90    8.95
   1   0  -5  321.39    8.91
  -1   0   4  158.26    5.96
   1   0  -4  159.52    5.22
   1   0  -4  163.70    4.73
  -1   0   4  158.69    4.80
  -1   0   4  159.07    5.19
   1   0  -4  159.22    5.31
  -1   0   3 1821.70   17.88
   1   0  -3 1903.64   15.99
   1   0  -3 1898.99   15.08
  -1   0   3 1977.20   15.85
  -1   0   3 1825.48   15.12
  -1   0   3 2005.09   15.74
   1   0  -3 1913.86   15.59
  -1   0   2 2490.20   21.13
   1   0  -2 2424.51   18.38
   1   0  -2 2421.33   17.36
  -1   0   2 2478.61   17.71
  -1   0   2 2478.83   18.14
  -1   0   2 2543.86   17.67
   1   0  -2 2516.24   18.19
   1   0  -1   39.95    4.41
  -1   0   1   42.83    3.17
   1   0   0  107.51    5.87
   1   0   0  110.18    4.40
   1   0   0  112.75    4.72
  -1   0   0  114.63    4.04
  -1   0   0  123.55    4.97
   1   0   1 1563.52   13.60
  -1   0  -1 1588.60   13.80
  -1   0  -1 1605.04   13.55
  -1   0  -1 1683.82   13.77
  -1   0  -1 1660.79   14.33
   1   0   2  965.31   13.00
  -1   0  -2  984.32   10.90
   1   0   2 1003.40   10.84
   1   0   2 1006.72   11.07
  -1   0  -2 1019.23   10.42
  -1   0  -2 1006.79   11.06
  -1   0  -3   56.04    3.18
  -1   0  -3   61.05    4.37
   1   0   3   61.14    4.40
   1   0   3   61.80    3.70
  -1   0  -3   63.06    3.85
  -1   0  -3   65.00    4.02
  -1   0  -4 3295.12   31.52
   1   0   4 3300.78   35.40
   1   0   4 3321.31   31.94
  -1   0  -4 3169.57   54.27
  -1   0  -4 3385.44   32.51
  -1   0  -5 2839.36   23.62
   1   0   5 2838.70   29.98
   1   0   5 2901.76   26.71
  -1   0  -5 2832.37   22.26
   1   0   5 2850.97   22.68
  -1   0  -5 2885.30   28.04
  -1   0  -6   46.03    6.04
  -1   0  -6   85.95    4.53
  -1   0  -6   74.12    4.38
  -1   0  -6   92.26    4.47
  -1   0  -6   73.42    4.40
   1   0   6   60.84    3.56
   1   0   6   73.77    4.54
  -1   0  -6   74.15    4.66
  -1   0  -7   41.28    3.13
  -1   0  -7   46.63    3.86
  -1   0  -7   43.46    3.40
  -1   0  -7   51.17    3.91
  -1   0  -7   45.18    3.39
  -1   0  -7   40.18    2.93
   1   0   7   41.19    3.47
   1   0   7   40.48    3.44
  -1   0  -7   41.49    4.00
  -1   0  -8  632.90   15.31
  -1   0  -8  637.83   16.21
  -1   0  -8  618.89   14.72
  -1   0  -8  640.26   15.27
  -1   0  -8  602.04   14.63
   1   0   8  622.66   15.12
  -1   0  -9   38.67    4.16
  -1   0  -9   39.54    4.19
  -1   0  -9   40.13    4.02
  -1   0  -9   41.03    3.55
   1   0   9   42.32    3.82
   1   0  10   66.73    7.25
  -1   0 -10   67.86    6.42
  -1   0 -10   73.35    6.14
   1   0  10   78.39    6.44
   1   0  10   74.58    6.13
  -1   0 -11   92.16    7.03
  -1   0 -11  107.12    7.77
   1   0  11  117.02    7.42
  -1  -1  12    3.38    2.27
   1   1 -12    4.73    2.62
   1   1 -12    3.14    3.27
  -1  -1  11    4.45    3.51
   1   1 -11    3.99    2.83
   1   1 -11    6.69    3.83
  -1  -1  10  625.15   29.05
   1   1 -10  607.99   30.52
   1   1 -10  615.57   28.86
  -1  -1   9  335.06    7.62
   1   1  -9  339.64    8.83
   1   1  -9  325.97    7.75
  -1  -1   8   22.08    3.82
   1   1  -8   14.54    3.87
   1   1  -8   13.86    3.48
   1   1  -8   12.83    3.22
  -1  -1   8   11.16    1.98
   1   1  -8   13.25    2.41
  -1  -1   8   12.73    3.43
  -1  -1   8   13.63    3.18
  -1  -1   7  701.01   23.62
   1   1  -7  684.29   52.65
   1   1  -7  737.31   24.48
   1   1  -7  445.88   43.99
  -1  -1   7  734.11   24.25
  -1  -1   7  695.18   22.97
   1   1  -6 1438.44   14.75
  -1  -1   6 1418.38   14.52
  -1  -1   6 1370.83   13.77
   1   1  -5    5.24    2.96
   1   1  -5    1.28    3.65
  -1  -1   5    3.90    4.24
  -1  -1   5    1.92    3.04
   1   1  -4 1785.66   14.88
   1   1  -4 1783.44   14.56
  -1  -1   4 1707.29   15.22
  -1  -1   4 1751.61   14.28
  -1  -1   2 6533.96   24.74
  -1  -1   1 1106.15   13.47
   1   1  -1 1168.27   13.62
   1   1  -1 1092.35   10.84
   1   1  -1 1110.80   11.32
  -1  -1   1 1132.13   11.28
  -1  -1   1 1143.70   12.12
   1   1   0  711.29   10.76
   1   1   0  714.66    8.96
   1   1   0  708.01    9.16
  -1  -1   0  669.46    8.45
   1   1   1 3784.68   23.15
   1   1   1 3817.79   23.65
   1   1   1 3702.07   22.79
  -1  -1  -1 3829.03   24.32
  -1  -1  -2 3523.47   23.15
   1   1   2 3521.56   22.92
  -1  -1  -2 3680.67   22.52
  -1  -1  -2 3583.01   22.84
   1   1   3  248.43    5.19
  -1  -1  -3  244.47    5.84
   1   1   3  254.39    6.25
   1   1   3  256.49    5.31
  -1  -1  -3  253.45    5.33
  -1  -1  -3  260.90    6.57
  -1  -1  -4  188.36    6.10
   1   1   4  203.59    6.31
  -1  -1  -4  188.05    6.29
   1   1   4  199.18    6.68
  -1  -1  -4  202.95    6.93
  -1  -1  -5  703.49   23.40
   1   1   5  720.13   24.85
   1   1   5  697.07   23.16
  -1  -1  -5  714.94   23.75
  -1  -1  -6  180.40   29.84
  -1  -1  -6  333.18   38.48
  -1  -1  -6  300.34   34.82
  -1  -1  -6  296.44   34.26
  -1  -1  -6  287.60   33.22
   1   1   6  325.44   38.92
   1   1   6  318.99   36.99
  -1  -1  -6  307.95   35.80
  -1  -1  -7  435.93   11.75
  -1  -1  -7  496.37   29.55
   1   1   7  472.03   29.23
  -1  -1  -7  487.74    9.93
  -1  -1  -8  554.31   21.25
  -1  -1  -8  592.70   17.12
   1   1   8  483.29   33.82
  -1  -1  -8  653.96   18.19
  -1  -1  -9  186.86   19.24
   1   1   9  152.74   20.87
  -1  -1  -9  209.32   19.94
  -1  -1 -10   53.92    8.37
  -1  -1 -10   68.76    4.50
  -1  -2  12  139.76    8.33
   1   2 -12  105.71    6.99
  -1  -2  12  135.51    8.80
  -1  -2  11  142.95   30.34
   1   2 -11  130.44   28.13
  -1  -2  11  167.01   35.50
  -1  -2  10  220.89    7.13
   1   2 -10  194.39    6.70
   1   2 -10  183.95    5.88
  -1  -2  10  188.53    6.03
   1   2  -9    9.59    2.70
   1   2  -9    7.81    2.67
   1   2  -9    9.13    3.06
   1   2  -9    8.41    2.84
  -1  -2   9    9.36    2.99
  -1  -2   9    9.39    3.74
   1   2  -8  265.98   30.78
   1   2  -8  242.54   28.41
   1   2  -8  216.22   26.14
   1   2  -8  231.27   26.89
  -1  -2   8  242.24   28.47
  -1  -2   8  200.35   38.29
  -1  -2   7   49.90    4.59
   1   2  -7   32.07    5.79
   1   2  -7   60.82    4.02
  -1  -2   7   58.70    4.86
  -1  -2   7   57.67    3.82
   1   2  -6  340.71   12.16
   1   2  -6  358.49    6.70
  -1  -2   6  326.49    8.78
   1   2  -5  582.49    8.87
   1   2  -5  598.44    9.19
  -1  -2   5  611.95    9.96
  -1  -2   5  616.75   10.15
  -1  -2   5  605.47    9.36
   1   2  -4 6278.20   34.09
   1   2  -4 6413.87   28.13
  -1  -2   4 6307.47   27.74
  -1  -2   4 6269.47   34.31
  -1  -2   4 6297.57   28.46
  -1  -2   1   80.20    4.49
   1   2  -1   88.68    4.73
   1   2  -1   92.81    4.42
   1   2  -1   85.39    4.00
  -1  -2   1   85.55    3.59
   1   2   0  649.66   10.38
   1   2   0  657.41    8.36
   1   2   0  648.85    9.00
  -1  -2   0  642.90    8.60
   1   2   1  657.65   10.43
   1   2   1  679.31    8.30
   1   2   1  696.18    9.48
  -1  -2  -1  662.13    8.50
  -1  -2  -1  662.85    8.99
   1   2   2   14.70    3.09
   1   2   2   16.25    2.63
  -1  -2  -2   14.96    4.34
   1   2   2   14.84    3.76
  -1  -2  -2   14.59    2.49
  -1  -2  -2   14.24    4.56
  -1  -2  -3   38.41    3.25
  -1  -2  -3   37.86    2.69
  -1  -2  -3   39.64    3.68
  -1  -2  -4 1157.43   37.33
   1   2   4 1192.07   38.64
  -1  -2  -4 1148.12   37.00
   1   2   5   11.23    3.80
  -1  -2  -5   10.45    3.42
  -1  -2  -5   10.38    3.33
  -1  -2  -5    9.53    3.03
   1   2   5   10.34    2.62
   1   2   5   10.92    3.30
  -1  -2  -5   10.47    3.26
  -1  -2  -6    0.97    4.75
   1   2   6    1.07    3.87
  -1  -2  -6    0.53    2.70
  -1  -2  -6    3.05    4.43
  -1  -2  -6    0.09    3.59
   1   2   6    0.33    2.01
   1   2   6    2.02    3.65
  -1  -2  -6   -0.47    3.50
  -1  -2  -7  717.60   23.23
   1   2   7  597.62   29.16
  -1  -2  -7  836.66   20.48
  -1  -2  -7  735.77   24.48
   1   2   7  692.71   15.13
   1   2   7  823.40   15.66
  -1  -2  -8   33.86    7.33
   1   2   8   43.17    5.93
  -1  -2  -8   45.90    6.34
   1   2   8   58.22    6.85
  -1  -2  -9   36.11    9.94
   1   2   9   23.15    7.43
  -1  -2  -9   36.27    4.68
   1   2   9   52.39    4.68
   1   3 -13    1.49    2.23
  -1  -3  13    2.50    2.36
   1   3 -12  357.49   25.08
   1   3 -12  381.40   25.02
  -1  -3  12  309.89   23.97
  -1  -3  11  364.80   76.64
   1   3 -11  300.80   69.06
   1   3 -11  337.04   70.82
  -1  -3  11  345.60   72.65
  -1  -3  10  352.66    8.93
   1   3 -10  244.72   30.77
   1   3 -10  325.49    8.83
  -1  -3  10  321.67   11.36
  -1  -3   9  102.96    4.41
   1   3  -9   93.84    5.00
   1   3  -9   96.29    3.95
   1   3  -9   96.11    4.83
  -1  -3   9   78.83    4.84
  -1  -3   8   22.95    3.60
   1   3  -8   23.54    3.91
   1   3  -8   16.58    4.17
   1   3  -8   23.25    4.43
  -1  -3   8   23.37    4.19
  -1  -3   8   23.65    4.43
  -1  -3   7  147.12   62.34
   1   3  -7  329.06   12.00
   1   3  -7  302.32   10.97
  -1  -3   7  325.53   11.84
   1   3  -6    9.26    2.63
   1   3  -6   10.06    3.50
  -1  -3   6   10.42    2.99
  -1  -3   6    8.76    3.31
   1   3  -5 1179.39   15.01
   1   3  -5 1231.28   15.21
  -1  -3   5 1203.52   15.29
  -1  -3   5 1163.29   16.81
  -1  -3   4  204.15    6.23
   1   3  -4  214.90    5.75
   1   3  -4  213.58    5.48
  -1  -3   4  207.25    5.41
  -1  -3   4  223.25    6.05
   1   3  -3 1664.91   20.02
   1   3  -3 1746.18   18.90
   1   3  -3 1707.77   18.48
  -1  -3   3 1738.02   19.43
  -1  -3   3 1703.87   20.70
  -1  -3   2  873.51   11.78
   1   3  -2  979.49   12.73
   1   3  -2  920.64   10.11
  -1  -3   2  866.82    9.72
   1   3  -1   29.27    2.13
   1   3  -1   48.94    3.74
   1   3  -1   47.62    3.53
  -1  -3   1   43.24    3.55
   1   3   0    2.06    3.31
   1   3   0    4.34    2.44
  -1  -3   0    2.30    4.15
  -1  -3   0    3.93    3.09
   1   3   1  322.58    8.31
   1   3   1  323.92    8.96
  -1  -3  -1  307.99    6.29
  -1  -3  -1  322.35    9.00
   1   3   2  336.44    8.76
  -1  -3  -2  324.52    9.18
   1   3   2  353.56    6.77
  -1  -3  -2  331.02    8.79
  -1  -3  -2  317.55    8.57
  -1  -3  -3    1.50    2.52
  -1  -3  -3    1.20    1.77
   1   3   3    2.28    2.52
   1   3   3    1.13    2.01
   1   3   3    2.09    3.52
  -1  -3  -3    2.37    3.72
  -1  -3  -4  319.32   37.15
  -1  -3  -4  316.80   36.57
   1   3   4  294.06   33.98
   1   3   4  327.00   37.76
   1   3   4  314.28   36.41
  -1  -3  -4  311.14   36.10
  -1  -3  -5 1325.72   40.38
  -1  -3  -5 1420.41   33.11
  -1  -3  -5 1421.94   33.79
   1   3   5 1310.39   35.81
   1   3   5 1425.73   33.10
   1   3   5 1357.11   42.43
  -1  -3  -5 1340.96   31.51
  -1  -3  -6 2060.34  138.63
   1   3   6 2278.07  150.55
  -1  -3  -6 2212.16  123.47
  -1  -3  -6 2062.00   41.78
   1   3   6 2104.29   35.53
   1   3   6 2176.01   80.99
  -1  -3  -7   13.24    4.42
   1   3   7   16.02    4.56
  -1  -3  -7   13.67    4.08
  -1  -3  -7   10.94    3.26
   1   3   7   16.92    3.06
   1   3   7   16.73    3.76
  -1  -3  -8   41.98   24.26
   1   3   8  113.03   14.14
  -1  -3  -8  127.69    9.42
   1   3   8  112.77   14.54
  -1  -4  13    5.90    3.33
   1   4 -13    4.59    3.18
  -1  -4  13    3.96    2.91
  -1  -4  12   52.24    7.88
   1   4 -12   37.39    6.20
   1   4 -12   56.80    7.63
  -1  -4  12   38.61    6.59
  -1  -4  11   14.95    3.99
   1   4 -11   14.35    2.66
   1   4 -11   15.00    4.42
  -1  -4  11   13.13    3.33
  -1  -4  10   13.69    3.12
   1   4 -10   10.99    3.64
   1   4 -10   10.56    4.40
  -1  -4  10    8.89    3.03
  -1  -4   9   21.87    3.43
   1   4  -9   21.40    4.00
   1   4  -9   22.88    2.96
   1   4  -9   23.50    4.59
  -1  -4   9   20.84    3.44
  -1  -4   9   22.38    2.87
  -1  -4   8  773.55  218.97
   1   4  -8 1281.57   27.18
   1   4  -8  984.25  150.72
   1   4  -8 1329.26   29.68
  -1  -4   8 1249.54   35.12
  -1  -4   8  957.41   73.61
  -1  -4   7   93.37   97.06
   1   4  -7  437.59   62.40
   1   4  -7  171.16   74.52
   1   4  -7  429.92   61.26
  -1  -4   7  445.02   63.57
  -1  -4   7  421.96   60.23
   1   4  -6   59.66    4.06
   1   4  -6   56.08    3.61
  -1  -4   6   59.76    4.42
  -1  -4   6   56.60    3.89
   1   4  -5   15.79    3.18
   1   4  -5   18.39    3.56
  -1  -4   5   19.60    3.09
  -1  -4   5   21.08    3.13
   1   4  -4  262.57    7.30
   1   4  -4  273.21    7.76
  -1  -4   4  279.30    7.93
  -1  -4   4  275.84    8.33
   1   4  -3  606.75    9.65
   1   4  -2 1609.31   17.95
  -1  -4   2 1613.80   18.39
   1   4  -1  770.68    9.79
  -1  -4   1  742.94   11.07
   1   4   0   35.58    3.55
  -1  -4   0   36.75    5.70
   1   4   1  179.49    7.40
  -1  -4  -1  187.62    7.76
  -1  -4  -2 1085.49  154.25
   1   4   2 1075.50  153.00
   1   4   2 1093.68  155.31
   1   4   2 1139.07  161.90
   1   4   3 1536.99   54.06
  -1  -4  -3 1517.95   43.08
  -1  -4  -3 1575.82   44.21
   1   4   3 1549.30   43.24
   1   4   3 1512.94   42.31
   1   4   3 1493.93   42.98
   1   4   4  326.70   13.59
  -1  -4  -4  314.23    7.88
   1   4   4  313.92    9.53
   1   4   4  318.47    7.70
   1   4   5    4.16    3.40
  -1  -4  -5    3.16    3.91
  -1  -4  -5    3.57    2.71
   1   4   5    3.44    3.77
   1   4   5    5.35    3.17
  -1  -4  -6  155.90   73.04
  -1  -4  -6  170.62   42.96
   1   4   6  249.59   52.46
   1   4   6  276.89   58.22
   1   4   7   62.00    6.35
  -1  -4  -7   57.91    8.54
   1   4   7   78.75    5.26
   1   4   7   81.22    5.36
  -1  -5  13    3.60    2.65
   1   5 -13    5.65    3.20
   1   5 -13    3.81    2.83
   1   5 -13    4.19    2.75
  -1  -5  12   55.12    7.76
   1   5 -12   45.60    6.21
   1   5 -12   21.47    4.20
   1   5 -12   43.14    6.44
  -1  -5  12   35.50    5.90
  -1  -5  11    0.01    3.42
   1   5 -11    1.43    3.43
   1   5 -11    0.21    3.29
   1   5 -11    1.79    3.61
  -1  -5  11    0.67    2.77
  -1  -5  10  122.40    7.47
   1   5 -10  143.44    8.06
   1   5 -10  141.18    7.80
   1   5 -10  143.60    8.28
  -1  -5  10  131.89    8.02
  -1  -5   9   61.72    6.56
   1   5  -9   85.85    5.28
   1   5  -9   77.25    4.46
   1   5  -9   82.55    5.20
  -1  -5   9   58.21    6.86
   1   5  -8  846.12   25.62
   1   5  -8  809.03   24.15
   1   5  -8  826.06   25.64
  -1  -5   8  778.52   24.19
  -1  -5   8  327.21  145.36
   1   5  -7  119.93   14.22
   1   5  -7  113.35   13.56
   1   5  -7  101.86   12.12
   1   5  -7  109.04   13.36
   1   5  -7   95.59   12.06
   1   5  -7  112.61   13.77
  -1  -5   7  114.32   13.98
  -1  -5   7  102.34   12.42
   1   5  -6   70.42   10.93
   1   5  -6   92.16   13.60
   1   5  -6   87.74   12.83
   1   5  -6   87.40   13.06
   1   5  -6   65.97   10.55
   1   5  -6   99.98   14.66
  -1  -5   6   88.14   13.16
   1   5  -5  124.26   25.49
   1   5  -5  214.25    8.86
   1   5  -5  192.56    7.25
   1   5  -5  192.48    7.60
   1   5  -5  178.51    6.86
  -1  -5   5  192.12    8.22
   1   5  -4   17.16    3.63
  -1  -5   4   19.15    3.33
  -1  -5   3  735.82   10.49
   1   5  -2  315.77   11.75
  -1  -5   2  289.14   11.39
   1   5  -1  118.78    5.56
   1   5  -1  119.25    5.91
   1   5  -1  105.94    4.73
  -1  -5   1  123.07    9.94
   1   5   0  149.15   21.62
   1   5   0  140.74   20.52
  -1  -5   0   71.34   10.98
   1   5   0  129.41   18.87
   1   5   0  141.46   20.42
  -1  -5   0  141.42   21.45
   1   5   1    3.66    4.37
   1   5   1    4.81    2.07
   1   5   1    5.24    3.03
  -1  -5  -1    3.31    2.69
   1   5   1    3.61    2.73
   1   5   2  511.50   13.64
   1   5   2  474.68   16.39
  -1  -5  -2  458.83   13.63
  -1  -5  -2  381.55   29.42
   1   5   2  469.70   11.93
   1   5   2  446.08   12.12
   1   5   3   41.34    5.31
   1   5   3   44.67    4.49
  -1  -5  -3   31.64    3.99
   1   5   3   37.59    3.59
   1   5   3   42.21    3.57
   1   5   4  203.23  136.54
   1   5   4  528.86   26.28
  -1  -5  -4  242.96   86.32
  -1  -5  -4  300.43   86.09
   1   5   4  552.23   24.45
   1   5   4  596.11   27.58
   1   5   5  106.67   14.02
  -1  -5  -5   31.16   21.00
  -1  -5  -5   51.75   20.53
   1   5   5  113.43   11.07
   1   5   5  104.57   10.94
   1   5   6   86.37   16.20
  -1  -5  -6   99.42   18.72
   1   5   6  157.71    8.71
   1   5   6   95.68   19.88
   1   6 -12   39.15    4.28
   1   6 -12   26.32    4.40
   1   6 -12   38.08    4.19
   1   6 -11    0.68    2.62
   1   6 -11    0.35    3.10
   1   6 -11    1.85    3.87
   1   6 -10  545.35   14.45
   1   6 -10  454.26   26.74
   1   6  -9  160.40    4.89
   1   6  -9   68.69   22.82
   1   6  -9  160.83    5.44
   1   6  -9  155.11    5.83
   1   6  -8   26.11    3.21
   1   6  -8   17.49    3.60
   1   6  -8   23.31    3.21
   1   6  -8   23.46    3.48
   1   6  -7  374.85   10.51
   1   6  -7  330.05    9.85
   1   6  -7  330.74   10.21
   1   6  -7  322.01    9.43
   1   6  -7  304.06    8.92
   1   6  -7  338.01    9.73
  -1  -6   7  321.82    9.81
   1   6  -6  620.51   25.29
   1   6  -6  669.55   20.58
   1   6  -6  610.49   27.39
   1   6  -6  653.72   20.01
   1   6  -6  640.41   17.18
  -1  -6   6  691.64   21.15
   1   6  -5   68.99    5.24
   1   6  -5   86.17    4.97
   1   6  -5   91.73    6.44
   1   6  -5   80.11    3.83
   1   6  -5   75.35    2.96
   1   6  -5   78.39    4.28
  -1  -6   5   81.37    4.45
   1   6  -4    5.07    3.35
   1   6  -4    5.88    3.36
   1   6  -4    6.09    2.11
   1   6  -4    6.27    1.92
   1   6  -4    5.86    2.39
   1   6  -3   31.63    4.56
   1   6  -3   27.42    4.21
   1   6  -3   29.78    4.11
  -1  -6   3   11.95   16.98
   1   6  -2  148.11    5.93
   1   6  -2  108.85   15.91
   1   6  -2  148.58    4.88
  -1  -6   2  158.78   18.36
  -1  -6   2  150.52    5.57
   1   6  -1  354.53   11.65
   1   6  -1  327.77   10.67
   1   6  -1  327.77   10.66
   1   6  -1  332.24   10.34
  -1  -6   1  357.76   16.73
  -1  -6   1  329.77   11.50
   1   6   0  743.55   18.52
   1   6   0  748.98   18.78
  -1  -6   0  722.68   18.06
   1   6   1  550.29   16.00
   1   6   1  554.93   31.22
   1   6   1  582.88   13.29
   1   6   2   94.73   48.91
   1   6   2  126.81   28.65
   1   6   3    9.13    6.55
   1   6   3   15.18    3.60
   1   6   3   17.79    4.53
  -1  -6  -4    8.60    8.20
   1   6   4   12.25    4.38
   1   6   4   20.25    3.89
  -1  -6  -5   26.93   52.90
   1   6   5  202.24   14.56
  -1  -6  -5   69.50   24.78
   1   6   5  240.96    9.00
   1   7 -12   64.63    3.87
   1   7 -11   19.93    3.65
   1   7 -11    8.79    3.16
   1   7 -10   71.45   15.64
   1   7 -10   51.30    6.65
   1   7 -10   67.93   15.12
   1   7  -9   55.97    4.02
   1   7  -9   45.28    4.11
   1   7  -9   52.22    3.95
   1   7  -8   16.15    4.23
   1   7  -8   13.49    4.55
   1   7  -8   13.37    4.10
   1   7  -7  429.40   10.94
   1   7  -7  382.80   17.61
   1   7  -7  423.91   11.05
   1   7  -6  433.68   10.08
   1   7  -6  455.50   11.52
   1   7  -6  397.81    9.00
   1   7  -5   85.38    5.61
   1   7  -5   71.07    5.27
   1   7  -5   74.68    3.85
   1   7  -5   74.59    4.28
   1   7  -4    0.85    2.92
   1   7  -4    0.67    3.08
   1   7  -4    0.68    2.65
  -1  -7   4    0.87    2.18
   1   7  -3   89.12    5.83
   1   7  -3   63.88    6.38
   1   7  -3   76.61    4.32
   1   7  -2 1004.81   23.14
   1   7  -2  636.50   62.73
   1   7  -2  879.69   19.73
   1   7  -1 1464.35   45.57
   1   7  -1 1454.08   26.52
   1   7   0  114.23   38.71
   1   7   0  179.58   23.79
   1   7   0  238.33   11.20
   1   7   1    5.90    4.89
   1   7   1    9.81    3.95
   1   7   2   86.84   68.29
   1   7   3  178.56   26.76
   1   7   3  254.60   18.89
   1   8 -11    7.21    3.16
   1   8 -11    6.91    2.88
   1   8 -10   46.25    6.63
   1   8 -10   60.26    8.19
   1   8  -9   26.33    4.20
   1   8  -9   17.31    4.56
   1   8  -9   25.43    3.38
   1   8  -8   70.82   16.16
   1   8  -8   31.18   11.07
   1   8  -8   83.42   17.97
   1   8  -7    0.44    3.09
   1   8  -7   -0.18    2.88
   1   8  -7    0.91    3.50
   1   8  -6   40.43    4.34
   1   8  -6   20.22    5.07
  -1  -8   6   36.06    2.83
   1   8  -5   16.58    3.43
   1   8  -5   11.02    4.23
   1   8  -5   24.65    2.47
  -1  -8   5   20.02    2.87
   1   8  -4   11.79    4.16
   1   8  -4    6.69    4.54
   1   8  -4   13.33    2.48
   1   8  -3   11.02    3.46
   1   8  -3   -0.61    4.33
   1   8  -3   11.54    3.64
   1   8  -2   36.45    6.10
   1   8  -2   32.92    4.88
   1   8  -2   32.24    4.41
   1   8  -1   49.91    8.06
   1   8  -1   67.81    8.23
   1   8  -1   78.66    8.19
   1   8   0   68.85   20.69
   1   8   0   41.40   17.86
   1   8   0  111.62    7.79
   1   8   1    2.30    3.86
   1   8   1    5.86    2.63
   1   8   2   93.27    5.95
   1   9 -10   23.23    6.80
   1   9  -9  334.61   19.46
  -1  -9   9  302.69   16.71
   1   9  -8  463.88   66.78
  -1  -9   8  633.88   31.88
   1   9  -7  247.35   18.27
  -1  -9   7  235.81   16.17
   1   9  -6   45.01    7.00
   1   9  -5  610.66   58.33
   1   9  -4  506.58  116.27
   1   9  -4  732.48   45.02
   1   9  -3  117.75   12.33
   1   9  -3  138.39   12.34
   1   9  -3  137.04    9.52
   1   9  -2  174.48   21.18
   1   9  -2  151.10   23.85
   1   9  -2  210.13   11.15
   1   9  -1  241.55   48.35
   1   9  -1  105.53   45.97
   1   9  -1  270.48    9.63
   1  10  -8    0.74    2.75
   1  10  -7    0.26    3.42
   1  10  -7    2.52    3.17
   1  10  -6   30.88   10.58
   1  10  -6   43.27   12.95
   1  10  -4   31.47    3.94
  -2  11  -3  201.49   23.15
  -2  11  -4   20.49   10.53
  -2  11  -5    3.26    4.15
  -2  11  -6   95.00   19.66
  -2  11  -6   77.86   29.89
  -2  11  -7  302.49   60.27
  -2  11  -8  317.52   53.59
  -2  10   0   17.26   14.15
  -2  10  -1    2.50    3.35
  -2  10  -3    6.18    4.42
  -2  10  -3    0.73    5.41
  -2  10  -4  117.07   22.85
  -2  10  -4  114.54   37.30
  -2  10  -5   28.60   25.75
  -2  10  -5  113.59   13.96
  -2  10  -6   -0.23    2.48
  -2  10  -6    0.08    4.17
  -2  10  -7  162.60   17.35
  -2  10  -8  163.57   17.67
  -2  10  -8  144.41   12.57
  -2  10  -9  317.53   19.06
  -2  10 -10    0.53    3.29
  -2   9   2   59.85   30.99
  -2   9   2  236.23    8.67
  -2   9   1  243.14   59.64
  -2   9   1  368.05   23.72
  -2   9   0  232.56   62.20
  -2   9  -2  204.45   11.13
  -2   9  -3   90.10    5.46
  -2   9  -4    2.37    3.56
  -2   9  -5   -4.32    5.48
  -2   9  -5    0.60    3.87
  -2   9  -6  397.26   18.00
  -2   9  -7 1605.10   71.68
  -2   9  -9   26.38    3.38
  -2   9 -10  121.84   12.08
  -2   9 -10  147.11   10.29
  -2   9 -11   58.86    6.18
  -2   9 -11   64.29    3.87
  -2   8   4  107.48   37.82
  -2   8   4  305.57   11.10
  -2   8   3  108.98   35.55
  -2   8   3  165.73   58.47
  -2   8   3  336.82   21.83
  -2   8   2   -0.05    2.73
  -2   8   2    2.11    3.80
  -2   8   2    3.16    2.57
  -2   8   1  206.70   16.98
  -2   8   1  208.03    9.90
  -2   8   0  177.60    6.99
  -2   8   0  160.81    5.06
  -2   8  -2 1890.80   42.49
  -2   8  -3  251.20    8.23
  -2   8  -3  259.60    9.57
  -2   8  -3  287.31   10.23
  -2   8  -4  796.44   20.03
  -2   8  -4  834.37   22.99
  -2   8  -4  846.00   31.99
   2  -8   4  777.95   19.60
  -2   8  -5  132.80    6.17
   2  -8   5  125.10    6.44
  -2   8  -6  117.57    6.43
  -2   8  -8  487.07   10.11
  -2   8  -8  474.38    9.90
  -2   8  -9  194.22    7.16
  -2   8  -9  185.20    6.03
  -2   8 -10    5.69    4.00
  -2   8 -10    5.31    3.52
  -2   8 -11  411.46   26.41
  -2   8 -11  517.34   26.27
  -2   8 -12   78.92    5.23
  -2   7   6    8.46    4.43
  -2   7   6   12.55    4.12
  -2   7   5  143.48   20.35
  -2   7   5  194.20   11.06
   2  -7  -4   -0.56    3.33
  -2   7   4    2.90    3.59
  -2   7   4    4.96    3.47
  -2   7   3    5.41    4.42
  -2   7   3    2.75    3.66
  -2   7   3    5.44    2.78
  -2   7   2  344.87   12.25
  -2   7   2  309.15   39.45
  -2   7   2  367.64    8.78
  -2   7   1   64.17    6.13
  -2   7   1   75.74    4.76
  -2   7   1   65.42    3.78
  -2   7   0  409.95   13.03
  -2   7   0  437.39   13.84
  -2   7   0  415.14   18.83
  -2   7   0  394.57   12.14
  -2   7  -1  738.74   16.51
  -2   7  -1  855.42   19.54
  -2   7  -1  814.75   18.12
  -2   7  -2    2.95    2.75
  -2   7  -2    3.90    3.31
  -2   7  -2    3.10    2.43
   2  -7   2    3.76    3.12
  -2   7  -3    3.76    2.65
  -2   7  -3    3.01    2.50
  -2   7  -3    5.07    3.27
   2  -7   3    5.46    4.08
  -2   7  -4  257.02   29.88
  -2   7  -4  265.25   30.75
  -2   7  -4  278.46   32.24
   2  -7   4  259.82   30.39
  -2   7  -5   18.27    4.03
  -2   7  -5   15.94    3.30
   2  -7   5   17.70    5.13
  -2   7  -6  104.30    4.53
  -2   7  -6   73.86    3.63
  -2   7  -7  194.67    5.93
  -2   7  -7  207.18    7.56
  -2   7  -7  204.17    8.57
  -2   7  -7  202.77    6.77
   2  -7   7  198.55    7.30
  -2   7  -8   -0.95    3.65
  -2   7  -8    1.21    3.82
  -2   7  -8    0.20    2.99
  -2   7  -8    0.63    3.65
  -2   7  -9  243.13    6.86
  -2   7  -9  238.26    7.15
  -2   7  -9  239.26    7.23
  -2   7  -9  232.85    6.82
  -2   7 -10   68.30    3.29
  -2   7 -10   72.56    8.09
  -2   7 -10   68.62    3.77
  -2   7 -11  352.85   23.54
  -2   7 -11  331.08   21.90
  -2   7 -12    1.58    2.88
  -2   7 -12    2.30    3.72
  -2   6   7    3.33    3.55
  -2   6   7    2.28    2.63
   2  -6  -7    4.36    3.10
   2  -6  -6   -0.63    2.87
   2  -6  -6    1.94    3.03
  -2   6   5   55.43    5.00
   2  -6  -5   26.08   13.20
  -2   6   5   63.32    4.16
   2  -6  -4   99.23   85.70
  -2   6   4  459.85   26.29
  -2   6   4  246.28   70.22
  -2   6   4  448.83    8.73
  -2   6   3    0.91    3.64
  -2   6   3    2.03    3.95
  -2   6   3    0.82    2.70
  -2   6   3    1.72    3.59
  -2   6   2   19.21    3.06
  -2   6   2   14.33    3.98
  -2   6   2   16.19    3.91
  -2   6   2   13.29    3.25
  -2   6   1   17.75    3.90
  -2   6   1   13.63    3.40
  -2   6   1   13.56    3.47
  -2   6   1   12.85    4.08
  -2   6   1   12.52    2.50
   2  -6  -1   14.70    3.60
  -2   6   0    4.76    2.97
   2  -6   0    6.40    2.47
  -2   6  -1  157.21    6.64
   2  -6   1  150.88    6.40
   2  -6   1  149.77    6.73
  -2   6  -2  865.84   10.15
   2  -6   2  855.56   11.56
   2  -6   2  845.09   11.05
  -2   6  -3   38.25    3.56
   2  -6   3   41.29    4.23
  -2   6  -4 1422.54   16.00
  -2   6  -4 1355.81   14.48
   2  -6   4 1364.34   14.44
  -2   6  -5   64.69    3.31
  -2   6  -5   68.51    4.19
  -2   6  -5   45.87    9.12
   2  -6   5   67.29    3.99
  -2   6  -6    0.82    2.73
  -2   6  -6    0.13    2.62
  -2   6  -6    0.63    2.77
  -2   6  -6    0.44    1.76
  -2   6  -6    0.40    2.70
   2  -6   6   -0.05    3.47
   2  -6   6   -0.55    4.24
  -2   6  -7   42.51    3.50
  -2   6  -7   43.33    3.76
  -2   6  -7   46.35    3.94
  -2   6  -7   39.08    3.23
  -2   6  -7   41.04    3.43
   2  -6   7   42.57    3.53
   2  -6   7   41.61    3.53
  -2   6  -8  136.80    5.20
  -2   6  -8  133.36    5.35
  -2   6  -8  146.53    5.63
  -2   6  -8  132.03    4.68
  -2   6  -8  136.79    4.86
   2  -6   8  132.07    6.21
   2  -6   8  129.85    5.33
  -2   6  -9  296.01   11.88
  -2   6  -9  302.01   11.84
  -2   6  -9  325.45    8.87
  -2   6  -9  319.15    9.17
   2  -6  10   19.33    3.48
  -2   6 -10   25.21    3.26
  -2   6 -10   15.94    2.48
  -2   6 -10   24.25    3.69
  -2   6 -10   23.03    3.65
  -2   6 -10   22.28    3.38
   2  -6  11  119.61   11.78
  -2   6 -11  132.30   13.02
  -2   6 -11  121.19   12.06
   2  -6  12   62.66    4.10
  -2   6 -12   67.82    4.54
  -2   5   8   32.08    6.44
   2  -5  -8   38.38    5.03
  -2   5   8   45.66    3.76
   2  -5  -7   -0.35    3.27
  -2   5   7   -1.06    4.83
   2  -5  -7    0.48    3.64
  -2   5   7    1.53    2.79
  -2   5   6 1112.46   99.53
   2  -5  -6 1184.82   51.64
   2  -5  -5  404.28  211.89
  -2   5   5  931.61   19.99
  -2   5   4  209.83    7.41
  -2   5   4  116.38   34.08
   2  -5  -4  171.64    6.76
  -2   5   4  170.09    5.66
  -2   5   4  171.27    6.55
   2  -5  -4  163.47    6.48
  -2   5   3 1716.87   33.98
  -2   5   3 1223.97  287.31
   2  -5  -3 1597.37   32.50
  -2   5   3 1616.92   33.19
  -2   5   3 1569.12   43.09
   2  -5  -3 1643.30   34.07
  -2   5   2 1789.23   55.93
  -2   5   2 1805.13   56.97
  -2   5   2 1107.54  334.02
  -2   5   2 1693.32   52.91
  -2   5   2 1731.66   54.67
   2  -5  -2 1673.16   53.72
  -2   5   1 1966.63   17.53
   2  -5  -1 1844.22   19.03
   2  -5   0  990.97   10.96
   2  -5   0 1046.02   12.09
  -2   5  -1 6320.18   55.90
   2  -5   1 6867.12   69.53
   2  -5   1 6260.68   56.07
  -2   5  -2 1909.09   20.10
   2  -5   2 1903.43   21.26
   2  -5   2 1909.19   21.79
  -2   5  -3  699.55   10.32
  -2   5  -3  662.70    9.94
   2  -5   3  674.10   10.08
  -2   5  -4 3416.04   27.53
  -2   5  -4 3298.71   25.25
   2  -5   4 3270.12   26.08
  -2   5  -5   26.75    3.08
   2  -5   5   25.19    3.01
  -2   5  -6  408.50   14.45
  -2   5  -6  342.59   12.27
   2  -5   6  403.78   14.22
  -2   5  -7   92.68   13.49
  -2   5  -7  101.72   15.25
  -2   5  -7   89.56   13.29
  -2   5  -7   92.41   13.46
  -2   5  -7   99.67   14.65
   2  -5   7   93.40   13.99
  -2   5  -8  697.62   32.62
  -2   5  -8  659.15   27.15
  -2   5  -8  681.68   20.55
  -2   5  -8  715.34   21.44
  -2   5  -8  713.75   21.86
  -2   5  -8  730.95   21.31
  -2   5  -8  719.72   21.36
   2  -5   8  678.16   21.29
  -2   5  -9  385.51   11.28
  -2   5  -9  393.91    9.79
  -2   5  -9  353.75   10.72
  -2   5  -9  393.56   10.38
  -2   5  -9  381.66   10.17
   2  -5  10   30.83    3.48
  -2   5 -10   32.66    3.38
  -2   5 -10   31.98    3.59
  -2   5 -10   32.48    3.99
   2  -5  11    1.57    3.13
  -2   5 -11    3.35    3.10
  -2   5 -11    1.62    2.88
   2  -5  12  195.86   11.44
  -2   5 -12  222.41    8.95
  -2   5 -12  207.95    8.36
  -2   4   9   99.21   38.25
  -2   4   9  280.61   39.17
   2  -4  -9  229.57   31.46
  -2   4   9  343.38   12.26
  -2   4   8   44.24   18.82
   2  -4  -8   71.75    8.16
  -2   4   8   84.24    8.35
   2  -4  -7   -0.38    2.58
  -2   4   7    0.98    3.52
   2  -4  -7   -0.35    3.01
  -2   4   7    1.53    3.04
   2  -4  -6   75.70   14.27
  -2   4   6  162.81    7.34
   2  -4  -6  136.39    5.71
   2  -4  -5    3.63    2.67
  -2   4   5    5.57    2.50
   2  -4  -5    3.86    3.40
  -2   4   5    4.38    3.30
   2  -4  -5    5.01    2.75
   2  -4  -4  221.14   31.86
   2  -4  -4  219.41   31.64
  -2   4   4  208.03   29.78
  -2   4   4  230.00   33.00
   2  -4  -4  222.13   31.90
   2  -4  -3    9.47    3.35
  -2   4   3   10.71    2.67
   2  -4  -3   10.64    2.57
  -2   4   2  535.52    8.16
  -2   4   2  496.61    7.59
   2  -4  -2  492.76    8.05
  -2   4   1  151.91    4.29
   2  -4  -1  149.56    4.84
  -2   4   0  692.93   10.37
  -2   4   0  685.60    9.86
   2  -4   0  691.57   10.25
  -2   4   0  666.08    9.61
   2  -4   0  668.15    9.87
  -2   4  -1   34.16    3.10
  -2   4  -1   34.76    3.00
   2  -4   2  493.78    9.44
  -2   4  -2  497.77    8.02
  -2   4  -2  517.68    8.36
  -2   4  -2  505.17    8.33
  -2   4  -3   97.11    4.24
  -2   4  -3   91.34    4.70
   2  -4   3   89.05    3.82
   2  -4   3   92.08    4.51
  -2   4  -3   88.18    3.86
  -2   4  -4   29.42    4.10
   2  -4   4   24.40    2.78
   2  -4   4   29.32    4.20
  -2   4  -5  837.65   10.47
   2  -4   5  825.42   10.73
  -2   4  -5  838.12   10.59
  -2   4  -6  909.17   11.27
  -2   4  -6  914.60   10.58
  -2   4  -7  468.38   69.95
  -2   4  -7  470.09   66.89
  -2   4  -7  554.28   78.95
  -2   4  -7  579.74   82.44
  -2   4  -7  563.88   80.16
  -2   4  -8  226.87    8.65
  -2   4  -8  243.46    8.15
  -2   4  -8  218.74    7.36
  -2   4  -8  225.13    8.78
  -2   4  -8  245.67    7.96
  -2   4  -8  240.11    8.13
  -2   4  -8  248.07    8.33
   2  -4   8  240.26    9.19
  -2   4  -9  728.38   17.75
  -2   4  -9  748.25   17.02
  -2   4  -9  817.37   19.04
  -2   4  -9  782.97   17.42
  -2   4 -10   42.69    3.95
  -2   4 -10   43.34    3.34
  -2   4 -10   47.77    3.70
  -2   4 -10   47.70    3.50
  -2   4 -10   48.53    4.50
   2  -4  11   94.91   10.00
  -2   4 -11   87.31    8.84
  -2   4 -11   81.27    8.30
  -2   4 -11   88.34    9.30
   2  -4  12  482.51   19.50
  -2   4 -12  452.27   15.49
  -2   4 -12  453.90   23.76
  -2   4 -12  476.04   16.64
  -2   3  10  150.05   18.22
   2  -3 -10  165.43   16.41
  -2   3  10  183.19   10.43
   2  -3  -9    0.07    3.87
  -2   3   9    1.21    3.42
   2  -3  -9    0.83    3.53
  -2   3   9    0.90    3.31
  -2   3   9    1.21    3.27
   2  -3  -8   27.83   29.46
  -2   3   8   71.81   15.23
   2  -3  -8   95.73   10.51
  -2   3   8  105.87    4.84
  -2   3   8   99.49    4.36
  -2   3   8   96.40    9.73
   2  -3  -7 1295.21  164.69
  -2   3   7 2020.13  186.47
   2  -3  -7 1964.89  161.10
  -2   3   7 1942.27   40.13
  -2   3   7 1899.47   46.05
   2  -3  -6 1209.59   37.22
  -2   3   6 1240.11  117.86
   2  -3  -6 1268.29   36.64
   2  -3  -6 1251.67   38.93
  -2   3   6 1260.20   35.89
  -2   3   6 1280.92   36.47
  -2   3   6 1192.79   35.19
   2  -3  -6 1216.69   35.21
   2  -3  -5  187.55   27.36
  -2   3   5  193.62   27.99
   2  -3  -5  221.27   31.81
   2  -3  -5  221.15   31.91
  -2   3   5  220.46   31.80
   2  -3  -5  219.45   31.63
   2  -3  -4   44.17    4.41
   2  -3  -4   44.54    4.15
  -2   3   4   45.70    4.08
   2  -3  -4   46.57    3.61
   2  -3  -3 1258.12   15.87
   2  -3  -3 1228.98   15.04
  -2   3   3 1250.33   14.92
  -2   3   3 1208.77   14.48
   2  -3  -3 1233.31   14.96
  -2   3   2 2149.08   23.39
  -2   3   2 2108.38   21.81
  -2   3   2 2084.14   21.79
   2  -3  -2 2128.01   22.21
  -2   3   1 1618.10   13.85
   2  -3  -1 1608.09   13.88
  -2   3   1 1607.51   13.83
   2  -3  -1 1581.14   13.84
   2  -3   0  496.03    8.95
  -2   3   0  476.76    7.36
  -2   3   0  471.51    7.46
  -2   3   0  454.82    7.04
   2  -3   0  452.38    7.25
   2  -3   1  532.46    9.21
  -2   3  -1  545.46    8.13
  -2   3  -1  516.70    7.76
  -2   3  -1  529.90    7.72
  -2   3  -1  535.24    7.83
  -2   3  -1  513.73    7.40
  -2   3  -2    4.89    2.88
  -2   3  -2    4.67    3.39
  -2   3  -2    5.19    3.56
  -2   3  -2    5.02    3.38
  -2   3  -3  688.66    9.03
  -2   3  -3  656.19    8.58
   2  -3   3  655.78    9.40
   2  -3   3  665.36    9.03
  -2   3  -4   40.52    4.03
   2  -3   4   39.39    3.27
  -2   3  -4   41.31    3.77
  -2   3  -5  649.93    9.87
   2  -3   5  651.96   10.24
   2  -3   5  660.39   10.34
  -2   3  -5  661.80    9.66
  -2   3  -6    5.97    3.22
   2  -3   6    5.87    3.03
  -2   3  -6    5.05    2.60
  -2   3  -7 1324.57  188.42
  -2   3  -7 1086.62  184.49
  -2   3  -7 1319.56  187.36
  -2   3  -7 1315.79  186.70
  -2   3  -7 1267.96  180.69
   2  -3   7 1369.79  194.50
  -2   3  -7 1296.50  184.09
  -2   3  -8 1036.98   30.31
  -2   3  -8 1117.26   32.12
  -2   3  -8  970.53   29.78
  -2   3  -8 1046.45   30.31
  -2   3  -8 1034.15   30.18
  -2   3  -8 1010.47   30.43
   2  -3   8 1012.29   29.79
  -2   3  -9   31.35    3.52
  -2   3  -9   35.38    4.00
  -2   3  -9   24.08    3.04
  -2   3  -9   31.76    3.42
  -2   3  -9   29.92    4.56
   2  -3   9   29.20    3.52
  -2   3 -10  646.33   17.56
  -2   3 -10  668.32   15.85
  -2   3 -10  638.43   16.89
  -2   3 -10  631.03   15.81
   2  -3  10  655.25   16.76
   2  -3  10  675.50   17.61
  -2   3 -11  473.76   33.04
  -2   3 -11  541.63   42.27
  -2   3 -11  536.35   34.64
   2  -3  11  468.59   36.18
   2  -3  12  248.76   35.03
  -2   3 -12  289.23   15.44
  -2   3 -12  251.22   17.71
  -2   3 -12  302.17   16.00
   2  -2 -10  304.74  116.89
  -2   2  10  308.22   20.65
   2  -2 -10  518.58   32.68
  -2   2  10  542.03   27.19
  -2   2  10  522.93   30.06
   2  -2  -9   71.93   47.15
   2  -2  -9  152.61   32.46
  -2   2   9  153.98   32.66
  -2   2   9  153.90   34.33
   2  -2  -8   56.28    6.20
  -2   2   8   63.40    8.44
   2  -2  -8   76.18    7.64
  -2   2   8   73.17    7.25
  -2   2   8   71.49    6.80
  -2   2   8   79.75    7.66
   2  -2  -7  844.85   20.76
  -2   2   7  802.33   52.91
   2  -2  -7  838.29   20.83
   2  -2  -7  843.26   20.61
  -2   2   7  816.04   19.66
  -2   2   7  875.61   20.88
  -2   2   7  801.89   20.20
   2  -2  -7  820.48   20.48
   2  -2  -6  276.63   39.98
  -2   2   6  216.56   37.93
   2  -2  -6  315.48   45.10
   2  -2  -6  181.21   58.59
  -2   2   6  298.84   42.60
  -2   2   6  251.64   36.08
   2  -2  -6  303.90   43.57
   2  -2  -5   51.32    3.81
   2  -2  -5   52.70    4.21
  -2   2   5   49.08    3.60
   2  -2  -5   49.01    3.44
   2  -2  -4  110.20    5.23
   2  -2  -4  108.38    4.68
  -2   2   4  104.93    4.34
  -2   2   4  108.36    4.89
   2  -2  -4  106.74    4.54
  -2   2   3  275.86    7.19
   2  -2  -3  278.52    7.02
   2  -2  -3  277.86    6.46
  -2   2   3  269.03    5.45
  -2   2   3  282.92    6.74
   2  -2  -3  275.68    5.82
  -2   2   2 2076.60   18.62
   2  -2  -2 2235.39   18.01
  -2   2   2 2140.60   15.94
  -2   2   2 2182.26   16.56
   2  -2  -2 2159.84   16.50
  -2   2   1  672.12   10.33
   2  -2  -1  766.92   11.43
  -2   2   1  721.86    8.96
  -2   2   1  685.64    8.67
  -2   2   1  684.25    8.28
  -2   2   1  724.16    9.30
   2  -2  -1  704.10    9.10
   2  -2   1 1448.75   15.73
  -2   2  -1 1512.51   13.32
  -2   2  -1 1433.38   12.48
  -2   2  -1 1456.95   13.07
  -2   2  -1 1474.78   12.83
  -2   2  -2 4020.82   24.81
   2  -2   2 4168.67   25.02
  -2   2  -2 4197.00   28.94
  -2   2  -3 2658.36   19.55
   2  -2   3 2707.78   19.20
   2  -2   3 2675.63   18.92
  -2   2  -3 2723.66   20.11
  -2   2  -3 2680.14   18.79
  -2   2  -4  267.72    6.04
   2  -2   4  267.87    5.75
   2  -2   4  269.42    6.50
  -2   2  -4  270.66    5.78
  -2   2  -4  264.58    5.83
  -2   2  -5  411.48    6.99
   2  -2   5  414.15    7.08
   2  -2   5  403.57    7.16
  -2   2  -5  403.20    8.37
   2  -2   5  407.80    7.32
  -2   2  -5  404.04    7.43
  -2   2  -6    6.69    3.31
   2  -2   6    7.49    3.22
   2  -2   6   10.30    4.34
  -2   2  -6    6.38    2.61
   2  -2   6    6.44    2.06
  -2   2  -6    7.37    2.54
  -2   2  -7 1643.80   63.30
  -2   2  -7 1644.65   37.13
  -2   2  -7 1840.54   39.38
  -2   2  -7 1762.11   35.62
  -2   2  -7 1096.96  213.90
  -2   2  -7 1664.53   33.87
   2  -2   7 1624.42   35.61
   2  -2   7 1127.07  237.82
  -2   2  -7 1668.90   34.28
  -2   2  -8   42.22    3.69
  -2   2  -8   37.71    3.39
  -2   2  -8   39.84    3.40
  -2   2  -8   33.17    3.30
  -2   2  -8   38.21    3.63
   2  -2   8   38.61    4.38
   2  -2   8   36.44    3.39
  -2   2  -9  122.33    4.58
  -2   2  -9  120.12    4.58
  -2   2  -9  114.80    4.79
  -2   2  -9  108.10    4.16
   2  -2   9  114.02    4.34
  -2   2 -10   21.05    4.86
  -2   2 -10   20.96    4.06
  -2   2 -10   19.56    3.61
  -2   2 -10   19.98    3.43
   2  -2  10   17.46    3.74
   2  -2  10   18.65    4.13
   2  -2  11   23.52    4.08
  -2   2 -11   21.27    3.42
  -2   2 -11   24.05    3.82
  -2   2 -11   20.31    3.56
   2  -2  11   22.26    3.56
   2  -1 -11   13.02    3.96
  -2   1  11   18.26    3.74
   2  -1 -11   18.40    3.25
  -2   1  11   22.38    3.04
   2  -1 -10   52.69   12.95
   2  -1 -10   71.84    7.64
  -2   1  10   67.25    7.67
  -2   1  10   64.83    8.20
  -2   1   9  311.87   15.77
   2  -1  -9  303.96   17.63
   2  -1  -9  361.66   17.15
  -2   1   9  338.50   15.57
  -2   1   9  319.78   23.66
  -2   1   8  135.80    6.26
   2  -1  -8  144.21    6.98
   2  -1  -8  136.15    6.33
  -2   1   8  125.26    6.04
  -2   1   8  140.47    6.70
  -2   1   8  148.85    6.95
  -2   1   7  450.63   51.88
   2  -1  -7  380.65   44.06
   2  -1  -7  426.78   49.35
   2  -1  -7  353.26   53.33
  -2   1   7  410.67   47.27
  -2   1   7  432.67   50.06
  -2   1   7  409.25   47.20
  -2   1   7  374.85   43.31
   2  -1  -7  418.53   48.49
   2  -1  -6  120.64    5.56
   2  -1  -6  118.20    5.48
  -2   1   6  126.32    6.18
  -2   1   6  121.01    6.29
   2  -1  -6  115.02    6.14
   2  -1  -5  621.14    9.29
   2  -1  -5  632.61    8.78
  -2   1   5  627.59    8.78
  -2   1   5  633.13    8.83
   2  -1  -5  616.92    8.83
   2  -1  -4   92.03    5.07
   2  -1  -4   92.91    3.83
  -2   1   4  100.30    4.13
   2  -1  -4   95.47    3.89
  -2   1   3   30.69    3.39
   2  -1  -3   28.64    6.16
   2  -1  -3   31.93    3.17
  -2   1   3   28.78    4.45
   2  -1  -3   28.59    3.77
  -2   1   2  562.16    9.78
   2  -1  -2  640.41   10.97
   2  -1  -2  585.27    9.22
   2  -1  -2  584.16    8.14
  -2   1   2  588.84    8.27
  -2   1   2  596.62    8.27
  -2   1   2  594.75    8.30
   2  -1  -2  601.28    8.50
  -2   1   1 3627.00   21.89
  -2   1   0   14.84    1.16
   2  -1   0   54.95    7.13
   2  -1   2 8282.05   29.05
  -2   1  -3  986.04   10.68
   2  -1   3 1008.90   10.89
   2  -1   3 1030.73   11.03
  -2   1  -3 1052.65   10.77
  -2   1  -3 1037.65   11.41
  -2   1  -4 1054.03   13.37
   2  -1   4 1083.06   14.26
   2  -1   4 1089.67   13.98
  -2   1  -4 1080.35   15.68
  -2   1  -4 1110.37   14.05
  -2   1  -5  515.09    8.16
   2  -1   5  519.99    9.34
   2  -1   5  511.40    8.39
  -2   1  -5  504.63    8.39
  -2   1  -5  515.82    8.07
  -2   1  -6   46.87    3.18
  -2   1  -6   48.37    2.84
  -2   1  -6   50.81    3.61
  -2   1  -6   50.24    3.00
  -2   1  -6   44.40    3.38
   2  -1   6   54.78    4.13
  -2   1  -6   48.44    3.21
   2  -1   6   51.10    3.89
  -2   1  -6   49.29    3.22
   2  -1   6   29.16   11.19
   2  -1   6   49.78    3.44
  -2   1  -6   52.97    4.71
  -2   1  -7  202.95    5.96
  -2   1  -7  203.06    5.95
  -2   1  -7  182.84    5.87
  -2   1  -7  191.61    6.03
  -2   1  -7  206.57    6.08
   2  -1   7  185.26    6.03
  -2   1  -7  186.40    5.26
   2  -1   7  176.37   17.40
   2  -1   7  196.04    6.53
  -2   1  -7  194.66    6.60
  -2   1  -8   27.05    3.61
  -2   1  -8   28.55    2.92
  -2   1  -8   26.67    2.99
  -2   1  -8   24.29    2.73
  -2   1  -8   25.00    3.59
   2  -1   8   25.52    2.99
  -2   1  -9   50.67    3.73
  -2   1  -9   47.20    3.66
  -2   1  -9   52.67    3.26
  -2   1  -9   51.11    3.81
   2  -1   9   53.07    4.33
  -2   1 -10    9.52    2.54
  -2   1 -10    6.95    3.03
  -2   1 -10    7.88    2.50
   2  -1  10    9.19    3.56
   2  -1  11   55.61    3.86
  -2   1 -11   51.95    3.95
  -2   1 -11   60.23    4.12
   2  -1  11   46.48    6.27
   2   0 -12    9.16    3.83
   2   0 -12   12.70    4.34
  -2   0  12   13.51    4.38
  -2   0  11  110.77    8.33
   2   0 -11   79.86   11.78
  -2   0  11   96.72    9.03
   2   0 -11  112.65    8.48
  -2   0  11  120.70    9.05
  -2   0  10   87.22    8.60
   2   0 -10   97.35    4.89
  -2   0  10   95.12    5.31
   2   0 -10  100.81    5.33
  -2   0  10   94.99    3.95
  -2   0  10  106.99    5.58
  -2   0   9  211.72   17.62
   2   0  -9  216.05   18.02
   2   0  -9  202.77    7.93
  -2   0   9  207.81   17.27
  -2   0   9  193.82   11.92
  -2   0   8    7.10    3.20
   2   0  -8    5.65    2.93
   2   0  -8    6.18    3.51
   2   0  -8    6.50    2.39
  -2   0   8    5.84    2.83
  -2   0   8    9.56    3.73
  -2   0   8    7.38    3.09
  -2   0   8    6.09    3.64
  -2   0   7  372.77   54.37
   2   0  -7  447.50   63.90
   2   0  -7  399.35   57.03
   2   0  -7  275.38   48.70
  -2   0   7  363.44   51.87
  -2   0   7  409.78   58.46
  -2   0   7  415.22   59.13
  -2   0   7  443.63   63.26
  -2   0   7  401.41   57.36
   2   0  -6  731.88    9.69
   2   0  -6  746.07   10.04
  -2   0   6  720.42    9.96
  -2   0   6  758.26   10.26
   2   0  -5  241.52    6.12
   2   0  -5  235.81    5.40
  -2   0   5  244.82    5.66
  -2   0   5  267.63    6.39
   2   0  -4  568.14    9.23
   2   0  -4  567.37    8.88
  -2   0   4  585.32    9.57
  -2   0   4  592.62    9.19
  -2   0   3  840.38   11.75
   2   0  -3  914.41   12.27
   2   0  -3  869.65   10.83
   2   0  -3  876.92    9.86
  -2   0   3  866.32   11.35
  -2   0   3  877.41    9.86
  -2   0   2 9999.00   37.63
   2   0  -1  736.98    9.91
   2   0  -1  730.73    9.99
  -2   0   1  711.52    8.91
  -2   0   1  747.26    9.65
   2   0   1  463.43    9.69
   2   0   1  443.68    6.86
  -2   0  -1  451.41    7.25
   2   0   1  472.37    8.09
  -2   0  -1  466.57    7.12
  -2   0  -1  471.77    7.72
   2   0   2    2.47    1.81
  -2   0  -2    2.80    2.65
   2   0   2    3.16    2.65
  -2   0  -2    3.96    3.65
  -2   0  -2    3.17    3.31
  -2   0  -3   92.85    4.16
   2   0   3   94.94    4.70
   2   0   3  102.04    4.29
  -2   0  -3  103.34    4.41
  -2   0  -3  101.91    4.56
  -2   0  -4  106.02    4.85
   2   0   4  111.81    4.72
   2   0   4  111.04    4.75
  -2   0  -4  109.41    4.34
  -2   0  -4  112.88    5.14
  -2   0  -5 2371.22   74.55
  -2   0  -5 2365.93   76.79
  -2   0  -5 2396.99   77.89
  -2   0  -6  152.86   17.99
  -2   0  -6  177.50   20.71
  -2   0  -6  164.58   19.51
  -2   0  -6  185.11   21.66
  -2   0  -6  173.99   20.33
   2   0   6  165.87   19.76
  -2   0  -6  160.28   18.69
   2   0   6  117.83   43.20
   2   0   6  159.51   18.92
  -2   0  -6  170.48   20.25
  -2   0  -7  173.49    6.23
  -2   0  -7  182.56    6.14
  -2   0  -7  162.20    5.87
  -2   0  -7  174.51    6.05
  -2   0  -7  177.59    6.00
  -2   0  -7  160.83    5.65
   2   0   7  174.69    5.93
   2   0   7  168.70    6.73
  -2   0  -7  163.21    6.12
  -2   0  -8    4.67    4.34
  -2   0  -8    3.43    2.58
   2   0   8    4.10    2.41
  -2   0  -8    4.00    3.47
  -2   0  -8    3.81    3.48
  -2   0  -8    2.61    2.92
   2   0   8    4.06    3.13
  -2   0  -9  153.60   32.89
  -2   0  -9  175.04   37.72
  -2   0  -9  163.29   34.55
  -2   0  -9  158.24   33.43
   2   0   9  198.01   41.76
   2   0  10  120.10    7.50
  -2   0 -10   98.64    7.63
  -2   0 -10  102.64    6.46
   2   0  10   81.97    9.19
  -2  -1  12    3.55    3.03
   2   1 -12    3.60    3.08
   2   1 -12    3.76    3.08
  -2  -1  11   20.87    3.43
   2   1 -11   22.90    3.95
   2   1 -11   16.24    4.03
  -2  -1  10   10.59    3.81
   2   1 -10    8.95    2.93
  -2  -1  10   10.19    3.17
   2   1 -10    9.26    3.06
  -2  -1  10   10.51    3.47
  -2  -1   9  126.36    6.25
   2   1  -9  114.37    5.49
  -2  -1   9  107.34    6.93
   2   1  -9  115.67    6.59
  -2  -1   9  108.47    5.09
  -2  -1   8   33.81    2.78
   2   1  -8   34.97    2.95
   2   1  -8   30.69    3.76
   2   1  -8   20.27    3.60
  -2  -1   8   27.49    2.90
  -2  -1   8   28.55    3.73
  -2  -1   8   28.20    3.68
  -2  -1   7   87.06    4.53
   2   1  -7   81.83    4.71
   2   1  -7   91.21    5.23
  -2  -1   7   84.18    3.90
  -2  -1   7   91.49    4.86
  -2  -1   7   76.32   10.86
  -2  -1   7   92.16    4.63
   2   1  -6    7.54    3.43
   2   1  -6    6.60    2.43
  -2  -1   6   10.50    3.12
  -2  -1   6    7.26    2.43
   2   1  -5 7118.03   65.30
   2   1  -5 7132.30   64.95
  -2  -1   5 7275.28   65.55
   2   1  -4    2.23    5.23
   2   1  -4    2.96    3.77
   2   1  -4    3.53    2.09
  -2  -1   4   10.33    4.16
  -2  -1   4   31.84    5.62
  -2  -1   4    2.84    3.51
  -2  -1   3    1.47    3.43
   2   1  -3    1.67    4.71
   2   1  -3    8.27    4.66
   2   1  -3    2.05    2.18
   2   1  -3    2.66    2.44
  -2  -1   3    3.16    3.40
  -2  -1   3    1.70    4.38
  -2  -1   3    3.06    3.63
  -2  -1   2 1201.29   13.99
   2   1  -2 1213.86   13.92
   2   1  -2 1138.44   11.16
   2   1  -2 1207.06   12.05
  -2  -1   2 1201.28   11.74
  -2  -1   2 1212.87   12.64
  -2  -1   1   15.49    3.70
   2   1  -1   16.49    4.59
   2   1  -1   15.90    3.23
   2   1  -1   18.32    3.34
  -2  -1   1   17.62    2.77
  -2  -1   1   19.77    5.82
   2   1   0  332.95    8.39
   2   1   0  317.56    5.95
   2   1   0  318.81    6.60
  -2  -1   0  323.70    6.21
   2   1   1  499.20    9.69
   2   1   1  508.16    7.86
  -2  -1  -1  510.08    8.33
   2   1   1  503.19    8.02
  -2  -1  -1  488.78    7.32
  -2  -1  -1  493.89    7.29
  -2  -1  -1  509.02    7.97
   2   1   3  433.38    8.96
  -2  -1  -3  436.96    7.46
  -2  -1  -3  451.62    7.24
  -2  -1  -3  453.29    7.86
  -2  -1  -4  361.84    7.60
   2   1   4  372.22    8.02
  -2  -1  -4  371.10    6.81
  -2  -1  -4  377.29    7.41
  -2  -1  -5  324.82   54.73
  -2  -1  -5  456.87   65.15
  -2  -1  -5  459.97   65.41
  -2  -1  -5  477.06   67.86
   2   1   5  468.64   66.84
  -2  -1  -5  422.30   60.07
   2   1   5  482.89   68.92
  -2  -1  -5  439.06   62.60
  -2  -1  -6   69.29   13.88
  -2  -1  -6   94.47    4.43
  -2  -1  -6   83.08    4.13
  -2  -1  -6   90.67    4.45
  -2  -1  -6   96.71    4.30
  -2  -1  -6   80.39    3.39
   2   1   6   83.64    4.32
  -2  -1  -6   80.94    4.38
  -2  -1  -7    3.27    2.71
  -2  -1  -7    3.69    2.95
  -2  -1  -7    5.52    3.89
  -2  -1  -7    4.47    3.35
  -2  -1  -7    4.97    3.20
  -2  -1  -8   19.86    3.78
  -2  -1  -8   23.61    4.16
   2   1   8   24.51    3.60
  -2  -1  -8   23.70    3.91
  -2  -1  -8   21.36    3.61
  -2  -1  -8   23.19    3.03
  -2  -1  -9  154.34   35.93
   2   1   9  109.44   35.97
  -2  -1  -9  268.65   18.38
  -2  -1 -10  112.52   16.21
  -2  -2  12  274.27   21.10
   2   2 -12  209.08   12.22
   2   2 -12  193.49   11.20
  -2  -2  12  177.18   14.19
  -2  -2  11   60.33    8.16
   2   2 -11   70.81   15.56
   2   2 -11   66.49   15.09
  -2  -2  11   77.39   16.79
  -2  -2  10    4.60    2.92
   2   2 -10    3.77    2.90
   2   2 -10    3.27    2.47
  -2  -2  10    4.37    3.70
   2   2  -9   46.76    3.56
   2   2  -9   39.26    3.68
  -2  -2   9   38.74    3.44
   2   2  -9   39.81    3.56
  -2  -2   9   45.61    4.02
   2   2  -8  454.31   10.90
   2   2  -8  433.36   10.75
   2   2  -8  290.94   56.13
  -2  -2   8  427.90   11.14
   2   2  -8  424.21   10.83
  -2  -2   8  401.38   41.74
  -2  -2   7    0.98    1.97
   2   2  -7    0.67    2.40
   2   2  -7    1.38    2.43
   2   2  -7    1.10    2.20
  -2  -2   7    1.93    1.80
  -2  -2   7    1.67    2.86
  -2  -2   7    1.15    3.26
  -2  -2   7    1.00    3.12
   2   2  -6 1919.15   17.93
   2   2  -6 1912.63   19.67
  -2  -2   6 1908.87   19.42
  -2  -2   6 1876.79   22.62
   2   2  -5 7702.62  148.87
   2   2  -5 7646.32   77.88
  -2  -2   5 7768.68  151.15
  -2  -2   5 7602.19   70.48
  -2  -2   5 7882.50  152.45
   2   2  -4  300.81    7.30
   2   2  -4  292.30    6.47
   2   2  -4  293.35    5.74
  -2  -2   4  299.36    6.26
  -2  -2   4  291.60    6.89
  -2  -2   4  294.84    6.10
  -2  -2   3   56.00    3.68
   2   2  -3   64.36    5.45
   2   2  -3   55.23    4.36
   2   2  -3   58.29    3.04
  -2  -2   3   64.77    3.72
  -2  -2   3   62.13    5.83
  -2  -2   2  518.57    9.27
   2   2  -2  523.06    9.26
   2   2  -2  550.28    7.67
   2   2  -2  530.02    7.64
  -2  -2   2  520.67    7.53
  -2  -2   2  532.16   10.88
   2   2  -1 1408.92   20.55
   2   2  -1 1442.19   16.41
   2   2  -1 1386.21   16.08
  -2  -2   1 1337.46   16.63
   2   2   0    8.57    3.70
   2   2   0    8.22    2.41
   2   2   0   11.03    3.72
  -2  -2   0    4.08    4.03
  -2  -2   0    8.40    3.01
   2   2   1    8.09    3.52
   2   2   1    8.65    2.39
  -2  -2  -1   12.03    3.72
   2   2   1    8.46    4.16
  -2  -2  -1    9.27    3.89
  -2  -2  -1    8.35    4.33
  -2  -2  -2    0.89    2.14
   2   2   2    2.39    3.96
  -2  -2  -2    1.37    2.40
  -2  -2  -2    0.91    3.93
  -2  -2  -3    3.90    2.86
   2   2   3    7.50    4.03
  -2  -2  -3    4.96    2.70
   2   2   3    2.52    1.90
  -2  -2  -3    5.01    4.08
   2   2   4 1272.16  145.88
  -2  -2  -4  931.47  107.09
  -2  -2  -4 1007.60  115.50
  -2  -2  -4  896.75  102.80
   2   2   4  863.86   99.18
  -2  -2  -4  865.79   99.32
   2   2   4  933.63  107.04
   2   2   4  942.92  108.37
  -2  -2  -4  960.75  110.34
   2   2   5  220.42    6.56
  -2  -2  -5  207.02    6.21
  -2  -2  -5  219.84    7.54
   2   2   5  204.81    6.23
  -2  -2  -5  192.23    5.65
   2   2   5  203.87    9.85
  -2  -2  -5  214.22    7.55
  -2  -2  -6   28.85    3.89
  -2  -2  -6   28.39    3.00
  -2  -2  -6   24.85    2.50
   2   2   6   30.83    4.30
  -2  -2  -7   -0.27    3.74
   2   2   7    4.42    4.00
  -2  -2  -7    3.60    2.43
   2   2   7    1.23    3.85
  -2  -2  -8   53.67   12.79
   2   2   8   63.99    7.64
  -2  -2  -8   64.90    5.61
   2   2   8   81.74    6.42
  -2  -2  -9   64.04   11.69
   2   2   9   55.05    7.49
   2   2   9   77.51    6.50
   2   3 -13    8.24    3.29
  -2  -3  13    7.63    3.33
   2   3 -12    5.32    3.31
   2   3 -12    3.93    3.25
  -2  -3  12    6.47    3.36
  -2  -3  11   37.13    4.66
   2   3 -11   42.15    5.48
   2   3 -11   32.88    5.03
  -2  -3  11   42.02    5.13
  -2  -3  10  374.84    9.78
   2   3 -10  397.24   10.12
   2   3 -10  388.73   10.85
   2   3 -10  372.64    9.43
  -2  -3  10  373.94    9.85
  -2  -3   9   24.12    3.85
   2   3  -9   23.82    3.05
   2   3  -9   23.58    3.27
   2   3  -9   25.07    3.80
  -2  -3   9   31.88    3.38
  -2  -3   8   13.85    2.53
   2   3  -8   14.87    2.60
   2   3  -8   13.59    2.56
   2   3  -8    6.29    3.42
   2   3  -8   14.31    2.22
   2   3  -8   14.49    2.69
  -2  -3   8   13.68    3.13
  -2  -3   8   15.73    2.74
  -2  -3   7  903.58  534.13
   2   3  -7 2219.82  315.63
   2   3  -7 2373.72  336.94
   2   3  -7 2369.94  336.27
   2   3  -7 2305.12  327.60
   2   3  -7 2308.18  327.69
  -2  -3   7 2204.81  316.58
  -2  -3   7 1769.84  257.21
   2   3  -6 6214.06  193.88
   2   3  -6 5883.74   48.45
  -2  -3   6 6103.72  190.97
  -2  -3   6 6069.77   58.78
   2   3  -5 5248.19   42.94
   2   3  -5 4959.62   38.08
  -2  -3   5 5223.70   40.18
  -2  -3   5 4977.42   62.45
   2   3  -4 1289.11   16.94
   2   3  -4 1321.03   13.96
   2   3  -4 1293.07   15.47
  -2  -3   4 1330.61   13.93
  -2  -3   4 1321.09   14.56
   2   3  -3  128.65    5.50
  -2  -3   3  110.30    4.10
  -2  -3   3  112.47    8.50
   2   3  -2   60.71    4.41
   2   3  -2   54.93    3.73
  -2  -3   2   50.64   18.60
   2   3  -1 2943.39   28.99
   2   3  -1 2789.40   33.13
  -2  -3   1 2862.08   30.02
   2   3   0  550.50    8.49
   2   3   0  531.19    8.24
  -2  -3   0  540.96    9.34
  -2  -3   0  556.35    8.86
   2   3   1  286.33    8.10
  -2  -3  -1  278.95    8.11
   2   3   1  281.38    7.86
  -2  -3  -1  284.01    8.46
  -2  -3  -1  290.50    8.44
   2   3   2  927.15   30.01
  -2  -3  -2  924.60   30.56
  -2  -3  -2  905.57   28.99
   2   3   2  972.54   32.48
   2   3   2  917.93   29.32
  -2  -3  -2  912.80   29.06
  -2  -3  -2  935.49   30.43
   2   3   2  703.67   69.46
  -2  -3  -2  976.71   31.75
   2   3   3  925.73   19.56
  -2  -3  -3  840.77   23.22
   2   3   3  883.13   21.02
   2   3   3  821.91   17.79
   2   3   3  862.70   23.79
  -2  -3  -3  840.59   18.72
   2   3   4   36.30    4.53
  -2  -3  -4   39.87    3.80
  -2  -3  -4   38.44    3.29
   2   3   4   34.88    2.60
  -2  -3  -4   40.17    3.21
   2   3   4   44.98    4.08
   2   3   4   38.07    3.99
  -2  -3  -4   41.94    3.68
  -2  -3  -5   26.18    3.72
  -2  -3  -5   24.30    3.98
   2   3   5   24.90    3.44
   2   3   5   27.30    3.78
  -2  -3  -6   92.67   29.24
  -2  -3  -6  178.89   15.69
  -2  -3  -6  129.45    9.48
   2   3   6  170.95    5.60
   2   3   6  196.49    6.57
  -2  -3  -7   21.12    6.26
   2   3   7   31.67    5.62
  -2  -3  -7   29.83    5.48
  -2  -3  -7   26.50    4.77
   2   3   7   38.32    5.36
  -2  -3  -8    6.14    3.60
   2   3   8    7.73    3.60
   2   3   8    9.40    3.87
  -2  -4  13  125.52    7.79
   2   4 -13  117.08    7.10
  -2  -4  13   98.97    7.40
  -2  -4  12   21.95    3.57
   2   4 -12   23.78    4.30
   2   4 -12   17.46    3.44
  -2  -4  12   20.59    3.74
  -2  -4  11   16.98    4.64
   2   4 -11   14.29    4.32
   2   4 -11   11.44    3.42
   2   4 -11   11.57    4.17
  -2  -4  11   12.94    4.30
  -2  -4  10  146.31    8.50
   2   4 -10  160.38    8.22
   2   4 -10  140.30    7.58
   2   4 -10  160.97    8.43
  -2  -4  10  161.83    9.14
  -2  -4   9  193.92    8.32
   2   4  -9  205.30    8.33
   2   4  -9  200.44    8.30
  -2  -4   9  195.79    8.07
  -2  -4   8   12.10    3.33
   2   4  -8   11.74    2.73
   2   4  -8    9.18    2.43
   2   4  -8   10.49    3.82
  -2  -4   8    8.66    3.65
  -2  -4   8    9.03    2.66
  -2  -4   7   16.76    4.67
   2   4  -7   25.45    4.43
   2   4  -7   56.23    7.58
   2   4  -7   26.71    3.80
   2   4  -7   29.02    4.63
  -2  -4   7   24.45    4.11
  -2  -4   7   10.51    7.33
   2   4  -6  145.22   21.19
   2   4  -6  153.93   22.45
   2   4  -6  128.86   18.64
   2   4  -6  132.29   19.28
  -2  -4   6  132.47   19.28
  -2  -4   6  118.66   18.64
  -2  -4   6   50.55   29.27
   2   4  -5   37.12    4.16
   2   4  -5   35.29    3.23
  -2  -4   5   31.60    6.98
   2   4  -4  617.21    8.78
  -2  -4   4  604.53   14.97
   2   4  -3  248.03    7.64
  -2  -4   3  222.75   27.55
   2   4  -2    5.93    3.70
   2   4  -1  207.52    8.54
  -2  -4   1  200.68   12.94
  -2  -4   1  192.94    8.23
   2   4   0   62.21    4.26
   2   4   0   67.27    4.72
  -2  -4   0   58.00    3.57
   2   4   0   64.43    4.24
   2   4   0   61.33    3.76
  -2  -4   0   55.74    3.61
  -2  -4   0   64.68    4.29
   2   4   0   37.12   10.76
  -2  -4   0   63.67    4.89
   2   4   1   12.95    4.42
  -2  -4  -1   11.53    3.14
   2   4   1   10.54    2.57
  -2  -4  -1   10.06    2.84
  -2  -4  -1   10.47    3.81
   2   4   1   10.63    3.13
  -2  -4  -1   10.67    4.24
   2   4   2  203.50    8.22
  -2  -4  -2  187.07    6.91
   2   4   2  178.79    6.27
  -2  -4  -2  161.62    8.44
   2   4   2  186.26    6.85
   2   4   2  179.23    6.96
  -2  -4  -2  180.22    7.55
  -2  -4  -3 3616.66   70.34
   2   4   3 3750.17   64.91
  -2  -4  -3 3495.35   60.20
   2   4   3 3602.68   67.51
   2   4   4  247.21   44.77
   2   4   4  364.92    9.96
  -2  -4  -4  272.58   24.19
   2   4   4  366.61    8.37
   2   4   4  363.34    8.39
  -2  -4  -5  273.17   72.63
   2   4   5  354.95   75.48
  -2  -4  -5  199.88   57.91
   2   4   5  305.55   64.14
   2   4   5  335.17   71.64
  -2  -4  -6  134.30   47.96
   2   4   6  158.54   13.32
  -2  -4  -6  169.66   38.19
   2   4   6  231.06   15.23
   2   4   6  233.98   16.69
  -2  -4  -7  102.76   40.84
   2   4   7  291.28   15.44
  -2  -5  12   33.79    4.11
   2   5 -12   32.67    3.96
   2   5 -12   35.12    4.45
  -2  -5  12   33.74    4.33
  -2  -5  11   99.29   10.11
   2   5 -11  104.25   10.17
   2   5 -11  101.42   10.04
  -2  -5  11   58.37    6.30
  -2  -5  10  160.16    7.68
   2   5 -10  177.33    6.30
   2   5 -10  181.19    6.23
  -2  -5  10  174.12    6.76
  -2  -5   9   26.06    3.44
   2   5  -9   31.52    4.32
   2   5  -9   28.33    5.11
  -2  -5   9   25.21    3.80
   2   5  -8  825.82   17.50
   2   5  -8  841.19   17.05
  -2  -5   8  839.06   23.50
   2   5  -7   57.00    3.64
   2   5  -7   58.01    4.58
   2   5  -7   58.16    3.74
  -2  -5   7   50.24   18.79
  -2  -5   7   65.56    5.35
   2   5  -6    7.37    3.13
   2   5  -6   10.09    2.87
   2   5  -6    8.73    2.40
   2   5  -6    9.78    2.83
  -2  -5   6  -17.86   22.54
  -2  -5   6    5.20    2.70
   2   5  -5   17.40    3.93
   2   5  -5   16.92    3.60
   2   5  -5   14.82    3.29
   2   5  -5   14.53    3.98
  -2  -5   5  -15.44   25.65
  -2  -5   5    6.33    3.98
   2   5  -4  434.22   73.22
   2   5  -4  550.81   78.36
   2   5  -4  527.74   75.07
  -2  -5   4  532.07   87.15
  -2  -5   4  240.45   96.89
   2   5  -3    5.63    2.75
   2   5  -3    5.75    2.84
  -2  -5   3    4.41    2.44
   2   5  -3    4.16    2.05
  -2  -5   3    1.59    1.97
   2   5  -2   32.42    5.14
   2   5  -2   32.37    5.20
  -2  -5   2   25.15    3.85
   2   5  -2   30.10    4.70
  -2  -5   2   29.72    4.41
  -2  -5   2   46.60   19.26
  -2  -5   2   19.28    3.16
  -2  -5   2   30.74    5.80
   2   5  -1  227.72    6.86
   2   5  -1  230.93    7.40
  -2  -5   1  199.77    6.21
   2   5  -1  214.14    6.16
  -2  -5   1  217.43    6.06
  -2  -5   1  204.27   11.15
   2   5  -1  171.63   12.21
  -2  -5   1  209.98    7.03
   2   5   0 3098.23  116.63
   2   5   0 2899.92   82.52
  -2  -5   0 2783.16  119.40
  -2  -5   0 2932.83   82.79
  -2  -5   0 2995.14   68.16
   2   5   0 2929.02  103.40
  -2  -5   0 3082.57   69.97
   2   5   1  625.19   14.16
   2   5   1  587.59   14.56
  -2  -5  -1  564.97   13.29
   2   5   1  596.98   12.13
  -2  -5  -1  580.29   12.12
   2   5   1  612.15   12.72
   2   5   2  765.02  154.18
   2   5   2  938.55   18.05
   2   5   3   27.00   11.95
   2   5   3   33.27    4.76
  -2  -5  -3   20.33    5.91
   2   5   3   30.12    2.93
   2   5   3   30.42    3.68
   2   5   4    9.57    3.98
  -2  -5  -4    7.58    4.47
   2   5   4   15.98    3.82
   2   5   4   18.60    3.40
  -2  -5  -5   37.84   13.93
   2   5   5   73.85    6.34
  -2  -5  -5   36.55   13.32
   2   5   5   66.97    4.76
   2   5   5   74.34    5.16
   2   6 -12   51.41   13.28
   2   6 -12   50.45    4.43
   2   6 -11   25.04    5.27
  -2  -6  11   20.89    4.04
   2   6 -10    4.02    4.76
  -2  -6   9   25.99    3.57
   2   6  -8  104.16    5.19
   2   6  -8  114.77    5.67
  -2  -6   8   58.53    6.40
   2   6  -7  158.05    7.07
   2   6  -7  140.36    5.53
   2   6  -7  149.35    7.38
   2   6  -6  454.53    9.86
   2   6  -6  421.83    9.27
   2   6  -6  447.40   10.21
  -2  -6   6  316.45   23.36
   2   6  -5  427.79   11.06
   2   6  -5  412.16   11.41
  -2  -6   5  346.50   11.58
   2   6  -5  407.17   10.83
   2   6  -5  412.13   11.19
  -2  -6   5  402.82   30.19
  -2  -6   5  249.93   39.10
   2   6  -4  158.43    5.80
  -2  -6   4  126.13    5.11
   2   6  -4  144.54    5.00
  -2  -6   4  154.28    5.18
  -2  -6   4   63.05   19.86
   2   6  -3   81.36    8.45
   2   6  -3   96.20    5.43
  -2  -6   3   79.49    3.60
   2   6  -3   93.50    4.38
  -2  -6   3   88.47    3.66
  -2  -6   3  101.39   28.75
  -2  -6   3   61.68    8.07
  -2  -6   3   90.37    4.77
   2   6  -2  239.84   32.06
  -2  -6   2  277.60    7.56
   2   6  -2  306.92    7.84
  -2  -6   2  303.77    7.23
   2   6  -1   39.06    4.79
  -2  -6   1   31.02    3.51
   2   6  -1   34.41    3.83
  -2  -6   1   34.26    3.25
   2   6  -1   35.45    3.70
   2   6   0  359.72   11.15
  -2  -6   0  208.75   20.55
   2   6   0  274.88   17.58
   2   6   1  946.53  131.62
  -2  -6  -1  748.25  165.38
   2   6   1 1264.74   55.89
   2   6   1 1234.09   54.39
   2   6   2   91.61   32.79
   2   6   2   89.80   20.69
  -2  -6  -2   44.42   13.75
   2   6   2  112.83   23.97
   2   6   2   77.81   19.85
   2   6   3   10.45   13.41
   2   6   3   46.59    7.68
  -2  -6  -3   15.44    7.25
   2   6   3   52.16    6.61
   2   6   3   42.51    7.60
  -2  -6  -4   10.72    6.74
   2   6   4   24.89    5.01
   2   6   4   35.15    3.78
   2   7 -12   26.41    3.63
   2   7  -9  261.19   54.95
   2   7  -8   83.05    4.37
   2   7  -7   37.78    2.84
   2   7  -7   42.94    4.83
   2   7  -6    6.70    3.29
   2   7  -6    6.65    3.36
   2   7  -5   37.12    4.86
  -2  -7   5   36.06    4.62
   2   7  -4  490.42    9.70
  -2  -7   4  469.93    9.79
   2   7  -3  263.67   12.51
  -2  -7   3  244.00   11.67
   2   7  -2 1798.77   16.98
  -2  -7   2 1698.18   73.68
   2   7  -1   51.31    3.85
   2   7   0   46.71    3.21
   2   7   2   31.59    3.90
   2   8 -10   62.25    4.93
   2   8  -9   12.17    3.26
  -2  -8   8    1.04    3.00
  -2  -8   7   19.51    3.03
   2   8  -6   34.30    2.73
  -2  -8   6   33.82    3.81
   2   8  -5  344.09   72.22
  -2  -8   5  350.87   73.62
   2   8  -4  144.47   13.49
  -2  -8   4  141.71   13.42
   2   8  -3    5.58    3.51
   2   8  -2    8.58    3.99
   2   8  -2    9.27    3.64
   2   8  -1    0.26    2.91
   2   8  -1    0.80    2.60
   2   8   0  135.22    5.95
   2   9  -9   66.88    6.29
  -2  -9   9   69.70    4.72
   2   9  -8    5.83    2.99
  -2  -9   8    4.98    2.40
   2   9  -7   24.68    4.49
  -2  -9   7   18.94    2.95
   2   9  -6   51.48   13.97
   2   9  -5   52.72    8.10
   2   9  -5   48.35    4.02
   2   9  -4  452.82   24.22
   2   9  -4  465.56   32.15
   2   9  -4  448.31   14.92
   2   9  -3  244.51   24.56
   2   9  -3  134.01   56.34
   2   9  -3  359.37   18.59
  -3  11  -2  117.73   30.14
  -3  11  -3  116.29   31.80
  -3  11  -4  196.80   17.32
  -3  11  -5  257.37   23.91
  -3  11  -5  346.10   22.12
  -3  11  -6    2.40    4.32
  -3  11  -7    0.81    3.06
  -3  11  -8    0.29    3.29
  -3  11  -9   37.71    8.74
  -3  10   1    1.29    3.26
  -3  10   0    3.78    4.51
  -3  10  -1   -0.78    3.70
  -3  10  -2    1.43    4.25
  -3  10  -2    8.66    6.91
  -3  10  -3   25.38    5.20
  -3  10  -3   16.22    4.73
  -3  10  -4  105.98   23.09
  -3  10  -4   70.96   21.68
  -3  10  -5  775.39  162.82
  -3  10  -5  786.53  169.85
  -3  10  -5  620.69  131.49
  -3  10  -6  227.94   48.15
  -3  10  -6  181.29   38.36
  -3  10  -7    3.61    3.96
  -3  10  -7    1.27    3.12
  -3  10  -8  121.07    8.60
  -3  10  -8  123.89    9.42
  -3  10  -9  365.85   20.01
  -3  10 -10  264.02   10.45
  -3  10 -10  251.22    9.87
  -3   9   3   77.73   15.61
  -3   9   3   22.32   31.64
   3  -9  -3  101.86   31.16
  -3   9   2    0.29    2.70
  -3   9   2   -1.17    3.80
  -3   9   1   53.47   11.06
  -3   9  -1   14.10    4.29
  -3   9  -1   22.04    7.92
  -3   9  -2  234.37   71.98
  -3   9  -2  879.90   48.14
  -3   9  -3   74.99    7.50
  -3   9  -3   57.48    9.65
  -3   9  -4 1836.06   34.03
  -3   9  -4 1743.29   48.41
  -3   9  -4 1951.73   38.98
  -3   9  -5  109.87    5.62
  -3   9  -5   97.30    5.75
  -3   9  -6  268.77   12.52
  -3   9  -6  264.76   17.82
  -3   9  -7   19.63    3.31
  -3   9  -7   19.22    3.10
  -3   9  -8    4.08    3.53
  -3   9  -9    9.56    3.77
  -3   9  -9   14.63    4.42
  -3   9 -10   34.67    5.20
  -3   9 -10   35.10    4.75
  -3   9 -11  239.63    9.27
  -3   9 -11  242.77   19.80
   3  -8  -5   22.89    7.72
  -3   8   5   38.16    3.52
  -3   8   4  305.05   42.91
  -3   8   4   74.97   63.28
   3  -8  -4  198.73   56.76
  -3   8   4  354.52   18.30
  -3   8   3  239.50   40.08
  -3   8   3   97.36  100.88
  -3   8   3  372.13   33.70
  -3   8   2  176.15   20.79
  -3   8   2   90.61   55.89
  -3   8   2  246.50    7.03
  -3   8   1    9.26    3.51
  -3   8   1   10.41    4.16
  -3   8   0  731.07   18.53
  -3   8  -1  903.36   18.95
  -3   8  -1  833.78   16.92
  -3   8  -2  153.31    5.78
  -3   8  -2  167.06    5.48
  -3   8  -2  181.30    6.57
  -3   8  -3  485.06   13.06
  -3   8  -3  513.29   13.20
  -3   8  -3  525.38   13.46
  -3   8  -4 2581.88   60.90
  -3   8  -4 2654.24   62.80
  -3   8  -4 2689.32   61.16
   3  -8   4 2431.72   55.13
  -3   8  -5  521.07   13.39
  -3   8  -5  511.57   13.39
   3  -8   5  522.21   14.15
  -3   8  -6  216.71    8.23
  -3   8  -6  265.22    7.04
  -3   8  -7  356.76    8.76
  -3   8  -7  375.39    9.95
  -3   8  -8  421.32   19.47
  -3   8  -8  437.03   20.09
  -3   8  -8  420.15   20.75
  -3   8  -9  138.82    5.82
  -3   8  -9  144.22    6.00
  -3   8  -9  141.47    5.13
  -3   8  -9  130.09    5.16
  -3   8 -10    1.16    2.90
  -3   8 -10    3.33    3.47
  -3   8 -10    0.46    2.83
  -3   8 -10    0.00    3.53
  -3   8 -11    3.25    2.65
  -3   8 -11    2.71    2.88
  -3   8 -11    3.30    3.23
  -3   8 -12   45.10    9.94
  -3   8 -12  121.74    7.45
   3  -7  -6   18.48    6.73
  -3   7   6   30.68    3.52
  -3   7   5    0.07    3.14
   3  -7  -5    0.47    3.22
  -3   7   5    1.10    2.95
  -3   7   4   10.02    4.20
  -3   7   4    9.70    4.51
  -3   7   4   13.72    3.00
  -3   7   3   12.81    4.56
  -3   7   3   15.78    4.64
  -3   7   3   13.72    2.61
  -3   7   2  249.19   15.65
  -3   7   2  303.97    9.01
  -3   7   2  300.13    7.77
  -3   7   1  318.51    8.73
  -3   7   1  277.19    8.36
  -3   7   1  325.80    9.61
  -3   7   1  300.16    8.88
  -3   7   0 1092.01   31.17
  -3   7   0  987.33   28.73
  -3   7   0  970.48  108.62
  -3   7   0 1077.78   30.92
  -3   7  -1  649.93   74.79
  -3   7  -1  680.10   78.06
  -3   7  -1  773.20   88.78
  -3   7  -2  153.52   18.30
  -3   7  -2  159.38   18.69
  -3   7  -2  152.64   19.43
  -3   7  -3    6.64    3.27
  -3   7  -3    7.80    2.18
  -3   7  -3    7.26    2.69
  -3   7  -3    8.40    3.59
   3  -7   3    6.63    3.39
  -3   7  -4  150.56   17.66
  -3   7  -4  192.31   22.58
   3  -7   4  152.43   18.23
  -3   7  -5  416.62    9.42
  -3   7  -5  417.59   11.89
   3  -7   5  409.77   10.47
  -3   7  -6  186.47    6.46
  -3   7  -6  188.06    7.30
  -3   7  -6  201.68    7.28
  -3   7  -6  161.61    9.63
   3  -7   6  184.43    7.38
   3  -7   6  181.80    7.12
  -3   7  -7    8.14    3.44
  -3   7  -7    8.73    3.68
  -3   7  -7    7.94    2.35
   3  -7   7    8.15    3.72
   3  -7   7    6.90    3.03
  -3   7  -8   77.45    4.00
  -3   7  -8   82.08    4.81
  -3   7  -8   76.77    4.86
  -3   7  -8   75.46    4.63
  -3   7  -9  821.92   36.98
  -3   7  -9  831.76   36.65
  -3   7  -9  844.91   38.79
  -3   7  -9  805.87   35.67
  -3   7 -10  357.26   75.02
  -3   7 -10  266.95   56.20
  -3   7 -10  385.00   80.81
  -3   7 -10  361.11   75.86
  -3   7 -11  117.93    8.45
  -3   7 -11  140.39   13.43
  -3   7 -11  150.42   10.68
  -3   7 -12   24.68    3.42
  -3   7 -12   27.79    3.85
  -3   6   7  187.26   23.69
  -3   6   7  174.07   13.43
   3  -6  -7  162.86   26.20
  -3   6   7  233.98    8.62
  -3   6   6   45.54    6.29
   3  -6  -6   49.48    6.70
  -3   6   6   56.83    6.35
  -3   6   5   54.22   11.20
   3  -6  -5   98.05    6.14
  -3   6   5  116.27    4.40
  -3   6   4  407.07   12.49
  -3   6   4  332.84   17.75
  -3   6   4  338.84    8.87
  -3   6   3  420.99   10.38
   3  -6  -3  423.52   10.25
  -3   6   3  412.72   10.07
   3  -6  -3  402.62    9.82
  -3   6   3  395.76    8.57
  -3   6   2   12.21    3.82
  -3   6   2    8.22    3.35
  -3   6   2    8.66    2.54
  -3   6   1  321.90   46.51
  -3   6   1  226.81   35.25
  -3   6   0  188.11    7.28
  -3   6   0  169.96    7.36
  -3   6   0  158.88   16.68
  -3   6   0  147.26   14.32
  -3   6  -1    1.87    3.51
  -3   6  -2  213.40    6.43
   3  -6   2  208.91    6.64
  -3   6  -3   -0.09    2.66
   3  -6   3    0.05    2.19
  -3   6  -4  241.72    9.09
   3  -6   4  247.48    9.34
  -3   6  -5  819.33  116.27
  -3   6  -5  875.66  124.45
  -3   6  -5  847.57  120.71
  -3   6  -5  544.56  105.07
   3  -6   5  857.73  121.91
  -3   6  -6  549.47   63.28
  -3   6  -6  402.27   73.12
  -3   6  -6  507.16   58.77
   3  -6   6  535.43   61.72
  -3   6  -7    3.81    3.14
  -3   6  -7    4.66    3.03
  -3   6  -7    4.04    3.26
  -3   6  -7    4.36    3.31
  -3   6  -7    3.95    3.05
   3  -6   7    7.33    3.81
  -3   6  -8   21.49    2.71
  -3   6  -8   22.28    3.86
  -3   6  -8   21.25    2.97
  -3   6  -8   19.66    2.80
  -3   6  -9   34.16    3.68
  -3   6  -9   42.61    5.27
  -3   6  -9   37.48    5.07
  -3   6  -9   41.49    4.56
   3  -6  10   76.89    5.13
  -3   6 -10   80.90    3.56
  -3   6 -10   80.97    4.16
  -3   6 -10   82.42    5.06
   3  -6  11  144.35   10.29
  -3   6 -11  157.51   11.09
  -3   6 -11  152.11   10.49
   3  -6  12   87.98   10.12
  -3   6 -12  119.57    8.18
  -3   6 -12  142.50    8.39
  -3   5   8    4.64    4.26
  -3   5   8    5.75    2.79
   3  -5  -8    7.03    3.96
  -3   5   7   13.17    3.57
   3  -5  -7   13.04    3.83
  -3   5   6    2.23    5.39
   3  -5  -6    2.27    2.77
  -3   5   6    3.64    2.99
  -3   5   5    5.53    3.23
  -3   5   5    3.03    2.54
  -3   5   5    4.60    2.83
   3  -5  -4    7.64    2.96
  -3   5   4    9.06    2.65
   3  -5  -4    8.73    3.73
  -3   5   4    9.44    3.17
  -3   5   4    9.19    3.74
  -3   5   3    5.62    3.72
   3  -5  -3    4.26    4.49
  -3   5   3    1.43    2.47
   3  -5  -3    3.74    2.97
  -3   5   3    2.54    1.98
  -3   5   3    2.39    3.04
  -3   5   2   12.82    3.09
  -3   5   2    7.41    2.57
  -3   5   2    9.63    2.37
  -3   5   0   36.64    4.40
  -3   5  -1  324.03    8.53
  -3   5  -1  329.51    8.54
  -3   5  -2 2051.57   17.49
  -3   5  -2 2064.18   18.82
  -3   5  -3  152.83    5.49
  -3   5  -3  146.51    5.15
   3  -5   3  139.25    5.11
   3  -5   3  138.49    5.00
  -3   5  -4  283.28    8.00
   3  -5   4  283.32    7.86
  -3   5  -4  273.74    7.53
  -3   5  -5  799.05   26.06
   3  -5   5  806.69   26.46
  -3   5  -6  519.09   73.83
  -3   5  -6  569.85   81.09
  -3   5  -6  552.85   78.62
  -3   5  -6  595.98   84.71
   3  -5   6  591.45   84.28
  -3   5  -6  567.84   80.80
  -3   5  -7  111.24    6.20
  -3   5  -7  112.62    3.90
  -3   5  -7  121.91    5.06
  -3   5  -7  124.89    4.58
  -3   5  -7  118.49    4.08
  -3   5  -7  125.26    4.36
  -3   5  -8  420.11   13.55
  -3   5  -8  425.28   10.89
  -3   5  -8  427.38   11.57
  -3   5  -8  432.11   11.26
  -3   5  -8  429.93   11.32
  -3   5  -9  434.35   10.76
  -3   5  -9  352.32   14.41
  -3   5  -9  421.13    9.59
  -3   5  -9  422.04   10.26
  -3   5  -9  401.19    8.73
  -3   5 -10    0.29    3.72
  -3   5 -10    0.30    3.44
  -3   5 -10    1.24    4.56
  -3   5 -10    1.08    3.59
   3  -5  11  501.86   33.77
  -3   5 -11  450.08   29.08
  -3   5 -11  443.18   28.69
   3  -5  12   31.95    3.69
  -3   5 -12   21.56    6.13
  -3   4   9   14.29   14.45
  -3   4   9   83.47    5.01
   3  -4  -9   67.12    5.35
  -3   4   9   87.61    6.20
  -3   4   8  451.24   68.50
   3  -4  -8  454.82   88.45
  -3   4   8  643.76   72.44
  -3   4   7   53.92    5.58
   3  -4  -7   47.98    3.90
  -3   4   6  896.41   35.63
  -3   4   6  617.30   49.69
   3  -4  -6  846.44   20.36
  -3   4   6  861.85   18.87
   3  -4  -5  501.90   15.60
  -3   4   5  483.99   14.71
  -3   4   5  466.60   16.26
  -3   4   4 1648.00  236.41
   3  -4  -4 1642.27  233.08
  -3   4   4  476.13  572.51
   3  -4  -4 1670.42  237.05
  -3   4   4 1653.96  234.54
  -3   4   4 1473.92  209.19
   3  -4  -3  183.65    8.20
   3  -4  -3  174.23    7.25
  -3   4   3  160.33    6.57
   3  -4  -2 1480.35   15.70
  -3   4   2 1460.08   14.07
  -3   4   2 1413.71   14.02
  -3   4   1 7367.86   64.94
  -3   4   1 7154.80   62.79
  -3   4   1 6845.43   59.57
  -3   4   0    7.47    3.86
  -3   4   0    8.07    3.30
  -3   4   0    7.90    2.66
  -3   4  -1  387.65    7.49
  -3   4  -1  394.52    7.68
  -3   4  -1  373.77    7.00
  -3   4  -1  366.77    6.70
   3  -4   2 1102.86   15.22
  -3   4  -2 1167.11   14.19
  -3   4  -2 1138.40   13.75
  -3   4  -2 1145.95   14.14
  -3   4  -2 1172.17   14.13
  -3   4  -3   76.62    4.00
   3  -4   3   77.86    4.85
  -3   4  -3   80.89    4.75
  -3   4  -3   81.37    4.56
  -3   4  -4  826.06    9.91
   3  -4   4  815.38   10.26
   3  -4   4  835.58   10.68
  -3   4  -5  628.84    8.65
  -3   4  -5  634.37    8.48
  -3   4  -6  375.02   35.08
  -3   4  -6  529.66   17.18
  -3   4  -6  546.18   18.31
  -3   4  -6  427.82   34.48
  -3   4  -6  506.22   17.59
  -3   4  -6  518.01   16.98
   3  -4   6  569.44   19.82
  -3   4  -6  598.89   20.14
  -3   4  -7    1.34    2.77
  -3   4  -7    0.68    2.47
  -3   4  -7    2.26    3.30
  -3   4  -7    3.08    2.14
  -3   4  -7    1.53    2.79
  -3   4  -7    0.69    3.18
   3  -4   7    1.43    4.21
  -3   4  -7    1.55    3.43
  -3   4  -8   32.48    4.04
  -3   4  -8   26.44    2.39
  -3   4  -8   28.05    3.61
  -3   4  -8   28.50    2.91
  -3   4  -8   32.21    3.74
  -3   4  -8   31.41    3.95
   3  -4   8   31.04    3.39
  -3   4  -8   24.60    3.30
  -3   4  -9  438.68   10.51
  -3   4  -9  469.71   10.16
  -3   4  -9  461.47   10.75
  -3   4  -9  426.39    9.34
  -3   4 -10  159.56   33.81
  -3   4 -10  170.32   35.89
  -3   4 -10  148.45   31.46
   3  -4  11  138.47    8.92
  -3   4 -11  143.06    8.32
  -3   4 -11  135.77    8.03
   3  -4  12   55.09    4.32
  -3   4 -12   49.18    4.06
  -3   4 -12   47.55    4.24
  -3   3  10  139.11    6.72
   3  -3 -10   56.19   12.48
  -3   3  10  103.60    5.19
   3  -3  -9   -0.80    3.59
   3  -3  -9   10.66    3.89
  -3   3   9   12.96    4.04
   3  -3  -8   84.72   53.92
  -3   3   8  254.46   13.97
   3  -3  -8  280.53   10.09
  -3   3   8  293.64    7.62
  -3   3   8  298.56    9.86
   3  -3  -7   48.54    7.23
  -3   3   7   94.17    7.54
   3  -3  -7   83.05    4.47
  -3   3   6   41.80    4.32
  -3   3   6   14.35    9.01
   3  -3  -6   40.91    3.30
   3  -3  -6   39.95    3.34
  -3   3   6   44.17    4.21
  -3   3   5  655.27   96.37
   3  -3  -5  693.55   98.69
   3  -3  -5  651.03   92.60
  -3   3   5  678.98   96.45
  -3   3   5  653.66   93.03
   3  -3  -4    2.50    4.17
   3  -3  -4    3.44    2.49
  -3   3   4    2.87    2.62
  -3   3   4    2.96    3.59
   3  -3  -4    3.30    2.14
   3  -3  -3 3018.91   24.35
   3  -3  -3 3013.47   25.45
  -3   3   3 3069.52   24.05
  -3   3   3 2995.86   23.19
   3  -3  -3 3065.21   23.92
  -3   3   2  944.13   12.16
  -3   3   2  923.86   11.87
   3  -3  -2  916.73   12.14
  -3   3   1  277.45    6.50
   3  -3  -1  321.51    9.60
   3  -3  -1  317.94    6.73
  -3   3   1  321.69    8.88
  -3   3   1  314.68    6.13
   3  -3   0 2481.33   20.53
   3  -3   0 2472.92   18.96
  -3   3   0 2470.89   17.87
  -3   3   0 2487.40   17.37
  -3   3   0 2454.02   17.50
   3  -3   1 1732.63   16.98
   3  -3   1 1715.90   16.12
  -3   3  -1 1678.26   13.83
  -3   3  -1 1719.26   14.10
   3  -3   2  136.88    5.26
   3  -3   2  135.24    4.42
  -3   3  -2  136.72    4.24
   3  -3   2  137.49    5.30
  -3   3  -2  135.47    4.37
  -3   3  -2  140.01    4.63
   3  -3   3 2727.00   30.77
  -3   3  -3 2754.85   28.02
   3  -3   3 2742.65   27.49
  -3   3  -3 2725.31   26.70
  -3   3  -4  422.51    7.28
   3  -3   4  424.56    7.45
   3  -3   4  439.68    8.53
  -3   3  -4  448.96    8.05
  -3   3  -5   10.56    3.05
   3  -3   5   11.13    2.40
   3  -3   5   14.93    4.21
  -3   3  -5   11.35    3.23
  -3   3  -6   20.16    2.43
  -3   3  -6   22.62    2.63
  -3   3  -6   22.49    2.69
  -3   3  -6   22.86    2.44
  -3   3  -6   25.26    2.39
   3  -3   6   30.43    4.33
  -3   3  -6   26.03    3.86
  -3   3  -7    5.35    3.53
  -3   3  -7    4.72    2.15
  -3   3  -7    6.52    3.03
  -3   3  -7    5.53    2.82
  -3   3  -7    4.88    3.27
  -3   3  -7    5.01    2.36
   3  -3   7    4.89    3.18
  -3   3  -7    5.49    3.22
  -3   3  -8  107.42    5.83
  -3   3  -8  115.93    5.78
  -3   3  -8  105.04    5.30
  -3   3  -9  121.74    6.90
  -3   3  -9  123.32    6.72
  -3   3  -9  127.92    6.80
   3  -3   9  129.29    6.90
  -3   3 -10    7.10    3.57
  -3   3 -10    6.74    3.30
  -3   3 -11   55.69    9.27
  -3   3 -11   86.34    5.74
  -3   2  11   29.35    5.43
  -3   2  10  557.02   39.40
   3  -2 -10  520.45   35.85
  -3   2  10  571.22   36.56
  -3   2  10  565.72   37.00
   3  -2  -9  209.85   79.12
  -3   2   9  536.71   16.64
   3  -2  -9  340.66   60.88
  -3   2   9  548.35   12.78
  -3   2   9  477.19   57.15
   3  -2  -8  417.05   40.73
   3  -2  -8  629.18   14.87
  -3   2   8  625.00   11.61
  -3   2   8  635.93   16.20
   3  -2  -7  312.90   17.37
  -3   2   7  323.30   21.60
   3  -2  -7  347.90   10.12
   3  -2  -7  358.75   11.10
  -3   2   7  338.45    9.26
  -3   2   7  364.50    9.66
  -3   2   7  329.68    9.51
  -3   2   6  279.50   65.45
   3  -2  -6  357.33   41.46
  -3   2   6  148.79   89.37
   3  -2  -6  340.34   39.43
   3  -2  -6  209.54   55.07
  -3   2   6  346.45   40.16
  -3   2   6  348.04   40.38
   3  -2  -5 2238.01   70.70
   3  -2  -5 2154.46   68.21
  -3   2   5 2302.90   72.40
  -3   2   5 2083.63   65.81
   3  -2  -5 2180.70   68.85
   3  -2  -4  650.32    9.31
   3  -2  -4  667.23    9.65
  -3   2   4  658.35    9.49
  -3   2   4  647.70    8.88
   3  -2  -4  653.06    9.22
   3  -2  -3  761.51   12.00
   3  -2  -3  795.76   11.63
   3  -2  -3  788.50   11.22
  -3   2   3  782.67   11.09
  -3   2   3  765.53   11.02
   3  -2  -3  761.12   10.88
  -3   2   2  197.74    6.17
   3  -2  -2  221.51    6.38
   3  -2  -2  194.75    4.84
  -3   2   2  196.43    5.67
  -3   2   2  196.16    5.06
  -3   2   1   63.60    4.41
   3  -2  -1   71.36    5.56
   3  -2  -1   68.47    4.85
  -3   2   1   67.00    5.14
  -3   2   1   68.13    3.76
  -3   2   1   71.64    4.23
   3  -2   0  168.84    6.29
   3  -2   0  175.07    5.82
  -3   2   0  172.06    4.81
  -3   2   0  178.76    4.49
   3  -2   1 3340.53   24.48
   3  -2   1 3349.25   22.52
  -3   2  -1 3297.79   21.02
   3  -2   1 3301.65   21.86
  -3   2  -1 3316.77   20.87
   3  -2   2 1147.77   16.11
   3  -2   2 1092.01   13.64
  -3   2  -2 1114.42   13.50
   3  -2   2 1128.28   14.15
  -3   2  -2 1115.67   13.59
  -3   2  -2 1158.24   13.88
   3  -2   3  160.89    6.69
  -3   2  -3  151.53    4.38
   3  -2   3  165.81    5.46
  -3   2  -3  165.87    4.68
  -3   2  -3  160.20    4.59
  -3   2  -4 3707.52   28.18
   3  -2   4 3660.32   31.82
   3  -2   4 3671.53   28.76
  -3   2  -4 3789.68   28.30
  -3   2  -4 3710.48   31.26
  -3   2  -5 2267.40   23.85
   3  -2   5 2297.87   21.53
   3  -2   5 2326.79   23.39
  -3   2  -5 2275.31   30.56
  -3   2  -5 2249.73   21.85
  -3   2  -6 1053.35  149.88
  -3   2  -6 1173.54  166.71
  -3   2  -6 1223.75  179.50
  -3   2  -6  570.57  167.57
   3  -2   6 1154.23  164.17
  -3   2  -6 1115.42  158.30
   3  -2   6 1115.95  158.54
  -3   2  -6 1172.17  166.44
   3  -2   6  210.49  245.11
   3  -2   6 1131.71  160.84
  -3   2  -7 1265.64   36.28
  -3   2  -7 1293.23   37.15
  -3   2  -7  999.37   82.95
   3  -2   7 1137.03   42.92
  -3   2  -8  688.21   16.75
  -3   2  -8  719.52   17.28
  -3   2  -8  682.84   15.48
  -3   2  -8  667.41   17.88
   3  -2   8  684.91   16.34
  -3   2  -9 1019.10   26.65
  -3   2  -9  747.47   44.77
  -3   2  -9  899.19   55.89
  -3   2  -9 1013.08   23.25
   3  -2   9  778.21   18.16
  -3   2 -10  665.43   41.21
  -3   2 -10  665.32   41.31
  -3   2 -10  600.33   38.61
   3  -2  10  570.97   46.12
   3  -2  10  597.61   38.44
   3  -2  11  113.56    7.62
  -3   2 -11  111.46    6.74
   3  -2  11  108.30    6.56
   3  -1 -11   -0.64    2.87
  -3   1  11    0.65    2.69
  -3   1  11    0.34    2.20
  -3   1  11    0.46    2.83
  -3   1  10   43.07    5.65
   3  -1 -10   27.81   10.42
  -3   1  10   66.56    7.63
   3  -1 -10   58.82    6.59
  -3   1  10   59.72    6.69
  -3   1  10   54.48    6.89
  -3   1   9   23.12    5.80
   3  -1  -9   27.02    4.40
  -3   1   9   32.06    3.38
   3  -1  -9   32.01    2.75
  -3   1   9   35.61    3.96
  -3   1   9   36.64    4.45
  -3   1   8  178.15    7.80
   3  -1  -8  174.89    7.85
   3  -1  -8  165.20    8.09
  -3   1   8  173.62    7.34
  -3   1   8  178.85    7.49
  -3   1   7   47.94    3.12
   3  -1  -7   41.91    3.40
  -3   1   7   51.77    3.05
  -3   1   7   46.25    4.12
  -3   1   7   53.77    3.73
  -3   1   7   46.18    4.40
  -3   1   6    1.59    1.80
   3  -1  -6    2.54    3.06
  -3   1   6    0.12    1.63
   3  -1  -6    2.17    2.74
  -3   1   6    2.37    2.01
  -3   1   6    3.36    2.58
  -3   1   6    2.61    2.11
  -3   1   6    4.66    2.86
   3  -1  -5    1.04    2.87
   3  -1  -5    1.42    2.48
  -3   1   5    1.40    2.78
  -3   1   5    0.33    3.51
   3  -1  -4  362.40    7.83
   3  -1  -4  345.68    8.97
  -3   1   4  339.47    8.86
   3  -1  -3  881.75   13.45
   3  -1  -3  848.61   12.04
   3  -1  -3  844.93   11.35
  -3   1   3  895.31   12.09
  -3   1   2  115.65    5.43
   3  -1  -2  132.11    6.73
   3  -1  -2  120.10    5.15
   3  -1  -2  107.64    3.60
  -3   1   2  117.97    3.91
  -3   1   2  113.91    4.26
  -3   1   1    2.77    3.42
   3  -1  -1    2.49    3.73
   3  -1  -1    2.91    3.64
  -3   1   1    3.80    3.93
  -3   1   1    3.93    2.96
  -3   1   1    3.43    3.77
   3  -1   0 2141.38   18.52
   3  -1   0 2197.41   16.93
   3  -1   0 2217.93   16.88
  -3   1   0 2236.84   16.51
  -3   1   0 2234.97   16.29
  -3   1   0 2137.85   21.00
   3  -1   1 5864.50   36.28
   3  -1   1 5804.52   33.01
  -3   1  -1 5938.52   31.98
  -3   1  -1 5690.33   31.68
  -3   1  -1 5786.72   46.71
  -3   1  -2  406.80    7.32
   3  -1   2  402.70    7.49
  -3   1  -2  430.78    7.67
  -3   1  -2  439.26    7.81
   3  -1   3   53.84    4.71
  -3   1  -3   52.64    3.08
   3  -1   3   53.10    3.46
   3  -1   3   54.20    4.07
  -3   1  -3   55.20    3.50
  -3   1  -3   54.00    3.55
  -3   1  -4 1460.04   14.46
   3  -1   4 1525.70   16.79
   3  -1   4 1511.01   16.66
  -3   1  -4 1547.82   14.92
  -3   1  -4 1525.98   17.57
  -3   1  -5    4.34    2.74
  -3   1  -5    4.88    2.92
  -3   1  -5    4.54    1.62
   3  -1   5    5.70    2.78
   3  -1   5    5.53    3.20
  -3   1  -5    6.29    2.45
   3  -1   5    0.76    2.09
  -3   1  -5    6.76    2.41
  -3   1  -6    3.31    2.61
  -3   1  -6    3.83    2.60
   3  -1   6    2.87    2.69
  -3   1  -6    3.06    3.20
  -3   1  -6    2.66    2.23
   3  -1   6    3.95    2.03
   3  -1   6    2.75    3.65
  -3   1  -7   48.41    4.40
  -3   1  -7   47.38    3.63
  -3   1  -7   54.36    3.90
  -3   1  -7   45.57    3.52
  -3   1  -7   44.49    4.13
   3  -1   7   44.67    3.40
  -3   1  -8  148.65    8.65
  -3   1  -8  141.92    7.19
  -3   1  -8  157.88    8.13
  -3   1  -8  126.81   10.20
  -3   1  -8  140.13    7.51
   3  -1   8  140.95    7.85
  -3   1  -9  264.97   25.59
  -3   1  -9  307.66   29.65
  -3   1  -9  274.31   25.38
  -3   1  -9  284.31   26.16
   3  -1   9  284.27   26.14
  -3   1 -10  176.09    9.49
   3  -1  10  148.55   10.94
   3   0 -12  166.08   14.15
  -3   0  12  331.11   19.46
  -3   0  11   26.05    4.40
   3   0 -11   25.54    5.10
  -3   0  11   35.65    5.15
  -3   0  11   34.78    5.91
  -3   0  10    4.07    3.82
   3   0 -10    4.32    2.57
  -3   0  10    4.90    2.75
   3   0 -10    5.19    2.91
  -3   0  10    5.58    3.44
  -3   0  10    6.68    3.72
  -3   0   9   15.17    3.55
   3   0  -9   16.81    3.57
  -3   0   9   16.72    3.65
   3   0  -9   15.10    3.23
  -3   0   9   18.00    3.20
  -3   0   9   20.42    3.55
  -3   0   8   23.79    2.66
   3   0  -8   22.56    2.75
  -3   0   8   24.48    3.14
  -3   0   8   25.82    2.96
  -3   0   8   21.40    3.87
  -3   0   8   26.74    4.16
  -3   0   8   23.63    3.14
  -3   0   7   13.75    3.08
   3   0  -7    7.70    2.75
   3   0  -7   13.11    3.01
  -3   0   7    4.51    2.53
  -3   0   7   10.47    3.03
  -3   0   7   11.63    3.50
  -3   0   7   11.67    3.80
  -3   0   7   11.48    2.62
  -3   0   7   11.29    3.65
   3   0  -6  248.49    9.73
  -3   0   6  265.31   10.54
   3   0  -5  833.09   11.02
   3   0  -5  785.09    9.94
  -3   0   5  834.68   11.13
  -3   0   5  825.28   10.75
   3   0  -4   34.45    3.68
   3   0  -4   35.89    4.67
   3   0  -4   30.82    2.48
  -3   0   4   28.60    3.18
   3   0  -3   25.92    4.79
  -3   0   3   29.32    4.00
  -3   0   3   26.29    2.62
  -3   0   3   31.34    4.36
   3   0  -2 2990.53   20.58
   3   0  -2 2962.80   20.55
  -3   0   2 2980.20   21.00
  -3   0   2 3017.95   21.15
  -3   0   2 2971.51   20.41
   3   0  -1 1003.44   12.48
   3   0  -1 1044.53   11.13
   3   0  -1 1052.54   11.43
  -3   0   1 1052.65   10.99
  -3   0   1 1060.75   11.10
   3   0   0  708.95   11.09
   3   0   0  691.06    8.67
   3   0   0  705.06    9.55
  -3   0   0  708.09    8.87
  -3   0   0  703.72    8.95
  -3   0   0  685.58    8.78
   3   0   1 1983.72   22.85
   3   0   1 1980.29   22.94
   3   0   1 2099.12   22.09
  -3   0  -1 2046.54   21.45
  -3   0  -1 2042.60   28.08
   3   0   2 2127.37   24.60
   3   0   2 2006.76   21.05
  -3   0  -2 2073.98   21.61
  -3   0  -2 2045.73   22.71
  -3   0  -2 2090.57   28.37
  -3   0  -3  907.57   11.07
  -3   0  -3  867.98   12.04
   3   0   4   20.37    3.31
  -3   0  -4   19.56    3.05
  -3   0  -4   22.80    3.65
   3   0   4    6.70    3.56
  -3   0  -4   19.79    2.82
  -3   0  -5  100.35   11.96
  -3   0  -5  147.82   17.44
  -3   0  -5   98.84   11.76
   3   0   5  105.62   12.95
  -3   0  -5   98.38   11.66
  -3   0  -5   98.11   11.84
   3   0   5   93.02   11.29
  -3   0  -5  103.61   12.69
  -3   0  -6  189.13    6.68
  -3   0  -6  192.66    5.97
  -3   0  -6  183.68    6.14
   3   0   6  171.81    6.82
  -3   0  -6  166.74    5.79
   3   0   6  172.97    5.88
   3   0   6  171.91    6.12
  -3   0  -7   11.40    3.50
  -3   0  -7   12.94    3.40
  -3   0  -7   13.23    4.45
  -3   0  -7   11.05    3.27
   3   0   7   11.89    4.02
  -3   0  -8   10.00    3.42
  -3   0  -8   11.86    3.59
   3   0   8    7.04    3.86
  -3   0  -8   12.94    3.50
  -3   0  -8   12.06    3.51
   3   0   8   11.27    3.14
  -3   0  -9    0.17    3.10
  -3   0  -9    0.40    3.04
   3   0   9   -0.01    2.67
  -3   0  -9   -0.48    2.33
   3   0   9    0.80    3.64
   3   0  10  252.85   27.15
   3   0  10  371.15   19.50
  -3  -1  12   50.06    4.29
   3   1 -12   20.50    6.63
  -3  -1  12   51.02   13.23
  -3  -1  11    4.20    3.30
   3   1 -11    2.96    3.48
   3   1 -11    3.34    2.96
  -3  -1  11    3.73    3.01
  -3  -1  10  119.26    5.52
   3   1 -10  107.82    5.71
  -3  -1  10  111.57    5.15
  -3  -1  10  109.22    7.29
  -3  -1  10  130.82    5.74
  -3  -1   9  799.80   19.38
   3   1  -9  759.27   17.75
  -3  -1   9  743.70   21.78
  -3  -1   9  724.59   21.60
  -3  -1   9  739.43   23.25
  -3  -1   8  284.44    9.64
   3   1  -8  261.84    8.87
  -3  -1   8  226.86   11.18
  -3  -1   8  252.16    8.36
  -3  -1   8  265.79    9.43
  -3  -1   8  281.44    9.72
  -3  -1   8  268.86    9.69
  -3  -1   7   20.32    4.37
   3   1  -7   11.11    2.61
   3   1  -7   15.31    4.06
  -3  -1   7    7.59    2.79
  -3  -1   7   14.46    3.52
  -3  -1   7   15.25    3.78
  -3  -1   7   15.36    4.30
   3   1  -6   48.86    3.70
  -3  -1   6   49.74    3.90
  -3  -1   6   50.57    4.29
   3   1  -5 1335.60   14.72
  -3  -1   5 1364.06   15.25
  -3  -1   5 1334.85   14.54
   3   1  -4  929.85   13.55
   3   1  -4 1062.56   13.64
  -3  -1   4  960.45   12.85
  -3  -1   4  990.54   24.30
  -3  -1   4 1015.42   13.49
   3   1  -3  368.53    8.31
   3   1  -3  371.92    7.19
  -3  -1   3  391.87    7.30
  -3  -1   3  380.92   18.16
   3   1  -2    2.40    4.47
   3   1  -2    4.58    2.80
   3   1  -2    3.05    3.06
  -3  -1   2    2.00    3.08
  -3  -1   2   -0.65    5.88
   3   1  -1 1607.93   19.88
   3   1  -1 1578.86   17.70
   3   1  -1 1573.56   17.57
  -3  -1   1 1575.19   17.40
  -3  -1   1 1655.61   19.15
   3   1   0 1328.36   17.18
   3   1   0 1373.05   17.18
   3   1   0 1327.73   16.86
  -3  -1   0 1327.01   17.70
  -3  -1   0 1321.22   19.36
  -3  -1   0 1372.29   16.02
   3   1   1   49.59    4.68
   3   1   1   49.60    3.21
   3   1   1   48.47    4.15
  -3  -1  -1   50.83    4.43
  -3  -1  -1   48.13    3.23
   3   1   2 1263.11   15.49
  -3  -1  -2 1272.49   13.34
  -3  -1  -2 1283.89   16.13
   3   1   3 1751.02   56.84
  -3  -1  -3 1644.46   51.47
  -3  -1  -3 1631.08   52.04
   3   1   3 1001.26  174.53
  -3  -1  -3 1691.19   54.26
  -3  -1  -4  125.59   15.00
   3   1   4  168.20   19.80
  -3  -1  -4  149.57   17.49
  -3  -1  -4  150.13   17.62
  -3  -1  -4  155.08   18.34
   3   1   4  166.70   19.60
  -3  -1  -4  151.83   18.01
  -3  -1  -5   27.14    3.60
  -3  -1  -5   30.77    2.60
  -3  -1  -5   28.85    3.42
   3   1   5   27.88    4.43
  -3  -1  -5   27.05    2.56
   3   1   5   30.82    3.73
   3   1   5   28.55    4.47
  -3  -1  -5   28.39    3.96
  -3  -1  -6  440.51   11.97
  -3  -1  -6  401.23   13.94
  -3  -1  -6  405.28   12.26
  -3  -1  -6  435.06   10.37
   3   1   6  420.40   12.68
  -3  -1  -7   36.43    4.28
  -3  -1  -7   34.07    5.36
  -3  -1  -7   43.46    4.12
  -3  -1  -7   45.04    3.33
   3   1   7   48.02    3.82
  -3  -1  -8  345.70   30.87
   3   1   8  282.80   26.05
  -3  -1  -8  315.29   23.15
  -3  -1  -8  412.06   26.42
   3   1   8  339.30   22.08
  -3  -1  -9   16.63    5.56
   3   1   9    7.43    4.53
   3   1   9   29.16    3.66
  -3  -2  12   12.79    3.18
   3   2 -12    9.64    2.63
  -3  -2  11   26.35    3.91
   3   2 -11   21.72    3.16
   3   2 -11   25.89    3.22
   3   2 -10    0.63    3.40
   3   2 -10    0.00    2.45
   3   2  -9   14.18    3.66
   3   2  -9   15.72    3.63
  -3  -2   8  892.80   42.15
   3   2  -8  916.25   27.57
   3   2  -8  900.57   26.44
   3   2  -8  844.34   24.82
  -3  -2   8  857.50   30.31
  -3  -2   7  489.07   56.25
   3   2  -7  380.89   45.39
   3   2  -7  460.37   53.19
   3   2  -7  476.68   54.86
   3   2  -7  429.80   49.60
  -3  -2   7  449.47   51.94
  -3  -2   7  460.44   53.29
  -3  -2   6    0.46    2.52
   3   2  -6    1.54    3.56
   3   2  -6    0.99    2.00
  -3  -2   6    0.98    3.74
  -3  -2   6    0.48    2.28
   3   2  -5    0.40    2.71
  -3  -2   5   29.02    4.13
  -3  -2   5   26.07   17.42
  -3  -2   4   15.14    3.36
  -3  -2   4   34.80   16.29
   3   2  -3   62.37    4.47
   3   2  -3   64.01    3.86
  -3  -2   3   57.66    3.46
  -3  -2   3   65.20   29.12
   3   2  -2  220.14    6.82
   3   2  -2  204.09    5.31
   3   2  -2  205.34    5.07
  -3  -2   2  199.72    4.97
  -3  -2   2  198.83   16.76
   3   2  -1 3021.35   35.11
   3   2  -1 3080.70   28.47
   3   2  -1 2812.12   65.53
  -3  -2   1 3094.72   25.30
   3   2   0 3231.98   34.67
   3   2   0 3163.67   31.58
  -3  -2   0 3105.85   37.21
  -3  -2   0 3164.93   26.19
   3   2   1   28.26    3.14
  -3  -2  -1   30.09    3.23
  -3  -2  -1   31.02    4.08
   3   2   2   40.35    6.42
   3   2   2   57.14    8.86
  -3  -2  -2   56.72    8.67
  -3  -2  -2   51.36    7.96
  -3  -2  -2   59.64    9.52
   3   2   3  213.32    7.11
   3   2   3  203.49    5.58
  -3  -2  -3  217.16    5.99
  -3  -2  -3  207.51    6.65
  -3  -2  -3  213.83    7.07
   3   2   4  163.06    6.08
   3   2   4  142.72    6.35
  -3  -2  -4  142.71    5.00
  -3  -2  -4  137.18    5.63
  -3  -2  -5    8.97    2.54
  -3  -2  -5    7.72    2.33
  -3  -2  -6   34.77    8.32
  -3  -2  -6   50.49    3.14
  -3  -2  -7   43.09    9.13
   3   2   7   84.45    8.37
  -3  -2  -7   73.79    5.58
  -3  -2  -8  133.67   24.98
   3   2   8  163.75   12.30
  -3  -3  12   14.35    3.26
   3   3 -12   18.46    3.73
  -3  -3  12   17.75    3.66
  -3  -3  11   15.74    2.97
   3   3 -11   15.02    3.57
  -3  -3  11   16.33    3.46
  -3  -3  10   28.12    4.37
   3   3 -10   30.34    3.73
   3   3 -10   27.21    3.44
   3   3 -10   27.14    4.07
  -3  -3  10   21.82    3.34
  -3  -3   9    3.57    3.68
   3   3  -9    1.70    2.70
   3   3  -9    2.52    3.25
   3   3  -9    1.32    3.89
  -3  -3   9    2.92    3.00
  -3  -3   8  432.63   15.59
   3   3  -8  461.22   12.35
   3   3  -8  417.01   11.03
   3   3  -8  425.35   11.71
  -3  -3   8  408.35   11.73
  -3  -3   8  442.52   13.90
  -3  -3   7   26.93    3.03
   3   3  -7   26.76    3.23
   3   3  -7   36.10    4.16
   3   3  -7   33.18    3.35
   3   3  -7   32.14    3.04
  -3  -3   7   32.70    3.50
  -3  -3   7   27.48    3.85
  -3  -3   6    6.94    2.20
   3   3  -6    5.84    3.14
   3   3  -6    9.14    3.99
   3   3  -6    8.66    2.44
   3   3  -6    8.32    3.59
  -3  -3   6    9.47    3.04
  -3  -3   6    7.20    2.93
   3   3  -5    3.33    2.82
   3   3  -5    4.89    2.62
  -3  -3   5    3.86    2.97
  -3  -3   5   36.74   14.84
  -3  -3   5    1.89    2.19
  -3  -3   4  111.38   12.33
   3   3  -3    3.48    2.83
  -3  -3   3    9.56   37.16
   3   3  -2 1121.04   13.36
  -3  -3   2 1132.00   21.77
   3   3  -1  165.60    7.32
   3   3  -1  156.48    6.93
  -3  -3   1  158.66    7.20
   3   3   0   76.87   22.22
   3   3   0  149.49    6.57
  -3  -3   0  142.93    5.62
  -3  -3   0   40.12   27.94
   3   3   0  145.19    6.48
   3   3   0  137.72    5.44
  -3  -3   0  145.79    5.97
  -3  -3   0  155.14    7.28
   3   3   0  139.57    6.04
  -3  -3   0  144.93    6.40
   3   3   1    7.73    3.34
  -3  -3  -1    8.32    2.52
   3   3   1    8.02    3.31
   3   3   1    7.83    2.57
  -3  -3  -1    6.82    2.95
  -3  -3  -1    8.66    3.98
   3   3   1    8.06    2.53
  -3  -3  -1    7.75    2.99
   3   3   2  159.65    6.44
  -3  -3  -2  154.58    5.57
   3   3   2  150.41    6.77
   3   3   2  152.25    5.93
  -3  -3  -2  154.36    5.84
  -3  -3  -2  145.33    5.90
   3   3   2  155.51    6.14
  -3  -3  -2  152.30    6.36
   3   3   3   75.67    5.36
  -3  -3  -3   60.43    4.47
   3   3   3   54.02    3.87
  -3  -3  -3   57.47    3.93
   3   3   3   65.28    5.01
   3   3   4  149.09   17.84
  -3  -3  -4  176.70    5.71
   3   3   4  156.71    4.33
  -3  -3  -4  187.66    5.15
   3   3   4  195.79    5.90
  -3  -3  -5  148.36   35.57
   3   3   5  201.81    8.43
  -3  -3  -5  184.79    8.20
  -3  -3  -5  213.00    6.38
   3   3   5  217.11    6.78
  -3  -3  -6    1.08    3.29
  -3  -3  -6    0.25    3.42
   3   3   6    1.87    3.27
  -3  -3  -7   12.68    5.52
   3   3   7   22.04    6.48
  -3  -3  -7   17.66    6.27
   3   3   7   23.57    6.76
  -3  -4  12  125.66    6.52
   3   4 -12  114.32    5.82
  -3  -4  12  123.23    6.31
  -3  -4  11    1.29    3.89
   3   4 -11    2.39    2.78
   3   4 -11    2.49    3.77
  -3  -4  11    2.61    2.91
  -3  -4  10  745.09   20.29
   3   4 -10  732.62   19.06
   3   4 -10  733.03   17.82
   3   4 -10  721.81   18.48
  -3  -4  10  756.76   19.79
  -3  -4   9 1189.01   52.60
   3   4  -9 1239.43   25.54
   3   4  -9 1253.77   23.41
   3   4  -9 1262.04   23.58
  -3  -4   9 1245.51   29.61
  -3  -4   8 2326.39  160.84
   3   4  -8 2443.52   46.04
   3   4  -8 2875.74   52.17
   3   4  -8 2985.52   60.80
  -3  -4   8 2811.49  114.37
  -3  -4   7 1947.07  146.35
   3   4  -7 2315.50   67.69
   3   4  -7 2321.67   67.34
   3   4  -7 2308.18   66.78
   3   4  -7 2469.33   71.59
  -3  -4   7 2543.90   74.52
  -3  -4   6    1.50    1.94
   3   4  -6    2.93    2.33
   3   4  -6    4.67    2.84
   3   4  -6    4.30    2.83
   3   4  -6    2.75    3.26
  -3  -4   6   43.43   21.42
  -3  -4   6    3.17    3.12
   3   4  -5  129.09   15.62
   3   4  -5  158.39   18.72
   3   4  -5  147.71   17.42
   3   4  -5  144.22   17.12
  -3  -4   5  154.14   22.71
  -3  -4   5  148.19   17.37
   3   4  -4  713.95  101.46
   3   4  -4  765.62  109.01
   3   4  -4  729.70  103.69
  -3  -4   4  775.70  114.17
  -3  -4   4  218.88  261.66
   3   4  -3 1091.38  157.25
   3   4  -3 1287.85  183.09
  -3  -4   3 1065.02  166.81
  -3  -4   3 1175.95  166.97
  -3  -4   3 1235.97  176.90
  -3  -4   3 1249.48  177.72
   3   4  -2  375.15   43.31
   3   4  -2  397.48   46.04
  -3  -4   2  373.55   43.04
  -3  -4   2  352.93   41.40
  -3  -4   2  288.70   44.98
  -3  -4   2  375.18   43.54
   3   4  -1  176.91   20.76
   3   4  -1  181.77   21.47
  -3  -4   1  171.56   20.19
   3   4  -1  170.32   19.88
  -3  -4   1  179.13   20.95
  -3  -4   1  180.86   21.51
  -3  -4   1  179.90   21.05
   3   4  -1  146.44   22.38
  -3  -4   1  173.61   20.48
   3   4   0 1117.40   61.63
  -3  -4   0 1186.65   37.50
   3   4   0 1188.04   34.42
  -3  -4   0 1204.04   34.69
  -3  -4   0 1126.25   33.58
   3   4   0 1214.53   35.62
  -3  -4   0 1197.94   34.84
   3   4   1  668.49   14.11
  -3  -4  -1  684.51   13.85
   3   4   1  676.29   13.60
  -3  -4  -1  676.40   13.06
  -3  -4  -1  585.58   12.48
   3   4   1  692.61   13.50
  -3  -4  -1  663.12   14.37
   3   4   2    2.41    4.02
  -3  -4  -2    2.36    2.75
   3   4   2    3.80    2.53
  -3  -4  -2    4.84    2.86
   3   4   2    2.97    2.83
   3   4   3  163.10   16.26
  -3  -4  -3  155.39   13.32
   3   4   3  161.10    7.94
  -3  -4  -3  157.54    8.01
   3   4   3  162.13    8.44
   3   4   4   57.96    7.19
  -3  -4  -4   40.21    9.70
   3   4   4   58.30    6.47
  -3  -4  -4   52.14    5.66
   3   4   4   59.12    6.53
  -3  -4  -5   13.86    4.88
   3   4   5   19.99    3.40
  -3  -4  -5   11.40    3.72
   3   4   5   11.70    2.87
  -3  -4  -6   20.66    9.93
   3   4   6   23.50   11.03
  -3  -4  -6   43.14    8.76
   3   4   6   63.26    5.05
  -3  -5  12   16.73    2.73
   3   5 -12   30.83    3.98
   3   5 -12   23.27    3.14
  -3  -5  12   15.38    3.00
  -3  -5  11    5.54    3.09
   3   5 -11    5.16    3.51
   3   5 -11    6.53    4.20
  -3  -5  11    7.54    3.43
  -3  -5  10   46.81    6.01
   3   5 -10   52.50    6.60
   3   5 -10   55.72    7.10
  -3  -5  10   62.68    7.71
  -3  -5   9  479.61   58.34
   3   5  -9  585.89   26.61
   3   5  -9  629.40   28.30
   3   5  -9  658.50   30.27
  -3  -5   9  655.45   30.49
   3   5  -8    3.43    3.40
   3   5  -8    3.14    3.20
   3   5  -8    1.90    3.56
  -3  -5   8    3.09    3.36
   3   5  -7  101.74    4.88
   3   5  -7   91.68    4.98
   3   5  -7   94.39    5.19
  -3  -5   7   64.85   10.77
   3   5  -6   35.76    3.90
   3   5  -6   33.74    3.48
  -3  -5   6    8.23   30.09
  -3  -5   6   36.98    4.08
   3   5  -5   60.10    3.82
   3   5  -5   62.33    4.02
   3   5  -5   60.57    4.37
  -3  -5   5   78.36   49.07
  -3  -5   5   63.54    4.08
   3   5  -4   18.98    3.78
   3   5  -4   18.26    3.65
  -3  -5   4   19.36    3.35
   3   5  -4   17.28    2.91
  -3  -5   4   19.02    3.55
  -3  -5   4   35.32   24.38
  -3  -5   4   13.59    3.56
   3   5  -3   92.95    5.09
   3   5  -3   89.52    4.40
  -3  -5   3   86.51    4.38
   3   5  -3   80.71    4.34
  -3  -5   3   81.27    3.72
  -3  -5   3   68.42    7.20
  -3  -5   3   81.92    4.90
   3   5  -2    0.86    4.26
   3   5  -2   -0.30    3.26
  -3  -5   2    0.34    2.36
  -3  -5   2    0.82    2.60
  -3  -5   2    0.13    3.33
  -3  -5   2    0.35    2.45
   3   5  -2    0.38    3.34
  -3  -5   2    1.96    3.68
   3   5  -1   51.65    4.28
  -3  -5   1   44.42    4.60
   3   5  -1   52.57    3.64
  -3  -5   1   53.23    4.06
   3   5  -1   49.35    4.53
   3   5   0  353.54   11.20
  -3  -5   0  346.13   20.24
   3   5   0  384.57    9.74
  -3  -5   0  377.59   10.63
   3   5   0  371.76   10.06
   3   5   1  791.41   66.88
  -3  -5  -1  855.54   45.58
   3   5   1  967.07   43.50
  -3  -5  -1  961.39   42.28
   3   5   1 1020.87   44.55
   3   5   2  238.38   77.76
   3   5   2  292.88   77.73
  -3  -5  -2  342.69   80.46
   3   5   2  472.10   98.93
   3   5   2  453.30   95.08
   3   5   3   18.77    9.25
   3   5   3   40.14    6.26
  -3  -5  -3   24.64    5.39
   3   5   3   41.64    5.50
   3   5   3   35.10    5.18
  -3  -5  -4  167.79   59.53
  -3  -5  -4  160.10   35.72
   3   5   4  268.49    9.57
   3   6 -12    8.23    3.52
   3   6 -12    8.02    3.20
   3   6 -11  151.63    9.05
   3   6 -11  147.28    8.79
  -3  -6  11  117.07   11.82
   3   6 -10   98.05    7.90
   3   6 -10   92.55    7.20
  -3  -6  10   94.10    7.38
   3   6  -9  131.32   27.87
   3   6  -9  146.34   30.91
   3   6  -9  150.55   31.88
  -3  -6   9   94.21   24.94
   3   6  -8    4.71    3.87
   3   6  -8    6.01    3.18
  -3  -6   8    5.82    3.23
   3   6  -7    7.66    3.23
   3   6  -7    6.69    3.30
   3   6  -7    8.40    3.96
  -3  -6   7    6.70    2.92
   3   6  -6   -0.80    3.70
  -3  -6   6    1.06    3.09
   3   6  -6    0.20    2.95
   3   6  -6    0.95    3.38
  -3  -6   6    1.10    3.43
   3   6  -5    7.24    3.65
  -3  -6   5    5.91    2.92
   3   6  -5    5.06    2.90
  -3  -6   5    7.06    2.90
  -3  -6   5    5.79    3.59
   3   6  -4    2.05    4.12
  -3  -6   4    1.71    3.04
   3   6  -4    1.27    2.58
  -3  -6   4    2.01    2.71
  -3  -6   4    0.89    2.61
   3   6  -3  475.86   55.10
  -3  -6   3  585.79   12.93
   3   6  -3  601.14   11.59
  -3  -6   3  604.15   11.88
   3   6  -3  617.52   13.00
   3   6  -2   -0.22    3.65
  -3  -6   2    0.05    3.26
  -3  -6   2    0.05    3.73
   3   6  -2   -0.69    2.95
   3   6  -1 1437.23   68.83
  -3  -6   1 1092.66   69.26
  -3  -6   1 1460.35  136.58
   3   6  -1 1463.81  137.27
   3   6   0  594.83  207.15
  -3  -6   0  898.26  195.79
   3   6   0 1133.84   11.78
  -3  -6   0 1105.23    9.91
   3   6   0 1166.08   14.75
   3   6   1    6.43    6.16
  -3  -6  -1    3.42    2.91
   3   6   1    8.24    2.99
   3   6   1    4.66    2.52
   3   6   2    2.70    4.76
  -3  -6  -2    6.38    3.29
   3   6   2   12.19    3.53
   3   6   2    8.99    2.49
  -3  -6  -3  234.45   55.39
  -3  -6  -3   96.78   21.85
   3   6   3  273.72   14.35
   3   6   3  259.39   15.52
   3   7 -11    0.72    2.83
  -3  -7  11    0.31    2.26
   3   7 -10   96.16    5.26
   3   7  -9  109.07    8.44
   3   7  -8  247.05   23.22
   3   7  -8  200.41   18.44
  -3  -7   8  228.83   21.51
   3   7  -7  105.23   22.84
   3   7  -7  105.07   22.22
  -3  -7   7  110.60   23.46
   3   7  -6    8.06    4.63
  -3  -7   6    3.51    2.26
   3   7  -6    7.25    3.26
  -3  -7   6    7.06    2.84
  -3  -7   6    6.12    3.31
   3   7  -5  165.40   35.15
  -3  -7   5  119.29   26.59
   3   7  -5  142.08   31.41
  -3  -7   5  163.12   34.48
   3   7  -4  289.82   61.23
  -3  -7   4  212.67   50.19
   3   7  -4  282.92   59.46
  -3  -7   4  269.98   56.71
   3   7  -3   19.56    4.30
  -3  -7   3   13.24    3.59
   3   7  -3   20.46    4.34
  -3  -7   3   19.98    4.10
   3   7  -2   68.17   12.87
   3   7  -2   79.17    8.24
  -3  -7   2   73.40    7.55
   3   7  -1   71.93   23.44
   3   7   0  115.44   31.12
   3   7   0  144.03    6.27
   3   7   1    0.12    3.55
   3   7   1    1.37    2.47
   3   8  -9    9.61    4.19
  -3  -8   9    9.78    3.82
   3   8  -8    3.66    3.70
  -3  -8   8    4.51    2.49
   3   8  -7   30.62    4.70
   3   8  -7   38.91    3.81
  -3  -8   7   39.83    4.50
   3   8  -6  143.06   11.23
   3   8  -6  149.21    8.11
  -3  -8   6  150.68    8.33
   3   8  -5  386.01   64.16
   3   8  -5  559.05   28.25
  -3  -8   5  525.68   26.63
   3   8  -4   43.03   14.37
   3   8  -4   77.52    5.20
  -3  -8   4   80.42    5.39
   3   8  -3   25.98    4.86
   3   8  -3    8.71    5.30
   3   8  -3   34.42    3.30
   3   8  -2    0.21    3.81
   3   8  -2    0.53    2.90
  -4  11  -1  358.54   43.42
  -4  11  -2   19.04    3.80
  -4  11  -4   22.25    5.32
  -4  11  -5   99.23   52.20
  -4  11  -6  657.51   36.60
  -4  11  -7  254.90   10.86
  -4  11  -7  195.17   22.15
  -4  11  -8    0.85    6.99
  -4  11  -8   -0.68    3.06
  -4  10   1  103.21   18.06
  -4  10   0  230.81   22.00
  -4  10  -1  143.72   16.76
  -4  10  -2  366.47   41.87
  -4  10  -2  144.47  135.11
  -4  10  -3   27.95   18.01
  -4  10  -3  108.08   23.57
  -4  10  -4   41.10    9.94
  -4  10  -4   76.57   16.62
  -4  10  -5   24.77    4.45
  -4  10  -5   19.55    4.28
  -4  10  -6    3.64    3.56
  -4  10  -6    1.02    2.90
  -4  10  -7  285.37   26.32
  -4  10  -7  231.47   21.45
  -4  10  -8  172.79   11.93
  -4  10  -8  133.03   10.93
  -4  10  -9  450.03   15.91
  -4  10  -9  252.29   39.92
  -4  10 -10  139.44    8.70
  -4  10 -10  132.56    8.02
  -4   9   3    8.91    3.86
  -4   9   3   12.87    4.94
   4  -9  -3    2.58    5.90
  -4   9   2  104.42   21.23
  -4   9   2  140.04   26.49
  -4   9   1    1.33    3.63
  -4   9   0   43.33    4.72
  -4   9  -1    2.65    3.50
  -4   9  -1   -2.88    6.06
  -4   9  -2   12.31    3.26
  -4   9  -2   13.36    4.32
  -4   9  -3   54.06    9.91
  -4   9  -3  104.34    5.92
  -4   9  -4  219.32    6.64
  -4   9  -4  196.07    6.30
  -4   9  -5   38.54    4.33
  -4   9  -5   38.32    5.87
  -4   9  -6 1008.07   44.01
  -4   9  -6  642.67  178.63
  -4   9  -8  107.18   22.76
  -4   9  -8  102.12   21.82
  -4   9  -9    9.25    3.30
  -4   9  -9    9.61    3.70
  -4   9 -10  416.67   21.52
  -4   9 -10  377.89   19.64
  -4   9 -11  269.29   14.53
  -4   9 -11  214.34   12.23
   4  -8  -5   63.95   28.86
  -4   8   5  206.57   12.55
  -4   8   4   17.35    3.90
   4  -8  -4    7.66    4.15
  -4   8   4   22.99    3.47
  -4   8   3  213.62   24.65
  -4   8   3  176.37   43.56
  -4   8   3  238.16   21.79
  -4   8   2   88.39    8.86
  -4   8   2   98.74   11.61
  -4   8   1   62.93    8.63
  -4   8   0    3.72    3.23
  -4   8   0    5.49    3.52
  -4   8   0    6.48    4.53
  -4   8  -1 1253.07   24.05
  -4   8  -1 1211.18   22.94
  -4   8  -2 5028.00   86.62
  -4   8  -2 5138.18  155.01
  -4   8  -3  157.89    7.19
  -4   8  -3  128.74    6.31
  -4   8  -4   21.04    3.17
  -4   8  -4   20.52    3.01
   4  -8   4   20.82    4.03
  -4   8  -5  165.70    6.89
  -4   8  -5  163.20    6.95
  -4   8  -6  310.16    7.84
  -4   8  -6  369.35   10.07
  -4   8  -7  358.83    8.27
  -4   8  -7  352.29    8.40
  -4   8  -7  314.12    8.39
  -4   8  -8  258.31   46.69
  -4   8  -8  356.22   17.32
  -4   8  -9 1030.83  215.97
  -4   8  -9 1001.73  210.01
  -4   8  -9  975.84  204.79
  -4   8 -10   41.10    6.31
  -4   8 -10   37.11    5.28
  -4   8 -10   41.97    6.29
  -4   8 -11  578.38   27.69
  -4   8 -11  661.61   30.65
  -4   8 -11  705.87  175.90
   4  -7  -6  174.27   30.65
  -4   7   6  255.85   10.41
  -4   7   5   68.84   30.43
   4  -7  -5   49.84   13.94
  -4   7   5  113.97    8.27
  -4   7   4    1.54    4.97
  -4   7   4    0.65    3.65
  -4   7   4    2.24    3.27
  -4   7   3  437.88   50.80
  -4   7   3  399.35   34.98
  -4   7   3  449.47   19.97
  -4   7   2  499.08   17.96
  -4   7   2  494.08   27.10
  -4   7   1  655.88   23.03
  -4   7   1  549.66   15.00
  -4   7   0   62.33    4.20
  -4   7   0   51.94    3.86
  -4   7   0   56.76    3.47
  -4   7  -1  775.48   16.24
  -4   7  -1  721.20   16.11
  -4   7  -1  812.51   18.23
  -4   7  -1  807.10   19.39
  -4   7  -2 1681.26   34.41
  -4   7  -2 1963.12   96.24
  -4   7  -2 1775.96   35.92
  -4   7  -3  303.94   35.29
  -4   7  -3  332.17   38.54
   4  -7   3  326.38   37.89
  -4   7  -4  811.36   20.52
  -4   7  -4  950.22   22.76
  -4   7  -5  241.46    7.80
  -4   7  -5  206.70   20.50
  -4   7  -5  213.90    8.07
   4  -7   5  245.98    9.10
  -4   7  -6  926.77   21.92
  -4   7  -6  887.09   21.72
  -4   7  -6  985.28   23.41
  -4   7  -6  902.21   21.98
   4  -7   6  870.78   21.79
  -4   7  -7    1.12    3.18
  -4   7  -7    0.70    2.47
  -4   7  -8   23.12    3.20
  -4   7  -8   27.86    4.25
  -4   7  -8   24.61    3.90
  -4   7  -9    2.87    2.67
  -4   7  -9    3.03    3.01
  -4   7  -9    2.35    4.00
  -4   7  -9    2.33    2.65
  -4   7 -10   67.60    7.16
  -4   7 -10   60.10    7.16
  -4   7 -10   70.76    7.88
  -4   7 -10   66.76    7.10
  -4   7 -11  647.13   21.42
  -4   7 -11  646.89   21.95
  -4   6   7   44.66   11.29
  -4   6   7   68.15    5.87
   4  -6  -7   27.69   12.53
  -4   6   7   85.91    4.56
  -4   6   6    0.52    4.37
  -4   6   6    0.63    3.10
  -4   6   6    1.84    2.84
   4  -6  -6    1.45    3.52
  -4   6   6   -0.63    3.63
  -4   6   5   20.06   10.94
  -4   6   5   42.53    4.13
   4  -6  -5   31.58    5.44
  -4   6   5   50.62    3.61
  -4   6   4  103.78    9.42
  -4   6   4  123.53    4.66
  -4   6   3   95.54    5.84
  -4   6   3   59.10   17.28
  -4   6   3   81.20    4.72
  -4   6   2  107.87    5.10
   4  -6  -2   98.28    6.18
   4  -6  -2   74.82    3.76
  -4   6   1    4.37    3.94
   4  -6  -1    4.15    4.00
  -4   6   1    4.59    2.70
  -4   6   0  609.88   86.68
  -4   6   0  521.71   74.17
  -4   6  -1  102.11    5.73
  -4   6  -1   77.98   22.07
  -4   6  -2  229.74    8.93
  -4   6  -2  228.95    8.66
  -4   6  -3  152.31    5.99
   4  -6   3  163.84    6.94
   4  -6   3  169.24    7.00
  -4   6  -4  132.73   19.04
  -4   6  -4  120.54   17.53
   4  -6   4  149.62   21.85
  -4   6  -5   41.20    5.58
  -4   6  -5   47.33    6.25
  -4   6  -5   43.20    5.75
   4  -6   5   46.42    6.40
  -4   6  -6  405.54   13.07
  -4   6  -6  437.84   13.33
  -4   6  -6  406.56   12.48
   4  -6   6  393.83   13.16
  -4   6  -7  259.10    6.39
  -4   6  -7  241.23    6.01
  -4   6  -7  265.09    7.10
  -4   6  -7  264.44    6.23
  -4   6  -8   45.86    3.77
  -4   6  -8   48.53    3.74
  -4   6  -8   44.72    4.06
  -4   6  -8   46.25    3.31
  -4   6  -9  792.04   18.32
  -4   6  -9  789.16   18.56
  -4   6  -9  832.15   20.16
  -4   6  -9  767.11   17.58
  -4   6 -10  238.89   22.19
  -4   6 -10  209.66   19.59
  -4   6 -10  232.20   21.49
  -4   6 -10  235.34   22.12
  -4   6 -10  231.53   21.49
   4  -6  11  142.68    6.64
  -4   6 -11  131.72    5.97
  -4   6 -11  128.33    5.90
  -4   5   8  144.41   26.95
  -4   5   8  303.20   31.80
  -4   5   8  307.55   11.39
  -4   5   7   76.69   11.50
  -4   5   7   75.32    8.32
   4  -5  -7   72.66    8.71
  -4   5   7   83.17    8.50
  -4   5   6  145.42   11.70
  -4   5   6  130.57   18.85
  -4   5   6  154.36    7.96
   4  -5  -6  154.71    9.23
  -4   5   6  168.29    8.84
  -4   5   5  331.24   10.73
  -4   5   5  277.17   15.66
  -4   5   5  302.64    8.11
   4  -5  -5  292.05    9.19
  -4   5   5  290.40    7.55
  -4   5   4  701.01   17.09
   4  -5  -4  615.42   16.16
  -4   5   4  633.75   15.96
  -4   5   4  608.81   14.82
  -4   5   4  568.26   14.53
   4  -5  -3  897.68   19.98
  -4   5   3  921.28   26.49
  -4   5   3  879.74   18.32
  -4   5   3  831.69   17.18
  -4   5   3  882.44   19.47
  -4   5   2  294.32   42.04
  -4   5   2  251.72   50.03
   4  -5  -1  173.70    8.28
  -4   5   1  165.42    6.68
   4  -5   0    5.33    3.95
  -4   5   0    1.57    2.15
   4  -5   1 1180.33   13.86
  -4   5  -1 1218.86   12.77
   4  -5   2 1940.14   18.60
  -4   5  -2 1975.75   17.79
  -4   5  -2 1939.86   17.79
  -4   5  -3 1102.74   12.43
   4  -5   3 1091.96   12.70
  -4   5  -3 1126.49   13.25
  -4   5  -3 1135.36   12.43
  -4   5  -4  527.96   17.87
  -4   5  -4  415.96   14.13
   4  -5   4  518.83   17.66
   4  -5   4  541.33   18.61
  -4   5  -4  533.24   18.16
  -4   5  -5   11.20    2.78
  -4   5  -5   12.31    2.82
   4  -5   5   13.42    4.72
  -4   5  -5   11.57    3.69
  -4   5  -6  532.62   11.59
  -4   5  -6  549.48   12.08
  -4   5  -6  533.06   12.66
  -4   5  -7  586.56   16.20
  -4   5  -7  594.36   14.33
  -4   5  -7  535.29   13.59
  -4   5  -7  572.57   14.02
   4  -5   7  563.55   15.09
  -4   5  -7  565.85   14.50
  -4   5  -8   10.86    3.52
  -4   5  -8   10.08    2.22
  -4   5  -8   11.66    3.25
  -4   5  -8    8.58    3.52
  -4   5  -8    9.16    3.65
  -4   5  -9   99.07    5.52
  -4   5  -9   92.94    3.83
  -4   5  -9   79.01    3.90
  -4   5  -9   89.43    4.90
  -4   5  -9   93.19    4.96
  -4   5 -10  375.40   34.41
  -4   5 -10  367.84   33.57
  -4   5 -10  384.96   35.51
  -4   5 -10  364.42   33.38
   4  -5  11    0.81    3.08
  -4   5 -11    0.42    2.66
  -4   4   9   15.29    3.55
  -4   4   8    2.92    3.85
  -4   4   8    4.19    3.64
  -4   4   8    4.11    2.70
  -4   4   7    5.92    4.49
  -4   4   7    4.11    2.45
  -4   4   7    7.77    3.52
   4  -4  -7    3.98    2.47
  -4   4   7    7.86    3.38
  -4   4   6  195.87   10.59
  -4   4   6  196.97    8.57
  -4   4   6  220.64   18.14
  -4   4   6  225.80   18.49
  -4   4   5    2.43    3.30
   4  -4  -5    1.88    4.13
  -4   4   5    3.51    4.45
  -4   4   5    1.32    2.36
  -4   4   5    1.47    2.65
  -4   4   4 1469.65  172.12
   4  -4  -4 1536.95  176.27
  -4   4   4 1168.53  229.55
  -4   4   4 1394.50  159.74
  -4   4   4 1347.97  154.53
  -4   4   3  321.05   11.09
   4  -4  -3  314.56   11.66
  -4   4   3  318.07   11.67
  -4   4   3  296.27   10.81
   4  -4  -2  152.47    6.18
  -4   4   2  160.70    5.87
  -4   4   2  154.38    5.46
   4  -4  -1  215.48    7.00
  -4   4   1  219.39    7.04
  -4   4   1  202.55    6.05
   4  -4   0  765.50   10.88
  -4   4   0  750.86    9.73
  -4   4   0  751.55    9.65
   4  -4   1   19.80    3.20
  -4   4  -1   22.67    4.06
  -4   4  -1   21.53    2.95
   4  -4   2   61.29    3.69
   4  -4   2   66.09    4.43
  -4   4  -2   63.46    4.15
  -4   4  -2   61.85    3.80
   4  -4   3  894.94   12.98
   4  -4   3  916.77   11.57
  -4   4  -3  914.94   11.46
  -4   4  -3  896.62   10.62
   4  -4   4  542.87    8.19
  -4   4  -4  534.17    8.00
  -4   4  -5  156.13   28.39
  -4   4  -5  220.08   31.45
  -4   4  -5  215.40   30.79
   4  -4   5  220.18   31.68
  -4   4  -5  214.84   30.79
   4  -4   5  224.97   32.44
  -4   4  -6  696.59   44.94
  -4   4  -6  777.57   16.38
  -4   4  -6  775.90   16.79
  -4   4  -6  787.39   16.67
   4  -4   6  767.45   17.28
  -4   4  -6  773.46   17.05
  -4   4  -7  635.83   16.07
  -4   4  -7  618.23   14.95
  -4   4  -7  623.60   15.14
  -4   4  -7  614.65   14.99
   4  -4   7  625.43   16.68
  -4   4  -7  639.07   16.34
  -4   4  -8  967.58   22.77
  -4   4  -8  932.60   20.42
  -4   4  -8  948.25   21.65
  -4   4  -8 1006.22   22.03
  -4   4  -9   60.27    4.60
  -4   4  -9   50.98    3.18
  -4   4  -9   65.67    4.56
  -4   4  -9   60.27    3.43
  -4   4 -10  373.32   24.70
  -4   4 -10  321.11   21.06
  -4   4 -10  340.03   22.21
   4  -4  11   61.20    4.85
  -4   3  10   72.67    5.91
  -4   3  10   84.75    5.67
  -4   3   9   29.87    4.94
  -4   3   7  811.30   34.93
  -4   3   7  661.71   28.46
  -4   3   7  740.70   21.14
  -4   3   7  719.83   16.07
  -4   3   6   93.98    5.40
   4  -3  -6   93.88    5.10
  -4   3   6   79.38    8.56
  -4   3   6   83.81    3.93
  -4   3   6   90.24    4.21
  -4   3   6   90.79    5.37
  -4   3   5  156.98   31.20
   4  -3  -5  193.99   22.88
  -4   3   5  216.19   26.46
  -4   3   5  195.19   22.69
  -4   3   5  198.17   23.02
  -4   3   5  197.45   23.20
  -4   3   5  192.98   22.85
  -4   3   4  572.17   32.42
   4  -3  -4  680.02   22.69
  -4   3   4  644.60   21.83
  -4   3   4  653.48   21.36
  -4   3   4  638.21   20.75
  -4   3   4  652.12   21.64
  -4   3   4  624.23   20.87
  -4   3   3  127.13    5.48
  -4   3   3  124.76    4.89
   4  -3  -2   96.15    4.85
  -4   3   2   93.93    4.33
  -4   3   2   93.74    5.02
   4  -3  -1   46.13    3.60
   4  -3  -1   48.91    4.81
  -4   3   1   45.77    4.41
  -4   3   1   45.04    3.22
   4  -3   0  113.52    5.09
   4  -3   0  109.87    5.15
  -4   3   0  107.59    4.21
  -4   3   0  104.86    3.70
   4  -3   1  397.20    8.65
   4  -3   1  404.12    7.54
   4  -3   1  420.22    8.40
  -4   3  -1  410.51    7.41
   4  -3   2  211.76    5.95
   4  -3   2  224.97    6.13
  -4   3  -2  217.61    4.98
   4  -3   3   57.88    4.62
  -4   3  -3   55.78    3.57
  -4   3  -3   56.24    3.55
   4  -3   4    6.87    3.35
   4  -3   4    5.28    4.06
  -4   3  -5  651.04   92.72
  -4   3  -5  693.34   98.46
  -4   3  -5  609.57   86.98
   4  -3   5  682.97   97.19
  -4   3  -5  689.18   97.90
   4  -3   5  697.63   99.31
  -4   3  -5  728.80  103.64
  -4   3  -6   60.80    3.22
  -4   3  -6   58.97    2.82
  -4   3  -6   61.59    3.47
   4  -3   6   63.56    3.74
  -4   3  -6   64.63    3.39
   4  -3   6   61.14    4.59
  -4   3  -6   60.00    3.51
  -4   3  -7  807.70   18.89
  -4   3  -7  783.68   15.53
  -4   3  -7  806.53   16.08
  -4   3  -7  794.55   16.29
  -4   3  -8    3.03    3.35
  -4   3  -8    2.65    2.67
  -4   3  -8    2.58    2.75
  -4   3  -8    3.36    2.79
  -4   3  -9  130.92   27.86
  -4   2  10   46.01    4.84
  -4   2  10   47.96    4.76
  -4   2  10   38.79    3.86
  -4   2   9  360.52   75.70
  -4   2   9  334.92   70.33
  -4   2   9  339.59   71.43
  -4   2   8  134.98    5.15
  -4   2   8  133.95    4.96
  -4   2   7  339.10   71.94
  -4   2   7  484.32    9.93
  -4   2   7  520.32   10.89
   4  -2  -6 1667.13   35.03
  -4   2   6 1550.87   35.84
  -4   2   6 1574.29   32.49
  -4   2   6 1564.75   32.23
  -4   2   5  418.26  153.84
   4  -2  -5 1025.09  145.67
  -4   2   5  516.44   80.24
  -4   2   5 1020.82  144.88
  -4   2   5  944.73  134.08
  -4   2   5 1034.91  146.99
  -4   2   5  999.29  141.98
   4  -2  -4 1465.47   15.40
  -4   2   4 1470.12   14.65
  -4   2   4 1466.58   15.13
   4  -2  -3  776.58   11.22
  -4   2   3  806.60    9.94
  -4   2   3  816.39   10.19
   4  -2  -2 3298.75   33.44
   4  -2  -2 3270.12   32.21
  -4   2   2 3219.80   31.24
  -4   2   2 3329.53   32.16
   4  -2  -1    0.73    2.09
   4  -2  -1    1.10    3.89
  -4   2   1    2.56    2.62
   4  -2   0    7.16    3.06
   4  -2   0    7.32    2.62
   4  -2   0    7.77    4.08
  -4   2   0    7.80    4.10
  -4   2   0    8.93    3.33
   4  -2   1 2212.38   25.21
   4  -2   1 2140.01   22.62
  -4   2  -1 2245.34   23.15
  -4   2  -1 2152.17   23.57
   4  -2   2   20.42    3.95
  -4   2  -2   19.54    3.68
  -4   2  -2   19.54    3.01
   4  -2   3 2095.07   22.05
  -4   2  -3 2057.44   17.93
  -4   2  -4   28.22    3.09
   4  -2   4   41.46    4.29
  -4   2  -4   36.57    3.86
  -4   2  -5  212.94   24.70
  -4   2  -5  127.59   18.77
   4  -2   5  220.39   31.72
  -4   2  -5  212.14   24.66
   4  -2   5  211.48   30.49
  -4   2  -5  206.24   29.71
  -4   2  -6  186.94    6.48
   4  -2   6  184.56    7.36
  -4   2  -6  192.39    6.60
  -4   2  -6  193.71    7.36
   4  -2   6  163.23   11.27
  -4   2  -7  197.93    7.28
  -4   2  -7  210.83   17.37
   4  -2   7  197.74    7.45
  -4   2  -8   55.39    4.63
  -4   2  -8   55.60    3.78
   4  -2   8   52.29    3.55
  -4   2  -9   34.76    4.42
  -4   2  -9   36.15    3.96
   4  -2   9   33.09    3.27
  -4   2 -10   14.07    3.66
  -4   2 -10   12.05    3.26
  -4   1  11  146.02    7.00
   4  -1 -11  144.51    6.27
  -4   1  11   80.08   14.72
  -4   1  10   32.55    3.57
  -4   1  10   25.02    3.99
  -4   1  10   33.57    4.11
  -4   1  10   30.12    2.66
  -4   1   9   30.26    3.51
  -4   1   9   37.28    3.53
  -4   1   9   33.38    3.12
  -4   1   9   33.56    3.96
  -4   1   8   96.75    4.97
  -4   1   8   77.97    6.60
  -4   1   8  103.26    5.99
  -4   1   8   92.15    4.54
  -4   1   8   96.21    5.45
  -4   1   7  553.13   16.49
   4  -1  -7  562.52   17.57
  -4   1   7  467.20   27.38
  -4   1   7  613.36   18.25
  -4   1   7  522.68   16.56
  -4   1   7  540.95   16.86
  -4   1   7  536.87   16.99
  -4   1   6   77.69    9.44
   4  -1  -6   82.02   10.33
  -4   1   6   62.55    8.54
  -4   1   6   85.83   10.37
  -4   1   6   76.52    9.30
  -4   1   6   77.04    9.85
  -4   1   6   81.18    9.86
  -4   1   6   78.76   10.33
   4  -1  -5  138.52    7.11
  -4   1   5   21.57   41.19
  -4   1   5  122.85    5.65
  -4   1   5  130.41    5.54
  -4   1   5  125.53    5.93
  -4   1   5  130.71    6.78
   4  -1  -4  320.25    9.30
  -4   1   4  314.58    8.76
   4  -1  -3  342.33   12.74
   4  -1  -2  651.21   11.18
   4  -1  -2  694.36   10.81
   4  -1  -2  672.59   10.29
  -4   1   2  664.33   10.03
  -4   1   2  657.58    9.64
   4  -1  -1  406.03    9.21
   4  -1  -1  406.18    7.59
   4  -1  -1  396.39    8.19
  -4   1   1  398.53    7.58
  -4   1   1  390.10    7.02
   4  -1   0 3743.79   37.64
   4  -1   0 3726.54   37.30
   4  -1   0 3638.12   35.70
  -4   1   0 3896.84   36.57
  -4   1   0 3739.03   36.28
   4  -1   1  174.93    5.69
  -4   1  -1  176.71    4.98
  -4   1  -1  178.33    5.24
  -4   1  -2 5737.16   49.55
   4  -1   3  952.01   11.95
   4  -1   3  934.78   11.48
  -4   1  -3  949.70   11.52
  -4   1  -4 1651.90  235.35
  -4   1  -4 1601.19  227.45
   4  -1   4 1746.77  248.37
  -4   1  -4 1626.02  232.01
  -4   1  -4 1714.38  243.54
   4  -1   4  554.89  308.68
  -4   1  -5 1440.30   29.70
  -4   1  -5 1423.84   30.13
   4  -1   5 1466.56   34.31
  -4   1  -5 1407.69   29.16
  -4   1  -5 1455.14   30.87
   4  -1   5 1301.47   32.79
  -4   1  -6  577.61   13.23
  -4   1  -6  537.89   11.18
  -4   1  -6  560.53   11.50
   4  -1   6  547.51   11.23
  -4   1  -7 1205.84   52.76
  -4   1  -7 1242.60   54.19
  -4   1  -7 1262.51   54.65
   4  -1   7 1132.98   68.81
  -4   1  -8  418.62   88.01
  -4   1  -8  393.11   82.56
  -4   1  -8  411.76   86.37
   4  -1   8  400.35   84.01
  -4   1  -9  380.45   20.46
  -4   1  -9  382.78   19.84
   4  -1   9  378.81   19.56
  -4   0  11    4.17    3.14
  -4   0  11    3.39    3.31
   4   0 -11    4.80    2.41
  -4   0  11    4.28    2.67
  -4   0  10    0.57    2.43
  -4   0  10   -0.72    2.66
  -4   0  10   -0.29    3.69
  -4   0  10   -0.76    3.42
  -4   0   9    8.93    3.61
  -4   0   9    6.82    2.80
  -4   0   9   12.25    4.24
  -4   0   9    8.95    2.97
  -4   0   8  235.86    6.68
  -4   0   8  198.94    7.67
  -4   0   8  245.29    6.87
  -4   0   8  237.99    6.60
  -4   0   7  189.34    6.98
   4   0  -7  190.80    7.29
  -4   0   7  161.47    9.61
  -4   0   7  207.71    7.72
  -4   0   7  197.70    7.67
  -4   0   7  190.80    6.81
  -4   0   7  191.06    7.76
  -4   0   6  229.22   32.83
   4   0  -6  254.77   36.68
  -4   0   6   70.06   55.08
  -4   0   6  226.37   32.54
  -4   0   6  221.63   31.80
  -4   0   6  189.16   34.63
  -4   0   6  239.11   34.41
  -4   0   5    0.01    2.52
   4   0  -5    0.60    4.07
  -4   0   5    0.22    2.60
  -4   0   5    0.86    2.87
  -4   0   5    0.37    2.87
  -4   0   4 1634.85   16.29
  -4   0   4 1667.01   17.11
   4   0  -3 1242.44   13.79
   4   0  -3 1189.50   13.25
  -4   0   3 1194.81   13.23
  -4   0   3 1161.53   12.91
   4   0  -2  379.51    7.76
   4   0  -2  360.39    7.41
  -4   0   2  352.62    7.17
  -4   0   2  345.46    9.05
   4   0  -1   10.98    2.49
   4   0  -1   10.33    3.90
  -4   0   1    9.12    3.04
  -4   0   1    9.90    3.86
   4   0   0  799.77   10.53
   4   0   0  838.76   10.49
  -4   0   0  810.63   11.14
  -4   0   0  810.26   10.11
   4   0   1    2.97    3.61
  -4   0  -1    2.82    2.02
  -4   0  -1    2.95    3.04
   4   0   2   41.45    4.43
  -4   0  -2   40.43    3.52
  -4   0  -3  946.64  134.47
  -4   0  -3  991.48  140.92
  -4   0  -3  945.18  134.12
  -4   0  -3 1068.91  152.30
   4   0   3  797.29  119.93
  -4   0  -4    5.67    2.30
  -4   0  -4    5.58    2.05
   4   0   4    4.80    4.12
  -4   0  -4    5.70    3.47
   4   0   4    6.13    2.53
  -4   0  -5  610.45   12.86
  -4   0  -5  594.31   12.64
  -4   0  -5  608.03   11.95
  -4   0  -5  574.30   12.14
   4   0   5  606.12   12.78
  -4   0  -6  558.99   13.07
  -4   0  -6  504.97   11.50
  -4   0  -6  518.47   10.81
  -4   0  -6  544.16   10.71
   4   0   6  514.71   10.45
  -4   0  -7  130.65   27.85
  -4   0  -7  120.29   25.76
  -4   0  -7  134.78   28.47
   4   0   7  135.64   28.68
  -4   0  -8  145.24   10.75
   4   0   8   94.27    8.16
  -4   0  -8  146.88   10.43
  -4   0  -8  154.91   10.59
   4   0   8  159.11   11.74
   4   0   9    3.10    2.62
  -4   0  -9    9.76    3.60
   4   0   9    8.06    3.12
  -4  -1  12   12.86    4.17
  -4  -1  12    7.76    3.38
  -4  -1  11   79.52    7.40
   4   1 -11   76.49    6.06
  -4  -1  11   72.69    7.76
  -4  -1  10    3.08    2.61
   4   1 -10    3.53    2.44
   4   1 -10    3.46    3.76
  -4  -1  10    2.62    3.56
  -4  -1   9   40.64    4.56
   4   1  -9   35.97    4.41
  -4  -1   9   42.81    5.33
   4   1  -9   42.13    4.64
  -4  -1   9   34.73    4.40
  -4  -1   8  314.17    8.23
  -4  -1   8  266.28   11.71
  -4  -1   8  285.30    7.41
  -4  -1   7  889.34   25.71
   4   1  -7  907.99   27.15
  -4  -1   7  771.59   68.76
  -4  -1   7  862.32   25.26
  -4  -1   7  878.16   26.52
  -4  -1   7  878.99   25.69
  -4  -1   7  875.78   25.99
   4   1  -6   70.47   11.05
  -4  -1   6   51.95    9.70
  -4  -1   6   67.91   10.42
  -4  -1   6   68.49   10.17
  -4  -1   6   64.90   10.09
   4   1  -5  596.28   20.37
  -4  -1   5  140.98  190.77
   4   1  -5  568.10   18.69
  -4  -1   5  562.61   19.21
  -4  -1   5  391.84   71.19
  -4  -1   4 1445.96   15.08
   4   1  -3  140.59    5.90
  -4  -1   3  132.66    5.35
  -4  -1   3  143.95    5.74
   4   1  -2    8.41    3.20
   4   1  -2    8.13    3.16
  -4  -1   2    7.43    2.71
  -4  -1   2    7.75    2.63
   4   1  -1  376.58    7.13
   4   1  -1  372.98    6.68
  -4  -1   1  375.96    6.94
  -4  -1   1  374.84    7.06
   4   1   0 1788.46   18.69
   4   1   0 1806.52   19.86
  -4  -1   0 1794.43   17.86
  -4  -1  -1   95.07    4.42
   4   1   1  103.94    5.88
  -4  -1  -1  102.57    4.73
   4   1   1   61.47    6.23
  -4  -1  -2  532.64   75.86
  -4  -1  -2  567.32   82.73
   4   1   2  595.02   84.82
  -4  -1  -2  600.61   85.52
   4   1   2  480.20   86.24
  -4  -1  -3  229.27    6.18
  -4  -1  -3  235.01    6.59
   4   1   3  228.54    7.15
  -4  -1  -3  217.81    6.03
  -4  -1  -3  229.39    7.15
   4   1   3  217.52    6.34
  -4  -1  -4   75.16    4.12
  -4  -1  -4   80.63    4.34
  -4  -1  -4   83.48    5.02
   4   1   4   92.37    4.96
  -4  -1  -5   47.88    5.09
  -4  -1  -5   49.31    5.44
  -4  -1  -5   46.31    4.79
   4   1   5   50.27    5.52
  -4  -1  -6    1.55    3.13
  -4  -1  -6    2.23    2.88
  -4  -1  -6    2.79    3.55
   4   1   6    2.02    3.16
   4   1   7    4.23    3.68
  -4  -1  -7    3.39    3.42
  -4  -1  -7    3.25    3.33
   4   1   7    2.84    3.82
   4   1   8    1.45    3.31
  -4  -1  -8    2.60    2.90
   4   1   8    1.03    2.50
  -4  -2  12   65.55    9.93
  -4  -2  12   97.36    6.61
  -4  -2  11  286.78   19.46
   4   2 -11  242.88   16.88
   4   2 -11  277.99   18.36
  -4  -2  11  253.53   17.16
   4   2 -10   28.05    4.32
   4   2 -10   24.91    4.24
  -4  -2  10   27.87    4.07
   4   2  -9  245.93    7.26
   4   2  -9  250.43    6.59
  -4  -2   9  267.05    7.40
  -4  -2   8  143.17    6.91
   4   2  -8  129.64    5.87
   4   2  -8  131.60    6.05
  -4  -2   8  137.65    7.06
  -4  -2   7  735.83   24.48
   4   2  -7  631.91   19.97
   4   2  -7  679.10   20.78
   4   2  -7  682.30   20.32
   4   2  -7  698.14   21.22
  -4  -2   7  657.80   20.61
  -4  -2   7  718.86   21.51
  -4  -2   6   57.54    7.58
   4   2  -6   51.45    6.83
  -4  -2   6   15.87   11.46
   4   2  -6   49.10    6.50
   4   2  -6   45.43    5.93
  -4  -2   6   44.49    6.12
  -4  -2   6   45.74    6.33
  -4  -2   5   46.77    9.85
  -4  -2   5    6.98   13.49
   4   2  -5   66.02    9.81
  -4  -2   5   70.70   10.71
  -4  -2   5   80.58   11.84
  -4  -2   4  161.22   22.41
   4   2  -4  262.27   10.20
   4   2  -4  235.70    8.33
   4   2  -4  226.97    8.48
  -4  -2   4  240.61    9.36
  -4  -2   4  251.64    9.72
  -4  -2   4  207.81   10.88
   4   2  -3 1181.25   38.40
   4   2  -3 1134.02   36.17
  -4  -2   3 1166.56   38.33
  -4  -2   3  918.69   49.08
   4   2  -2  515.99   17.84
  -4  -2   2  476.46   15.61
  -4  -2   2  514.17   17.80
  -4  -2   2  490.05   18.10
   4   2  -1  243.80    9.05
  -4  -2   1  232.08    8.27
  -4  -2   1  144.32   47.89
   4   2  -1  251.11    9.42
   4   2  -1  237.53    8.56
  -4  -2   1  239.06    8.48
  -4  -2   1  243.58    9.46
  -4  -2   1  185.16   43.12
  -4  -2   1  239.13    9.13
  -4  -2   0   41.31   14.35
  -4  -2   0   90.16   13.12
  -4  -2   0   72.18   10.89
   4   2   0   88.68   13.72
   4   2   0   79.13   11.50
  -4  -2   0   82.86   12.14
  -4  -2   0   89.34   13.24
   4   2   0   93.35   13.60
  -4  -2  -1  167.83   22.85
  -4  -2  -1  331.98   38.27
   4   2   1  324.04   37.60
   4   2   1  310.71   35.87
  -4  -2  -1  300.24   34.84
   4   2   1  337.93   38.96
  -4  -2  -2  140.39    5.76
  -4  -2  -2  158.79    6.21
   4   2   2  157.27    6.51
  -4  -2  -2  159.91    5.91
  -4  -2  -2  150.38    6.63
   4   2   2  162.61    6.34
  -4  -2  -3   35.55    3.05
   4   2   3   46.44    4.06
  -4  -2  -3   45.86    3.85
  -4  -2  -3   47.66    4.08
   4   2   3   43.13    3.51
  -4  -2  -4  136.27    5.52
  -4  -2  -4  128.13    4.29
   4   2   4  132.21    5.05
  -4  -2  -5  170.73   83.51
  -4  -2  -5  374.19   78.76
  -4  -2  -5  377.28   79.14
   4   2   5  391.42   82.13
  -4  -2  -6  151.21   10.88
  -4  -2  -6  172.58   11.62
   4   2   6  139.11    9.64
   4   2   7  264.44   14.99
  -4  -2  -7  224.87   14.20
  -4  -2  -7  218.57   11.71
   4   2   7  251.51   13.60
  -4  -3  12   97.15    6.23
  -4  -3  12   75.18   10.64
  -4  -3  11  103.94    8.05
   4   3 -11   80.46    6.57
   4   3 -11   95.84    7.20
  -4  -3  10  183.99   38.88
   4   3 -10  145.27   30.68
   4   3 -10  155.45   32.87
  -4  -3   9    5.79    3.08
   4   3  -9    5.11    3.55
   4   3  -9    6.22    2.66
   4   3  -9    4.24    3.48
  -4  -3   8  148.46    6.72
   4   3  -8  131.02    5.83
   4   3  -8  136.69    5.70
   4   3  -8  127.39    6.05
  -4  -3   7    3.83    3.86
   4   3  -7    3.06    2.31
   4   3  -7    2.77    2.80
   4   3  -7    3.12    3.68
   4   3  -7    3.14    2.97
  -4  -3   6    6.35    3.06
   4   3  -6    9.17    3.31
   4   3  -6    9.87    2.60
   4   3  -6    8.48    3.43
  -4  -3   5  220.87   16.02
   4   3  -5  206.80    8.75
   4   3  -5  249.93    8.28
  -4  -3   5  234.43    9.29
   4   3  -4   57.01    7.90
   4   3  -4   97.10   12.18
   4   3  -4   86.11   10.34
  -4  -3   4  113.20   14.61
  -4  -3   3   93.36   31.71
   4   3  -3   96.71   23.76
   4   3  -3  206.15   24.13
  -4  -3   3   66.05   29.96
   4   3  -3  184.85   21.60
  -4  -3   3  182.26   21.39
  -4  -3   3  196.69   23.16
   4   3  -2  278.08   33.25
   4   3  -2  438.40   50.68
  -4  -3   2  232.05   69.31
   4   3  -2  390.27   45.05
  -4  -3   2  395.28   45.56
  -4  -3   2  414.82   48.00
  -4  -3   2  411.10   47.59
   4   3  -1   65.04    3.21
  -4  -3   1   61.46    4.12
   4   3  -1   64.95    2.99
   4   3  -1   64.43    3.13
  -4  -3   1   70.30    4.55
   4   3   0  120.92    5.90
   4   3   0  113.10    5.01
  -4  -3   0  113.04    5.00
  -4  -3   0  104.64    5.52
   4   3   0  112.75    5.41
   4   3   1  206.76    8.15
   4   3   1  195.35    7.36
  -4  -3  -1  215.84    8.24
   4   3   1  214.61    7.90
   4   3   2   -0.89    3.66
   4   3   2   -0.37    3.08
  -4  -3  -2    0.47    2.60
   4   3   2    0.77    3.86
   4   3   3   14.03    4.70
   4   3   3   16.77    2.79
  -4  -3  -3   18.96    3.94
   4   3   3   20.09    3.53
  -4  -3  -4   13.32    6.27
  -4  -3  -4   21.82    4.19
   4   3   4   19.93    4.50
   4   3   5   40.80    6.12
  -4  -3  -5   40.17    3.76
   4   3   5   51.28    4.79
   4   3   6    4.86    3.74
   4   3   6    3.50    3.23
  -4  -4  12    4.70    2.82
   4   4 -12    4.84    2.67
  -4  -4  12    8.92    3.90
  -4  -4  11    6.78    3.34
   4   4 -11    7.12    3.26
   4   4 -11    6.20    2.73
  -4  -4  11    6.44    3.57
  -4  -4  10   60.66    6.85
   4   4 -10   57.02    6.22
   4   4 -10   62.15    6.86
   4   4 -10   50.34    3.65
  -4  -4  10   50.63    7.30
  -4  -4   9   70.08    7.67
   4   4  -9   63.30    3.53
   4   4  -9   76.26    3.77
   4   4  -9   70.73    8.15
  -4  -4   9   74.38    4.73
  -4  -4   8   24.79    4.46
   4   4  -8   19.33    3.38
   4   4  -8   19.41    3.76
   4   4  -8   18.19    4.56
  -4  -4   8   13.67    3.25
  -4  -4   7  221.50   28.13
   4   4  -7  276.98    8.24
   4   4  -7  265.69    7.41
   4   4  -7  253.22    8.01
  -4  -4   7  286.92    8.79
  -4  -4   6  238.53   16.26
   4   4  -6  254.46    7.46
   4   4  -6  282.28    7.63
   4   4  -6  283.47    7.88
  -4  -4   6  294.34    7.36
   4   4  -5  291.07    8.60
   4   4  -5  303.80    9.51
   4   4  -5  302.92    8.32
  -4  -4   5  269.46   11.57
  -4  -4   5  332.01    9.65
   4   4  -4  612.80   15.81
   4   4  -4  652.75   17.28
  -4  -4   4  656.99   17.46
  -4  -4   4  615.36   15.38
  -4  -4   4  561.52   18.48
  -4  -4   4  665.52   16.26
   4   4  -3  579.18   16.06
   4   4  -3  608.43   15.92
  -4  -4   3  579.83   19.26
   4   4  -3  616.96   14.97
  -4  -4   3  601.06   15.87
  -4  -4   3  650.66   17.16
  -4  -4   3  580.29   16.84
   4   4  -2  159.77    7.46
   4   4  -2  158.22    7.49
  -4  -4   2  149.04    6.72
   4   4  -2  154.66    7.03
  -4  -4   2  163.89    7.06
  -4  -4   2  166.34    7.50
   4   4  -2  148.85    6.51
   4   4  -1    3.57    3.00
  -4  -4   1    1.80    2.80
   4   4  -1    1.98    3.96
  -4  -4   1    1.20    2.91
   4   4  -1    2.37    3.00
   4   4   0   14.78    3.70
  -4  -4   0   17.87    3.73
   4   4   0   18.26    2.82
  -4  -4   0   18.08    2.96
   4   4   0   18.74    3.94
   4   4   1  704.16   55.01
  -4  -4  -1  843.76   38.96
   4   4   1  829.31   36.53
  -4  -4  -1  853.91   37.28
   4   4   1  862.94   38.01
   4   4   2  167.24   57.97
  -4  -4  -2  196.42   27.00
   4   4   2  262.79    7.53
  -4  -4  -2  242.76    7.00
   4   4   2  237.75   25.67
   4   4   3    2.77    3.01
   4   4   3    9.82    3.60
  -4  -4  -3    7.72    3.64
   4   4   3    8.79    2.48
  -4  -4  -3    7.54    2.70
   4   4   3    8.63    3.74
   4   4   4  168.68   11.26
  -4  -4  -4  145.20   11.09
  -4  -4  -4  136.48    8.00
   4   4   4  196.71    8.13
  -4  -5  11  728.84  184.84
   4   5 -11  572.43   68.62
  -4  -5  11  892.32  222.57
  -4  -5  10  391.90   41.83
   4   5 -10  471.58   30.96
   4   5 -10  450.81   28.97
   4   5 -10  488.22   31.82
  -4  -5  10  453.72   31.58
  -4  -5   9  309.03   28.77
   4   5  -9  314.17   28.99
   4   5  -9  312.00   28.65
   4   5  -9  309.11   31.04
  -4  -5   9  325.62   30.26
   4   5  -8    2.57    2.74
   4   5  -8    2.05    3.39
   4   5  -8    3.81    3.43
  -4  -5   8    4.43    3.61
   4   5  -7   42.60    4.26
   4   5  -7   39.64    3.90
   4   5  -7   40.74    3.89
  -4  -5   7   40.72    3.44
   4   5  -6  805.74   15.60
   4   5  -6  770.43   16.11
  -4  -5   6  798.27   16.69
  -4  -5   6  584.80   83.72
   4   5  -5   75.93    7.60
  -4  -5   5   70.16    6.95
   4   5  -5   70.53    6.98
  -4  -5   5   74.63    8.09
   4   5  -4   26.05    3.70
  -4  -5   4   29.10    4.59
  -4  -5   4   24.14    3.99
   4   5  -3  169.93    6.43
  -4  -5   3  137.53   12.60
  -4  -5   3  166.81    5.11
  -4  -5   3  170.28    6.05
   4   5  -3  149.47    8.57
   4   5  -2 1302.75   58.99
  -4  -5   2 1284.11   56.20
   4   5  -2 1300.39   57.09
  -4  -5   2 1316.24   57.49
   4   5  -2 1301.73   56.63
   4   5  -1    0.73    4.83
  -4  -5   1    0.56    3.04
   4   5  -1    1.12    3.85
  -4  -5   1   -0.09    4.28
   4   5  -1    0.80    3.06
   4   5   0  139.85   38.32
  -4  -5   0  184.75   39.57
   4   5   0  206.76   43.56
  -4  -5   0  214.84   45.15
   4   5   0  192.90   40.93
   4   5   1   74.38   43.84
  -4  -5  -1  151.80   16.54
   4   5   1  159.25   14.97
  -4  -5  -1  180.52   16.82
   4   5   1  199.85   18.69
   4   5   2    2.27    3.08
  -4  -5  -2    5.06    3.31
   4   5   2    7.70    3.34
  -4  -5  -2    7.12    2.32
   4   5   2    7.85    2.63
  -4  -5  -3  126.07   22.56
   4   5   3  166.38   24.22
   4   6 -11  188.59   32.20
  -4  -6  11  208.33   15.10
  -4  -6  11  235.00   12.65
  -4  -6  11  224.37   12.39
   4   6 -10   72.31    4.68
  -4  -6  10   60.91    4.02
   4   6 -10   61.21    3.53
  -4  -6  10   63.46    4.67
  -4  -6  10   73.64    4.60
   4   6  -9   17.97    4.20
  -4  -6   9   16.99    4.04
   4   6  -9   15.65    3.48
  -4  -6   9   15.68    3.20
  -4  -6   9   12.40    3.22
   4   6  -8  118.63   11.57
  -4  -6   8  130.01   12.70
   4   6  -8  123.30   11.84
  -4  -6   8  130.24   12.61
  -4  -6   8   98.52   12.46
   4   6  -7  116.20   11.65
  -4  -6   7  107.94   10.55
   4   6  -7  115.41   11.29
  -4  -6   7  111.79   10.76
  -4  -6   7  119.14   11.73
   4   6  -6   40.07    5.03
  -4  -6   6   41.71    5.45
   4   6  -6   40.22    4.90
  -4  -6   6   39.98    5.23
   4   6  -5   19.09    4.70
  -4  -6   5   16.85    3.42
   4   6  -5   17.44    3.81
  -4  -6   5   17.27    3.90
  -4  -6   5   16.52    4.60
   4   6  -5   10.32    2.73
   4   6  -4  317.74   67.40
  -4  -6   4  324.99   68.45
   4   6  -4  349.30   73.36
  -4  -6   4  324.91   68.28
   4   6  -4  349.54   73.46
   4   6  -3   23.74    4.64
  -4  -6   3   40.07    5.82
  -4  -6   3   42.95    5.57
   4   6  -3   42.13    5.88
   4   6  -2  175.04   19.50
  -4  -6   2  191.88   18.16
   4   6  -2  225.97   20.79
  -4  -6   2  205.52   19.02
   4   6  -2  220.34   20.40
   4   6  -1   11.03    5.16
  -4  -6   1   15.65    3.66
   4   6  -1   19.69    3.68
  -4  -6   1   18.31    3.87
   4   6  -1   20.57    4.21
   4   6   0   95.03   80.05
  -4  -6   0  228.30   20.31
   4   6   0  272.31   14.50
  -4  -6   0  247.77   12.96
   4   6   0  277.28   14.78
   4   6   1    0.04    2.57
  -4  -6  -1    1.32    2.92
   4   6   1    3.25    2.66
   4   6   1    3.81    2.82
   4   7  -9    0.55    3.23
   4   7  -9    0.46    2.32
  -4  -7   9    1.15    3.06
   4   7  -8   16.42    3.95
  -4  -7   8   14.57    2.97
   4   7  -8   13.72    2.75
  -4  -7   8    5.80    2.53
   4   7  -7   26.35    4.85
  -4  -7   7   31.07    5.14
   4   7  -7   41.45    3.78
  -4  -7   7   41.02    4.56
   4   7  -7   30.17    3.89
   4   7  -6   18.30    4.07
  -4  -7   6   28.03    3.69
   4   7  -6   26.66    4.38
  -4  -7   6   32.01    4.19
   4   7  -6   32.08    4.04
   4   7  -5   74.41    7.96
  -4  -7   5   52.94    6.65
   4   7  -5   81.97    9.06
  -4  -7   5   95.50    6.25
   4   7  -5   60.92    6.00
   4   7  -4  590.68   78.44
  -4  -7   4  499.84   52.56
   4   7  -4  872.48   48.75
  -4  -7   4  800.34   44.89
   4   7  -4  570.43  108.29
   4   7  -3  482.78   52.44
  -4  -7   3  503.13   42.73
  -4  -7   3  641.72   32.84
   4   7  -3  648.25   29.72
   4   7  -2   37.01   82.68
  -4  -7   2  180.40   24.29
  -4  -7   2  325.88   11.26
   4   7  -1   10.21    6.50
   4   7  -1   28.45    3.17
  -5  11  -1  274.69   29.62
  -5  11  -2   27.19   29.03
  -5  11  -4   81.74   44.89
  -5  11  -5   47.98   35.02
  -5  11  -6   55.30   28.16
  -5  11  -7   67.68    4.79
  -5  11  -7   67.77    4.17
  -5  11  -8   29.74    3.89
  -5  10   1  218.79   23.66
  -5  10   0   52.84    5.88
  -5  10  -1   34.47    6.44
  -5  10  -2  105.49   14.19
  -5  10  -3 1673.78  190.34
  -5  10  -4  129.89   12.70
  -5  10  -5   23.82    4.15
  -5  10  -6  218.04   20.22
  -5  10  -6  177.30   16.63
  -5  10  -7  486.04   31.08
  -5  10  -7  393.48   36.95
  -5  10  -8  238.70   12.72
  -5  10  -8  191.67   17.89
  -5  10  -9    8.56    2.78
  -5   9   3    1.33    3.09
  -5   9   3    3.73    4.90
  -5   9   2   17.91    4.76
  -5   9   1   14.84    4.67
  -5   9   1    4.68    3.65
  -5   9   0  347.19   77.77
  -5   9   0  211.47  134.87
  -5   9  -1   31.82    5.06
  -5   9  -1   31.72    5.01
  -5   9  -2  123.96    7.28
  -5   9  -2   97.91    9.18
  -5   9  -3    9.26    3.06
  -5   9  -4  323.40   58.03
  -5   9  -5  292.11   13.43
  -5   9  -5  285.20   13.33
  -5   9  -6   29.57    2.78
  -5   9  -6   30.05    3.53
  -5   9  -7  281.16   59.07
  -5   9  -7  182.70   39.01
  -5   9  -8  171.38   15.89
  -5   9  -8  122.14   18.40
  -5   9  -8  160.61   15.12
  -5   9  -9   69.20    5.22
  -5   9 -10   10.23    4.10
  -5   9 -10    9.69    3.85
  -5   8   5  174.08   26.16
  -5   8   5   93.07   21.90
  -5   8   4  202.33   28.07
  -5   8   4  161.67   33.36
  -5   8   3   13.28    4.62
  -5   8   3   12.82    4.40
  -5   8   2  232.04   14.06
  -5   8   1  468.60   49.76
  -5   8   1  564.32   26.88
  -5   8   0    1.30    3.14
  -5   8   0    1.97    3.22
  -5   8  -1   33.77    4.20
  -5   8  -1   47.21    4.76
  -5   8  -2    1.71    3.56
  -5   8  -4  235.60    6.68
  -5   8  -5   69.84    3.63
  -5   8  -5   66.54    3.69
  -5   8  -6  178.60    5.44
  -5   8  -6  163.76    5.62
  -5   8  -7   13.66    3.87
  -5   8  -7   12.98    3.94
  -5   8  -8  163.71   34.67
  -5   8  -9    0.03    2.77
  -5   8  -9   -1.33    3.26
  -5   8 -10   57.69    4.08
  -5   8 -10   57.00    3.94
  -5   7   6   -0.05    2.93
  -5   7   6    0.01    2.33
  -5   7   6    1.11    2.47
  -5   7   5   45.82   24.98
  -5   7   5  117.97    8.09
  -5   7   4   29.19    4.43
  -5   7   4   43.33    7.28
  -5   7   4   29.06    4.20
  -5   7   3   48.94    5.23
  -5   7   3   43.14    6.63
  -5   7   2  581.93   13.72
  -5   7   2  613.64   15.85
  -5   7   1 3716.04   65.23
  -5   7   1 3246.37  181.32
  -5   7   0  316.58    9.22
   5  -7   0  240.91    7.96
  -5   7   0  315.29    9.68
  -5   7  -1   15.62    2.52
   5  -7   1   13.38    3.33
  -5   7  -1   17.02    3.01
  -5   7  -3  990.85   28.92
   5  -7   3 1071.90   31.34
  -5   7  -4  921.80   21.39
  -5   7  -4  926.80   22.24
   5  -7   4  926.83   22.86
  -5   7  -5  803.76   15.05
  -5   7  -5  770.59   15.34
  -5   7  -6 1064.03   22.54
  -5   7  -6 1061.63   22.93
  -5   7  -7  743.74   14.11
  -5   7  -7  767.02   17.32
  -5   7  -8  962.76   21.85
  -5   7  -8  986.17   22.62
  -5   7  -9  617.09   69.40
  -5   7  -9  677.71   76.29
  -5   7 -10  319.10   16.50
  -5   7 -10  302.74   15.76
  -5   6   7    3.13    2.99
  -5   6   7    4.58    2.84
  -5   6   7    7.76    2.44
  -5   6   6    0.68    4.21
  -5   6   6   -0.29    3.20
  -5   6   6    0.73    3.16
  -5   6   6    0.72    3.20
  -5   6   5  158.71   10.47
  -5   6   5  157.91    7.38
  -5   6   5  151.95    9.49
  -5   6   5  169.12    5.60
  -5   6   4  466.50   11.39
  -5   6   4  440.16    8.44
  -5   6   3   73.64    5.79
  -5   6   2   11.78    4.03
   5  -6  -2    9.85    4.20
  -5   6   2    9.03    3.26
  -5   6   1  207.57    7.59
   5  -6  -1  171.53    7.00
  -5   6   1  199.99    7.43
  -5   6   0   25.41    5.07
   5  -6   0   20.42    4.04
  -5   6   0   23.66    4.29
  -5   6  -1 1590.74   31.64
   5  -6   1 1400.48  160.62
  -5   6  -1 1689.05   33.68
  -5   6  -1 1365.61  156.76
  -5   6  -1 1496.44  171.56
  -5   6  -2  358.07   41.27
  -5   6  -2  326.75   37.67
   5  -6   2  324.90   37.71
  -5   6  -2  336.46   39.04
  -5   6  -3   57.18    6.96
  -5   6  -3   63.22    7.66
   5  -6   3   63.46    8.05
  -5   6  -3   64.20    8.16
  -5   6  -4   26.98    2.37
  -5   6  -4   29.11    3.23
   5  -6   4   31.16    3.42
  -5   6  -4   29.70    3.36
  -5   6  -5   14.72    2.49
  -5   6  -5   18.89    2.69
   5  -6   5   16.11    4.58
  -5   6  -5   15.99    2.90
  -5   6  -6  219.49    7.59
  -5   6  -6  237.22    6.09
  -5   6  -7    6.34    2.36
  -5   6  -8   83.47    3.13
  -5   6  -8   92.29    4.73
  -5   6  -8   88.45    3.34
  -5   6  -9   51.09    6.66
  -5   6  -9   50.00    3.73
  -5   6  -9   56.10    6.05
  -5   6  -9   49.93    3.81
  -5   6 -10   19.97    3.08
  -5   6 -10   20.44    3.27
  -5   6 -10   21.98    3.42
  -5   6 -10   21.73    3.80
  -5   6 -11   11.99    4.04
  -5   5   8   16.22    4.68
  -5   5   8   23.27    3.64
  -5   5   8   23.45    3.43
  -5   5   7    5.00    3.86
  -5   5   7    6.86    3.33
  -5   5   7    7.15    3.00
  -5   5   7   11.92    3.77
  -5   5   6    9.66    4.23
  -5   5   6    4.08    3.99
  -5   5   6   13.39    3.86
  -5   5   6   11.93    3.06
  -5   5   5  102.74    5.97
  -5   5   5   89.67    8.05
  -5   5   5   88.66    8.88
  -5   5   5   85.36    7.86
  -5   5   4   23.61    4.89
  -5   5   4   12.18    2.93
  -5   5   4   17.59    3.42
  -5   5   4   18.95    3.27
  -5   5   3 1050.46   30.17
  -5   5   3  746.98   65.63
  -5   5   3  993.41   28.55
   5  -5  -2   86.77   11.33
  -5   5   2   92.67   11.32
  -5   5   2   94.06   11.57
  -5   5   1 1797.82  255.01
   5  -5  -1 1561.73  221.71
  -5   5   1 1790.38  253.92
  -5   5   1 1554.70  220.61
  -5   5   0 1252.55   39.71
   5  -5   0 1170.88   37.98
  -5   5   0 1105.60   56.13
  -5   5   0 1032.77   41.28
  -5   5   0 1196.56   38.34
  -5   5  -1    5.06    2.33
   5  -5   1    4.83    3.12
  -5   5  -1    5.05    1.93
   5  -5   1    5.36    3.78
  -5   5  -1    5.26    3.00
  -5   5  -2  346.58   12.04
  -5   5  -2  339.22   12.00
   5  -5   2  352.49   12.98
  -5   5  -2  356.54   12.60
  -5   5  -2  351.22   12.33
  -5   5  -3  274.96   39.22
  -5   5  -3  273.79   39.00
  -5   5  -3  280.71   40.12
   5  -5   3  282.85   40.50
  -5   5  -3  293.81   42.11
  -5   5  -3  276.28   39.51
  -5   5  -4   48.40    6.16
  -5   5  -4   47.81    5.96
  -5   5  -4   49.89    6.43
   5  -5   4   48.21    6.69
  -5   5  -4   51.06    7.10
  -5   5  -5   75.41    3.95
   5  -5   5   76.34    4.54
  -5   5  -5   75.36    4.50
  -5   5  -6  757.53   16.42
  -5   5  -6  737.98   15.30
  -5   5  -6  746.70   14.62
   5  -5   6  687.50   14.27
  -5   5  -7 1151.22   26.76
  -5   5  -7 1213.58   26.08
  -5   5  -7 1143.23   25.15
  -5   5  -7 1201.57   25.69
  -5   5  -8   77.26    3.93
  -5   5  -8   70.96    3.22
  -5   5  -8   73.18    4.47
  -5   5  -8   72.35    3.33
  -5   5  -9   91.36    9.17
  -5   5  -9   89.13    8.89
  -5   5  -9   86.64    8.87
  -5   5  -9   92.30    9.31
  -5   5 -10    0.37    3.35
  -5   5 -10    0.16    3.14
  -5   5 -10   -0.65    3.30
  -5   4   9    0.25    3.08
  -5   4   9    1.30    3.17
  -5   4   8  124.59   21.83
  -5   4   8   98.63   18.46
  -5   4   8  172.51   12.12
  -5   4   8  173.33   11.69
  -5   4   7   74.24    8.65
  -5   4   7   67.49    4.54
  -5   4   7   71.03    7.71
  -5   4   7   88.39    4.98
  -5   4   6 1939.46   70.03
  -5   4   6 1861.89   41.85
  -5   4   6 1931.21   58.22
  -5   4   6 1909.83   30.82
  -5   4   5  339.51    8.74
  -5   4   5  327.17   12.01
  -5   4   5  320.62    7.70
  -5   4   5  309.89    7.68
  -5   4   4    4.93    3.81
   5  -4  -4    5.13    3.21
  -5   4   4    6.48    2.57
  -5   4   4    4.15    2.62
  -5   4   4    7.11    3.53
  -5   4   4    6.06    3.27
  -5   4   3  274.99   31.91
   5  -4  -3  263.48   30.85
  -5   4   3  377.57   43.85
  -5   4   3  253.69   29.37
  -5   4   3  258.62   30.19
  -5   4   3  243.40   28.33
  -5   4   2    1.68    3.17
   5  -4  -2    1.45    3.99
  -5   4   2    1.77    2.48
  -5   4   2    2.43    1.76
  -5   4   2    1.94    3.55
  -5   4   2    2.90    3.46
   5  -4  -1 1908.89   60.32
  -5   4   1 1963.76   61.93
   5  -4   0 1732.17   54.97
  -5   4   0 1786.72   56.42
   5  -4   1  318.64    8.89
   5  -4   1  321.58    9.29
  -5   4  -1  325.25    9.06
  -5   4  -1  313.58    8.22
   5  -4   2   13.94    3.94
  -5   4  -2   16.28    2.71
  -5   4  -3  822.82  292.30
  -5   4  -3 1209.94   38.10
  -5   4  -3 1183.63   37.74
   5  -4   3 1284.53   41.91
  -5   4  -3 1280.43   41.85
  -5   4  -4 2370.47  341.34
  -5   4  -4 2616.02  371.59
  -5   4  -4 2685.89  307.48
  -5   4  -4 2629.99  373.55
   5  -4   4 2649.82  303.66
   5  -4   4 2607.66  369.85
  -5   4  -4 2621.54  371.88
  -5   4  -5   48.90    3.57
  -5   4  -5   54.80    3.20
   5  -4   5   51.65    3.95
  -5   4  -5   53.06    2.92
   5  -4   5   53.25    4.64
  -5   4  -6   36.78    3.85
  -5   4  -6   37.38    3.64
  -5   4  -6   34.84    3.99
  -5   4  -6   34.78    2.93
  -5   4  -7  187.12    5.58
  -5   4  -7  181.41    4.72
  -5   4  -7  181.41    5.52
  -5   4  -7  180.69    5.09
  -5   4  -8  317.19   10.04
  -5   4  -8  281.94    7.23
  -5   4  -8  298.41    9.06
  -5   4  -8  291.47    7.73
  -5   4  -9  288.16   19.24
  -5   4  -9  255.01   17.91
  -5   4  -9  278.98   18.32
  -5   4  -9  291.60   19.12
  -5   4 -10  120.58    6.63
  -5   4 -10  123.72    5.95
  -5   3  10   23.55    6.77
  -5   3   9   22.42    3.59
  -5   3   8  106.48   27.21
  -5   3   8  188.31   39.74
  -5   3   7   16.86    3.74
  -5   3   7   18.68    3.63
  -5   3   7   21.21    4.54
  -5   3   7   20.69    4.40
  -5   3   6 1129.06   43.81
  -5   3   6 1129.44   23.72
  -5   3   6 1224.48   22.77
  -5   3   6 1120.56   21.38
  -5   3   5   90.61    4.67
   5  -3  -5  100.26    5.63
  -5   3   5   77.15    3.99
  -5   3   5  112.62    5.27
  -5   3   5   98.85    4.28
  -5   3   5  103.79    5.66
  -5   3   5   94.53    4.84
  -5   3   4   -0.13    2.32
  -5   3   4    1.41    2.54
  -5   3   4    0.21    2.44
  -5   3   4   -0.30    3.20
  -5   3   4    0.72    2.67
  -5   3   3  161.96   75.14
   5  -3  -3  272.48   39.18
  -5   3   3  276.01   39.41
  -5   3   3  197.82   47.68
  -5   3   3  270.45   38.76
  -5   3   3  258.87   37.12
   5  -3  -2  173.49    7.77
  -5   3   2  178.73    7.80
  -5   3   2  173.47    7.12
   5  -3  -1  393.88    7.42
   5  -3  -1  393.84    7.47
  -5   3   1  391.69    7.53
   5  -3   0   11.18    2.60
   5  -3   0   11.43    4.23
  -5   3   0   11.14    2.18
  -5   3  -1  508.83    8.00
  -5   3  -1  504.73    7.75
   5  -3   2  180.77    7.60
  -5   3  -2  167.88    6.93
  -5   3  -2  175.04    7.33
  -5   3  -3  665.64   94.68
  -5   3  -3  677.86   96.50
  -5   3  -3  476.35   70.39
   5  -3   3  734.85  104.63
  -5   3  -3  725.14  103.10
  -5   3  -3  721.55  102.63
  -5   3  -4  742.40  102.53
  -5   3  -4  824.04   94.51
   5  -3   4  840.37   96.72
  -5   3  -4  834.25   95.73
   5  -3   4  859.51   98.78
  -5   3  -5  479.40   15.23
  -5   3  -5  495.26   15.02
  -5   3  -5  465.68   14.01
   5  -3   5  460.01   14.75
  -5   3  -5  477.24   14.28
   5  -3   5  463.50   14.70
  -5   3  -5  451.65   14.33
  -5   3  -6  398.51    9.57
  -5   3  -6  403.67    8.84
  -5   3  -6  402.83    8.69
  -5   3  -6  397.97    9.59
  -5   3  -7   12.03    3.23
  -5   3  -7   11.22    2.48
  -5   3  -7    9.83    2.87
  -5   3  -7   11.29    2.80
  -5   3  -8  290.56   61.10
  -5   3  -8  256.05   53.74
  -5   3  -8  281.72   59.16
  -5   3  -9   58.61    4.40
  -5   2  10   32.85    3.98
  -5   2   9  124.95   12.51
  -5   2   8  166.23   11.53
  -5   2   8  191.50    9.83
  -5   2   8  179.16    9.03
  -5   2   7   14.50    3.34
  -5   2   7   13.25    3.34
  -5   2   7   14.82    2.92
  -5   2   6   80.68    4.13
   5  -2  -6   71.38    4.33
  -5   2   6   71.83    4.00
  -5   2   6   71.16    3.99
  -5   2   6   68.84    4.81
  -5   2   5  326.77    8.24
  -5   2   5  243.32   38.55
   5  -2  -5  320.52    9.44
  -5   2   5  279.92   17.93
  -5   2   5  303.98    8.86
  -5   2   5  298.45    7.67
  -5   2   5  297.96    8.27
  -5   2   5  300.85    8.41
  -5   2   4  203.89   29.29
  -5   2   4   87.06   33.60
  -5   2   4  208.78   30.65
  -5   2   4  241.57   34.51
  -5   2   4  213.84   30.57
  -5   2   4  232.78   33.51
  -5   2   4  242.96   35.02
   5  -2  -3   52.17    4.72
  -5   2   3   41.55    3.18
  -5   2   3   52.63    3.90
  -5   2   3   52.22    3.90
   5  -2  -2   40.46    3.64
   5  -2  -2   41.70    4.54
   5  -2  -1   43.42    4.21
   5  -2  -1   44.91    3.65
  -5   2   1   45.78    3.42
  -5   2   1   45.81    3.42
   5  -2   0   13.42    2.44
   5  -2   0   13.13    3.20
  -5   2   0   12.69    3.89
  -5   2   0   13.00    2.43
   5  -2   1  526.24    8.83
  -5   2  -1  535.90    8.05
  -5   2  -1  527.82    8.27
  -5   2  -2 2255.14  152.77
  -5   2  -2 2537.60   88.22
  -5   2  -2 2789.88   90.89
  -5   2  -2 2809.76  398.51
  -5   2  -3   23.71    4.07
  -5   2  -3   19.36    4.25
  -5   2  -3   16.88    3.51
   5  -2   3   23.96    5.24
  -5   2  -3   22.58    3.80
   5  -2   3   22.84    4.29
  -5   2  -3   25.45    5.46
  -5   2  -4  124.57    5.06
  -5   2  -4  103.62    3.93
   5  -2   4  115.87    4.88
  -5   2  -4  109.45    3.80
  -5   2  -4  116.03    4.56
   5  -2   5   31.08    4.38
  -5   2  -5   28.95    2.74
  -5   2  -5   29.80    4.06
  -5   2  -6   42.26    2.97
  -5   2  -6   45.45    3.90
  -5   2  -7  120.63    5.65
  -5   2  -7  120.41    4.26
  -5   2  -7  119.21    4.53
  -5   2  -8   24.48    3.90
  -5   2  -9    1.60    3.65
  -5   1  11  132.85    8.02
   5  -1 -11  139.25    8.05
  -5   1  10  358.26   24.90
  -5   1  10  324.30   45.30
   5  -1 -10  421.98   27.66
  -5   1  10  382.35   25.22
  -5   1   9  248.68   58.61
  -5   1   9  220.14   46.41
  -5   1   9  288.64   60.78
  -5   1   8  624.15   17.78
  -5   1   8  560.07   34.91
  -5   1   8  625.01   13.15
  -5   1   8  612.89   13.64
  -5   1   7  729.09   14.91
  -5   1   7  742.35   15.85
  -5   1   7  750.20   14.91
  -5   1   7  716.52   14.11
  -5   1   7  718.34   14.93
  -5   1   6  552.92   16.73
   5  -1  -6  506.83   16.32
  -5   1   6  524.52   16.33
  -5   1   6  528.68   16.62
  -5   1   6  507.03   15.18
  -5   1   6  491.13   15.48
  -5   1   6  520.68   15.92
  -5   1   6  496.92   15.62
  -5   1   5  785.61   90.11
   5  -1  -5  740.42   85.25
  -5   1   5  845.95   97.15
  -5   1   5  735.47   84.50
  -5   1   5  701.63   80.62
  -5   1   5  725.41   83.45
  -5   1   4  224.85   32.12
   5  -1  -4  253.23   36.41
  -5   1   4  244.17   35.16
   5  -1  -4  252.09   36.19
  -5   1   4  232.14   33.17
  -5   1   4  249.96   35.96
  -5   1   3   39.04    2.69
   5  -1  -3   49.50    3.96
   5  -1  -3   48.64    4.43
  -5   1   3   45.58    3.70
   5  -1  -2  177.50    6.50
   5  -1  -2  168.63    6.40
  -5   1   2  169.46    6.35
   5  -1  -1  183.96    6.03
   5  -1  -1  190.03    6.61
  -5   1   1  192.40    6.18
  -5   1   1  178.93    5.83
   5  -1   0  231.33    9.03
  -5   1   0  220.97    8.75
  -5   1   0  216.61    8.43
  -5   1  -1  415.33   39.06
  -5   1  -1  602.80   21.18
   5  -1   1  647.14   21.62
  -5   1  -1  610.36   20.70
  -5   1  -1  678.68   22.72
  -5   1  -2  389.42   55.46
   5  -1   2  398.12   56.88
  -5   1  -2  390.58   55.59
  -5   1  -2  411.09   58.68
  -5   1  -2  409.90   58.53
   5  -1   2   64.20   70.12
  -5   1  -3   98.14    3.91
  -5   1  -3  105.59    3.80
  -5   1  -3  102.34    3.70
  -5   1  -3  106.17    3.73
  -5   1  -3  101.18    4.38
   5  -1   3   78.42    6.13
  -5   1  -4  447.40   11.45
  -5   1  -4  442.04   11.28
   5  -1   4  437.47   12.79
  -5   1  -4  434.07   11.01
  -5   1  -4  420.95   11.37
   5  -1   4  465.23   11.97
  -5   1  -5  589.18   15.05
  -5   1  -5  634.00   14.67
  -5   1  -5  572.77   13.99
   5  -1   5  586.96   13.69
  -5   1  -6  210.44   10.97
  -5   1  -6  207.77    9.94
  -5   1  -6  231.26   11.05
  -5   1  -6  215.16   10.46
   5  -1   6  226.26   11.86
  -5   1  -7   26.62    4.56
  -5   1  -7   20.96    2.35
  -5   1  -7   23.25    3.23
   5  -1   7   23.14    3.48
  -5   1  -8   76.14    6.39
  -5   1  -8   86.76    5.57
   5  -1   8   67.52    5.32
  -5   0  11    3.08    3.12
  -5   0  11    0.72    2.37
   5   0 -11    2.33    2.97
  -5   0  11    2.48    3.16
  -5   0  10   44.80    7.76
  -5   0  10   49.24    6.56
   5   0 -10   58.29    7.68
  -5   0  10   42.95    6.99
  -5   0   9   25.60    3.13
  -5   0   9   27.02    4.04
   5   0  -9   27.77    3.21
  -5   0   9   24.78    2.82
  -5   0   8   21.94    4.15
  -5   0   8   22.92    3.89
  -5   0   8   22.15    4.25
  -5   0   7  116.97    6.04
  -5   0   7  110.97    9.06
  -5   0   7  115.30    5.50
  -5   0   6   64.51    4.10
   5   0  -6   61.04    4.06
  -5   0   6   64.63    3.73
   5   0  -6   65.37    3.69
  -5   0   6   64.86    5.20
  -5   0   6   70.03    3.87
  -5   0   5   18.46    3.20
  -5   0   5   19.69    4.12
   5   0  -5   19.73    3.73
  -5   0   5   18.10    4.59
  -5   0   5   20.75    3.68
  -5   0   4  236.46   33.90
   5   0  -4  210.51   30.28
  -5   0   4  183.47   26.67
   5   0  -4  199.82   28.65
  -5   0   4  198.94   28.64
  -5   0   4  246.06   35.32
   5   0  -3  442.58   15.57
  -5   0   3  307.63   39.21
   5   0  -3  389.98   13.00
  -5   0   3  414.43   14.45
  -5   0   3  383.24   13.33
   5   0  -2  516.81   17.71
  -5   0   2  405.87   21.53
   5   0  -2  540.69   18.30
  -5   0   2  511.37   17.50
  -5   0   2  532.36   18.14
  -5   0   1 1721.82   83.15
   5   0  -1 1901.46   60.03
   5   0  -1 2086.16   66.20
  -5   0   1 2102.21   66.37
  -5   0   1 2030.09   64.26
  -5   0   0   22.00    3.78
  -5   0   0   22.04    3.63
  -5   0   0   23.22    4.04
   5   0   0   25.79    5.31
  -5   0   0   23.95    3.99
  -5   0   0   24.70    4.62
  -5   0   0   14.27    5.36
  -5   0  -1  421.38   59.97
  -5   0  -1  435.68   62.00
  -5   0  -1  438.97   62.60
   5   0   1  444.01   63.32
  -5   0  -1  449.25   63.91
  -5   0  -1  419.93   59.92
   5   0   1  414.88   59.15
  -5   0  -2 1472.52   29.41
  -5   0  -2 1528.35   31.98
  -5   0  -2 1545.33   34.98
   5   0   2 1517.77   33.74
  -5   0  -2 1524.73   30.98
   5   0   2 1501.50   30.99
  -5   0  -3  347.40    9.87
  -5   0  -3  339.38    8.89
   5   0   3  324.72   10.06
  -5   0  -3  314.56    8.36
  -5   0  -3  321.16    9.63
   5   0   3  342.50    9.26
  -5   0  -4  226.16   21.99
  -5   0  -4  270.63    7.54
  -5   0  -4  247.64    7.06
   5   0   4  253.30    7.02
  -5   0  -5  593.51   26.74
  -5   0  -5  631.91   28.47
   5   0   5  616.19   27.48
  -5   0  -6  326.91   68.69
  -5   0  -6  324.98   68.21
  -5   0  -6  362.89   76.26
  -5   0  -6  306.60   64.31
   5   0   6  404.62   84.93
  -5   0  -7   10.46    3.78
  -5   0  -7   12.12    3.80
  -5   0  -7   11.16    2.65
   5   0   7   11.14    3.56
   5   0   8   25.35    9.18
  -5   0  -8   76.39    5.16
   5   0   8   67.99    4.84
  -5  -1  11  134.76   12.36
   5   1 -11  136.42    6.10
  -5  -1  11  148.81    6.86
  -5  -1  10  189.51   17.87
  -5  -1  10  183.01   17.29
   5   1 -10  196.68   18.40
  -5  -1  10  189.56   17.87
  -5  -1   9  165.31    6.69
  -5  -1   9  150.55    5.90
   5   1  -9  149.92    5.75
  -5  -1   9  150.30    5.82
  -5  -1   8   19.52    4.47
  -5  -1   8   18.53    3.18
   5   1  -8   17.59    3.35
  -5  -1   8   17.75    3.70
  -5  -1   7  335.45    8.75
  -5  -1   7  325.98    8.31
   5   1  -6   52.09    4.75
  -5  -1   6   53.25    3.91
   5   1  -6   52.97    3.44
  -5  -1   6   48.17    3.73
  -5  -1   6   60.75    4.47
  -5  -1   5    4.98    3.16
   5   1  -5    5.44    3.70
  -5  -1   5    3.04    2.97
   5   1  -5    3.44    3.35
  -5  -1   5    2.95    2.63
  -5  -1   5    3.51    3.99
  -5  -1   4    3.47    2.23
   5   1  -4    3.76    3.82
  -5  -1   4    4.24    2.99
   5   1  -4    7.77    2.37
  -5  -1   4    3.26    3.42
  -5  -1   4    4.10    2.96
  -5  -1   3 1183.31  168.05
   5   1  -3 1167.69  165.94
  -5  -1   3 1079.98  153.82
   5   1  -3 1132.34  160.75
  -5  -1   3 1077.18  152.91
  -5  -1   3 1111.95  157.98
  -5  -1   3 1105.18  157.07
  -5  -1   3  861.90  163.21
  -5  -1   2  564.86   80.38
   5   1  -2  557.92   79.49
  -5  -1   2  566.32   80.63
  -5  -1   2  320.90  115.79
   5   1  -2  537.62   76.44
  -5  -1   2  553.08   78.59
  -5  -1   2  548.63   78.15
  -5  -1   2  583.77   83.11
  -5  -1   1    1.04    2.06
  -5  -1   1    0.30    2.62
  -5  -1   1    0.21    2.62
   5   1  -1    2.26    3.01
   5   1  -1    0.89    2.35
  -5  -1   1    2.05    2.37
  -5  -1   1    1.40    3.76
  -5  -1   1    0.57    2.06
  -5  -1   0 2052.77   40.90
  -5  -1   0 2076.34   44.29
  -5  -1   0 2133.90   60.61
   5   1   0 2073.80   42.98
  -5  -1   0 2075.79   42.90
  -5  -1   0 2066.10   42.62
  -5  -1   0 2091.82   61.33
   5   1   0 2052.42   66.28
  -5  -1  -1  935.54   26.82
  -5  -1  -1  914.79   26.85
   5   1   1  902.92   26.85
  -5  -1  -1  926.68   26.53
   5   1   1  930.82   26.85
  -5  -1  -2  320.70    7.53
  -5  -1  -2  334.15    8.18
   5   1   2  304.18    9.30
  -5  -1  -2  334.61    7.96
   5   1   2  331.61    7.88
  -5  -1  -3 1205.43   27.25
  -5  -1  -3 1256.77   28.24
   5   1   3 1078.52   23.41
  -5  -1  -4  993.80   45.32
  -5  -1  -4 1091.36   47.98
   5   1   4 1060.12   46.64
  -5  -1  -5    2.65    3.65
  -5  -1  -5    0.94    3.44
  -5  -1  -5    0.98    2.78
   5   1   5    0.98    3.25
  -5  -1  -6   28.32    4.06
  -5  -1  -6   40.51    4.86
  -5  -1  -6   36.51    3.70
   5   1   6   40.61    4.59
   5   1   7  329.27   18.36
  -5  -1  -7  183.65   18.61
  -5  -1  -7  280.09   14.83
   5   1   7  192.44   22.84
   5   2 -11   17.89    3.31
  -5  -2  11   22.60    4.94
   5   2 -10  291.92   22.07
  -5  -2  10  421.09   28.25
  -5  -2   9   98.98    4.81
   5   2  -9   95.63    5.02
  -5  -2   9   96.40    5.69
  -5  -2   8   13.41    4.02
  -5  -2   8    9.77    2.75
   5   2  -8   11.65    3.51
  -5  -2   8   16.46    4.76
  -5  -2   7  179.00    7.68
  -5  -2   7  143.85    6.47
  -5  -2   7  196.89    8.95
  -5  -2   6  239.09    8.95
  -5  -2   6  199.85   11.41
   5   2  -6  217.26    7.84
   5   2  -6  216.13    7.92
  -5  -2   6  227.13    6.36
  -5  -2   5  419.85   14.63
   5   2  -5  418.59   13.84
  -5  -2   5  343.27   24.81
   5   2  -5  444.84   13.58
  -5  -2   5  411.44   13.00
  -5  -2   5  464.14   14.72
  -5  -2   4   15.43    3.59
   5   2  -4   16.32    4.04
  -5  -2   4   11.74    2.92
   5   2  -4   13.63    3.72
  -5  -2   4   12.39    2.35
  -5  -2   4   14.03    3.91
  -5  -2   3  771.02   31.46
   5   2  -3  871.62   25.72
  -5  -2   3  794.14   23.02
  -5  -2   3  761.33   52.31
   5   2  -3  811.60   23.32
  -5  -2   3  803.85   23.28
  -5  -2   3  827.31   24.55
  -5  -2   3  873.55   26.33
  -5  -2   2  201.01    8.58
   5   2  -2  206.71    7.60
  -5  -2   2  216.26    7.55
  -5  -2   2  216.92    7.32
   5   2  -2  216.10    7.20
  -5  -2   2  212.74    7.23
  -5  -2   2  205.71    7.64
  -5  -2   2  202.94   12.90
  -5  -2   1   42.74    3.27
  -5  -2   1   49.39    3.12
  -5  -2   1   51.09    4.04
   5   2  -1   49.08    3.52
  -5  -2   1   53.11    4.12
  -5  -2   1   49.40    3.72
  -5  -2   1   53.77    3.78
   5   2  -1   49.05    3.13
  -5  -2   0  758.42   18.48
  -5  -2   0  797.93   20.15
  -5  -2   0  801.20   20.23
   5   2   0  769.94   18.43
  -5  -2   0  772.45   18.64
   5   2   0  799.47   19.54
  -5  -2  -1  101.64    4.60
  -5  -2  -1  110.56    5.66
   5   2   1  114.73    5.97
  -5  -2  -2   15.36    2.78
  -5  -2  -2   17.11    3.31
   5   2   2   17.45    3.42
  -5  -2  -3   15.06    4.11
  -5  -2  -3   14.82    3.57
   5   2   3   16.49    4.76
  -5  -2  -4   19.79    3.40
  -5  -2  -4   18.27    3.73
   5   2   4   13.99    2.95
  -5  -2  -5   65.47    6.61
   5   2   5   72.95    7.04
   5   2   6   44.12   15.69
  -5  -2  -6  120.29    8.03
  -5  -2  -6  122.76    7.20
   5   2   6  132.38    7.86
  -5  -3  11   42.78    3.99
   5   3 -11   46.56    4.11
  -5  -3  10  111.77    8.63
   5   3 -10  112.35    8.45
  -5  -3   9    8.19    3.39
   5   3  -9    7.17    2.99
  -5  -3   8    1.20    3.93
   5   3  -8    1.64    2.86
  -5  -3   7  259.04    6.70
   5   3  -7  274.78    6.76
  -5  -3   6  161.74    6.42
  -5  -3   6  149.01    5.99
  -5  -3   5  632.90   15.64
  -5  -3   5  612.12   16.86
   5   3  -5  653.70   15.77
  -5  -3   5  656.05   15.66
  -5  -3   5  651.11   15.26
  -5  -3   4    0.69    2.41
  -5  -3   4   -0.34    3.59
  -5  -3   4    1.06    3.13
   5   3  -4    0.43    2.63
  -5  -3   4   -0.14    2.47
  -5  -3   4   -1.37    3.51
  -5  -3   3    3.40    2.30
  -5  -3   3    2.22    2.56
  -5  -3   3    2.35    3.38
   5   3  -3    2.56    3.09
  -5  -3   3    2.22    2.66
  -5  -3   3    1.76    3.40
  -5  -3   2   43.22    3.43
  -5  -3   2   45.02    4.19
  -5  -3   2   46.60    4.04
   5   3  -2   44.23    3.26
  -5  -3   2   46.43    3.47
  -5  -3   2   47.07    3.76
  -5  -3   1    4.51    4.10
   5   3  -1    1.20    3.06
  -5  -3   1    3.46    3.89
  -5  -3   0   96.29    5.20
   5   3   0   86.89    7.67
  -5  -3  -1    1.00    2.78
   5   3   1    0.26    2.43
  -5  -3  -1    0.25    3.43
  -5  -3  -2   25.58    4.40
  -5  -3  -2   25.21    4.63
  -5  -3  -3  150.56   10.73
  -5  -3  -3  160.87   10.96
   5   3   4  229.03    9.44
  -5  -3  -4  207.62    8.71
  -5  -3  -4  180.08    9.38
  -5  -4  11   25.75    3.51
   5   4 -11   24.65    2.90
  -5  -4  11   29.67    3.74
  -5  -4  10   83.98    6.86
   5   4 -10   82.91    5.48
  -5  -4  10   98.24    6.80
  -5  -4   9   10.12    3.01
   5   4  -9   10.85    2.88
  -5  -4   9    8.84    2.91
  -5  -4   9   10.94    4.19
  -5  -4   8    3.14    2.63
   5   4  -8    4.42    2.80
  -5  -4   8    5.09    3.16
  -5  -4   8    7.38    4.29
  -5  -4   7  409.77   11.67
   5   4  -7  428.60   11.05
  -5  -4   7  382.63   17.15
  -5  -4   7  443.78   14.97
  -5  -4   6   -0.10    2.37
  -5  -4   6    0.95    3.52
  -5  -4   6    0.17    3.13
  -5  -4   5    8.03    3.03
  -5  -4   5    7.92    3.69
  -5  -4   5    7.38    3.70
  -5  -4   4   49.95    5.11
   5   4  -4   46.54    5.63
  -5  -4   4   50.87    5.23
  -5  -4   4   52.44    5.88
  -5  -4   3   92.95    4.24
   5   4  -3   88.05    4.42
  -5  -4   3   93.53    4.40
  -5  -4   3   95.68    4.80
   5   4  -3   89.67    4.47
  -5  -4   2  594.01   26.54
   5   4  -2  548.87   24.49
   5   4  -2  621.47   27.60
  -5  -4   1  141.52    6.33
   5   4  -1  125.01    5.70
  -5  -4   1  138.82    5.65
   5   4  -1  145.35    6.38
  -5  -4   0   29.84    4.75
   5   4   0   28.47    4.60
  -5  -4   0   30.53    4.68
   5   4   0   29.82    5.03
  -5  -4  -1    7.28    2.77
   5   4   1    8.87    3.22
  -5  -4  -1    7.37    3.91
   5   4   1    9.09    2.97
  -5  -4  -2  212.28   13.30
  -5  -4  -2  230.27   12.14
   5   4   2  247.89   13.23
   5   4   3   73.27   13.37
  -5  -4  -3  127.13    8.41
  -5  -4  -3  146.55    8.26
   5   4   3  149.34    8.56
  -5  -5  10    7.12    3.27
   5   5 -10    7.13    2.86
  -5  -5  10    4.53    2.47
  -5  -5  10    8.09    3.82
  -5  -5   9    0.81    3.09
   5   5  -9    0.60    2.84
  -5  -5   9    0.38    2.62
  -5  -5   9   -0.10    3.60
  -5  -5   8   68.80    5.67
   5   5  -8   81.22    6.48
  -5  -5   8   69.80    7.23
  -5  -5   8   87.27    7.11
  -5  -5   7  401.40   36.98
   5   5  -7  393.02   36.08
  -5  -5   7  380.42   35.03
  -5  -5   7  361.99   38.61
   5   5  -6  230.53   21.52
  -5  -5   6  249.29   23.33
   5   5  -6  240.27   50.51
  -5  -5   6  247.01   22.89
  -5  -5   6  209.92   26.24
   5   5  -5  297.42   62.70
  -5  -5   5  252.85   57.87
  -5  -5   5  331.33   69.54
  -5  -5   5  342.03   73.25
   5   5  -4   20.76    4.60
  -5  -5   4   22.79    3.89
   5   5  -4   24.65    3.87
   5   5  -4   23.95    4.04
  -5  -5   3    9.86    3.34
   5   5  -3   11.73    2.90
   5   5  -3    9.04    3.46
  -5  -5   2  243.26   22.80
   5   5  -2  235.06   21.74
  -5  -5   2  247.57   22.89
   5   5  -2  245.24   22.85
  -5  -5   1   34.76    5.67
   5   5  -1   31.25    4.90
  -5  -5   1   38.42    5.66
   5   5  -1   38.03    5.92
  -5  -5   0   22.26    3.87
   5   5   0   22.64    3.13
  -5  -5   0   25.37    3.95
   5   5   0   28.68    4.34
  -5  -5  -1    8.70    3.55
   5   5   1   11.83    4.13
  -5  -5  -1   11.06    4.02
   5   5   1   11.20    4.11
  -5  -6   9   73.19    4.90
   5   6  -9   73.98    4.85
  -5  -6   9   54.95    4.89
  -5  -6   9   63.45    5.50
  -5  -6   8    0.30    2.37
   5   6  -8    1.15    2.71
  -5  -6   8    0.57    3.00
  -5  -6   8    0.31    3.21
  -5  -6   7    6.23    3.22
   5   6  -7    5.95    3.33
  -5  -6   7    6.60    3.31
  -5  -6   7    5.36    2.63
   5   6  -7    5.96    3.29
   5   6  -6    0.80    2.79
  -5  -6   6    3.40    3.60
   5   6  -6    3.82    3.10
  -5  -6   6    4.88    2.63
   5   6  -6    3.33    3.74
   5   6  -5  208.17   17.19
  -5  -6   5  201.65   18.30
   5   6  -5  211.43   14.97
  -5  -6   4   37.25   16.43
  -5  -6   4   48.92    4.33
   5   6  -4   45.00   11.50
  -5  -6   3    2.50    2.70
   5   6  -3    4.13    2.48
  -5  -6   3    3.00    2.49
   5   6  -3    3.85    2.62
  -5  -6   2   12.46    2.82
   5   6  -2   18.53    3.40
  -5  -6   2   18.06    3.18
   5   6  -2   12.81    2.88
  -5  -6   1   29.58    4.59
   5   6  -1   60.20    4.20
  -5  -6   1   61.50    4.41
   5   6  -1   51.13    8.19
  -6  10   1  198.18   58.16
  -6  10   0  449.42   34.84
  -6  10  -1  266.11   20.42
  -6  10  -6   13.86    3.34
  -6  10  -7  253.75   13.13
  -6  10  -8  203.48   11.16
  -6   9   3  107.03    9.03
  -6   9   2    3.52    3.08
  -6   9   2    9.48    5.11
  -6   9   1   12.03    3.89
  -6   9   1   12.00    3.61
  -6   9   0  202.17   21.31
  -6   9   0  224.93   24.15
  -6   9  -1  398.84   86.60
  -6   9  -5  388.99   81.54
  -6   9  -6   58.93    6.50
  -6   9  -6   51.45    6.46
  -6   9  -7    4.77    2.95
  -6   9  -7    3.39    3.27
  -6   9  -8  168.40    9.10
  -6   9  -8  166.44    9.29
  -6   9  -9   22.58    6.50
  -6   8   5   81.97   14.61
  -6   8   4   17.57    3.96
  -6   8   4   17.31    4.84
  -6   8   3   29.55    5.70
  -6   8   2    0.90    3.00
  -6   8   2    0.59    2.80
  -6   8   0  809.76   37.13
  -6   8   0  498.03  120.02
  -6   8  -1   -0.04    2.41
  -6   8  -1    0.61    3.30
  -6   8  -2  593.67   11.58
  -6   8  -4   12.35    3.16
  -6   8  -4   11.93    2.88
  -6   8  -5   59.94    3.14
  -6   8  -5   65.85    3.13
  -6   8  -6   24.05    2.45
  -6   8  -6   26.74    3.87
  -6   8  -7  390.84   81.96
  -6   8  -7  407.28   85.44
  -6   8  -8   22.75    4.33
  -6   8  -8   22.84    4.32
  -6   8  -9   34.46    4.06
  -6   8  -9   29.92    3.85
  -6   7   6  120.71   13.33
  -6   7   6  109.17   17.75
  -6   7   5  135.68   12.48
  -6   7   5   56.72   39.70
  -6   7   3  740.70   29.61
  -6   7   3  988.88   28.34
  -6   7   2    6.73    3.81
  -6   7   2    4.59    4.03
  -6   7   1   51.43    5.83
  -6   7   1   38.93    6.04
  -6   7   0    1.49    3.55
  -6   7   0    1.10    3.22
  -6   7  -1  280.57    6.59
  -6   7  -1  275.30    7.08
  -6   7  -2   77.30    4.54
  -6   7  -2   72.01    4.23
  -6   7  -3  226.14    6.04
  -6   7  -3  225.43    6.42
  -6   7  -4  769.91   16.80
  -6   7  -4  805.49   18.82
  -6   7  -5   70.72    6.26
  -6   7  -5   76.40    7.33
  -6   7  -6   74.15    3.73
  -6   7  -6   70.44    3.55
  -6   7  -7  128.27    4.84
  -6   7  -7  118.03    5.48
  -6   7  -9   38.16    3.82
  -6   7  -9   41.51    4.38
  -6   7 -10    1.73    2.66
  -6   7 -10    1.77    3.21
  -6   6   7    0.87    2.56
  -6   6   7    0.77    2.62
  -6   6   7    0.97    2.54
  -6   6   7    3.34    2.56
  -6   6   6    1.43    3.78
  -6   6   6    2.50    3.63
  -6   6   6    2.56    3.26
  -6   6   6    2.15    2.49
  -6   6   5    3.63    4.15
  -6   6   5    1.58    3.51
  -6   6   5    1.50    2.77
  -6   6   4  890.28   43.29
  -6   6   3  705.46   15.53
  -6   6   2    7.84    3.66
  -6   6   2    8.03    5.36
  -6   6   1  131.47    6.06
   6  -6  -1  120.02    6.77
  -6   6   1  125.63    6.17
  -6   6   1  126.46    6.12
  -6   6   0 1195.49   27.66
   6  -6   0 1113.20   26.75
  -6   6   0 1245.99   28.78
  -6   6   0 1175.79   29.07
   6  -6   0 1129.11   27.17
  -6   6   0 1143.47   26.89
  -6   6  -1 1387.11   39.27
  -6   6  -1 1275.52   36.25
   6  -6   1 1200.34   34.75
  -6   6  -1 1259.55   36.30
  -6   6  -2  189.87    6.46
  -6   6  -2  187.28    6.47
   6  -6   2  180.05    7.07
  -6   6  -2  187.32    7.55
  -6   6  -3 1157.06   26.95
  -6   6  -3 1150.11   26.42
  -6   6  -3 1148.26   26.83
   6  -6   3 1129.91   27.05
  -6   6  -4  884.06   16.71
  -6   6  -4  851.10   15.78
  -6   6  -4  881.01   18.42
  -6   6  -5  749.40   16.19
  -6   6  -5  773.26   18.19
  -6   6  -6 1461.18   25.77
  -6   6  -7  147.93    5.43
  -6   6  -8    9.31    2.39
  -6   6  -8   10.51    3.74
  -6   6  -9   98.31    6.27
  -6   6  -9   86.95    5.36
  -6   6 -10   10.37    3.38
  -6   6 -10    9.26    3.64
  -6   5   8    2.93    2.88
  -6   5   8    2.82    2.82
  -6   5   7   62.06    7.00
  -6   5   7   30.05    8.01
  -6   5   7   65.21    8.54
  -6   5   7   82.29    6.38
  -6   5   6    7.72    3.86
  -6   5   6    9.14    3.99
  -6   5   6    8.43    3.06
  -6   5   6   11.28    3.55
  -6   5   5  115.31    7.89
  -6   5   5  101.74    5.00
  -6   5   5  100.53    3.82
  -6   5   5   99.54    4.10
  -6   5   4  404.50   11.46
  -6   5   4  343.85    9.70
  -6   5   4  316.32   18.40
  -6   5   3  183.60    8.30
  -6   5   3  101.90    5.14
  -6   5   3  159.33    6.91
   6  -5  -2  272.37    8.78
  -6   5   2  303.73    8.44
  -6   5   2  282.12    8.33
  -6   5   1  108.76    5.22
   6  -5  -1  100.06    5.46
  -6   5   1  144.17    6.27
  -6   5   1  102.92    4.67
  -6   5   1  103.81    4.93
  -6   5   0   47.89    3.60
   6  -5   0   39.84    3.29
  -6   5   0   40.25    2.75
   6  -5   0   40.22    4.15
  -6   5   0   38.48    3.83
  -6   5  -1  543.14   12.43
  -6   5  -1  537.32   11.93
   6  -5   1  515.10   12.99
  -6   5  -1  512.05   12.33
  -6   5  -2  147.35    5.26
  -6   5  -2  140.23    4.42
  -6   5  -2  142.96    5.00
   6  -5   2  142.50    6.20
  -6   5  -2  141.39    5.23
  -6   5  -2  143.40    5.41
  -6   5  -3  197.50    6.99
  -6   5  -3  179.09    6.18
   6  -5   3  175.20    6.93
  -6   5  -3  176.84    6.69
  -6   5  -4 1015.63   25.04
  -6   5  -4  973.39   22.62
  -6   5  -4  981.77   23.20
   6  -5   4  982.24   23.93
   6  -5   4 1002.28   24.62
  -6   5  -4  965.43   23.44
  -6   5  -5  234.19    6.90
  -6   5  -5  231.86   18.96
  -6   5  -5  244.21    7.37
  -6   5  -6    4.63    2.73
  -6   5  -6    3.59    3.90
  -6   5  -7  130.72    5.54
  -6   5  -7  133.36    5.00
  -6   5  -7  124.07    4.60
  -6   5  -7  128.39    4.77
  -6   5  -8   72.19    7.72
  -6   5  -8   63.45    6.64
  -6   5  -8   64.65    6.66
  -6   5  -8   68.26    6.90
  -6   5  -9  378.11   12.82
  -6   5  -9  374.59   14.14
  -6   5  -9  340.08   11.97
  -6   4   9   62.20    4.73
   6  -4  -9   62.04    4.64
  -6   4   8   50.88    5.92
  -6   4   8   71.86    5.82
  -6   4   8   66.92    4.56
  -6   4   7  104.89   12.81
  -6   4   7  147.54   14.52
  -6   4   7  154.10   17.06
  -6   4   7  145.31   13.56
  -6   4   6  143.65    7.97
  -6   4   6  164.56    8.89
  -6   4   6  162.33    8.31
  -6   4   6  152.17    7.96
  -6   4   5    0.77    3.74
  -6   4   5    1.12    2.82
  -6   4   5    1.04    2.45
  -6   4   4 1414.60   25.82
  -6   4   4 1386.53   26.44
  -6   4   4 1484.80   27.28
  -6   4   3 1207.96   34.30
   6  -4  -3 1115.84   32.40
  -6   4   3 1257.62   36.09
  -6   4   3 1128.89   31.95
  -6   4   3 1113.57   32.59
  -6   4   2 1120.62   22.93
   6  -4  -2 1071.99   23.42
  -6   4   2 1176.98   24.30
  -6   4   2 1088.75   22.81
   6  -4  -2 1075.56   23.36
  -6   4   2 1070.75   23.20
  -6   4   1  214.20   24.92
   6  -4  -1  201.98   23.71
  -6   4   1  216.49   25.13
  -6   4   1  185.13   21.47
   6  -4  -1  189.66   22.42
  -6   4   1  197.95   23.18
  -6   4   0  348.46   40.18
  -6   4   0  348.35   40.33
  -6   4  -1  586.57   67.36
   6  -4   1  580.20   66.83
  -6   4  -2   12.51    1.92
  -6   4  -2   14.53    2.70
  -6   4  -2   16.72    2.01
  -6   4  -2   14.28    2.44
   6  -4   2   14.56    3.22
  -6   4  -2   12.77    3.48
  -6   4  -2   17.56    3.65
  -6   4  -3  127.74    4.88
  -6   4  -3  130.87    5.40
  -6   4  -3  128.13    4.77
  -6   4  -3  130.39    5.23
   6  -4   3  131.29    6.25
  -6   4  -3  133.42    6.40
  -6   4  -3  128.83    5.44
  -6   4  -4  758.45   18.48
  -6   4  -4  761.58   18.30
  -6   4  -4  779.04   18.85
   6  -4   4  750.56   18.68
   6  -4   4  766.99   19.17
  -6   4  -4  752.89   18.82
  -6   4  -5 1362.26   30.31
  -6   4  -5 1310.34   27.43
  -6   4  -5 1339.62   29.61
  -6   4  -5 1348.25   28.28
  -6   4  -6   40.72    4.32
  -6   4  -6   42.45    2.99
  -6   4  -6   37.98    2.97
  -6   4  -6   40.84    3.51
  -6   4  -7   69.57   15.29
  -6   4  -7   63.56    7.00
  -6   4  -7   61.77    6.82
  -6   4  -7   61.42    6.64
  -6   4  -8  110.04    8.13
  -6   4  -8   99.98    7.03
  -6   4  -8   93.27    6.77
  -6   4  -8  106.44    7.81
  -6   4  -9   41.72    4.59
  -6   4  -9   30.57    2.95
  -6   4  -9   35.91    3.73
   6  -3  -9  584.30   19.63
  -6   3   8  132.04   13.33
  -6   3   8  156.34   15.35
  -6   3   8  140.90   13.42
  -6   3   7  158.49    6.77
  -6   3   7  177.99    6.13
  -6   3   7  161.70    5.63
  -6   3   6   66.24    7.25
  -6   3   6   85.99    8.11
  -6   3   6   89.48    8.87
  -6   3   6   82.12    7.81
  -6   3   5    6.61    2.69
  -6   3   5    9.03    4.00
  -6   3   5   10.56    3.50
  -6   3   4  163.33    5.88
   6  -3  -4  161.23    7.00
  -6   3   4  169.72    6.09
  -6   3   4  174.74    6.14
  -6   3   4  152.96    5.37
  -6   3   4  148.35    5.67
  -6   3   3  309.32    7.59
  -6   3   3  298.57    8.46
   6  -3  -3  311.12    8.99
  -6   3   3  333.67    8.32
  -6   3   3  328.70    7.98
   6  -3  -3  314.95    9.05
  -6   3   3  314.87    9.08
  -6   3   2  422.99   48.67
  -6   3   2  409.61   56.87
   6  -3  -2  445.84   51.49
  -6   3   2  465.30   53.55
  -6   3   2  451.79   51.96
   6  -3  -2  420.39   48.69
  -6   3   1   26.42    3.86
  -6   3   1   27.96    4.06
   6  -3  -1   28.48    4.72
  -6   3   1   30.28    4.73
   6  -3  -1   27.58    4.66
  -6   3   0  357.18   41.12
  -6   3   0  326.19   57.61
  -6   3   0  395.34   45.53
  -6   3   0  400.26   46.07
   6  -3   0  377.19   43.82
  -6   3   0  402.47   46.57
  -6   3  -1 1326.60  152.11
  -6   3  -1 1477.77  169.36
  -6   3  -1 1374.39  157.57
  -6   3  -1 1364.90  156.51
  -6   3  -1 1363.21  156.31
  -6   3  -2 1758.45   37.39
  -6   3  -2 1785.69   35.98
  -6   3  -2 1726.46   34.94
  -6   3  -2 1788.70   35.33
   6  -3   2 1805.17   37.22
  -6   3  -2 1785.24   37.26
  -6   3  -2 1726.36   35.91
  -6   3  -3  947.18   28.55
  -6   3  -3  942.27   26.88
   6  -3   3  934.27   27.88
   6  -3   3  919.89   27.01
  -6   3  -3  936.24   27.91
  -6   3  -4  182.86    8.27
  -6   3  -4  181.32    7.46
  -6   3  -4  183.79    7.96
  -6   3  -4  175.20    7.23
  -6   3  -5  708.14   17.01
  -6   3  -5  675.46   16.13
  -6   3  -5  675.30   15.91
  -6   3  -5  686.26   15.27
  -6   3  -6  306.60   14.75
  -6   3  -6  288.29   13.12
  -6   3  -6  298.53   13.77
  -6   3  -7  526.29   48.52
  -6   3  -7  533.53   48.28
  -6   3  -7  554.50   62.34
  -6   3  -8  100.84    6.90
  -6   3  -8   96.97    5.76
  -6   3  -8  104.50    6.48
  -6   3  -9  243.28   13.99
  -6   2  10   98.94    6.40
  -6   2   9    0.97    2.71
   6  -2  -9    0.89    2.69
  -6   2   8   31.65    3.94
  -6   2   8   36.34    4.76
  -6   2   7    2.53    2.86
  -6   2   7    1.43    4.16
  -6   2   7    4.23    3.44
  -6   2   6   55.80    4.06
  -6   2   6   57.53    3.91
  -6   2   6   55.00    3.78
  -6   2   5   38.96    3.70
  -6   2   5   43.27    3.51
  -6   2   5   43.52    4.64
  -6   2   5   40.39    3.09
  -6   2   4  878.80   25.42
  -6   2   4  782.73   26.91
   6  -2  -4  842.56   25.38
  -6   2   4  926.21   27.04
  -6   2   4  873.73   25.71
   6  -2  -4  811.01   23.65
  -6   2   3   57.14    3.76
  -6   2   3   49.10    3.50
   6  -2  -3   54.74    3.85
  -6   2   3   58.33    3.06
  -6   2   3   58.68    3.23
   6  -2  -3   55.70    4.59
  -6   2   3   54.84    3.78
  -6   2   2   76.64    9.44
  -6   2   2   73.27    8.84
   6  -2  -2   76.69    9.70
  -6   2   2   73.27    8.82
  -6   2   2   83.84   10.15
   6  -2  -2   80.56   10.04
  -6   2   2   84.61   10.76
  -6   2   1    1.21    2.33
  -6   2   1    0.60    2.01
  -6   2   1    1.54    2.88
   6  -2  -1    1.49    2.92
  -6   2   1   -0.39    3.20
  -6   2   0  276.47   31.94
  -6   2   0  304.59   35.23
  -6   2   0  297.30   34.34
  -6   2   0  303.08   34.95
   6  -2   0  300.76   35.01
  -6   2   0  305.44   35.55
  -6   2   0  283.02   32.89
  -6   2  -1   20.39    2.86
  -6   2  -1   21.85    2.65
  -6   2  -1   22.86    2.50
  -6   2  -1   22.19    3.01
   6  -2   1   24.13    3.48
  -6   2  -1   22.08    3.33
  -6   2  -1   22.05    3.39
  -6   2  -2  111.41    5.05
  -6   2  -2  108.32    5.02
  -6   2  -2  106.64    4.62
   6  -2   2  105.51    5.97
  -6   2  -2  101.95    4.08
  -6   2  -2  105.72    5.39
  -6   2  -2  104.69    5.61
  -6   2  -3 1769.85   41.42
  -6   2  -3 1803.15   44.41
  -6   2  -3 1674.50   38.48
   6  -2   3 1708.41   41.38
  -6   2  -3 1707.28   39.23
  -6   2  -3 1679.77   40.34
  -6   2  -4    2.79    2.80
  -6   2  -4    3.34    3.23
  -6   2  -5    0.74    3.12
  -6   2  -5    0.57    3.33
  -6   2  -6   20.32    3.85
  -6   2  -6   21.66    3.70
  -6   2  -7  116.73    9.03
  -6   2  -7   92.17    6.51
  -6   2  -7  102.14    7.36
  -6   2  -8   20.88    6.50
  -6   2  -8   22.63    6.57
  -6   1  10   10.79    2.56
  -6   1  10   14.59    3.52
  -6   1   9   67.47    5.70
  -6   1   9   76.05    6.46
   6  -1  -9   77.60    6.10
  -6   1   8  142.96   30.38
  -6   1   8  130.62   27.68
   6  -1  -8  134.26   28.39
  -6   1   8  124.05   26.42
  -6   1   7  116.21    7.10
  -6   1   7  108.50    6.86
   6  -1  -7  100.43    5.40
  -6   1   7  104.63    6.40
  -6   1   6   19.86    3.51
  -6   1   6   17.88    3.93
   6  -1  -6   19.09    3.05
  -6   1   5  193.28    7.62
   6  -1  -5  188.93    8.41
  -6   1   5  204.73    7.63
  -6   1   5  200.70    8.03
   6  -1  -5  187.79    7.75
  -6   1   5  175.88    7.94
  -6   1   4    4.98    3.36
   6  -1  -4    4.20    3.44
  -6   1   4    3.03    2.44
   6  -1  -4    3.40    2.14
  -6   1   4    4.42    3.03
  -6   1   3    6.16    2.66
  -6   1   3    2.73    2.26
   6  -1  -3    5.56    3.33
  -6   1   3    7.25    3.69
   6  -1  -3    6.65    1.87
  -6   1   3    7.80    3.29
  -6   1   2  972.98   20.45
  -6   1   2  747.36   45.14
   6  -1  -2  934.04   20.65
  -6   1   2  978.84   20.97
   6  -1  -2  956.35   21.27
  -6   1   2  946.14   20.53
  -6   1   1  815.13   19.37
  -6   1   1  742.77   19.00
  -6   1   1  834.02   18.49
   6  -1  -1  836.98   19.00
  -6   1   1  801.14   17.63
  -6   1   1  830.56   18.65
  -6   1   0 1451.41   32.93
  -6   1   0 1491.76   31.82
  -6   1   0 1546.37   33.39
  -6   1   0 1435.77   37.68
   6  -1   0 1530.65   32.62
  -6   1   0 1469.63   30.19
  -6   1   0 1476.55   30.78
  -6   1  -1  119.39    4.93
   6  -1   1  116.94    5.39
  -6   1  -1  119.72    4.66
  -6   1  -1  117.10    5.79
  -6   1  -2    8.06    3.64
   6  -1   2    6.83    4.29
  -6   1  -2    5.50    2.36
  -6   1  -2    5.05    3.27
  -6   1  -3    1.16    3.65
  -6   1  -3    0.56    2.54
   6  -1   3    1.11    2.18
  -6   1  -4   76.23    7.56
  -6   1  -4   73.02    7.13
   6  -1   4   72.02    6.78
  -6   1  -5  407.25   11.74
  -6   1  -5  419.19   10.98
  -6   1  -5  409.06   10.07
   6  -1   5  371.31    9.26
  -6   1  -6   28.00    5.11
  -6   1  -6   29.71    4.11
  -6   1  -6   29.96    4.46
  -6   1  -7  143.08    6.60
  -6   1  -7  120.12    4.88
  -6   1  -7  141.11    6.16
  -6   0  10   42.24    3.70
  -6   0  10   39.58    4.80
   6   0 -10   43.42    4.41
  -6   0  10   37.34    3.80
  -6   0   9  207.90   19.51
  -6   0   9  194.27   18.35
  -6   0   9  247.68   23.31
  -6   0   8  408.46   13.26
  -6   0   8  376.11   10.28
   6   0  -8  382.04   10.04
  -6   0   8  385.28   13.92
  -6   0   7    0.98    3.39
  -6   0   7    1.33    2.92
   6   0  -7    1.19    3.01
  -6   0   7    1.40    4.56
  -6   0   6    6.09    3.55
  -6   0   6    7.26    2.78
   6   0  -6    6.56    2.79
  -6   0   6    7.08    2.49
  -6   0   5  121.63    5.78
  -6   0   5  130.23    6.90
   6   0  -5  113.77    5.70
  -6   0   5  115.17    5.39
  -6   0   4    1.88    3.21
   6   0  -4    1.87    3.77
  -6   0   4    1.49    2.77
   6   0  -4    0.98    2.97
  -6   0   4    1.92    2.78
  -6   0   4    1.40    3.03
   6   0  -3  158.22    6.25
  -6   0   3  182.06    7.13
   6   0  -3  162.59    5.78
  -6   0   3  160.46    6.74
  -6   0   3  160.47    6.13
  -6   0   2   10.12    2.77
  -6   0   2    9.83    2.32
  -6   0   1   66.53    3.87
  -6   0   1   63.63    3.13
   6   0  -1   68.55    4.06
  -6   0   1   66.75    3.38
  -6   0   1   65.20    4.70
  -6   0   1   64.40    3.35
  -6   0   0   46.35    4.15
  -6   0   0   44.54    2.96
  -6   0   0   46.54    4.03
   6   0   0   44.59    4.50
  -6   0   0   44.70    2.86
  -6   0   0   44.46    3.59
   6   0   0   46.18    2.99
  -6   0  -1  130.29    5.90
  -6   0  -1  132.84    6.35
  -6   0  -1  131.22    6.26
  -6   0  -1  125.65    5.80
   6   0   1  129.63    6.36
  -6   0  -2  817.91   19.25
  -6   0  -2  847.80   19.06
  -6   0  -2  832.28   18.21
   6   0   2  765.26   16.73
  -6   0  -3  181.10    8.92
  -6   0  -3  187.75    9.42
  -6   0  -3  172.63    8.69
   6   0   3  205.75   10.37
  -6   0  -4  130.99   27.83
  -6   0  -4  122.83   26.02
  -6   0  -4  128.27   27.08
   6   0   4  128.93   27.27
  -6   0  -5    0.57    3.81
  -6   0  -5    0.37    2.73
  -6   0  -5    0.94    2.33
  -6   0  -5    0.33    2.73
   6   0   5   -0.10    2.43
  -6   0  -6  142.91   10.11
  -6   0  -6  173.90    6.76
  -6   0  -6  164.48    6.94
   6   0   6  171.59    7.51
  -6  -1  10  315.73   13.77
   6   1 -10  296.30   11.31
  -6  -1  10  205.76   22.26
  -6  -1   9  121.53   12.38
  -6  -1   9  136.48   13.21
  -6  -1   9   87.41   10.79
  -6  -1   8   -1.15    3.44
  -6  -1   8    0.63    2.80
   6   1  -8    0.10    2.80
  -6  -1   8    0.50    3.50
  -6  -1   7   33.21    4.02
   6   1  -7   30.78    3.63
  -6  -1   7   31.08    3.74
  -6  -1   6   22.09    4.63
   6   1  -6   20.01    3.90
  -6  -1   6   19.98    3.26
  -6  -1   5  101.03    5.26
  -6  -1   5   96.24    5.24
   6   1  -5   92.73    4.62
  -6  -1   5   92.60    4.50
  -6  -1   4  341.61    7.55
  -6  -1   4  359.20    8.92
   6   1  -4  358.00    8.61
  -6  -1   4  354.61    8.54
  -6  -1   3    1.51    2.80
  -6  -1   3    0.93    3.34
  -6  -1   3   -0.35    4.25
   6   1  -3    0.85    2.17
  -6  -1   3    0.91    3.05
  -6  -1   3    0.35    2.49
  -6  -1   2   70.56    4.64
  -6  -1   2   75.63    4.38
  -6  -1   2   76.08    4.37
   6   1  -2   69.66    3.76
  -6  -1   2   71.80    4.28
  -6  -1   2   78.37    4.89
  -6  -1   1  111.58    5.76
  -6  -1   1  108.83    5.35
  -6  -1   1  110.12    5.88
  -6  -1   1   96.83    4.80
  -6  -1   1  106.27    5.73
   6   1  -1  101.44    5.09
  -6  -1   0  239.41    7.08
  -6  -1   0  231.83   19.12
  -6  -1   0  220.63   19.69
  -6  -1   0  239.55    6.95
   6   1   0  234.06    6.90
  -6  -1  -1   61.44    5.87
  -6  -1  -1   75.97    7.19
  -6  -1  -1   74.99    7.28
   6   1   1   78.65    7.67
  -6  -1  -2    7.47    3.82
  -6  -1  -2    6.52    2.67
  -6  -1  -2    6.00    3.44
   6   1   2    5.92    2.90
  -6  -1  -3  130.82   27.77
  -6  -1  -3  142.24   30.13
  -6  -1  -3  131.65   27.85
   6   1   3  135.90   28.81
  -6  -1  -4   34.21    5.36
  -6  -1  -4   35.14    5.09
   6   1   4   34.37    5.09
  -6  -1  -5   36.71    3.57
  -6  -1  -5   40.51    3.53
   6   1   5   42.41    4.15
   6   2 -10   49.24    4.29
  -6  -2  10   54.58    4.36
  -6  -2   9   31.78    5.26
   6   2  -9   28.26    4.67
  -6  -2   9   24.77    4.42
  -6  -2   8   20.41    4.79
  -6  -2   8   11.36    2.82
  -6  -2   8   19.94    4.42
  -6  -2   7   15.94    4.45
  -6  -2   7   14.65    3.53
   6   2  -7   16.88    3.98
  -6  -2   7   16.55    4.26
  -6  -2   6  655.48   29.84
  -6  -2   6  648.97   29.10
   6   2  -6  699.38   31.17
  -6  -2   6  681.54   31.34
  -6  -2   5  511.85   12.30
  -6  -2   5  558.26   12.46
   6   2  -5  500.24   10.33
  -6  -2   5  409.61   34.28
  -6  -2   5  493.02   11.75
  -6  -2   4  118.20    4.64
  -6  -2   4  128.81    4.46
  -6  -2   4  107.05    6.50
   6   2  -4  123.08    4.76
  -6  -2   4  119.50    4.47
  -6  -2   4  100.67    4.19
  -6  -2   3  729.14   17.36
  -6  -2   3  723.01   16.34
  -6  -2   3  755.67   17.11
   6   2  -3  736.47   16.24
  -6  -2   3  736.82   17.44
  -6  -2   3  755.24   18.56
  -6  -2   2 1126.30   22.04
  -6  -2   2 1127.55   22.22
  -6  -2   2 1104.36   20.44
   6   2  -2 1061.01   18.05
  -6  -2   2 1076.62   22.34
  -6  -2   2 1114.91   19.94
   6   2  -2 1133.47   22.16
  -6  -2   1 1264.14   23.54
  -6  -2   1 1246.14   25.13
  -6  -2   1 1222.90   25.93
   6   2  -1 1147.54   27.82
  -6  -2   1 1193.07   23.97
   6   2  -1 1241.49   23.25
  -6  -2   0  451.11   22.59
  -6  -2   0  497.57   22.60
  -6  -2   0  508.47   22.93
   6   2   0  501.09   22.62
  -6  -2  -1 1045.51   29.41
  -6  -2  -1 1127.56   27.64
  -6  -2  -1 1055.33   23.54
   6   2   1 1124.54   26.33
  -6  -2  -2  388.09   36.17
  -6  -2  -2  452.95   41.51
   6   2   2  523.29   47.68
  -6  -2  -3  155.60    9.38
   6   2   3  157.08    9.57
  -6  -2  -4  165.35   10.72
  -6  -2  -4  275.11   15.01
  -6  -2  -4  240.62   13.17
   6   2   4  288.49   15.99
  -6  -3  10    1.23    2.74
   6   3 -10    1.46    2.90
  -6  -3  10    2.09    2.62
  -6  -3   9   31.77    4.02
   6   3  -9   30.08    3.87
  -6  -3   9   32.14    4.47
  -6  -3   8   63.75    6.03
  -6  -3   8   57.30    7.40
  -6  -3   7   66.92   14.53
   6   3  -7   67.49   14.78
  -6  -3   7   60.74    6.70
  -6  -3   7   69.67   15.26
  -6  -3   6  247.16   52.04
  -6  -3   6  244.62   51.69
   6   3  -6  224.34   47.20
  -6  -3   6  219.77   46.31
  -6  -3   6  195.48   42.83
  -6  -3   5   18.43    3.76
  -6  -3   5   19.54    2.90
  -6  -3   5   18.56    3.42
   6   3  -5   20.71    2.97
  -6  -3   5   19.30    2.97
  -6  -3   5   20.79    3.96
  -6  -3   4   38.94    3.55
  -6  -3   4   42.98    4.36
  -6  -3   4   30.43    2.90
   6   3  -4   41.45    3.06
  -6  -3   4   36.86    3.04
  -6  -3   4   38.06    3.93
  -6  -3   3   27.94    3.42
  -6  -3   3   28.12    3.98
  -6  -3   3   28.46    4.13
   6   3  -3   25.95    2.60
  -6  -3   3   28.16    4.16
  -6  -3   3   19.37    3.17
   6   3  -3   28.32    4.50
  -6  -3   2   50.66    3.48
  -6  -3   2   60.58    3.83
   6   3  -2   52.65    3.73
  -6  -3   2   53.21    3.93
   6   3  -2   51.90    3.72
  -6  -3   1   67.44   14.56
   6   3  -1   57.47    6.13
  -6  -3   1   66.95   14.71
   6   3  -1   69.40   15.00
  -6  -3   0   65.03    7.16
  -6  -3   0   61.60    6.46
   6   3   0   66.36    7.33
  -6  -3  -1    3.53    2.77
   6   3   1    3.55    2.95
  -6  -3  -2   30.02    3.78
  -6  -3  -2   28.07    3.35
   6   3   2   33.73    4.08
  -6  -3  -3  220.86   12.29
  -6  -3  -3  187.80   11.10
   6   3   3  236.04   12.68
  -6  -4   9   -0.31    2.50
   6   4  -9    0.86    2.32
  -6  -4   8   -0.16    2.35
   6   4  -8    0.00    2.56
  -6  -4   8    0.70    2.71
  -6  -4   7   84.61    6.65
  -6  -4   7   67.47    5.61
   6   4  -6   40.68    6.33
  -6  -4   6   42.23    5.86
   6   4  -5  271.05   25.07
  -6  -4   5  291.10   26.80
   6   4  -4   63.76    6.82
  -6  -4   4   66.97    6.93
   6   4  -3    2.47    2.93
  -6  -4   3    3.68    3.64
   6   4  -2    0.60    2.63
  -6  -4   2    1.70    3.51
   6   4  -1   61.00    4.59
  -6  -4   0   99.02    4.93
  -6  -4  -1    2.02    2.43
  -6  -5   8  121.18    7.28
   6   5  -8  115.06    6.59
  -6  -5   8   83.90    7.17
  -6  -5   8  121.62    8.22
  -6  -5   7    1.81    3.25
  -6  -5   7    1.51    2.99
  -6  -5   7    1.25    2.62
   6   5  -7    2.27    3.35
  -6  -5   6   24.85    3.64
   6   5  -6   22.90    3.25
  -6  -5   6   23.23    3.73
   6   5  -6   23.29    3.73
  -6  -5   5  157.66    7.20
   6   5  -5  129.50   10.36
  -6  -5   5  150.94    6.51
   6   5  -5  153.42    7.04
  -6  -5   4  399.74   14.76
   6   5  -4  366.23   12.90
  -6  -5   4  381.41   13.42
   6   5  -4  371.25   13.88
  -6  -5   3   30.13    4.16
   6   5  -3   27.40    3.82
   6   5  -3   29.97    4.11
  -6  -5   2   10.34    3.82
   6   5  -2    9.78    3.65
   6   5  -2    8.44    3.65
  -7  10   0   21.48    6.85
  -7  10  -7   19.46    5.75
  -7   9   2  609.23   27.57
  -7   9   2  126.94  102.76
  -7   9   1   61.65   12.22
  -7   9   1   46.17   42.15
  -7   9   0   33.62    5.36
  -7   9   0   31.59    5.80
  -7   9  -1  263.48   27.35
  -7   9  -5  283.52   18.57
  -7   9  -6  567.84   28.33
  -7   9  -6  519.90   26.22
  -7   9  -7   31.43    3.68
  -7   9  -8  247.02   13.15
  -7   9  -8  233.00   12.46
  -7   8   3   25.82    4.20
  -7   8   3   27.00    4.10
  -7   8   2  181.94   13.11
  -7   8   2  167.47   13.36
  -7   8   1   75.80    8.65
  -7   8   1   66.86    7.76
  -7   8   0  373.80   89.99
  -7   8  -1   17.99    3.64
  -7   8  -2  254.84    7.80
  -7   8  -2  256.30    7.24
  -7   8  -3  123.37    4.45
  -7   8  -4  195.52   41.21
  -7   8  -5    1.53    1.96
  -7   8  -5    0.87    2.49
  -7   8  -6    4.30    1.98
  -7   8  -6    5.75    2.78
  -7   8  -7    5.61    2.71
  -7   8  -7    6.82    3.81
  -7   8  -8   15.39    3.04
  -7   8  -8   15.60    3.35
  -7   7   5    8.97    3.29
  -7   7   5    4.56    3.33
  -7   7   4  234.30   17.53
  -7   7   4  221.92   15.39
  -7   7   3  935.98  116.60
  -7   7   2   70.06    7.51
  -7   7   2   78.50    4.15
  -7   7   1  222.28   11.41
  -7   7   1   90.55   77.76
  -7   7   0  190.76    9.68
  -7   7   0  180.30    8.88
  -7   7  -1  339.18    7.38
  -7   7  -1  340.66    7.54
  -7   7  -2  207.73    5.79
  -7   7  -2  211.08    6.18
  -7   7  -3   32.76    2.95
  -7   7  -3   27.86    3.04
  -7   7  -4  413.51   18.73
  -7   7  -4  412.09   18.34
  -7   7  -4  418.96   19.11
  -7   7  -5  222.20    5.86
  -7   7  -5  231.17    7.21
  -7   7  -6   91.91    9.12
  -7   7  -6   84.24    8.35
  -7   7  -7    3.04    2.40
  -7   7  -8   78.42    4.12
  -7   6   6  228.20   23.87
  -7   6   6  390.39   18.39
  -7   6   6  307.83   17.72
  -7   6   5   -0.14    3.63
  -7   6   4    2.88    3.60
  -7   6   4    4.12    3.70
  -7   6   3    8.44    4.34
  -7   6   3    8.84    2.74
  -7   6   3    8.57    3.21
  -7   6   2  169.71    9.21
  -7   6   2  192.38    9.29
  -7   6   1    4.16    4.03
  -7   6   1    2.56    2.57
  -7   6   1    5.02    3.08
  -7   6   0   38.29    4.24
  -7   6   0   36.38    3.30
  -7   6  -1  833.99   18.99
  -7   6  -1  826.40   19.45
  -7   6  -2  434.28   10.33
  -7   6  -2  446.61   11.39
  -7   6  -3    5.09    3.31
  -7   6  -3    8.86    2.62
  -7   6  -3    3.43    3.65
  -7   6  -4   28.02    2.71
  -7   6  -4   27.19    2.50
  -7   6  -5  136.78    5.06
  -7   6  -5  136.93    5.57
  -7   6  -6   91.92   19.55
  -7   6  -6  101.25   21.73
  -7   6  -7   35.28    4.92
  -7   6  -8   82.68    4.23
  -7   6  -8   79.73    4.17
  -7   5   7    3.31    2.69
  -7   5   7    4.15    3.26
  -7   5   7    5.60    2.99
   7  -5  -7    5.05    2.40
  -7   5   6  146.39   13.96
  -7   5   6  175.55   12.53
  -7   5   6  159.31   11.35
  -7   5   5  184.98   39.30
  -7   5   5  197.06   41.61
  -7   5   5  196.93   41.64
  -7   5   4  196.37    6.85
  -7   5   4  217.34    7.36
  -7   5   4  205.86    6.82
  -7   5   3  351.39    8.05
  -7   5   3  372.25    8.71
  -7   5   3  347.01    7.67
  -7   5   2  670.54   15.90
  -7   5   2  636.00   15.02
  -7   5   2  635.59   14.35
  -7   5   1  304.86    7.83
  -7   5   1  355.97    8.73
  -7   5   0   13.00    2.84
  -7   5   0    1.42    3.26
  -7   5  -1  335.27    7.49
  -7   5  -1  343.37    7.62
  -7   5  -2  429.83   10.75
  -7   5  -2  400.83    9.10
  -7   5  -3  815.89   18.16
  -7   5  -3  803.43   17.37
  -7   5  -3  782.09   17.36
  -7   5  -4   59.60    5.93
  -7   5  -4   57.83    5.37
  -7   5  -4   60.60    5.84
  -7   5  -5   28.03    3.14
  -7   5  -5   28.03    2.61
  -7   5  -5   27.38    3.03
  -7   5  -6   72.84   15.66
  -7   5  -6   71.02   15.29
  -7   5  -6   74.93   16.28
  -7   5  -7   91.25    6.85
  -7   5  -7   85.02    6.10
  -7   5  -7   91.73    7.28
  -7   5  -8   15.23    3.68
  -7   5  -8   14.11    2.88
  -7   5  -8   12.14    3.01
  -7   4   8  289.53   15.65
   7  -4  -8  262.78   14.19
  -7   4   7  103.57    8.13
  -7   4   7   78.11    6.51
   7  -4  -7  102.85    7.49
  -7   4   6  345.00   33.00
  -7   4   6  359.11   33.28
   7  -4  -6  341.67   31.13
  -7   4   5  290.42   10.73
  -7   4   5  313.91    8.91
  -7   4   5  290.70    9.40
  -7   4   4  273.89    7.43
  -7   4   4  274.00    6.57
  -7   4   4  261.83    7.23
  -7   4   3  120.83    5.83
  -7   4   3  133.18    6.00
  -7   4   3  118.50    5.05
  -7   4   2  601.51   13.63
  -7   4   2  613.28   13.64
  -7   4   2  627.27   15.00
  -7   4   1  660.41   13.24
  -7   4   1  685.08   13.38
  -7   4   0  431.54    9.48
  -7   4   0  454.37    9.30
  -7   4  -1 1382.17   26.84
  -7   4  -1 1456.92   26.65
  -7   4  -1 1413.55   25.13
  -7   4  -2 1649.63   36.31
  -7   4  -2 1634.97   35.93
  -7   4  -2 1619.71   33.04
  -7   4  -2 1667.61   35.63
  -7   4  -3   99.29    5.11
  -7   4  -3   92.38    4.42
  -7   4  -3   99.50    5.27
  -7   4  -4  563.81   25.54
  -7   4  -4  549.65   24.40
  -7   4  -4  559.81   25.12
  -7   4  -5  290.47    8.30
  -7   4  -5  299.90    8.00
  -7   4  -5  267.76    7.37
  -7   4  -6   34.93    3.90
  -7   4  -6   28.68    3.06
  -7   4  -6   29.24    2.44
  -7   4  -7   28.35    4.51
  -7   4  -7   26.10    3.43
  -7   4  -7   25.65    3.13
  -7   4  -8   34.39    4.11
  -7   4  -8   26.03    2.58
  -7   4  -8   23.71    6.44
   7  -3  -9    9.49    3.29
  -7   3   8   51.65    4.84
   7  -3  -8   49.20    4.66
  -7   3   7    7.34    4.21
   7  -3  -7    7.71    3.36
  -7   3   6  801.11   20.93
   7  -3  -6  758.39   17.74
  -7   3   5 1006.05   44.77
  -7   3   5 1153.53   52.29
  -7   3   5 1067.06   49.89
   7  -3  -5 1053.53   45.96
  -7   3   4  181.73    5.01
  -7   3   4  177.57    5.57
  -7   3   4  190.09    5.62
  -7   3   4  180.73    5.06
  -7   3   3  172.17    6.47
  -7   3   3  164.39    6.65
  -7   3   3  170.41    6.77
  -7   3   3  174.86    6.82
  -7   3   2  256.10    6.66
  -7   3   2  260.82    6.98
  -7   3   2  273.84    8.22
  -7   3   2  282.64    7.50
  -7   3   1  262.77    6.68
  -7   3   1  259.32    6.22
  -7   3   1  258.92    6.31
  -7   3   1  268.14    6.89
  -7   3   0   12.13    3.59
  -7   3   0   13.96    3.05
  -7   3   0   13.58    2.82
  -7   3   0   14.82    2.96
  -7   3  -1  278.43    6.85
  -7   3  -1  277.83    6.65
  -7   3  -1  273.10    6.95
  -7   3  -1  284.12    7.06
  -7   3  -2  445.81   11.07
  -7   3  -2  407.53    9.56
  -7   3  -2  428.13   10.15
  -7   3  -2  440.29   10.25
  -7   3  -3   36.36    5.26
  -7   3  -3   34.30    4.30
  -7   3  -3   34.00    4.42
  -7   3  -4  241.06   11.92
  -7   3  -4  225.34   10.56
  -7   3  -4  218.54   10.60
  -7   3  -4  217.54   10.32
  -7   3  -5   56.47    7.03
  -7   3  -5   53.76    5.83
  -7   3  -6  368.42   24.13
  -7   3  -6  339.50   22.02
  -7   3  -6  341.52   22.30
  -7   3  -7   96.49    5.60
  -7   3  -7   84.96    4.21
  -7   3  -7   88.06    4.23
  -7   2   9   15.26    4.72
   7  -2  -9   26.66    2.93
  -7   2   8   12.96    3.00
  -7   2   8   15.95    4.23
   7  -2  -8   13.88    3.80
  -7   2   7  101.22    9.78
   7  -2  -7  105.53   10.45
  -7   2   6    3.46    2.61
   7  -2  -6    0.90    3.50
  -7   2   5   15.99    2.87
  -7   2   5   17.36    4.24
   7  -2  -5   15.64    2.83
  -7   2   4   11.66    3.46
  -7   2   4   10.77    2.95
  -7   2   4   13.47    4.07
  -7   2   3   41.40    3.90
  -7   2   3   41.29    3.70
  -7   2   3   41.70    4.96
  -7   2   2  286.57    7.20
  -7   2   2  282.25    7.00
  -7   2   2  283.56    7.58
  -7   2   1  716.59   14.58
  -7   2   1  717.01   14.58
  -7   2   1  704.70   13.92
  -7   2   1  707.18   14.05
  -7   2   0  462.03   11.24
  -7   2   0  463.70   11.75
  -7   2   0  467.10   12.10
  -7   2   0  447.71   11.07
  -7   2  -1  575.04   14.10
  -7   2  -1  562.34   13.19
  -7   2  -1  545.18   12.21
  -7   2  -2   96.37    4.80
  -7   2  -2   93.76    3.93
  -7   2  -3  428.94   19.85
  -7   2  -3  383.38   17.49
  -7   2  -4  455.37   95.44
  -7   2  -5    4.06    3.06
  -7   2  -5    4.53    2.48
  -7   2  -6  126.04    6.04
  -7   2  -6  116.33    5.02
  -7   2  -6  126.37    5.60
  -7   1   9   19.88    2.56
  -7   1   9   21.90    3.38
   7  -1  -9   24.31    3.04
  -7   1   8    1.27    3.25
  -7   1   8    1.84    3.01
   7  -1  -8    1.36    3.44
  -7   1   7  483.58  101.61
  -7   1   7  509.94  106.96
   7  -1  -7  485.25  101.84
  -7   1   6  375.48    9.99
  -7   1   6  434.98   12.81
   7  -1  -6  390.84   10.30
  -7   1   5   58.01    3.69
   7  -1  -5   61.66    3.82
  -7   1   4   60.31    6.22
   7  -1  -4   58.03    5.41
  -7   1   3  794.82   18.89
  -7   1   3  703.58   17.18
  -7   1   2  121.99    5.86
  -7   1   2  118.95    5.67
  -7   1   2  125.49    5.46
  -7   1   2  128.98    5.80
  -7   1   1   16.64    2.97
  -7   1   1   18.96    3.86
  -7   1   1   19.36    3.23
  -7   1   0  386.98   10.15
  -7   1  -1   13.42    3.34
  -7   1  -1   13.69    2.57
  -7   1  -2  268.78   12.91
  -7   1  -2  256.21   12.19
  -7   1  -3  112.14   23.92
  -7   1  -3  103.22   21.86
  -7   1  -4  249.32   22.99
  -7   1  -4  261.72   23.96
  -7   1  -4  242.67   22.28
  -7   1  -5  191.18   10.99
  -7   1  -5  169.44    9.31
  -7   1  -5  168.20    9.26
  -7   1  -6   48.30   12.25
  -7   1  -6   88.57    5.40
  -7   1  -6   99.58    6.13
  -7   0   9    0.25    2.92
  -7   0   9    0.20    2.50
   7   0  -9    1.19    3.27
  -7   0   8   18.90    3.81
  -7   0   8   16.90    3.64
   7   0  -8   19.77    3.52
  -7   0   8   17.28    3.83
  -7   0   7   18.44    3.42
  -7   0   7   19.25    3.69
   7   0  -7   18.32    2.92
  -7   0   7   17.33    3.53
  -7   0   6    0.82    3.13
  -7   0   6    0.31    3.01
   7   0  -6    1.10    2.56
  -7   0   6    0.37    2.39
  -7   0   5   66.24    3.64
  -7   0   5   64.25    4.67
   7   0  -5   62.37    4.12
  -7   0   5   60.07    3.83
  -7   0   4  323.99    7.37
  -7   0   4  340.84    9.33
   7   0  -4  304.58    7.08
  -7   0   4  306.67   16.03
  -7   0   3  945.85   17.36
  -7   0   3 1096.52   23.19
  -7   0   3  911.94   16.86
  -7   0   3  932.88   42.90
  -7   0   2    6.36    4.12
  -7   0   2    7.96    2.61
  -7   0   2    7.45    3.40
   7   0  -2    7.21    3.01
  -7   0   1    2.82    3.08
  -7   0   1    3.83    2.33
  -7   0   1    2.28    2.58
   7   0  -1    3.36    2.58
  -7   0   0    4.36    3.81
  -7   0   0    3.59    2.40
  -7   0   0    3.99    3.08
  -7   0   0    2.82    3.04
   7   0   0    2.69    2.60
  -7   0  -1   18.72    4.11
  -7   0  -1   18.39    2.88
  -7   0  -1   20.01    3.51
   7   0   1   18.14    2.99
  -7   0  -2  332.26   70.00
  -7   0  -2  340.14   71.42
  -7   0  -2  318.77   66.93
   7   0   2  362.66   76.17
  -7   0  -3  290.64   19.50
  -7   0  -3  235.03   19.77
  -7   0  -3  262.58   17.14
   7   0   3  247.27   19.42
  -7   0  -4   63.88    5.16
  -7   0  -4   61.91    4.75
  -7   0  -4   56.75    4.36
  -7   0  -5   67.18    5.07
  -7   0  -5   67.78    4.60
  -7   0  -5   71.71    5.00
  -7  -1   9   85.23    4.80
  -7  -1   9   43.29    6.87
   7   1  -9   89.72    4.71
  -7  -1   9   88.85    4.85
  -7  -1   8    0.27    3.23
   7   1  -8   -0.29    3.73
  -7  -1   8   -0.35    2.92
  -7  -1   7   22.84    3.72
   7   1  -7   23.25    3.17
  -7  -1   7   18.18    2.90
  -7  -1   6   80.47   17.39
  -7  -1   6   62.47    6.55
  -7  -1   6   76.30   16.55
   7   1  -6   70.05   15.17
  -7  -1   6   66.97   15.16
  -7  -1   5   88.27    4.37
  -7  -1   5  116.00    4.40
  -7  -1   5  123.25    6.05
   7   1  -5  108.97    4.37
  -7  -1   5  106.52    7.84
  -7  -1   4  150.58    6.13
  -7  -1   4  134.43    5.43
  -7  -1   4  129.15    7.80
   7   1  -4  134.10    5.02
  -7  -1   4  140.92    4.90
  -7  -1   3   32.31    3.68
  -7  -1   3   25.00    2.93
  -7  -1   3   33.34    4.47
   7   1  -3   27.70    2.61
  -7  -1   3   31.03    3.94
  -7  -1   2   -0.67    4.06
  -7  -1   2   -0.67    3.33
  -7  -1   2    0.04    4.03
  -7  -1   2    0.01    2.35
   7   1  -2    0.17    3.99
  -7  -1   1  560.57   14.33
  -7  -1   1  526.45   16.99
  -7  -1   1  586.72   16.16
  -7  -1   1  532.81   13.43
   7   1  -1  506.22   22.84
  -7  -1   0  149.45   31.60
  -7  -1   0  141.97   30.02
  -7  -1   0  140.62   29.78
   7   1   0  136.76   28.94
  -7  -1  -1   17.27    3.82
  -7  -1  -1   14.05    3.20
  -7  -1  -1   15.90    3.55
   7   1   1   11.92    3.73
  -7  -1  -2    3.50    2.99
  -7  -1  -2    3.39    3.12
  -7  -1  -2    4.17    2.47
   7   1   2    3.12    3.06
  -7  -1  -3   42.31    4.29
  -7  -1  -3   46.50    4.24
  -7  -1  -3   44.04    3.66
   7   1   3   44.55    4.17
  -7  -2   9    8.26    3.52
  -7  -2   9    7.88    3.46
   7   2  -9    9.08    3.50
  -7  -2   9    7.93    3.60
  -7  -2   8    1.27    3.03
  -7  -2   8    1.29    2.43
   7   2  -8    1.43    2.45
  -7  -2   8    1.98    3.00
  -7  -2   7    2.49    2.70
  -7  -2   7    2.28    3.53
  -7  -2   7    2.20    2.54
   7   2  -7    2.49    3.56
  -7  -2   7    2.37    2.66
  -7  -2   6  127.16   12.40
  -7  -2   6  113.37   11.02
  -7  -2   6  117.41   11.49
   7   2  -6  116.78   11.10
  -7  -2   6  123.47   12.23
  -7  -2   5  362.58   33.44
  -7  -2   5  357.83   32.91
  -7  -2   5  354.16   33.31
   7   2  -5  366.06   33.28
  -7  -2   5  383.03   35.32
  -7  -2   4   65.33    3.83
  -7  -2   4   60.53    7.24
  -7  -2   4   65.80    4.23
   7   2  -4   62.49    7.13
  -7  -2   4   60.93    6.44
  -7  -2   4   54.63    7.07
  -7  -2   3   40.34    3.56
  -7  -2   3   43.65    4.12
  -7  -2   3   43.55    4.23
   7   2  -3   36.35    2.61
  -7  -2   3   37.91    2.83
   7   2  -3   41.97    4.67
  -7  -2   2   23.23    3.64
  -7  -2   2   23.72    2.86
  -7  -2   2   24.96    4.11
  -7  -2   2   20.79    3.06
   7   2  -2   23.39    3.10
  -7  -2   1   22.93    3.46
  -7  -2   1   24.60    3.72
  -7  -2   1   22.58    2.74
   7   2  -1   18.98    3.82
  -7  -2   0   15.69    3.80
  -7  -2   0   32.12    4.92
  -7  -2   0   31.16    4.49
   7   2   0   28.41    5.07
  -7  -2  -1    9.42    3.06
  -7  -2  -1    9.23    3.30
   7   2   1   10.21    3.72
  -7  -2  -2   23.18    7.56
  -7  -2  -2   34.31    3.60
   7   2   2   11.78    4.11
  -7  -3   8  456.74   24.13
  -7  -3   8  491.56   25.89
   7   3  -8  458.13   23.67
  -7  -3   8  341.74   32.10
  -7  -3   7  116.34    5.46
  -7  -3   7  121.44    5.79
   7   3  -7  116.61    5.66
  -7  -3   7  111.68    5.80
  -7  -3   6    5.03    4.46
  -7  -3   6    8.89    3.69
  -7  -3   5  752.16   42.94
  -7  -3   5  677.67   34.54
  -7  -3   5  700.71   38.97
   7   3  -5  672.11   34.80
  -7  -3   5  703.07   36.56
  -7  -3   5  751.36   43.81
   7   3  -5  704.35   39.47
  -7  -3   4  511.20   26.42
  -7  -3   4  528.94   28.85
   7   3  -4  480.26   24.23
  -7  -3   4  483.62   24.49
   7   3  -4  521.16   35.84
  -7  -3   3  403.29   21.30
   7   3  -3  344.18   18.69
  -7  -3   3  345.50   18.23
   7   3  -3  390.65   20.82
  -7  -3   2  534.29   27.23
  -7  -3   2  517.81   26.29
   7   3  -2  528.29   27.19
  -7  -3   1  269.58   10.15
  -7  -3   1  263.78    9.68
   7   3  -1  260.72   10.15
  -7  -3   0  275.33   14.75
  -7  -3   0  225.01   12.53
   7   3   0  296.90   16.00
  -7  -4   6   35.48    3.83
   7   4  -6   35.67    3.59
  -7  -4   6   30.62    3.35
   7   4  -6   35.41    4.07
  -7  -4   5    0.23    2.48
   7   4  -5   -0.10    2.20
  -7  -4   5    0.22    2.84
   7   4  -5    1.00    3.16
  -7  -4   4  220.94   12.38
   7   4  -4  190.67   10.38
  -7  -4   4  170.33   10.02
   7   4  -4  204.64   11.61
  -7  -4   3  199.28   11.03
  -7  -4   3  200.78   11.01
   7   4  -3  193.25   10.89
  -8   9   1  285.38   16.07
  -8   9   0  210.15    8.83
  -8   9  -1  139.31    8.61
  -8   9  -4   81.88    4.19
  -8   9  -5   36.32    3.72
  -8   9  -6  261.75   13.96
  -8   8   3    0.17    2.47
  -8   8   3    0.99    2.75
  -8   8   2    7.10    2.97
  -8   8   2    4.85    2.44
  -8   8   1  303.50   16.08
  -8   8   1  224.94   17.80
  -8   8   0   51.09    6.98
  -8   8  -1   23.69    4.25
  -8   8  -1   25.60    4.10
  -8   8  -2  124.50    8.96
  -8   8  -2  122.72    8.44
  -8   8  -3  287.90   46.77
  -8   8  -3  403.90   25.92
  -8   8  -4   14.45    3.83
  -8   8  -5   10.64    2.71
  -8   8  -5   12.51    3.61
  -8   8  -6  337.60   11.56
  -8   8  -6  307.35   11.10
  -8   8  -7   16.79    4.92
  -8   8  -7   16.12    4.76
  -8   7   4    1.30    3.10
  -8   7   4    2.18    3.21
  -8   7   3  289.70   38.89
  -8   7   2  190.92   12.89
  -8   7   1    1.64    2.83
  -8   7   1    1.75    2.36
  -8   7   0    4.90    2.88
  -8   7   0    5.57    3.00
  -8   7  -1  414.91   87.52
  -8   7  -1  387.90   81.40
  -8   7  -2  173.74   36.96
  -8   7  -2  176.83   37.33
  -8   7  -3   -0.39    2.45
  -8   7  -3    0.93    2.65
  -8   7  -4  376.52   34.15
  -8   7  -4  363.81   33.17
  -8   7  -5    8.48    2.74
  -8   7  -6    1.93    2.63
  -8   7  -6    1.51    2.69
  -8   7  -7   31.67    2.79
  -8   7  -7   34.04    3.63
  -8   6   5  197.61    8.88
  -8   6   5  262.71   10.68
  -8   6   4   53.17    7.17
  -8   6   4   51.90    6.99
  -8   6   4   53.68    6.73
  -8   6   3    0.72    3.86
  -8   6   3    1.00    2.53
  -8   6   3    1.51    2.43
  -8   6   2  397.44   83.63
  -8   6   2  400.76   84.20
  -8   6   2  415.47   87.25
  -8   6   1  634.10  132.82
  -8   6   0  150.42    5.44
  -8   6   0  156.80    6.04
  -8   6  -1  521.63   12.61
  -8   6  -1  468.75   11.58
  -8   6  -2   40.61    3.12
  -8   6  -2   38.93    3.03
  -8   6  -3  253.48   53.17
  -8   6  -4  197.22   18.13
  -8   6  -4  227.80   21.29
  -8   6  -5   30.36    4.28
  -8   6  -5   30.62    4.96
  -8   6  -6  173.71    9.13
  -8   6  -6  178.60    9.99
  -8   6  -7  412.95   21.42
  -8   6  -7  377.05   22.35
  -8   5   6   97.10    9.76
  -8   5   6   62.79   17.02
  -8   5   6  139.91    6.46
  -8   5   5    0.98    2.54
  -8   5   5    2.17    3.48
  -8   5   5    1.42    2.69
  -8   5   5    1.60    3.21
  -8   5   4    8.31    4.02
  -8   5   4   10.90    3.38
  -8   5   4   12.93    3.65
  -8   5   4   13.58    3.40
  -8   5   3  298.06   62.76
  -8   5   3  308.64   65.20
  -8   5   3  215.87   64.44
  -8   5   3  317.73   66.70
  -8   5   2  188.06    6.47
  -8   5   2  201.91    6.70
  -8   5   1   79.86    4.32
  -8   5   1   83.71    3.96
  -8   5  -1    1.51    3.31
  -8   5  -1    2.17    3.30
  -8   5  -2   44.55    3.77
  -8   5  -2   43.99    4.00
  -8   5  -3   33.51    4.56
  -8   5  -3   31.37    3.99
  -8   5  -3   33.38    4.38
  -8   5  -4  161.23   15.99
  -8   5  -4  161.70   14.91
  -8   5  -4  165.40   15.42
  -8   5  -5   42.78    5.66
  -8   5  -5   40.51    5.36
  -8   5  -5   40.47    5.84
  -8   5  -6    1.79    2.44
  -8   5  -6    0.93    2.62
  -8   5  -6    1.59    2.96
  -8   4   7    7.38    3.81
  -8   4   7    7.21    3.34
  -8   4   6   16.55    3.27
  -8   4   6   16.11    2.90
  -8   4   5  539.97   44.88
  -8   4   5  565.14   36.85
  -8   4   4   10.20    2.99
  -8   4   4   13.62    3.90
  -8   4   4   10.38    3.95
  -8   4   4   11.43    3.94
  -8   4   3   13.56    3.65
  -8   4   3   15.68    2.77
  -8   4   3   15.35    3.22
  -8   4   3   13.96    3.91
  -8   4   2    8.11    3.93
  -8   4   2    7.53    3.52
  -8   4   1   10.58    3.04
  -8   4   1   10.28    3.31
  -8   4   1   10.43    3.78
  -8   4   1    9.10    3.94
  -8   4   0  257.75   11.89
  -8   4   0  263.86   12.87
  -8   4   0  249.05   12.30
  -8   4   0  258.27   12.39
  -8   4  -1   51.24    2.99
  -8   4  -1   51.14    4.29
  -8   4  -2  163.47    5.78
  -8   4  -2  157.45    5.27
  -8   4  -2  143.56    5.63
  -8   4  -3  268.19   56.40
  -8   4  -3  263.31   55.25
  -8   4  -3  265.40   55.90
  -8   4  -4  422.93   38.50
  -8   4  -4  435.10   39.48
  -8   4  -4  390.83   38.46
  -8   4  -5   52.46    4.88
  -8   4  -5   46.99    4.06
  -8   4  -6  460.52   24.36
  -8   3   7   22.42    3.29
  -8   3   6   83.82    6.65
  -8   3   5  217.90   20.28
  -8   3   5  237.46   22.41
  -8   3   4  800.86  167.83
  -8   3   4  835.74  175.70
  -8   3   4  859.29  180.06
  -8   3   3  244.42    6.94
  -8   3   3  261.93    8.02
  -8   3   3  258.49    7.26
  -8   3   3  272.08    7.70
  -8   3   2  881.70   39.47
  -8   3   2  903.86   39.62
  -8   3   2  887.19   39.91
  -8   3   2  930.10   41.40
  -8   3   1 1420.39   62.43
  -8   3   1 1416.78   61.68
  -8   3   1 1439.32   63.74
  -8   3   1 1459.30   63.66
  -8   3   0 1189.45   27.47
  -8   3   0 1130.00   49.61
  -8   3   0 1114.78   26.28
  -8   3  -1   42.82    3.09
  -8   3  -1   40.31    3.31
  -8   3  -1   38.64    2.87
  -8   3  -1   37.24    3.08
  -8   3  -2  762.23  159.73
  -8   3  -2  692.06  145.02
  -8   3  -2  680.96  142.88
  -8   3  -3  238.63   21.96
  -8   3  -3  229.78   21.21
  -8   3  -4  109.13    7.76
  -8   3  -4  105.98    7.63
  -8   3  -5   80.21    4.64
  -8   2   8  151.06    8.89
   8  -2  -8  135.49    7.79
  -8   2   7  169.87   22.80
   8  -2  -7  236.16   12.85
  -8   2   6   33.88    4.93
  -8   2   5   12.16    3.46
  -8   2   5   11.09    3.27
  -8   2   4    2.03    2.66
  -8   2   4    2.75    3.78
  -8   2   3    1.72    2.58
  -8   2   3    2.05    2.35
  -8   2   3    1.55    3.96
  -8   2   3    2.95    3.99
  -8   2   2  132.84    5.54
  -8   2   2  127.78    5.26
  -8   2   2  130.12    6.57
  -8   2   1    7.10    2.91
  -8   2   1    8.89    3.81
  -8   2   1    7.49    3.35
  -8   2   0   46.30    3.57
  -8   2   0   45.21    3.91
  -8   2   0   43.37    3.30
  -8   2  -1   41.07    5.82
  -8   2  -1   34.16    4.15
  -8   2  -1   39.92    5.53
  -8   2  -2  274.21   25.35
  -8   2  -2  248.30   22.84
  -8   2  -3  119.77    8.83
  -8   2  -3  113.95    7.90
  -8   2  -4  169.90    6.76
  -8   2  -4  165.46    6.55
  -8   2  -5    1.97    2.19
  -8   1   8  164.36    9.39
  -8   1   8  169.27    9.85
   8  -1  -8  144.93    8.73
  -8   1   7   71.49    4.84
  -8   1   7   74.77    5.65
   8  -1  -7   71.38    4.97
  -8   1   6    7.90    3.10
  -8   1   6    9.63    3.94
   8  -1  -6    8.88    3.25
  -8   1   5   31.75    3.65
  -8   1   4   22.68    3.56
  -8   1   4   21.32    3.50
  -8   1   3   14.93    3.85
  -8   1   3   19.89    4.66
  -8   1   3   19.11    3.99
  -8   1   2 1056.21   16.02
  -8   1   2 1037.87  217.63
  -8   1   1  168.09   35.68
  -8   1   1  167.39   35.48
  -8   1   0    3.33    2.92
  -8   1  -2    4.64    3.76
  -8   1  -2    3.46    2.84
  -8   1  -2    3.46    2.44
  -8   1  -3    0.46    2.54
  -8   1  -3   -2.22    3.42
  -8   1  -3   -0.67    2.39
  -8   1  -4   10.04    4.13
  -8   1  -4    8.66    3.20
  -8   0   8  140.48   10.36
  -8   0   8  150.97   14.66
   8   0  -8  149.71    8.60
  -8   0   7   24.14    3.66
  -8   0   7   25.15    3.55
   8   0  -7   20.10    3.17
  -8   0   6  125.87    7.89
  -8   0   6  132.89    8.33
   8   0  -6  108.45    6.74
  -8   0   5  471.19   30.90
  -8   0   5  399.84   26.28
  -8   0   4   45.28    3.96
  -8   0   3   48.40    4.54
  -8   0   2    0.57    2.73
  -8   0   1   40.11    5.70
  -8   0   0  298.28   19.41
  -8   0  -1  627.33   31.93
  -8   0  -1  573.37   28.85
  -8   0  -2  239.66   19.69
  -8   0  -2  331.89   12.82
  -8   0  -2  342.55   11.83
  -8  -1   7    1.45    2.56
  -8  -1   7    1.20    3.09
   8   1  -7    1.45    2.82
  -8  -1   7    3.81    3.10
  -8  -1   6   93.23    7.41
  -8  -1   6   98.28    4.79
  -8  -1   6   80.43    4.84
   8   1  -6  101.04    4.94
  -8  -1   6   70.01    7.06
  -8  -1   5   -0.68    3.72
  -8  -1   5   -0.31    2.73
  -8  -1   5    0.43    3.12
   8   1  -5   -0.26    2.79
  -8  -1   5   -1.76    3.25
   8   1  -5   -0.64    2.93
  -8  -1   4    2.09    3.57
  -8  -1   4    2.00    3.01
  -8  -1   4    0.61    2.66
   8   1  -4    1.94    3.50
  -8  -1   3    1.88    3.46
  -8  -1   3    1.63    2.78
  -8  -1   3    1.84    3.44
   8   1  -3    1.42    2.90
  -8  -1   2   22.97    3.65
  -8  -1   2   21.05    3.26
  -8  -1   2   19.68    3.13
   8   1  -2   18.95    3.57
  -8  -1   1    1.72    2.66
  -8  -1   1    2.15    2.22
  -8  -1   1    0.68    2.37
   8   1  -1    1.67    2.40
  -8  -1   0   11.23    3.08
  -8  -1   0   19.49    2.75
  -8  -1   0   20.53    2.58
   8   1   0   21.48    3.06
  -8  -1  -1  100.13   13.72
  -8  -1  -1  167.11    9.61
  -8  -2   6   95.94    8.88
  -8  -2   6  113.05    7.68
  -8  -2   6  105.24    8.78
   8   2  -6  121.86    6.96
   8   2  -6  112.15    7.98
  -8  -2   5    1.58    2.88
  -8  -2   5   -0.65    3.00
  -8  -2   5    0.61    2.49
   8   2  -5   -0.17    3.65
  -8  -2   4  246.16    9.39
  -8  -2   4  240.63   10.89
   8   2  -4  225.78    9.78
  -8  -2   3   10.71    4.03
   8   2  -3    7.12    6.01
  -8  -2   2   -0.48    2.30
  -8  -2   2    0.17    2.10
  -8  -2   2    0.53    2.07
   8   2  -2   -0.83    2.30
  -8  -2   1  151.59    9.89
  -8  -2   1  160.92    8.88
   8   2  -1  157.81    9.86
  -9   8   1  133.93   21.85
  -9   8   0  103.60    6.52
  -9   8   0   88.88    8.45
  -9   8  -1   65.40    4.10
  -9   8  -1   52.93    3.31
  -9   8  -2   55.29    3.91
  -9   8  -3   69.09    4.58
  -9   8  -4  188.59   10.39
  -9   7   3    1.15    3.21
  -9   7   2   13.21    2.87
  -9   7   1   14.74    3.26
  -9   7   0   48.27    4.86
  -9   7   0   48.39    4.47
  -9   7  -1  100.86    6.14
  -9   7  -1   99.10    6.00
  -9   7  -2  183.96   10.45
  -9   7  -3    6.23    2.84
  -9   7  -5    6.39    3.20
  -9   6   4    8.22    3.89
  -9   6   4    5.90    2.78
  -9   6   3  196.07    8.46
  -9   6   3  191.54    7.59
  -9   6   2  113.10    7.43
  -9   6   2  104.64    6.39
  -9   6   1  544.29   28.20
  -9   6   0   88.64    6.81
  -9   6  -1  129.42    9.36
  -9   6  -2  383.97   20.23
  -9   6  -3   63.52    4.97
  -9   6  -4   65.51    3.56
  -9   6  -4   63.37    4.30
  -9   6  -5   62.26    4.23
  -9   6  -5   52.00    4.16
  -9   5   5    7.06    3.35
  -9   5   5    6.34    2.90
  -9   5   4  163.42   13.45
  -9   5   4  170.11    9.89
  -9   5   4  228.44    8.78
  -9   5   3  393.56   20.45
  -9   5   3  505.06   26.07
  -9   5   2   20.42    3.86
  -9   5   2   20.75    4.46
  -9   5   1   39.87    5.99
  -9   5   0   11.74    3.78
  -9   5   0    9.70    3.86
  -9   5  -1  204.39   13.92
  -9   5  -2   53.68    4.30
  -9   5  -3   72.93    3.66
  -9   5  -3   78.28    4.47
  -9   5  -4  262.08   13.58
  -9   5  -4  274.95   14.88
  -9   4   5  210.83    9.09
  -9   4   5  246.45    9.16
  -9   4   4    0.30    3.00
  -9   4   4    1.11    3.09
  -9   4   3    6.65    3.27
  -9   4   3    8.54    3.63
  -9   4   3    8.22    3.13
  -9   4   2    2.33    2.66
  -9   4   2    3.51    2.53
  -9   4   2    2.80    2.67
  -9   4   1  153.88   10.58
  -9   4   1  145.63    9.93
  -9   4   1  123.28    9.05
  -9   4   0  135.80    9.43
  -9   4   0  120.92    9.17
  -9   4  -1   62.89    5.36
  -9   4  -1   55.73    7.37
  -9   4  -2    1.80    3.25
  -9   4  -2    1.94    3.18
  -9   4  -3    2.83    2.61
  -9   4  -3    4.37    2.37
  -9   4  -4   65.71   11.03
  -9   4  -4   85.57    5.06
  -9   3   6    0.18    2.84
  -9   3   5  104.09    5.66
  -9   3   5   98.16    5.09
  -9   3   4  136.87    7.85
  -9   3   4  154.06    9.14
  -9   3   4  142.38    8.33
  -9   3   3    4.83    3.01
  -9   3   3    3.09    3.53
  -9   3   3    4.86    3.68
  -9   3   2  101.63    7.56
  -9   3   2   98.38    7.42
  -9   3   2   92.42    6.74
  -9   3   1  113.50    7.92
  -9   3   1  113.60    8.39
  -9   3   1  109.61    8.11
  -9   3   0  346.40   22.51
  -9   3   0  313.45   20.99
  -9   3   0  316.70   20.88
  -9   3  -1    0.46    3.51
  -9   3  -2    1.63    2.53
  -9   3  -2    2.83    2.23
  -9   3  -3  130.79    8.65
  -9   3  -3  138.03    7.80
  -9   2   6   20.41    6.78
  -9   2   6   30.68    4.51
  -9   2   6   41.03    3.89
  -9   2   5  106.97    6.10
  -9   2   5  122.46    6.03
  -9   2   5  119.61    5.96
  -9   2   4  715.35  181.98
  -9   2   4  700.42  175.90
  -9   2   4  666.98   27.23
  -9   2   3  743.46   37.86
  -9   2   3  747.44   42.05
  -9   2   3  678.21   34.99
  -9   2   2   39.11    4.40
  -9   2   2   39.77    4.68
  -9   2   2   27.85    3.47
  -9   2   1  222.80   12.16
  -9   2   1  220.56   12.05
  -9   2   0  141.90    8.28
  -9   2  -1   46.60    4.13
  -9   2  -1   41.11    3.57
  -9   2  -2    2.11    3.04
  -9   2  -2    0.85    2.15
  -9   1   6  116.23    7.00
  -9   1   6   87.02   10.37
  -9   1   5  195.83   19.30
  -9   1   5  131.86    8.69
  -9   1   4  105.20    5.35
  -9   1   3   56.46    3.95
  -9   1   3   57.61    4.19
  -9   1   2  103.61    5.15
  -9   1   2  113.89    5.65
  -9   1  -1  133.12    8.07
  -9   1  -1   92.25    7.46
  -9   0   4   67.13    5.20
  -9   0   3   37.47    4.98
  -9   0   3   64.72    4.89
  -9   0   2    8.93    3.70
   0   0   0    0.00    0.00

_computing_structure_solution     'SHELXT 2014/5 (Sheldrick, 2014)'
;
_shelx_hkl_checksum              21229
loop_
_space_group_symop_operation_xyz
'x, y, z'
'-x, -y, -z'
loop_
_atom_site_label
_atom_site_type_symbol
_atom_site_fract_x
_atom_site_fract_y
_atom_site_fract_z
_atom_site_U_iso_or_equiv
_atom_site_adp_type
_atom_site_occupancy
_atom_site_site_symmetry_order
_atom_site_calc_flag
_atom_site_refinement_flags_posn
_atom_site_refinement_flags_adp
S001 S 0.93707(6) 0.66621(6) 0.49721(5) 0.0310(2) Uani 1 1 d . .
O002 O 0.22116(16) 0.50032(16) 0.20740(13) 0.0271(3) Uani 1 1 d . .
O003 O 0.17746(17) 0.72371(17) 0.23614(13) 0.0282(3) Uani 1 1 d . .
N004 N 0.68707(18) 0.96319(19) 0.55277(14) 0.0204(4) Uani 1 1 d . .
H004 H 0.7583 1.0564 0.6259 0.024 Uiso 1 1 calc R U
C005 C 1.0276(2) 0.9756(2) 0.67013(18) 0.0232(4) Uani 1 1 d . .
H005 H 1.0268 1.0789 0.7177 0.028 Uiso 1 1 calc R U
C006 C 0.4503(2) 0.7655(2) 0.37086(17) 0.0200(4) Uani 1 1 d . .
C007 C 0.7200(2) 0.8257(2) 0.49625(17) 0.0195(4) Uani 1 1 d . .
C008 C 0.2720(2) 0.6667(2) 0.26739(17) 0.0214(4) Uani 1 1 d . .
C009 C 0.5745(2) 0.6986(2) 0.38160(17) 0.0200(4) Uani 1 1 d . .
C00A C 0.5284(2) 0.9342(2) 0.47937(16) 0.0196(4) Uani 1 1 d . .
C00B C 0.8880(2) 0.8352(2) 0.55760(17) 0.0217(4) Uani 1 1 d . .
C00C C 0.5622(2) 0.5341(2) 0.28079(17) 0.0208(4) Uani 1 1 d . .
C00D C 0.6179(2) 0.5227(3) 0.16052(19) 0.0273(4) Uani 1 1 d . .
H00D H 0.6667 0.6186 0.1466 0.033 Uiso 1 1 calc R U
C00E C 0.4916(3) 0.3884(2) 0.29999(19) 0.0286(4) Uani 1 1 d . .
H00E H 0.4545 0.3936 0.3798 0.034 Uiso 1 1 calc R U
C00F C 1.1727(2) 0.9436(3) 0.70457(19) 0.0279(4) Uani 1 1 d . .
H00F H 1.2774 1.0244 0.7769 0.034 Uiso 1 1 calc R U
C00G C 0.6014(3) 0.3697(3) 0.0612(2) 0.0346(5) Uani 1 1 d . .
H00G H 0.6381 0.3639 -0.0189 0.042 Uiso 1 1 calc R U
C00H C 0.0272(3) 0.2097(3) 0.0479(2) 0.0326(5) Uani 1 1 d . .
H00A H -0.0875 0.1295 -0.0206 0.049 Uiso 1 1 calc R U
H00B H 0.0306 0.1814 0.1224 0.049 Uiso 1 1 calc R U
H00C H 0.1260 0.2056 0.0071 0.049 Uiso 1 1 calc R U
C00I C 0.0469(3) 0.3857(3) 0.1023(2) 0.0330(5) Uani 1 1 d . .
H00H H 0.0463 0.4170 0.0284 0.040 Uiso 1 1 calc R U
H00I H -0.0535 0.3912 0.1423 0.040 Uiso 1 1 calc R U
C00J C 0.5308(3) 0.2265(3) 0.0809(2) 0.0352(5) Uani 1 1 d . .
H00J H 0.5196 0.1243 0.0142 0.042 Uiso 1 1 calc R U
C00K C 1.1424(3) 0.7823(3) 0.6206(2) 0.0309(5) Uani 1 1 d . .
H00K H 1.2229 0.7405 0.6292 0.037 Uiso 1 1 calc R U
C00L C 0.4764(3) 0.2357(3) 0.2009(2) 0.0334(5) Uani 1 1 d . .
H00L H 0.4299 0.1398 0.2150 0.040 Uiso 1 1 calc R U
loop_
_atom_site_aniso_label
_atom_site_aniso_U_11
_atom_site_aniso_U_22
_atom_site_aniso_U_33
_atom_site_aniso_U_23
_atom_site_aniso_U_13
_atom_site_aniso_U_12
S001 0.0261(3) 0.0237(3) 0.0378(3) 0.0080(2) 0.0005(2) 0.0139(2)
O002 0.0222(6) 0.0167(7) 0.0313(7) 0.0051(6) -0.0049(5) 0.0069(5)
O003 0.0274(7) 0.0232(7) 0.0263(7) 0.0040(6) -0.0033(5) 0.0136(6)
N004 0.0198(7) 0.0180(8) 0.0186(7) 0.0049(6) 0.0006(6) 0.0087(6)
C005 0.0233(8) 0.0219(10) 0.0242(9) 0.0107(8) 0.0033(7) 0.0108(7)
C006 0.0198(8) 0.0191(9) 0.0199(8) 0.0080(7) 0.0043(6) 0.0092(7)
C007 0.0207(8) 0.0176(9) 0.0200(8) 0.0079(7) 0.0053(6) 0.0096(7)
C008 0.0221(9) 0.0199(10) 0.0196(8) 0.0066(7) 0.0045(7) 0.0102(7)
C009 0.0205(8) 0.0184(9) 0.0209(8) 0.0093(7) 0.0051(6) 0.0087(7)
C00A 0.0192(8) 0.0186(9) 0.0183(8) 0.0069(7) 0.0039(6) 0.0082(7)
C00B 0.0221(9) 0.0206(10) 0.0230(8) 0.0115(8) 0.0055(7) 0.0094(7)
C00C 0.0181(8) 0.0188(9) 0.0219(8) 0.0066(7) 0.0003(6) 0.0090(7)
C00D 0.0276(9) 0.0250(10) 0.0287(9) 0.0115(8) 0.0073(7) 0.0127(8)
C00E 0.0341(10) 0.0219(10) 0.0245(9) 0.0099(8) 0.0013(7) 0.0102(8)
C00F 0.0227(9) 0.0285(11) 0.0285(9) 0.0139(8) 0.0011(7) 0.0084(8)
C00G 0.0388(11) 0.0362(12) 0.0297(10) 0.0104(9) 0.0123(8) 0.0227(10)
C00H 0.0304(10) 0.0218(11) 0.0327(10) 0.0071(8) -0.0010(8) 0.0074(8)
C00I 0.0237(9) 0.0234(11) 0.0354(10) 0.0050(9) -0.0077(8) 0.0070(8)
C00J 0.0391(11) 0.0248(11) 0.0335(10) 0.0020(9) -0.0011(8) 0.0203(9)
C00K 0.0252(9) 0.0340(12) 0.0388(11) 0.0193(10) 0.0057(8) 0.0165(8)
C00L 0.0384(11) 0.0199(10) 0.0358(10) 0.0108(9) -0.0048(8) 0.0121(8)
loop_
_atom_type_symbol
_atom_type_description
_atom_type_scat_dispersion_real
_atom_type_scat_dispersion_imag
_atom_type_scat_source
C C 0.0192 0.0096 'International Tables Vol C Tables 4.2.6.8 and 6.1.1.4'
H H 0.0000 0.0000 'International Tables Vol C Tables 4.2.6.8 and 6.1.1.4'
N N 0.0330 0.0189 'International Tables Vol C Tables 4.2.6.8 and 6.1.1.4'
O O 0.0517 0.0336 'International Tables Vol C Tables 4.2.6.8 and 6.1.1.4'
S S 0.3360 0.5650 'International Tables Vol C Tables 4.2.6.8 and 6.1.1.4'
loop_
_geom_angle_atom_site_label_1
_geom_angle_atom_site_label_2
_geom_angle_atom_site_label_3
_geom_angle
_geom_angle_site_symmetry_3
C00K S001 C00B 92.30(10) .
C008 O002 C00I 117.55(15) .
C00A N004 C007 112.04(14) .
C00A N004 H004 124.0 .
C007 N004 H004 124.0 .
C00B C005 C00F 112.27(18) .
C00B C005 H005 123.9 .
C00F C005 H005 123.9 .
C00A C006 C009 107.53(16) .
C00A C006 C008 128.28(16) .
C009 C006 C008 124.13(17) .
N004 C007 C009 107.57(16) .
N004 C007 C00B 120.09(15) .
C009 C007 C00B 132.32(18) .
O003 C008 O002 122.15(16) .
O003 C008 C006 126.72(17) .
O002 C008 C006 111.13(15) .
C007 C009 C006 106.67(17) .
C007 C009 C00C 125.88(16) .
C006 C009 C00C 127.07(15) .
N004 C00A C006 106.15(16) .
N004 C00A C00A 120.44(19) 2_676
C006 C00A C00A 133.4(2) 2_676
C005 C00B C007 126.07(18) .
C005 C00B S001 110.65(15) .
C007 C00B S001 123.28(14) .
C00D C00C C00E 118.33(17) .
C00D C00C C009 119.08(16) .
C00E C00C C009 122.56(17) .
C00G C00D C00C 120.87(18) .
C00G C00D H00D 119.6 .
C00C C00D H00D 119.6 .
C00L C00E C00C 120.74(18) .
C00L C00E H00E 119.6 .
C00C C00E H00E 119.6 .
C00K C00F C005 113.14(17) .
C00K C00F H00F 123.4 .
C005 C00F H00F 123.4 .
C00J C00G C00D 120.30(19) .
C00J C00G H00G 119.9 .
C00D C00G H00G 119.9 .
C00I C00H H00A 109.5 .
C00I C00H H00B 109.5 .
H00A C00H H00B 109.5 .
C00I C00H H00C 109.5 .
H00A C00H H00C 109.5 .
H00B C00H H00C 109.5 .
O002 C00I C00H 106.73(16) .
O002 C00I H00H 110.4 .
C00H C00I H00H 110.4 .
O002 C00I H00I 110.4 .
C00H C00I H00I 110.4 .
H00H C00I H00I 108.6 .
C00G C00J C00L 119.76(19) .
C00G C00J H00J 120.1 .
C00L C00J H00J 120.1 .
C00F C00K S001 111.64(15) .
C00F C00K H00K 124.2 .
S001 C00K H00K 124.2 .
C00J C00L C00E 119.99(19) .
C00J C00L H00L 120.0 .
C00E C00L H00L 120.0 .
loop_
_geom_bond_atom_site_label_1
_geom_bond_atom_site_label_2
_geom_bond_distance
_geom_bond_site_symmetry_2
S001 C00K 1.718(2) .
S001 C00B 1.733(2) .
O002 C008 1.335(3) .
O002 C00I 1.458(2) .
O003 C008 1.230(2) .
N004 C00A 1.361(2) .
N004 C007 1.377(3) .
N004 H004 0.8600 .
C005 C00B 1.387(3) .
C005 C00F 1.427(3) .
C005 H005 0.9300 .
C006 C00A 1.416(3) .
C006 C009 1.445(3) .
C006 C008 1.475(2) .
C007 C009 1.389(2) .
C007 C00B 1.463(3) .
C009 C00C 1.491(3) .
C00A C00A 1.454(4) 2_676
C00C C00D 1.394(3) .
C00C C00E 1.399(3) .
C00D C00G 1.390(3) .
C00D H00D 0.9300 .
C00E C00L 1.391(3) .
C00E H00E 0.9300 .
C00F C00K 1.364(3) .
C00F H00F 0.9300 .
C00G C00J 1.380(3) .
C00G H00G 0.9300 .
C00H C00I 1.500(3) .
C00H H00A 0.9600 .
C00H H00B 0.9600 .
C00H H00C 0.9600 .
C00I H00H 0.9700 .
C00I H00I 0.9700 .
C00J C00L 1.391(3) .
C00J H00J 0.9300 .
C00K H00K 0.9300 .
C00L H00L 0.9300 .
loop_
_geom_torsion_atom_site_label_1
_geom_torsion_atom_site_label_2
_geom_torsion_atom_site_label_3
_geom_torsion_atom_site_label_4
_geom_torsion
_geom_torsion_site_symmetry_4
C00A N004 C007 C009 -1.18(18) .
C00A N004 C007 C00B 177.58(15) .
C00I O002 C008 O003 -0.3(2) .
C00I O002 C008 C006 180.00(15) .
C00A C006 C008 O003 18.0(3) .
C009 C006 C008 O003 -165.23(17) .
C00A C006 C008 O002 -162.28(16) .
C009 C006 C008 O002 14.4(2) .
N004 C007 C009 C006 -0.03(18) .
C00B C007 C009 C006 -178.59(17) .
N004 C007 C009 C00C 173.34(15) .
C00B C007 C009 C00C -5.2(3) .
C00A C006 C009 C007 1.16(18) .
C008 C006 C009 C007 -176.14(15) .
C00A C006 C009 C00C -172.11(15) .
C008 C006 C009 C00C 10.6(3) .
C007 N004 C00A C006 1.89(18) .
C007 N004 C00A C00A -178.52(18) 2_676
C009 C006 C00A N004 -1.83(18) .
C008 C006 C00A N004 175.32(16) .
C009 C006 C00A C00A 178.7(2) 2_676
C008 C006 C00A C00A -4.2(4) 2_676
C00F C005 C00B C007 179.95(16) .
C00F C005 C00B S001 0.42(19) .
N004 C007 C00B C005 -1.8(3) .
C009 C007 C00B C005 176.61(17) .
N004 C007 C00B S001 177.67(12) .
C009 C007 C00B S001 -3.9(3) .
C00K S001 C00B C005 -0.21(14) .
C00K S001 C00B C007 -179.75(15) .
C007 C009 C00C C00D -94.1(2) .
C006 C009 C00C C00D 77.9(2) .
C007 C009 C00C C00E 87.8(2) .
C006 C009 C00C C00E -100.2(2) .
C00E C00C C00D C00G 0.9(3) .
C009 C00C C00D C00G -177.26(16) .
C00D C00C C00E C00L -0.4(3) .
C009 C00C C00E C00L 177.67(16) .
C00B C005 C00F C00K -0.5(2) .
C00C C00D C00G C00J -0.6(3) .
C008 O002 C00I C00H 177.51(15) .
C00D C00G C00J C00L -0.2(3) .
C005 C00F C00K S001 0.3(2) .
C00B S001 C00K C00F -0.06(15) .
C00G C00J C00L C00E 0.6(3) .
C00C C00E C00L C00J -0.3(3) .
