#------------------------------------------------------------------------------
#$Date: 2017-11-07 02:54:16 +0200 (Tue, 07 Nov 2017) $
#$Revision: 202735 $
#$URL: file:///home/coder/svn-repositories/cod/cif/4/03/29/4032921.cif $
#------------------------------------------------------------------------------
#
# This file is available in the Crystallography Open Database (COD),
# http://www.crystallography.net/
#
# All data on this site have been placed in the public domain by the
# contributors.
#
data_4032921
loop_
_publ_author_name
'Chen, Daoliang'
'Yuan, Dafei'
'Zhang, Cheng'
'Wu, Hao'
'Zhang, Jianyun'
'Li, Baolin'
'Zhu, Xiaozhang'
_publ_section_title
;
 Ullmann-Type Intramolecular C-O Reaction Toward Thieno[3,2-b]furan
 Derivatives with up to Six Fused Rings.
;
_journal_issue                   20
_journal_name_full               'The Journal of organic chemistry'
_journal_page_first              10920
_journal_page_last               10927
_journal_paper_doi               10.1021/acs.joc.7b01745
_journal_volume                  82
_journal_year                    2017
_chemical_absolute_configuration ad
_chemical_formula_moiety         'C14 H7 Cl O S'
_chemical_formula_sum            'C14 H7 Cl O S'
_chemical_formula_weight         258.71
_space_group_crystal_system      monoclinic
_space_group_IT_number           4
_space_group_name_Hall           'P 2yb'
_space_group_name_H-M_alt        'P 1 21 1'
_symmetry_space_group_name_Hall  'P 2yb'
_symmetry_space_group_name_H-M   'P 1 21 1'
_atom_sites_solution_hydrogens   geom
_atom_sites_solution_primary     direct
_audit_creation_date             2016-07-11
_audit_creation_method
;
Olex2 1.2
(compiled 2016.02.19 svn.r3266 for OlexSys, GUI svn.r5155)
;
_cell_angle_alpha                90
_cell_angle_beta                 112.364(14)
_cell_angle_gamma                90
_cell_formula_units_Z            2
_cell_length_a                   11.504(8)
_cell_length_b                   3.842(2)
_cell_length_c                   13.114(10)
_cell_measurement_reflns_used    1779
_cell_measurement_temperature    173
_cell_measurement_theta_max      27.4
_cell_measurement_theta_min      1.7
_cell_volume                     536.0(6)
_computing_cell_refinement
;
CrystalClear-SM Expert 2.0 r4 (Rigaku, 2009)
;
_computing_data_collection
;
CrystalClear-SM Expert 2.0 r4 (Rigaku, 2009)
;
_computing_data_reduction
;
CrystalClear-SM Expert 2.0 r4 (Rigaku, 2009)
;
_computing_molecular_graphics    'Olex2 (Dolomanov et al., 2009)'
_computing_publication_material  'CIFTAB (Sheldrick, 2013)'
_computing_structure_refinement  'ShelXL (Sheldrick, 2014)'
_computing_structure_solution    'ShelXT (Sheldrick, 2014)'
_diffrn_ambient_temperature      173
_diffrn_detector                 CCD
_diffrn_detector_area_resol_mean 28.5714
_diffrn_measured_fraction_theta_full 0.988
_diffrn_measured_fraction_theta_max 0.989
_diffrn_measurement_details
;
scan:
    Number of images: 360
               Slice: -110.0000 - 70.0000
         Image width: 0.5000
            Exp time: 10.0000
       Rotation axis: Omega
               Omega: 0.0000
                 Chi: 45.0000
                 Phi: 0.0000
                 XTD: 45.1172
              2theta: -19.9559
scan:
    Number of images: 360
               Slice: -110.0000 - 70.0000
         Image width: 0.5000
            Exp time: 10.0000
       Rotation axis: Omega
               Omega: 0.0000
                 Chi: 45.0000
                 Phi: 90.0000
                 XTD: 45.1172
              2theta: -19.9559
scan:
    Number of images: 360
               Slice: -110.0000 - 70.0000
         Image width: 0.5000
            Exp time: 10.0000
       Rotation axis: Omega
               Omega: 0.0000
                 Chi: 45.0000
                 Phi: 180.0000
                 XTD: 45.1172
              2theta: -19.9559
;
_diffrn_measurement_device
;
AFC10: Fixed Chi 2 circle
;
_diffrn_measurement_device_type
;
Rigaku Saturn724+ (2x2 bin mode)
;
_diffrn_measurement_method       'profile data from \w-scans'
_diffrn_measurement_specimen_support Fiber
_diffrn_orient_matrix_type       d*Trek
_diffrn_orient_matrix_UB_11      -0.038425
_diffrn_orient_matrix_UB_12      -0.247085
_diffrn_orient_matrix_UB_13      0.072341
_diffrn_orient_matrix_UB_21      0.084132
_diffrn_orient_matrix_UB_22      -0.000934
_diffrn_orient_matrix_UB_23      0.041906
_diffrn_orient_matrix_UB_31      -0.003982
_diffrn_orient_matrix_UB_32      0.023645
_diffrn_orient_matrix_UB_33      0.078892
_diffrn_radiation_monochromator  'Graphite Monochromator'
_diffrn_radiation_type           MoK\a
_diffrn_radiation_wavelength     0.71073
_diffrn_reflns_av_R_equivalents  0.0713
_diffrn_reflns_av_unetI/netI     0.0704
_diffrn_reflns_Laue_measured_fraction_full 0.988
_diffrn_reflns_Laue_measured_fraction_max 0.989
_diffrn_reflns_limit_h_max       14
_diffrn_reflns_limit_h_min       -14
_diffrn_reflns_limit_k_max       4
_diffrn_reflns_limit_k_min       -4
_diffrn_reflns_limit_l_max       17
_diffrn_reflns_limit_l_min       -16
_diffrn_reflns_number            6227
_diffrn_reflns_point_group_measured_fraction_full 0.989
_diffrn_reflns_point_group_measured_fraction_max 0.986
_diffrn_reflns_theta_full        26.000
_diffrn_reflns_theta_max         27.515
_diffrn_reflns_theta_min         2.989
_diffrn_source                   'Sealed Tube'
_diffrn_source_current           30.0
_diffrn_source_power             1.5
_diffrn_source_voltage           50.0
_exptl_absorpt_coefficient_mu    0.525
_exptl_absorpt_correction_T_max  1.000
_exptl_absorpt_correction_T_min  0.793
_exptl_absorpt_correction_type   multi-scan
_exptl_absorpt_process_details
'CrystalClear-SM Expert 2.0 r4 (Rigaku, 2009)'
_exptl_crystal_colour            Colorless
_exptl_crystal_density_diffrn    1.603
_exptl_crystal_density_method    "'not measured'"
_exptl_crystal_description       plate
_exptl_crystal_F_000             264
_exptl_crystal_size_max          0.23
_exptl_crystal_size_mid          0.12
_exptl_crystal_size_min          0.07
_refine_diff_density_max         0.258
_refine_diff_density_min         -0.258
_refine_diff_density_rms         0.065
_refine_ls_abs_structure_details
;
 Flack x determined using 759 quotients [(I+)-(I-)]/[(I+)+(I-)]
 (Parsons, Flack and Wagner, Acta Cryst. B69 (2013) 249-259).
;
_refine_ls_abs_structure_Flack   -0.06(8)
_refine_ls_extinction_method     none
_refine_ls_goodness_of_fit_ref   1.156
_refine_ls_hydrogen_treatment    constr
_refine_ls_matrix_type           full
_refine_ls_number_parameters     154
_refine_ls_number_reflns         2394
_refine_ls_number_restraints     1
_refine_ls_restrained_S_all      1.156
_refine_ls_R_factor_all          0.0607
_refine_ls_R_factor_gt           0.0518
_refine_ls_shift/su_max          0.000
_refine_ls_shift/su_mean         0.000
_refine_ls_structure_factor_coef Fsqd
_refine_ls_weighting_details
'w=1/[\s^2^(Fo^2^)+(0.0106P)^2^+0.4239P] where P=(Fo^2^+2Fc^2^)/3'
_refine_ls_weighting_scheme      calc
_refine_ls_wR_factor_gt          0.0866
_refine_ls_wR_factor_ref         0.0891
_reflns_Friedel_coverage         0.732
_reflns_Friedel_fraction_full    0.991
_reflns_Friedel_fraction_max     0.982
_reflns_number_gt                2244
_reflns_number_total             2394
_reflns_threshold_expression     'I > 2\s(I)'
_cod_data_source_file            jo7b01745_si_002.cif
_cod_data_source_block           a_cmpd4j
_cod_depositor_comments
;
The following automatic conversions were performed:

'_exptl_absorpt_correction_type' value 'Multi-scan' changed to
'multi-scan' according to
/home/data/users/saulius/crontab/automatic-downloads/rss-feeds/ACS/lib/dictionaries/cif_core.dic
dictionary named 'cif_core.dic' version 2.4.2 from 2011-04-26.

Automatic conversion script
Id: cif_fix_values 4973 2017-02-22 13:04:09Z antanas 

 Adding full bibliography for 4032919--4032922.cif.
;
_cod_database_code               4032921
_shelx_space_group_comment
;
The symmetry employed for this shelxl refinement is uniquely defined
by the following loop, which should always be used as a source of
symmetry information in preference to the above space-group names.
They are only intended as comments.
;
_olex2_refinement_description
;
1. Fixed Uiso
 At 1.2 times of:
  All C(H) groups
2.a Aromatic/amide H refined with riding coordinates:
 C5(H5), C12(H12), C11(H11), C4(H4), C9(H9), C3(H3), C2(H2)
;
_shelx_res_file
;
    a.res created by SHELXL-2014/7

TITL a_a.res in P2(1)
CELL 0.71073 11.5041 3.8416 13.1142 90 112.364 90
ZERR 2 0.0084 0.0024 0.0095 0 0.014 0
LATT -1
SYMM -X,0.5+Y,-Z
SFAC C H Cl O S
UNIT 28 14 2 2 2

L.S. 4
PLAN  20
TEMP 173.15
BOND $H
LIST 6
fmap 2
MORE -1
ACTA 52
CONF
OMIT 1 0 0
OMIT -4 0 5
OMIT 3 0 5
OMIT -1 0 1
OMIT 0 0 1
OMIT -2 0 4
OMIT 2 0 3
REM <olex2.extras>
REM <HklSrc "%.\\A.hkl">
REM </olex2.extras>

WGHT    0.010600    0.423900
FVAR       1.04952
CL1   3   -0.741208   -0.328110   -0.051235    11.00000    0.02907    0.03683 =
         0.02055   -0.00214    0.00964    0.00031
S1    5   -0.935678   -0.288190   -0.579940    11.00000    0.01837    0.02114 =
         0.01913    0.00102    0.00616    0.00269
O1    4   -0.608274   -0.677021   -0.426223    11.00000    0.01838    0.02633 =
         0.02309    0.00140    0.00767    0.00376
C13   1   -0.629121   -0.603731   -0.331159    11.00000    0.01685    0.01788 =
         0.02034    0.00030    0.00570   -0.00054
C14   1   -0.715648   -0.561492   -0.510402    11.00000    0.01467    0.01967 =
         0.02379    0.00006    0.00783   -0.00120
C6    1   -0.874790   -0.436951   -0.676642    11.00000    0.01981    0.01746 =
         0.02448   -0.00108    0.00986   -0.00218
C5    1   -0.935837   -0.424552   -0.790554    11.00000    0.02404    0.02244 =
         0.02130    0.00419    0.00748   -0.00022
AFIX  43
H5    2   -1.015845   -0.328944   -0.822899    11.00000   -1.20000
AFIX   0
C7    1   -0.799670   -0.421686   -0.472901    11.00000    0.01759    0.01758 =
         0.02095    0.00213    0.00538    0.00025
C12   1   -0.545048   -0.675691   -0.225667    11.00000    0.01531    0.02307 =
         0.02702    0.00303    0.00591    0.00237
AFIX  43
H12   2   -0.467360   -0.777791   -0.212482    11.00000   -1.20000
AFIX   0
C10   1   -0.699055   -0.433452   -0.162290    11.00000    0.02254    0.01959 =
         0.02246   -0.00311    0.00958   -0.00484
C8    1   -0.745958   -0.443869   -0.354768    11.00000    0.01942    0.01626 =
         0.02036    0.00136    0.00656   -0.00020
C1    1   -0.753233   -0.580319   -0.626924    11.00000    0.02033    0.01895 =
         0.02285   -0.00122    0.00914   -0.00489
C11   1   -0.582861   -0.587372   -0.140638    11.00000    0.01965    0.02116 =
         0.01929    0.00231   -0.00096   -0.00159
AFIX  43
H11   2   -0.529764   -0.631698   -0.068098    11.00000   -1.20000
AFIX   0
C4    1   -0.875138   -0.557087   -0.854437    11.00000    0.02992    0.02787 =
         0.01988    0.00202    0.00847   -0.00386
AFIX  43
H4    2   -0.915096   -0.550905   -0.930822    11.00000   -1.20000
AFIX   0
C9    1   -0.782203   -0.358456   -0.267433    11.00000    0.01562    0.01682 =
         0.02015   -0.00147    0.00500   -0.00102
AFIX  43
H9    2   -0.859506   -0.254975   -0.279913    11.00000   -1.20000
AFIX   0
C3    1   -0.755186   -0.700279   -0.807227    11.00000    0.02894    0.02405 =
         0.02647   -0.00302    0.01752   -0.00362
AFIX  43
H3    2   -0.716510   -0.788784   -0.852390    11.00000   -1.20000
AFIX   0
C2    1   -0.692899   -0.712315   -0.693826    11.00000    0.02169    0.02588 =
         0.02418   -0.00087    0.00998   -0.00160
AFIX  43
H2    2   -0.612511   -0.806167   -0.662497    11.00000   -1.20000
AFIX   0
HKLF 4

REM  a_a.res in P2(1)
REM R1 =  0.0518 for    2244 Fo > 4sig(Fo)  and  0.0607 for all    2394 data
REM    154 parameters refined using      1 restraints

END

WGHT      0.0106      0.4232

REM Highest difference peak  0.258,  deepest hole -0.258,  1-sigma level  0.065
Q1    1  -1.0564 -0.4998 -0.9460  11.00000  0.05    0.26
Q2    1  -0.9234 -0.5031 -0.3177  11.00000  0.05    0.25
Q3    1  -0.8002 -0.7479 -0.3099  11.00000  0.05    0.25
Q4    1  -0.8596 -0.3614 -0.5331  11.00000  0.05    0.24
Q5    1  -0.5650 -0.7896 -0.0075  11.00000  0.05    0.23
Q6    1  -1.0635 -0.7231 -0.9559  11.00000  0.05    0.23
Q7    1  -0.8590 -0.2493 -0.9415  11.00000  0.05    0.22
Q8    1  -0.8008 -0.2052 -0.2478  11.00000  0.05    0.22
Q9    1  -0.7888 -0.3018 -0.3141  11.00000  0.05    0.22
Q10   1  -0.4224 -0.6945 -0.2212  11.00000  0.05    0.21
Q11   1  -1.0829 -0.6582 -0.8805  11.00000  0.05    0.21
Q12   1  -0.7831 -0.5852 -0.4848  11.00000  0.05    0.21
Q13   1  -0.7560 -0.3760 -0.5003  11.00000  0.05    0.21
Q14   1  -0.7171 -0.5225 -0.5760  11.00000  0.05    0.21
Q15   1  -0.6395 -0.0799  0.0386  11.00000  0.05    0.21
Q16   1  -0.8361 -0.2939 -0.0876  11.00000  0.05    0.21
Q17   1  -0.6188 -0.6395 -0.3773  11.00000  0.05    0.20
Q18   1  -0.6796 -0.5362 -0.7567  11.00000  0.05    0.20
Q19   1  -0.5923 -0.6008 -0.2773  11.00000  0.05    0.20
Q20   1  -0.6440 -0.2858 -0.0175  11.00000  0.05    0.20
;
_shelx_res_checksum              7899
_shelx_hkl_file
;
   0   0  -1    1.62    0.80
   0   0   1    2.60    0.67
   0   0  -1   -0.02    1.00
   0   0   1    3.31    0.71
   0   0  -1    3.64    0.75
   0   0  -2   10.54    1.60
   0   0   2   10.40    1.77
   0   0   2    5.19    2.60
   0   0  -2   14.93    2.35
   0   0   2   12.14    2.55
   0   0  -2   14.44    2.09
   0   0  -3   41.97    7.37
   0   0   3   32.77    3.13
   0   0   3   32.99    4.77
   0   0  -3   33.72    3.70
   0   0   3   47.30    5.28
   0   0  -3   32.66    2.86
   0   0  -4  217.28   15.51
   0   0   4  168.70    5.88
   0   0  -4  169.92    6.86
   0   0   4  170.16    6.26
   0   0  -4  170.52    6.17
   0   0  -5  263.25    8.54
   0   0   5  257.66    8.05
   0   0  -5  263.96    8.92
   0   0   5  276.10   17.53
   0   0  -5  233.34    7.85
   0   0  -6    6.10    2.73
   0   0   6    7.05    2.40
   0   0   6    4.28    4.77
   0   0   6    5.15    3.02
   0   0  -6    7.28    2.24
   0   0  -7    4.95    2.40
   0   0   7    9.72    3.00
   0   0   7    8.92    4.19
   0   0   7    3.15    3.04
   0   0  -8  727.19   34.08
   0   0   8  782.65   37.29
   0   0   8  756.36   36.23
   0   0  -9  104.32   14.24
   0   0   9   86.17    8.16
   0   0   9  124.66   15.91
   0   0 -10  210.69   20.88
   0   0  10  180.99   12.60
   0   0  10  196.67   19.55
   0   0 -11  667.71   34.56
   0   0  11  731.67   36.58
   0   0  11  655.29   42.77
   0   0 -12   23.65    7.85
   0   0  12   51.91   13.33
   0   0  12   17.93    4.48
   0   0 -13  183.56   31.50
   0   0  13  215.89   18.33
   0   0  13  206.23   32.68
   0   0 -14   96.04   21.39
   0   0  14  118.80   13.87
   0   0  14  117.20   20.77
   0   0  15   -0.24    5.08
   0   0  15    6.97    4.61
  -1   0  16   24.91    9.83
  -1   0  16    8.16    4.37
  -1   0  15   54.78   11.85
  -1   0  15   28.93    7.63
   1   0 -14  103.07   20.26
  -1   0  14  157.20   14.89
  -1   0  14  125.72   22.27
   1   0 -13    9.21    3.64
  -1   0  13   11.03    4.84
  -1   0  13   12.96    6.30
   1   0 -12   81.24   17.02
  -1   0  12   88.39   13.02
  -1   0  12   91.31   15.91
   1   0 -11  141.48   21.76
  -1   0  11  124.55   13.36
  -1   0  11  123.33   16.22
   1   0 -10  178.30   17.06
  -1   0  10  190.75   11.91
  -1   0  10  189.73   26.02
   1   0  -9  417.02   27.44
  -1   0   9  392.59   19.01
  -1   0   9  411.16   20.90
   1   0  -8  244.88   15.80
  -1   0   8  205.24   11.14
  -1   0   8  232.48   14.07
  -1   0   8  219.15   19.32
   1   0  -7   14.55    2.48
  -1   0   7   16.31    3.35
  -1   0   7   17.02    3.73
  -1   0   7   25.25    5.26
   1   0  -6  412.82   19.52
  -1   0   6  417.11   15.17
  -1   0   6  441.42   17.44
  -1   0   6  423.14   17.70
   1   0  -6  389.64   15.22
   1   0  -5  332.98   13.09
  -1   0   5  339.70    8.67
  -1   0   5  332.47   10.05
   1   0  -5  333.91   10.05
   1   0  -4 1045.06   20.03
  -1   0   4 1068.20   20.28
   1   0  -4 1070.48   22.07
  -1   0   4 1089.92   23.03
   1   0  -2  139.66    3.31
   1   0  -2  133.82    4.24
  -1   0   2  145.67    4.93
   1   0  -2  139.28    7.19
   1   0  -1    1.80    0.91
   1   0  -1   -0.35    0.73
   1   0  -1    1.77    1.04
   1   0   0   -0.60    1.18
   1   0   0    0.69    0.89
  -1   0   0    4.84    1.44
   1   0   0    1.06    0.44
  -1   0  -1  100.74    6.63
   1   0   1  118.54    4.17
   1   0   1  120.13    2.64
  -1   0  -3  325.21    9.85
   1   0   3  329.10   21.92
   1   0   3  258.26   10.27
  -1   0  -3  269.40    8.65
   1   0   3  313.35    7.65
  -1   0  -3  314.21    7.92
   1   0   4  429.11   11.16
  -1   0  -4  498.30   14.15
   1   0   4  500.74   15.11
  -1   0  -4  464.76   10.65
  -1   0  -5 1504.27   51.07
   1   0   5 1420.01   46.94
   1   0   5 1571.81   51.51
  -1   0  -5 1517.74   49.56
  -1   0  -6   12.51    4.08
   1   0   6   19.92    6.08
   1   0   6    9.67    4.10
  -1   0  -6   11.85    2.29
  -1   0  -7  425.54   25.60
   1   0   7  482.60   25.05
   1   0   7  456.22   31.90
  -1   0  -7  384.29   18.59
  -1   0  -8   12.71    4.22
   1   0   8    8.10    4.26
  -1   0  -9  270.06   20.99
   1   0   9  280.80   26.60
  -1   0 -10    6.72    3.24
   1   0  10    5.90    5.19
   1   0  10   14.49    3.24
  -1   0 -11  210.58   26.47
   1   0  11  207.39   15.37
   1   0  11  171.07   20.74
  -1   0 -12   14.29    5.59
   1   0  12    1.66    4.68
   1   0  12   13.62    6.23
  -1   0 -13  180.19   24.58
   1   0  13  177.59   16.55
   1   0  13  158.54   27.84
  -1   0 -14   26.51   10.83
   1   0  14   40.87   12.58
   1   0  14   20.97    8.47
   1   0  15    9.38    7.45
  -2   0  16   49.83   13.78
  -2   0  16   30.82   12.34
  -2   0  15   66.29   11.78
  -2   0  15   56.26   12.45
  -2   0  14   26.47    7.85
  -2   0  14   17.70    5.66
   2   0 -13    5.10    3.15
  -2   0  13    7.63    5.10
  -2   0  13   11.29    3.55
   2   0 -12  124.53   23.87
  -2   0  12  175.33   13.95
  -2   0  12  148.53   22.74
   2   0 -11  593.92   25.98
  -2   0  11  608.34   27.69
  -2   0  11  533.11   33.03
   2   0 -10 1515.83   48.72
  -2   0  10 1700.48   54.20
  -2   0  10 1758.85  195.63
  -2   0  10 1855.13  206.17
   2   0  -9  333.18   18.90
  -2   0   9  292.69   13.44
  -2   0   9  350.95   17.42
  -2   0   9  326.74   19.23
   2   0  -8  179.37   14.69
  -2   0   8  178.10    9.61
  -2   0   8  204.39   12.56
  -2   0   8  212.58   22.16
   2   0  -7  987.80   32.97
  -2   0   7 1076.50   35.43
  -2   0   7 1045.13   36.47
   2   0  -6  775.69   25.80
  -2   0   6  566.06   19.08
  -2   0   6  777.64   27.67
  -2   0   6  771.85   28.51
  -2   0   4    1.53    0.84
  -2   0   1 1881.51   33.63
   2   0  -1 1900.75   34.03
   2   0  -1 1916.74   34.34
  -2   0   1 1915.37   34.43
   2   0  -1 1896.51   33.68
  -2   0   0 3673.60   64.91
   2   0   0 3480.98   61.87
   2   0   0 3601.65   62.90
  -2   0   0 3605.55   61.92
  -2   0  -1 3812.12   67.93
   2   0   1 4466.08   78.43
  -2   0  -1 4340.13   76.10
  -2   0  -2   94.51   11.05
   2   0   2   62.90    7.88
   2   0   2   59.59    4.55
   2   0   2   82.09    6.48
  -2   0  -2   63.61    2.22
  -2   0  -3   -1.06    0.64
  -2   0  -4  235.85   15.17
   2   0   4  209.45   16.84
   2   0   4  264.25   12.00
   2   0   4  239.02   11.71
  -2   0  -4  268.24    9.81
  -2   0  -5  835.88   30.99
   2   0   5  871.28   31.48
   2   0   5  840.84   29.66
  -2   0  -5  837.49   27.98
  -2   0  -6  636.32   26.42
   2   0   6  615.77   25.09
   2   0   6  672.33   31.37
  -2   0  -6  596.78   21.83
  -2   0  -7  453.16   23.18
   2   0   7  443.31   23.52
   2   0   7  436.05   25.65
  -2   0  -7  430.79   20.37
  -2   0  -8  101.01   15.42
   2   0   8   68.62    8.79
   2   0   8  103.38   17.84
  -2   0  -9 1257.97   61.59
   2   0   9 1271.79   98.64
   2   0   9 1283.33   98.44
  -2   0 -10   63.18   13.33
   2   0  10   57.37    8.19
   2   0  10   38.31    9.38
  -2   0 -11  118.76   16.44
   2   0  11   90.41   19.97
  -2   0 -12  187.02   31.10
   2   0  12  155.72   15.73
   2   0  12  127.99   22.56
  -2   0 -13   23.03    9.34
   2   0  13   14.15    7.05
  -2   0 -14   79.76   25.31
   2   0  14  133.27   26.60
  -3   0  16   69.28   15.75
  -3   0  16   47.68   17.81
  -3   0  15    5.55    5.32
  -3   0  15   19.28    6.28
  -3   0  14  147.22   15.02
  -3   0  14  194.39   24.56
   3   0 -13   86.19   20.59
  -3   0  13  134.33   12.93
  -3   0  13  148.64   20.32
   3   0 -12   13.51    3.84
  -3   0  12   38.03    8.25
  -3   0  12   12.27    6.21
   3   0 -11  487.77   28.73
  -3   0  11  430.35   20.65
  -3   0  11  526.46   27.60
  -3   0  11  567.41   56.57
   3   0 -10   55.86    9.16
  -3   0  10   45.08    4.95
  -3   0  10   86.17   10.40
  -3   0  10   66.53   15.57
   3   0  -9   13.47    2.97
  -3   0   9    0.35    0.91
  -3   0   9   11.82    3.86
  -3   0   9    9.81    4.53
   3   0  -8    8.01    1.58
  -3   0   8    0.95    0.80
  -3   0   8    6.26    3.90
  -3   0   8   -1.55    4.10
   3   0  -6  321.60   11.38
  -3   0   6  279.25    9.85
  -3   0   6  307.38   12.82
   3   0  -6  282.40   11.31
  -3   0   6  305.71   13.64
   3   0  -5 1662.12   29.75
  -3   0   5 1585.65   28.22
  -3   0   5 1582.57   30.84
   3   0  -5 1610.25   30.90
  -3   0   5 1536.51   31.72
   3   0  -5 1536.91   30.93
   3   0  -4   38.00    2.46
  -3   0   4   39.13    3.53
   3   0  -4   40.89    3.08
  -3   0   4   60.21    8.85
   3   0  -4   59.19    6.63
   3   0  -3 1360.54   24.71
  -3   0   3 1378.68   25.82
   3   0  -3 1367.12   25.38
  -3   0   3 1339.64   26.42
   3   0  -3 1285.26   25.29
   3   0  -2  217.04    6.19
  -3   0   2  217.86    6.28
   3   0  -2  219.90    6.17
   3   0  -1   35.39    6.48
   3   0  -1   36.72    4.19
  -3   0   1   39.60    6.03
   3   0  -1   33.61    4.55
   3   0   0  325.99    9.01
  -3   0   0  326.37    8.74
  -3   0   0  314.96    7.61
   3   0   0  314.48    6.86
   3   0   1  590.93   13.95
   3   0   1  633.26   14.78
  -3   0  -1  637.61   14.35
  -3   0  -2   86.90   12.34
   3   0   2   63.07    5.59
  -3   0  -2   66.36    5.15
  -3   0  -3  400.07   16.26
   3   0   3  426.47   17.42
   3   0   3  403.31   13.40
  -3   0  -3  428.02   14.09
  -3   0  -4  589.40   24.23
   3   0   4  505.25   19.92
   3   0   4  524.73   17.66
  -3   0  -4  453.11   15.31
  -3   0  -5   -0.55    0.67
  -3   0  -6  152.17   17.73
   3   0   6  147.89   10.49
   3   0   6  160.78   13.40
  -3   0  -6  126.28    6.77
  -3   0  -7   16.33    3.04
   3   0   7   15.02    5.39
   3   0   7   11.36    2.22
  -3   0  -7   10.18    2.13
  -3   0  -8  678.27   51.74
   3   0   8  621.32   31.86
   3   0   8  574.80   31.88
  -3   0  -8  504.40   23.87
  -3   0  -9   13.27    6.63
   3   0   9    6.54    5.59
   3   0   9    6.59    2.91
  -3   0 -10   -4.26    4.61
   3   0  10   16.82    5.88
   3   0  10    6.48    3.22
  -3   0 -11   61.90   13.53
   3   0  11   37.83    9.74
   3   0  11   31.50    9.05
  -3   0 -12   61.85   17.46
   3   0  12   70.93   10.83
  -3   0 -13   15.80    8.74
   3   0  13   12.47    7.37
  -3   0 -14  144.38   41.22
  -4   0  16   23.49    9.23
  -4   0  16   22.43    7.90
  -4   0  15  131.98   13.49
  -4   0  15  110.02   17.90
  -4   0  14   94.69   10.54
  -4   0  14  107.91   23.09
  -4   0  13   61.03   11.80
  -4   0  13   50.34   11.47
   4   0 -12  344.16   24.49
  -4   0  12  448.74   24.27
  -4   0  12  396.45   46.19
   4   0 -11   24.36    4.04
  -4   0  11   22.70    3.75
  -4   0  11   33.92    6.99
  -4   0  11   37.63    9.03
   4   0 -10   79.91   10.29
  -4   0  10   77.80    7.52
  -4   0  10   78.56    9.96
  -4   0  10  106.42   17.75
   4   0  -9 1804.64  154.03
  -4   0   9 1512.11   57.22
  -4   0   9 1786.34  153.46
  -4   0   9 1724.31   68.35
   4   0  -8   16.04    1.93
  -4   0   8   20.54    2.09
  -4   0   8   29.57    4.90
  -4   0   8   27.07    6.06
   4   0  -7 2007.52   66.89
  -4   0   7 2182.41   72.48
  -4   0   7 2322.33   79.07
   4   0  -7 2039.29   69.48
  -4   0   7 2346.74   80.87
   4   0  -6  542.99   18.10
  -4   0   6  547.62   18.04
  -4   0   6  533.53   19.43
   4   0  -6  506.98   18.26
  -4   0   5   57.79    2.80
   4   0  -4   57.44    7.57
   4   0  -4   55.15    3.02
  -4   0   4   48.85    4.19
   4   0  -4   56.95    3.37
   4   0  -3  308.13    7.94
   4   0  -3  298.24    7.74
  -4   0   3  295.00    8.63
   4   0  -3  301.10    7.83
  -4   0   3  289.65    9.43
   4   0  -3  278.98    8.30
   4   0  -2  215.33   16.66
   4   0  -2  210.34    7.03
  -4   0   2  216.35    7.32
   4   0  -2  215.57    8.90
  -4   0   2  203.24    7.17
   4   0  -2  202.31    7.14
  -4   0   1 3607.64   65.22
   4   0  -1 3504.37   62.23
   4   0  -1 3611.21   64.25
  -4   0   1 3564.80   62.81
  -4   0   0  749.04   17.77
   4   0   0  706.14   16.73
   4   0   0  756.72   16.79
  -4   0   0  783.10   16.82
   4   0   0  763.97   14.55
   4   0   0  781.23   14.78
  -4   0  -1  238.36    9.74
   4   0   1  201.86   20.54
   4   0   1  202.68    8.30
  -4   0  -1  212.20    7.65
  -4   0  -2 1177.73   40.75
  -4   0  -3   46.83    6.72
   4   0   3   33.90    4.79
  -4   0  -4 1650.96   59.17
   4   0   4 1578.31   55.93
  -4   0  -4 1539.59   51.09
  -4   0  -5  257.79   20.03
   4   0   5  225.56   13.98
   4   0   5  202.80   11.54
  -4   0  -5  210.52    9.85
  -4   0  -6   73.37   11.18
   4   0   6   63.14    7.19
   4   0   6   40.55    4.99
  -4   0  -6   52.38    3.46
  -4   0  -7  320.98   30.90
   4   0   7  342.90   16.68
   4   0   7  288.43   15.77
  -4   0  -7  226.91    8.92
  -4   0  -8   24.87    6.41
   4   0   8   16.26    6.30
   4   0   8   12.16    2.60
  -4   0  -9   97.30   17.62
   4   0   9   63.07   11.09
   4   0   9   48.99    9.94
  -4   0 -10  389.84   35.65
   4   0  10  388.07   20.32
  -4   0 -11    4.68    3.42
   4   0  11   11.51    5.50
  -4   0 -12   72.37   22.72
   4   0  12   79.93   12.00
  -4   0 -13   40.40   13.73
   4   0  13   27.58   11.40
  -5   0  17   76.36   22.34
  -5   0  16   18.61    7.21
  -5   0  15  404.35   27.78
  -5   0  15  410.52   36.23
  -5   0  14    7.50    3.62
  -5   0  14   25.07    5.83
  -5   0  13   91.38   15.49
  -5   0  13   74.99   20.43
  -5   0  12  181.90   12.58
  -5   0  12  154.45   25.91
   5   0 -11  320.40   13.44
  -5   0  11  320.75   16.77
  -5   0  11  369.10   34.48
   5   0 -10   15.97    3.00
  -5   0  10   20.94    2.60
  -5   0  10   27.89    6.17
  -5   0  10   21.54    6.66
   5   0  -9  347.62   13.89
  -5   0   9  334.98   13.29
  -5   0   9  360.31   16.95
  -5   0   9  353.59   30.66
   5   0  -8   59.12    3.82
  -5   0   8   60.90    3.42
  -5   0   8   69.88    6.50
  -5   0   8   76.56   16.46
   5   0  -7  104.23    4.73
  -5   0   7  103.58    4.55
  -5   0   7  112.37    7.01
   5   0  -7   86.92    5.19
  -5   0   7  105.05   17.73
   5   0  -6  236.18   11.96
   5   0  -6  244.30    9.52
  -5   0   6  228.46    9.92
   5   0  -6  245.28   10.32
  -5   0   6  242.35   11.96
   5   0  -5   22.74    2.71
   5   0  -5   12.85    1.82
  -5   0   5   21.65    3.15
   5   0  -5   17.64    2.46
  -5   0   5   22.67    3.66
   5   0  -4 2159.58   69.17
   5   0  -4 2174.11   69.71
  -5   0   4 2241.93   72.08
   5   0  -4 2093.29   67.13
  -5   0   4 2135.31   69.57
   5   0  -4 2038.58   66.36
   5   0  -3   23.69    4.02
   5   0  -3   23.05    3.93
  -5   0   3   19.55    3.97
   5   0  -3   14.18    2.40
  -5   0   3   12.22    4.81
   5   0  -3    8.81    2.15
   5   0  -2  966.77   32.63
   5   0  -2  920.65   30.93
   5   0  -2  962.04   31.92
  -5   0   2  923.24   30.79
   5   0  -2  917.45   30.73
  -5   0   1  139.48    9.14
   5   0  -1  123.59   14.49
   5   0  -1  116.98   12.65
   5   0  -1  144.60    7.34
  -5   0   1  162.97   13.18
   5   0  -1  136.59    5.86
   5   0   0  184.03    9.18
  -5   0   0  191.95    8.45
   5   0   0  218.70    7.92
   5   0   0  213.02    7.81
   5   0   1   75.01    6.48
  -5   0  -1   69.20    4.77
  -5   0  -2  848.57   36.96
   5   0   2  794.72   29.55
  -5   0  -3   40.93    8.65
   5   0   3   37.20    6.10
  -5   0  -4 1358.29   63.47
   5   0   4 1393.95   55.93
  -5   0  -5   31.06    7.45
   5   0   5   13.38    5.41
  -5   0  -6    7.37    5.64
   5   0   6   14.64    5.88
  -5   0  -6    3.86    1.11
  -5   0  -6    5.08    1.31
  -5   0  -7  206.01   27.11
   5   0   7  213.87   15.62
  -5   0  -7  161.29   10.27
  -5   0  -8   60.50   13.51
   5   0   8   73.68   14.04
  -5   0  -9  462.61   57.93
   5   0   9  507.80   32.46
  -5   0 -10   69.95   15.60
   5   0  10   66.40   16.22
  -5   0 -11   22.14    9.14
   5   0  11   66.53   11.78
  -5   0 -12  102.45   32.70
   5   0  12  136.57   28.04
  -6   0  17   81.02   16.55
  -6   0  17   54.51   13.60
  -6   0  16  207.48   21.99
  -6   0  16  173.60   40.73
  -6   0  15   25.38    7.74
  -6   0  15   11.58    4.93
  -6   0  14   83.02    9.67
  -6   0  14   95.26   21.05
  -6   0  13  128.30   10.69
  -6   0  13  127.14   18.70
  -6   0  12   84.86   11.20
  -6   0  12   88.61   17.06
   6   0 -11   51.43    4.61
  -6   0  11  101.14   10.43
  -6   0  11  121.97   17.28
   6   0 -10  213.00   11.34
  -6   0  10  224.00   13.31
  -6   0  10  239.14   33.01
   6   0  -9    2.75    1.31
   6   0  -9    4.95    1.51
  -6   0   9    2.42    2.15
  -6   0   9    4.08    3.68
   6   0  -8  455.73   21.34
   6   0  -8  498.86   19.66
  -6   0   8  463.32   20.12
   6   0  -7   21.92    3.02
   6   0  -7   32.26    2.84
  -6   0   7   28.09    3.99
   6   0  -7   28.26    3.44
  -6   0   7   28.13    4.61
   6   0  -6 2436.17   81.53
   6   0  -6 2569.48   85.95
  -6   0   6 2578.40   86.99
   6   0  -6 2488.48   83.75
  -6   0   6 2410.34   83.13
   6   0  -5  194.32   17.75
   6   0  -5  201.80    8.72
  -6   0   5  231.24   17.26
   6   0  -5  195.27    8.47
  -6   0   5  208.81   10.60
   6   0  -4    8.47    2.73
   6   0  -4   14.15    2.77
  -6   0   4   15.62    3.04
   6   0  -4   14.60    2.46
  -6   0   4   21.85    5.57
   6   0  -3    8.74    3.70
   6   0  -3    0.87    2.80
   6   0  -3    8.92    2.37
   6   0  -3    1.02    1.93
  -6   0   3    7.28    2.57
   6   0  -3    4.15    2.24
   6   0  -2    0.53    1.18
   6   0  -2    7.50    2.35
  -6   0   2    5.55    2.86
   6   0  -2    8.47    2.15
  -6   0   1   17.77    4.22
   6   0  -1   13.40    2.77
   6   0  -1   18.84    3.88
  -6   0   1   18.68    2.93
   6   0  -1   17.06    2.24
  -6   0   0 3085.84  105.14
   6   0   0 3342.68  144.71
   6   0   0 3244.31  139.04
  -6   0  -1   41.84    6.10
   6   0   1   18.88    3.88
  -6   0  -2  677.58   32.95
   6   0   2  671.70   32.50
  -6   0  -3  128.21   20.14
   6   0   3   99.23    8.23
  -6   0  -4  426.00   46.72
   6   0   4  380.99   17.10
  -6   0  -5  638.67   45.08
   6   0   5  522.89   27.60
  -6   0  -6   29.75   11.29
   6   0   6   51.76    8.87
  -6   0  -7   68.73   13.33
   6   0   7   94.18   13.22
  -6   0  -8    7.34    4.53
   6   0   8    7.85    6.41
  -6   0  -9  187.20   27.20
   6   0   9  163.42   16.13
  -6   0 -10    1.51    8.50
   6   0  10   18.28    8.36
  -6   0 -11  115.43   34.37
   6   0  11  135.42   26.98
  -7   0  16   41.09   12.34
  -7   0  16   33.06   12.45
  -7   0  15   46.79   13.04
  -7   0  15   40.29   14.11
  -7   0  14  259.39   20.61
  -7   0  14  224.52   38.42
  -7   0  13   19.74    5.32
  -7   0  13   23.69    7.12
  -7   0  12   77.47   10.65
  -7   0  12   72.21   12.96
  -7   0  11  318.03   17.39
  -7   0  11  353.68   40.38
   7   0 -10    3.51    1.24
   7   0 -10    7.72    1.42
  -7   0  10   10.45    5.39
  -7   0  10   11.18    4.26
   7   0  -9  329.58   11.16
   7   0  -9  377.57   12.80
  -7   0   9  388.86   15.46
  -7   0   9  364.11   16.84
   7   0  -8  430.20   17.33
  -7   0   8  464.16   22.61
  -7   0   8  417.75   21.96
   7   0  -7    1.91    1.13
   7   0  -7   11.38    2.44
  -7   0   7    6.30    1.86
   7   0  -7    5.72    2.00
  -7   0   7    2.42    2.77
   7   0  -6  891.76   40.07
   7   0  -6  956.76   42.51
  -7   0   6  960.11   43.13
   7   0  -6  827.56   37.05
  -7   0   6  978.26   44.90
   7   0  -5    9.03    2.71
   7   0  -5    6.50    2.60
  -7   0   5   16.75    3.26
   7   0  -5    2.57    1.31
  -7   0   5   13.13    3.93
   7   0  -4  223.01   11.80
  -7   0   4  260.63   13.51
   7   0  -4  222.39   11.31
  -7   0   4  237.58   17.77
   7   0  -3  349.02   14.73
   7   0  -3  353.97   15.62
   7   0  -3  381.37   15.00
  -7   0   3  381.14   19.94
   7   0  -3  329.90   13.31
   7   0  -2  137.53    9.38
   7   0  -2   88.56   14.40
   7   0  -2  138.70    8.45
  -7   0   2  156.65   16.24
   7   0  -2  128.14    7.37
  -7   0   1  704.80   33.37
   7   0  -1  769.23   35.41
   7   0  -1  693.67   30.84
   7   0  -1  729.21   32.41
  -7   0   0    9.14    5.95
   7   0   0   11.94    3.44
   7   0   0   11.74    1.49
   7   0   0    8.03    1.53
  -7   0  -1  309.51   33.39
   7   0   1  355.94   17.59
   7   0   2   35.34    5.97
  -7   0  -3  532.47   48.28
   7   0   3  455.75   19.35
  -7   0  -4  149.11   31.46
   7   0   4  165.37   16.88
  -7   0  -5  734.13   37.91
   7   0   5  708.89   35.56
  -7   0  -6  149.40   27.18
   7   0   6  168.48   14.69
  -7   0  -7  108.29   15.73
   7   0   7  111.17   10.78
  -7   0  -8   14.78    5.19
   7   0   8    7.70    5.24
  -7   0  -9   30.28   13.87
   7   0   9   10.98    5.88
  -7   0 -10  101.56   34.19
   7   0  10  168.10   32.66
  -8   0  16  130.87   25.27
  -8   0  16  136.79   31.92
  -8   0  15   69.66    9.67
  -8   0  15   65.51   12.27
  -8   0  14   53.69   10.23
  -8   0  14   42.55   12.96
  -8   0  13   25.89    6.30
  -8   0  13   33.66    9.45
  -8   0  12  186.58   13.29
  -8   0  12  183.18   32.68
  -8   0  11  127.03   19.66
  -8   0  11  140.06   28.31
   8   0 -10  637.80   24.47
  -8   0  10  620.57   26.51
  -8   0  10  589.53   28.33
   8   0  -9    8.87    3.46
   8   0  -9   16.86    3.35
  -8   0   9   12.53    4.41
  -8   0   9   14.98    6.32
   8   0  -8  144.98   16.71
   8   0  -8  231.68    9.41
  -8   0   8  262.05   29.77
  -8   0   8  231.93   27.84
   8   0  -7  532.00   33.79
   8   0  -7  696.17   23.61
  -8   0   7  668.00   24.91
  -8   0   7  668.80   25.09
   8   0  -6   38.11    3.82
  -8   0   6   39.00    5.46
   8   0  -6   28.71    3.31
  -8   0   6   40.40    6.28
   8   0  -5   42.22    4.75
  -8   0   5   28.18    3.39
   8   0  -5   26.05    3.70
  -8   0   5   34.92    6.41
   8   0  -4   40.36    5.28
   8   0  -4   19.06    4.19
   8   0  -4   28.97    3.33
  -8   0   4   37.34    5.77
   8   0  -3   36.83    4.70
   8   0  -3   58.21    4.57
  -8   0   3   70.24    9.18
   8   0  -3   55.26    4.53
   8   0  -2   23.49    4.55
   8   0  -2   19.15    3.88
   8   0  -2   17.88    2.51
  -8   0   1  170.25   10.54
   8   0  -1  208.36   11.14
   8   0  -1  178.79    8.30
   8   0  -1  182.98    8.52
  -8   0   0   30.99    8.08
   8   0   0   35.41    5.50
   8   0   0   15.51    1.93
   8   0   0   18.55    2.26
  -8   0  -1  280.24   20.97
   8   0   1  304.43   14.15
  -8   0  -2   59.74   12.56
   8   0   2   58.41   10.05
  -8   0  -3  944.14   43.82
   8   0   3  983.52   41.95
  -8   0  -4   37.63   10.25
   8   0   4   40.49    7.14
  -8   0  -5   64.49   16.00
   8   0   5   87.96   15.35
  -8   0  -6  197.07   24.78
   8   0   6  214.91   13.71
  -8   0  -7  165.95   24.07
   8   0   7  158.07   15.42
  -8   0  -8   30.31   14.24
   8   0   8   61.61   12.11
  -8   0  -9   36.81   16.24
   8   0   9   55.42   14.86
  -9   0  16   93.98   26.80
  -9   0  15   44.30    9.87
  -9   0  15   33.43   15.17
  -9   0  14   11.63    5.06
  -9   0  13  490.98   70.42
  -9   0  13  476.63   63.63
  -9   0  12   24.27    6.15
  -9   0  12   29.48    7.76
  -9   0  11  393.28   37.63
  -9   0  11  449.43   51.65
  -9   0  10  152.24   18.33
  -9   0  10  204.30   27.00
   9   0  -9   96.71    8.85
  -9   0   9   90.05   12.98
  -9   0   9  117.45   14.20
   9   0  -8  200.91    9.78
  -9   0   8  190.59   21.16
  -9   0   8  240.20   33.08
   9   0  -7   78.03    9.85
  -9   0   7   92.62   16.08
  -9   0   7  110.33   17.13
   9   0  -6   10.63    4.22
  -9   0   6    3.31    3.31
  -9   0   6    8.25    3.15
   9   0  -5 1071.11   36.52
   9   0  -5 1064.83   35.19
  -9   0   5 1070.37   36.38
   9   0  -4  130.56   13.44
   9   0  -4  121.15   11.65
  -9   0   4  152.50   22.54
   9   0  -3   82.53    9.83
   9   0  -3   72.68    8.08
  -9   0   3   46.92    6.06
   9   0  -2  187.62   11.03
   9   0  -2  161.20    9.01
   9   0  -2  153.28   17.77
   9   0  -2  160.89    7.50
   9   0  -1   69.68   10.38
   9   0  -1   99.52   13.13
   9   0  -1   58.15    7.21
   9   0  -1   72.08    8.79
  -9   0   0  316.47   17.39
   9   0   0  346.62   17.53
   9   0   0  273.37   10.60
   9   0   0  279.22   10.80
  -9   0  -1  174.40   12.16
   9   0   1  202.77   12.42
  -9   0  -2  575.80   41.60
   9   0   2  585.03   29.93
   9   0   3   56.35    9.23
  -9   0  -4  230.77   37.65
   9   0   4  277.54   14.84
  -9   0  -5    6.86    6.08
   9   0   5   25.71    6.61
  -9   0  -6  336.68   44.99
   9   0   6  324.39   23.94
  -9   0  -7    0.07    5.24
   9   0   7   14.18    7.50
  -9   0  -8   75.41   17.97
   9   0   8   64.78   14.80
 -10   0  16   10.52    6.50
 -10   0  14   12.62    8.56
 -10   0  13   38.20   12.20
 -10   0  13   77.18   17.59
 -10   0  12    7.01    2.24
 -10   0  12    5.46    5.59
 -10   0  11   32.43    7.85
 -10   0  11   30.46    6.74
 -10   0  10   26.27    7.43
 -10   0  10   55.53   13.02
  10   0  -9   26.16    4.24
 -10   0   9   28.77    5.99
 -10   0   9   27.24    8.43
  10   0  -8    3.64    1.82
 -10   0   8    3.73    2.35
 -10   0   8    7.48    7.01
  10   0  -7  965.64   99.39
 -10   0   7  911.82   41.71
 -10   0   7  912.28   43.33
  10   0  -6  346.20   16.37
  10   0  -6  273.68   12.89
 -10   0   6  334.60   22.07
  10   0  -5  571.85   25.11
 -10   0   5  572.25   24.76
  10   0  -4  508.80   23.43
  10   0  -4  554.23   23.58
 -10   0   4  512.19   23.03
  10   0  -3  153.63   14.58
  10   0  -3  156.61   11.82
  10   0  -3  149.33   13.02
  10   0  -2    3.64    4.81
  10   0  -1   32.86    7.17
  10   0  -1   33.77    5.75
  10   0  -1   19.17    2.42
  10   0   0  144.32   13.47
  10   0   1   42.06    9.16
 -10   0  -2   38.11    8.79
  10   0   2   40.49    8.85
 -10   0  -3   59.04    9.63
  10   0   3   66.64    8.47
 -10   0  -4  120.44   14.42
  10   0   4  153.23   15.62
 -10   0  -5   47.59   15.46
  10   0   5   56.37    9.16
 -10   0  -6   17.13    7.63
  10   0   6   23.36    8.81
  10   0   7    4.86    5.15
 -11   0  15  113.66   38.65
 -11   0  14   19.46    8.34
 -11   0  13   70.39   13.42
 -11   0  12  233.34   40.73
 -11   0  11    5.72    3.77
 -11   0  10   77.52   10.72
 -11   0  10  101.25   21.08
  11   0  -9  180.57   11.51
 -11   0   9  136.31   21.56
 -11   0   9  189.57   29.91
  11   0  -8   22.78    5.83
  11   0  -8   10.32    3.73
 -11   0   8   10.01    5.26
  11   0  -7   55.22    9.78
  11   0  -7   54.93    9.27
 -11   0   7   73.54   14.86
  11   0  -6   17.70    4.66
  11   0  -6   13.33    3.48
 -11   0   6   24.45    7.99
  11   0  -5   58.13    9.38
  11   0  -5   64.54    8.39
 -11   0   5   48.36    8.12
  11   0  -4 1331.72   68.64
  11   0  -4 1435.70  205.28
  11   0  -4 1314.19   66.64
  11   0  -3    2.26    4.26
  11   0  -3   22.98    5.06
  11   0  -3    3.15    2.37
  11   0  -2  454.80   27.64
  11   0  -2  496.44   60.30
  11   0  -1   11.67    4.70
  11   0  -1   22.05    7.12
  11   0   0    9.01    5.10
  11   0   0   13.73    5.26
  11   0   1  116.21   12.07
  11   0   1  291.43   21.41
  11   0   2   57.33   12.36
  11   0   2   57.15   11.76
  11   0   3   51.54   13.80
  11   0   3   47.37   12.82
  11   0   4  243.68   26.62
  11   0   4  238.34   25.49
  11   0   5    9.30    6.59
  11   0   5   22.96    9.07
 -12   0  14   85.75   22.92
 -12   0  13   13.78    5.15
 -12   0  12   52.34   15.62
 -12   0  10  182.23   28.13
 -12   0   9   12.58    5.15
  12   0  -8   48.30    5.90
 -12   0   8   39.31   12.56
  12   0  -7  118.74   11.34
 -12   0   7  119.58   21.79
  12   0  -6  169.21   10.87
  12   0  -6  225.25   10.32
  12   0  -5   17.15    4.79
  12   0  -5    4.59    2.44
  12   0  -4   33.92    7.34
  12   0  -4   36.27    6.66
  12   0  -3    1.09    3.95
  12   0  -3   31.04    6.26
  12   0  -2  122.86   14.84
  12   0  -2  147.58   12.87
  12   0  -1    6.52    6.37
  12   0  -1    5.39    4.70
  12   0   0   16.51    7.81
  12   0   0    8.54    4.57
  12   0   1  235.47   23.54
  12   0   1  261.45   24.85
  12   0   2   15.91    6.32
  12   0   2   10.03    5.26
  12   0   3  121.31   25.38
  12   0   3  150.90   29.97
  12   0   4   56.55   12.31
  12   0   4   61.10   13.73
 -13   0  13   12.27    9.30
 -13   0  12  104.09   34.10
 -13   0  11   80.07   18.44
 -13   0  10   25.42    7.81
 -13   0   9  110.17   23.63
 -13   0   8  129.07   11.54
  13   0  -7   30.66    8.08
  13   0  -7   46.46   10.60
  13   0  -6  101.79    9.69
  13   0  -6   80.73    8.23
  13   0  -5   29.22    9.21
  13   0  -4    7.23    5.86
  13   0  -3  268.09   21.56
  13   0  -3  220.19   15.75
  13   0  -2   25.27    7.79
  13   0  -2   35.87   10.03
  13   0  -1  118.89   15.84
  13   0  -1  125.50   14.62
  13   0   0   20.57    7.34
  13   0   0   12.73    4.64
  13   0   1   18.37    8.67
  13   0   1   26.93    9.96
  13   0   2   68.80   13.93
  13   0   2   36.21    8.79
 -14   0  11    5.57    6.26
 -14   0  10   13.98    6.12
  14   0  -9   65.47   13.98
  14   0  -8    7.74    4.02
  14   0  -6   11.67    6.83
  14   0  -5   12.40    6.08
  14   0  -4  115.41   22.70
  14   0  -3   15.75    8.39
  14   0  -2   35.25   12.11
  14   0  -1  102.96   19.68
  14   1  -2   13.60    6.34
  14   1  -2   20.59    8.36
  14   1  -3  153.61   26.27
  14   1  -3  175.77   29.17
  14   1  -4   33.61   10.56
  14   1  -4    4.66    5.50
  14   1  -5   30.13   10.25
  14   1  -5   19.03    7.96
  14   1  -6   11.36    5.68
  14   1  -8   36.32   10.80
  14   1  -9   19.15    7.50
  14   1 -10    2.91    4.06
 -13  -1  -1  128.03   29.99
  13   1   1  177.75   30.55
 -13  -1   0   28.24   12.07
  13   1   0   34.92   11.07
 -13  -1   1   98.28   12.89
  13   1  -1  111.24   14.27
  13   1  -2   20.81    7.81
  13   1  -3   36.98   10.14
  13   1  -3   39.51   11.09
  13   1  -4  108.11   12.14
  13   1  -5  336.44   29.62
  13   1  -5  405.50   66.58
  13   1  -6   20.14    6.26
  13   1  -6   46.92   12.02
  13   1  -6   33.19    8.99
  13   1  -7  151.81   15.17
  13   1  -7  149.11   14.84
  13   1  -8    5.19    3.48
  13   1  -8   14.13    6.39
  13   1  -9   22.45    6.92
 -13  -1  10  138.39   28.86
  13   1 -10  203.59   21.96
  13   1 -11    5.66    5.17
  13   1 -12   52.62   11.85
 -12  -1  -3   11.00    8.63
  12   1   3    2.95    4.99
 -12  -1  -2   18.08    8.65
  12   1   2    6.68    5.50
 -12  -1  -1   29.31    8.39
  12   1   1   22.30    7.65
 -12  -1   0   18.88    6.34
  12   1   0   23.78    8.83
 -12  -1   1  127.65   21.54
  12   1  -1  150.93   13.80
 -12  -1   2   67.35   19.03
  12   1  -2   65.31   11.76
 -12  -1   3   65.80   15.24
  12   1  -3   99.21    9.89
 -12  -1   4  155.43   13.87
  12   1  -4  163.71   13.60
  12   1  -4  121.89   10.18
  12   1  -5  103.76   10.14
  12   1  -5   74.08    9.10
  12   1  -5   71.77    7.88
  12   1  -6  370.54   25.60
  12   1  -6  401.80   27.89
  12   1  -6  450.78   30.75
  12   1  -7   13.51    3.70
  12   1  -7   17.55    4.93
  12   1  -7    9.94    4.22
 -12  -1   8   60.34   11.20
  12   1  -8   78.71    9.50
 -12  -1   9   23.69    9.89
  12   1  -9   60.99   14.93
 -12  -1  10    3.84    3.99
  12   1 -10    9.69    4.97
 -12  -1  11   15.55    6.48
  12   1 -11   36.18   10.96
 -12  -1  12  114.30   26.47
  12   1 -12  191.66   21.76
 -12  -1  13   19.39    6.48
  12   1 -13   10.58    7.61
  12   1 -14  108.60   19.74
 -11  -1  -5  113.81   24.36
  11   1   5  111.50   22.36
 -11  -1  -4   17.73    6.97
  11   1   4   19.21    7.23
 -11  -1  -3  234.99   38.89
  11   1   3  253.18   24.98
 -11  -1  -2  111.26   26.44
  11   1   2  147.75   14.46
 -11  -1  -1  127.99   19.86
  11   1   1  161.24   15.82
 -11  -1   0  205.90   35.50
  11   1   0  265.23   20.94
 -11  -1   1   14.93    5.30
  11   1  -1    8.90    4.59
 -11  -1   2  134.11   19.88
  11   1  -2  140.12   12.82
  11   1  -2  138.35    9.67
 -11  -1   3   52.02   11.14
  11   1  -3   95.60   15.71
  11   1  -3   50.65    9.07
 -11  -1   4   71.86   14.40
  11   1  -4   79.13   13.27
  11   1  -4   73.03   11.85
  11   1  -5   88.76   14.33
  11   1  -5  111.53    8.74
  11   1  -6  452.98   25.73
  11   1  -6  409.65   24.43
  11   1  -6  428.15   25.14
  11   1  -7  188.86   12.07
 -11  -1   7  170.18   13.04
  11   1  -7  130.29   10.49
 -11  -1   8  371.43   17.53
  11   1  -8  405.50   18.46
 -11  -1   9   13.42    5.01
  11   1  -9   29.33    7.65
 -11  -1  10   43.97    8.12
  11   1 -10   52.36    9.05
 -11  -1  11  155.08   34.37
  11   1 -11  170.69   16.57
 -11  -1  12   39.56   12.71
  11   1 -12   56.06   10.80
 -11  -1  13   58.61   15.40
  11   1 -13   72.06   10.92
 -11  -1  14  142.87   36.58
  11   1 -14  274.43   63.92
 -10  -1  -6  129.67   38.62
  10   1   6  165.50   32.01
  10   1   5   44.19   11.07
 -10  -1  -4  191.59   32.55
  10   1   4  190.46   16.68
 -10  -1  -3   55.15   13.69
  10   1   3   39.82    9.52
 -10  -1  -2   16.95    4.64
  10   1   2   25.56    9.56
 -10  -1  -1   13.18    4.04
  10   1   1   27.49    8.16
 -10  -1   0   70.59   16.24
  10   1   0  100.06   14.60
 -10  -1   1   50.40   13.24
  10   1  -1   59.94    9.10
  10   1  -1   36.67    4.97
 -10  -1   2  328.56   39.73
  10   1  -2  280.16   17.28
  10   1  -2  300.21   15.42
 -10  -1   3   37.96    8.14
  10   1  -3   26.27    5.06
  10   1  -3   23.83    3.77
 -10  -1   4  372.96   37.89
  10   1  -4  354.37   19.39
  10   1  -4  327.34   17.37
 -10  -1   5  134.89   27.82
  10   1  -5  150.06   10.27
  10   1  -6    7.72    2.51
 -10  -1   6   21.63    8.76
  10   1  -6   35.45    6.08
  10   1  -7  164.17   10.18
 -10  -1   7  168.14   28.73
  10   1  -7  159.25   12.51
  10   1  -8  118.54   13.09
 -10  -1   8  103.78   23.21
  10   1  -8  102.83   14.13
 -10  -1   9   15.29    4.99
 -10  -1  10   60.06   14.31
  10   1 -10   90.56   10.34
 -10  -1  11  111.33   22.45
  10   1 -11  116.16   13.47
 -10  -1  12   12.93    5.28
  10   1 -12    5.44    4.39
 -10  -1  13  226.67   44.22
  10   1 -13  290.34   28.20
  10   1 -14    5.64    4.99
 -10  -1  15  113.57   34.99
  10   1 -15  166.94   32.41
  -9  -1  -8   62.63   18.99
   9   1   8  142.92   25.93
  -9  -1  -7   31.21   11.87
   9   1   7   19.12    6.43
  -9  -1  -6   64.16   16.15
   9   1   6  106.02   13.84
  -9  -1  -5  138.35   22.76
   9   1   5  153.70   15.73
  -9  -1  -4  233.43   35.63
   9   1   4  253.44   15.73
  -9  -1  -3  323.55   38.16
   9   1   3  318.74   21.74
  -9  -1  -2  359.20   23.38
   9   1   2  331.78   21.39
  -9  -1  -1   48.76   13.58
   9   1   1   28.44    6.99
   9   1   1   29.13    3.17
  -9  -1   0   22.83    6.03
   9   1   0   22.74    6.99
  -9  -1   1  378.48   33.03
   9   1  -1  393.43   19.99
   9   1  -1  361.33   15.77
  -9  -1   2  149.42   27.20
   9   1  -2  115.03   15.26
   9   1  -2  104.43   12.91
  -9  -1   3  590.11   29.04
   9   1  -3  570.52   28.75
   9   1  -3  584.69   28.46
  -9  -1   4  394.37   20.32
   9   1  -4  362.69   18.88
  -9  -1   5  181.41   22.92
  -9  -1   5  145.34   23.43
   9   1  -5  185.87   12.05
  -9  -1   6   61.87   14.71
   9   1  -6   39.87    6.21
   9   1  -7  440.78   18.33
  -9  -1   7  505.16   23.69
   9   1  -7  445.99   22.12
   9   1  -8   66.33    5.99
  -9  -1   8   52.45   13.31
   9   1  -8   71.50   11.65
  -9  -1   9  491.05   27.98
   9   1  -9  556.74   29.20
  -9  -1  10  114.30   19.61
   9   1 -10   76.83   11.43
  -9  -1  11  185.67   25.45
  -9  -1  12   12.65    3.37
  -9  -1  13   31.99    8.79
  -9  -1  14   67.58   10.87
  -9  -1  15  110.64   22.07
   9   1 -15   66.87   16.08
  -9  -1  16   21.23    9.05
   9   1 -16   32.55   10.85
  -8  -1  -9   14.71   10.03
   8   1   9   26.11   10.72
  -8  -1  -8  111.50   17.77
   8   1   8   92.20   13.40
  -8  -1  -7   42.84   14.35
   8   1   7   36.21   11.34
  -8  -1  -6  169.87   24.67
   8   1   6  158.65   15.33
  -8  -1  -5  165.24   27.09
   8   1   5  184.65   14.02
  -8  -1  -4  146.67   23.63
   8   1   4  124.64   16.71
  -8  -1  -3  217.35   27.18
   8   1   3  185.16   14.07
  -8  -1  -2  149.97   27.15
   8   1   2  148.64   15.33
   8   1   2  119.02    9.92
  -8  -1  -1   12.67    5.68
   8   1   1   13.87    4.61
   8   1   1    1.35    1.29
   8   1   1    5.70    2.20
  -8  -1   0   28.77    6.30
   8   1   0   25.00    6.01
   8   1   0   31.06    5.72
   8   1   0   31.39    4.28
  -8  -1   1  540.03   22.01
   8   1  -1  492.09   19.83
   8   1  -1  487.12   17.53
  -8  -1   2   29.48    5.44
   8   1  -2    7.52    3.79
   8   1  -2   25.73    4.53
  -8  -1   3  523.97   23.25
   8   1  -3  464.74   21.28
   8   1  -3  482.13   21.01
  -8  -1   4   64.63   11.67
  -8  -1   4   91.20   14.20
   8   1  -4   64.89    6.59
  -8  -1   5  441.20   18.68
  -8  -1   5  460.99   29.77
   8   1  -5  438.78   18.06
  -8  -1   6  668.38   22.70
   8   1  -6  661.81   22.56
  -8  -1   6  651.76   24.83
   8   1  -6  700.12   26.47
   8   1  -7  216.95    8.72
   8   1  -7  220.72    8.74
  -8  -1   7  228.82   20.34
   8   1  -7  217.24   13.58
   8   1  -8   54.07    6.34
   8   1  -8   62.92    7.34
  -8  -1   8   70.15   13.84
   8   1  -8   66.82   11.63
  -8  -1   9  243.24   35.61
   8   1  -9  238.09   15.13
  -8  -1  10   28.04    6.86
  -8  -1  10   47.59    7.72
  -8  -1  11  174.15   12.82
  -8  -1  12   75.25    9.89
  -8  -1  12   65.07   10.87
  -8  -1  13  101.30   10.18
  -8  -1  13  103.96   12.82
  -8  -1  14  299.68   21.32
  -8  -1  14  261.41   20.85
  -8  -1  15   31.15    9.36
  -8  -1  16   85.70   15.88
   8   1 -16  110.53   20.63
  -7  -1 -10   27.13   10.25
   7   1  10   52.38   12.85
  -7  -1  -9  170.58   34.70
   7   1   9  225.00   24.36
  -7  -1  -8   26.02   17.70
   7   1   8   56.71   14.20
  -7  -1  -7  135.11   20.90
   7   1   7  114.25   13.91
  -7  -1  -6  124.48   21.90
   7   1   6  112.10   12.40
  -7  -1  -5   17.28    7.76
   7   1   5   26.44    6.37
  -7  -1  -4  236.81   28.73
   7   1   4  220.65   14.60
   7   1   4  213.95    9.36
   7   1   3 1037.67   49.45
   7   1   3  879.98   39.27
  -7  -1  -2  243.42   30.15
   7   1   2  184.49   11.05
   7   1   2  111.13   15.73
   7   1   2  173.91    7.39
  -7  -1  -1  625.85   28.26
   7   1   1  638.96   28.49
   7   1   1  560.56   24.18
   7   1   1  639.85   25.78
  -7  -1   0  326.39   41.60
   7   1   0  229.24   12.80
   7   1   0  212.47   17.17
   7   1   0  290.01   12.96
  -7  -1   1   99.75   16.37
   7   1  -1  121.26    8.56
   7   1  -1   80.22   10.78
   7   1  -1  103.52    6.23
  -7  -1   2  242.64   33.39
   7   1  -2  210.25   12.93
   7   1  -2  198.80   11.25
  -7  -1   3   98.28   18.97
  -7  -1   3  150.39   20.52
   7   1  -3   82.80    6.46
  -7  -1   4  329.45   24.69
   7   1  -4  304.18   15.13
  -7  -1   4  349.57   19.26
   7   1  -4  381.54   20.06
  -7  -1   5  416.99   22.19
   7   1  -5  427.16   20.10
  -7  -1   5  483.86   23.58
   7   1  -5  460.43   21.05
  -7  -1   6  104.36    8.90
   7   1  -6   75.70    4.77
  -7  -1   6  103.49   17.75
   7   1  -6  108.24    8.65
   7   1  -7  315.05   12.73
   7   1  -7  325.08   13.07
  -7  -1   7  309.91   17.10
   7   1  -7  322.02   16.66
  -7  -1   8  278.67   26.31
  -7  -1   9   33.66    7.19
  -7  -1   9   41.51    7.88
  -7  -1  10  716.39   31.26
  -7  -1  10  770.07   34.39
  -7  -1  11   16.22    4.88
  -7  -1  11   11.54    4.19
  -7  -1  12   95.62   16.00
  -7  -1  12  127.21   17.04
  -7  -1  13   43.42    7.57
  -7  -1  13   41.71    8.94
  -7  -1  14    6.06    4.99
  -7  -1  14   15.11    6.43
  -7  -1  15   36.87   11.40
  -7  -1  16  206.70   39.02
   7   1 -16  250.07   47.25
   6   1  11   13.93    7.10
  -6  -1 -10   37.87   10.34
   6   1  10   48.39   11.60
   6   1   9  178.06   16.44
  -6  -1  -8    9.54    5.81
   6   1   8    3.59    5.08
  -6  -1  -7  257.37   38.09
   6   1   7  245.30   17.88
  -6  -1  -6  160.27   25.29
   6   1   6  130.80   17.55
   6   1   6  117.58    8.36
  -6  -1  -5   76.72   15.82
   6   1   5   72.28    9.89
   6   1   5   60.17    5.86
  -6  -1  -4  868.18   33.26
   6   1   4  786.25   30.19
   6   1   4  737.66   24.29
  -6  -1  -4  565.19   18.90
  -6  -1  -3  171.78   28.06
  -6  -1  -3   -0.09    0.69
  -6  -1  -2  197.09   29.86
   6   1   2  179.77   11.23
   6   1   2  194.96    9.14
  -6  -1  -2  161.93    7.63
  -6  -1  -1  206.77   33.21
   6   1   1  200.20   12.02
   6   1   1  181.96    9.89
  -6  -1  -1  195.19   10.14
  -6  -1   0  117.76   17.95
   6   1   0  121.66    9.01
   6   1   0  124.64    7.34
  -6  -1   1  217.42   11.36
   6   1  -1  243.88   12.20
   6   1  -1  187.35   16.91
   6   1  -1  261.30   11.65
  -6  -1   2  511.66   20.54
  -6  -1   2  548.38   22.07
   6   1  -2  580.08   22.01
  -6  -1   3   39.18    7.28
   6   1  -3   13.16    2.44
  -6  -1   3   41.93    6.90
   6   1  -3   35.81    4.44
  -6  -1   4  480.69   20.06
   6   1  -4  441.31   16.75
  -6  -1   4  434.06   24.45
   6   1  -4  452.96   18.81
  -6  -1   5   19.03    3.64
   6   1  -5   26.02    2.93
  -6  -1   5   24.74    6.63
   6   1  -5   20.10    4.64
  -6  -1   6 1281.02   55.60
   6   1  -6 1316.65   57.02
  -6  -1   6 1377.48   55.11
   6   1  -6 1251.14   56.71
  -6  -1   7   37.05    6.61
   6   1  -7   42.86    6.06
  -6  -1   8  199.27   11.40
  -6  -1   9  128.03   13.71
  -6  -1   9  178.72   10.87
  -6  -1  10  658.79   29.28
  -6  -1  10  645.92   30.02
  -6  -1  11  276.76   17.04
  -6  -1  11  298.84   36.36
  -6  -1  12   25.25    7.37
  -6  -1  12   25.89    7.08
  -6  -1  13   59.81   10.83
  -6  -1  13   77.65   17.50
  -6  -1  14  162.13   15.75
  -6  -1  14  127.77   13.93
  -6  -1  15  289.92   27.44
  -6  -1  16    9.87    6.39
   6   1 -16   26.31   10.47
  -5  -1 -12    4.46    4.37
   5   1  12   11.49    8.90
  -5  -1 -11  163.66   28.22
   5   1  11  104.16   14.15
  -5  -1 -10   64.51   16.59
   5   1  10   49.01   13.38
  -5  -1  -9   90.74   13.67
   5   1   9   69.00   10.34
  -5  -1  -8  157.85   23.05
   5   1   8  128.87   13.07
   5   1   8  113.61   18.61
  -5  -1  -7  366.83   49.67
   5   1   7  295.13   19.92
   5   1   7  318.85   15.91
  -5  -1  -6  270.33   31.44
   5   1   6  285.48   16.35
   5   1   6  253.00   11.80
  -5  -1  -6  172.34    8.32
  -5  -1  -5   73.34   12.20
   5   1   5   44.46    7.90
   5   1   5   44.61    5.19
  -5  -1  -5   21.21    2.86
  -5  -1  -4   38.05    7.72
   5   1   4   40.95    7.14
   5   1   4   30.68    3.28
  -5  -1  -4   33.01    2.91
  -5  -1  -3  316.94   26.05
   5   1   3  287.03   16.55
   5   1   3  288.68   14.02
  -5  -1  -3  288.79   13.89
   5   1   2  833.28   39.05
   5   1   2  940.46   41.75
  -5  -1  -2  901.19   39.91
  -5  -1  -1  167.83   24.07
   5   1   1  151.99    9.43
   5   1   1  161.04    7.61
  -5  -1  -1  170.05    7.72
  -5  -1   0 1447.37   54.49
   5   1   0 1400.47   49.52
   5   1   0 1372.67   47.37
  -5  -1   0 1470.17   50.40
  -5  -1   1  331.63   14.04
  -5  -1   1  354.30   15.88
   5   1  -1  353.70   14.11
  -5  -1   1  364.73   14.31
  -5  -1   2  350.48   14.31
   5   1  -2  356.94   13.98
  -5  -1   2  357.07   18.88
   5   1  -2  303.78   13.02
   5   1  -2  330.38   13.82
  -5  -1   3  143.67   14.91
   5   1  -3  101.05    5.28
  -5  -1   3  134.55   18.19
   5   1  -3  137.64    8.25
  -5  -1   4  158.16   11.71
   5   1  -4  123.97    5.75
  -5  -1   4  147.20   18.75
   5   1  -4  128.32    7.76
  -5  -1   5  442.09   15.93
   5   1  -5  442.77   15.77
  -5  -1   5  425.91   23.03
   5   1  -5  480.98   20.52
  -5  -1   6  957.07   31.95
   5   1  -6  925.15   30.86
  -5  -1   6  971.23   35.74
   5   1  -6 1001.91   37.36
  -5  -1   7  154.21   10.80
  -5  -1   8  663.83   28.66
  -5  -1   8  505.89   23.56
  -5  -1   9  137.35   14.40
  -5  -1   9  171.87   25.09
  -5  -1  10  190.82   13.40
  -5  -1  10  207.08   25.22
  -5  -1  11  235.41   14.11
  -5  -1  11  251.40   31.77
  -5  -1  12  263.07   17.68
  -5  -1  12  316.05   46.30
  -5  -1  13  122.31   10.03
  -5  -1  13  177.55   13.53
  -5  -1  14   17.06    7.48
  -5  -1  14   12.38    6.46
  -5  -1  15    5.70    7.43
   5   1 -16   16.48    7.85
  -4  -1 -13   17.35   11.78
   4   1  13   40.91   11.71
  -4  -1 -12   97.77   20.41
   4   1  12   93.56   14.78
  -4  -1 -11   29.11   11.60
   4   1  11   39.53   11.67
  -4  -1 -10   11.65    5.52
   4   1  10   10.25    3.26
  -4  -1  -9   57.02   13.27
   4   1   9   73.41   13.80
   4   1   9   39.40    9.81
  -4  -1  -8  293.33   30.37
   4   1   8  298.55   18.26
   4   1   8  226.51   22.16
  -4  -1  -7   97.04   15.51
   4   1   7   94.98   13.33
   4   1   7   83.51    8.23
  -4  -1  -6  723.06   55.75
   4   1   6  831.15   31.19
   4   1   6  704.43   24.23
  -4  -1  -6  592.21   20.59
  -4  -1  -5  216.08   26.38
   4   1   5  126.57    9.61
   4   1   5  146.84    7.88
  -4  -1  -5  127.03    7.01
  -4  -1  -4  584.16   34.30
   4   1   4  591.13   28.97
   4   1   4  534.62   24.63
  -4  -1  -4  515.32   23.63
  -4  -1  -3  681.16   38.29
   4   1   3  600.82   24.36
   4   1   3  689.79   24.85
  -4  -1  -3  682.57   24.40
  -4  -1  -2  306.67   21.90
   4   1   2  286.06   13.00
   4   1   2  317.96   12.31
  -4  -1  -2  316.23   12.07
   4   1   1  851.05   30.13
   4   1   1  891.54   30.24
  -4  -1  -1  855.58   28.84
  -4  -1   0  676.01   24.51
   4   1   0  637.78   23.16
   4   1   0  704.03   25.31
   4   1   0  715.94   24.85
  -4  -1   0  680.91   23.49
  -4  -1   1  528.90   20.23
   4   1  -1  502.47   18.52
  -4  -1   1  536.06   20.43
   4   1  -1  531.49   19.52
  -4  -1   1  513.21   18.44
  -4  -1   2  205.68    9.47
   4   1  -2  191.66    8.36
  -4  -1   2  191.88   12.53
   4   1  -2  171.00   18.79
   4   1  -2  196.74    9.58
  -4  -1   2  217.70    9.78
  -4  -1   3  189.71    8.41
   4   1  -3  193.15    8.01
   4   1  -3  164.73   17.77
   4   1  -3  187.00   10.21
  -4  -1   4  215.57    8.39
   4   1  -4  218.13    8.23
  -4  -1   4  248.19   11.69
   4   1  -4  207.88   10.21
  -4  -1   5 2350.29   74.34
   4   1  -5 2381.55   75.19
  -4  -1   5 2520.78   86.10
   4   1  -5 2402.42   78.74
  -4  -1   6  151.79    8.72
   4   1  -6  142.81    9.43
  -4  -1   7  758.34   35.72
  -4  -1   8   38.91    6.01
  -4  -1   8   52.29    7.59
  -4  -1   9   46.54    6.43
  -4  -1   9   38.05    6.61
  -4  -1  10   24.09    6.08
  -4  -1  10   28.04    7.30
  -4  -1  11  519.07   25.14
  -4  -1  11  479.25   23.78
  -4  -1  12   59.15    9.76
  -4  -1  12   43.28    8.34
  -4  -1  13  323.17   17.59
  -4  -1  13  349.86   18.46
  -4  -1  14   11.25    5.55
  -4  -1  15  201.26   21.43
   4   1 -15  186.89   20.37
  -4  -1  16   75.16   17.02
   4   1 -16   76.32   17.02
  -3  -1 -13    7.81    5.55
   3   1  13   13.00    9.92
  -3  -1 -12  184.25   35.25
   3   1  12  234.43   22.92
  -3  -1 -11   27.71    5.12
   3   1  11    9.03    5.59
   3   1  11   15.26    3.22
  -3  -1 -10  539.26   81.82
   3   1  10  482.55   59.77
   3   1  10  417.04   37.25
  -3  -1  -9  340.19   35.45
   3   1   9  232.08   15.13
   3   1   9  239.18   28.40
  -3  -1  -8   87.12   12.60
   3   1   8   97.70   11.69
   3   1   8   79.22    8.30
  -3  -1  -7  167.54   15.71
   3   1   7  124.30   12.38
  -3  -1  -6   98.52   14.51
   3   1   6   62.54    6.81
   3   1   6   82.86    6.03
  -3  -1  -5  747.82   43.90
   3   1   5  713.06   34.37
   3   1   5  720.76   32.88
  -3  -1  -5  651.38   29.75
  -3  -1  -4  646.95   25.62
   3   1   4  657.57   25.87
   3   1   4  634.70   23.27
  -3  -1  -4  648.61   23.61
  -3  -1  -3  182.30   10.94
   3   1   3  196.74    8.72
  -3  -1  -3  201.29    8.76
  -3  -1  -2  688.52   25.47
   3   1   2  665.56   24.36
   3   1   2  731.80   25.49
  -3  -1  -2  676.45   23.23
  -3  -1  -1  955.17   22.63
   3   1   1  868.42   19.72
   3   1   1  886.35   19.68
   3   1   1 1013.62   22.70
   3   1   1  962.04   20.28
  -3  -1  -1  884.39   18.48
  -3  -1   0  184.00    8.50
   3   1   0  184.89   20.74
   3   1   0  188.86    6.99
  -3  -1   0  173.00    6.57
  -3  -1   1 1225.69   25.11
   3   1  -1 1249.56   24.89
  -3  -1   1 1281.69   30.17
   3   1  -1 1287.79   26.36
  -3  -1   1 1191.77   24.27
  -3  -1   2  200.02    6.83
   3   1  -2  201.58    6.72
  -3  -1   2  195.45    9.18
   3   1  -2  187.53    7.76
   3   1  -2  202.73    7.92
  -3  -1   3  602.97   13.20
   3   1  -3  575.13   12.18
   3   1  -3  602.91   14.69
   3   1  -3  616.15   14.58
   3   1  -3  579.57   14.80
  -3  -1   4   66.84    4.02
   3   1  -4   69.02    3.73
  -3  -1   4   67.64    6.23
   3   1  -4   55.64    5.12
   3   1  -4   70.50    6.70
  -3  -1   5  361.91   12.22
   3   1  -5  339.88   11.40
  -3  -1   5  358.34   15.33
  -3  -1   6   77.12    5.10
  -3  -1   6   65.58    2.93
   3   1  -6   77.12    6.90
  -3  -1   7 1042.15   34.79
  -3  -1   7 1051.52   35.07
  -3  -1   7 1099.26   40.55
  -3  -1   8   21.19    1.80
  -3  -1   8   24.40    1.93
  -3  -1   8   19.66    4.13
  -3  -1   8   26.71    5.79
  -3  -1   9  515.83   20.14
  -3  -1   9  572.60   22.19
  -3  -1   9  570.76   26.09
  -3  -1   9  627.09   28.57
  -3  -1  10  659.30   29.53
  -3  -1  10  615.64   27.53
  -3  -1  10  679.11   34.59
  -3  -1  10  733.38   36.52
  -3  -1  11  429.37   17.24
  -3  -1  11  477.01   23.43
  -3  -1  11  483.71   24.07
  -3  -1  12   39.62    8.19
  -3  -1  12   48.81    8.34
  -3  -1  13   42.22    8.61
  -3  -1  14  162.82   17.04
   3   1 -14  119.05   12.87
  -3  -1  15   63.43   10.14
   3   1 -15   63.56   10.38
  -3  -1  16   10.47    5.99
   3   1 -16   10.87    6.94
  -2  -1 -14   60.10   17.15
   2   1  14   74.03   16.20
  -2  -1 -13  160.64   32.59
  -2  -1 -12   29.44    9.52
   2   1  12   15.66    6.83
   2   1  12   14.66    5.61
  -2  -1 -11  273.66   30.90
   2   1  11  181.68   13.07
   2   1  11  168.43   28.97
  -2  -1 -10  100.61   16.28
   2   1  10   94.04   13.93
   2   1  10   74.30   11.98
  -2  -1  -9   19.21    5.55
   2   1   9   32.83    6.77
   2   1   9   12.69    3.15
  -2  -1  -8   22.47    7.65
   2   1   8    6.32    3.62
   2   1   8    6.70    4.19
  -2  -1  -7  552.21   36.25
   2   1   7  582.41   26.44
   2   1   7  544.16   23.69
  -2  -1  -6   21.36    5.68
   2   1   6   10.09    5.81
   2   1   6   24.60    3.90
  -2  -1  -5 1065.47   39.56
   2   1   5 1073.41   39.18
   2   1   5 1040.67   37.07
  -2  -1  -5  961.80   34.19
  -2  -1  -4  126.21    9.03
   2   1   4  129.41    6.92
  -2  -1  -4  127.30    6.57
  -2  -1  -3  709.82   26.20
   2   1   3  686.79   24.14
  -2  -1  -3  698.39   24.16
   2   1   2    6.50    4.28
   2   1   2   10.67    4.24
   2   1   2    4.81    4.30
  -2  -1  -2    8.32    2.80
   2   1   1  475.67   12.51
   2   1   1  500.81   12.98
   2   1   1  470.13   12.47
   2   1   1  482.80   11.96
  -2  -1  -1  492.78   11.76
   2   1   0 2743.85   50.32
  -2  -1   0 2916.77   53.82
   2   1   0 2871.20   52.27
  -2  -1   0 2834.19   51.36
  -2  -1   1 9689.92  304.63
   2   1  -1 9481.95  163.79
  -2  -1   1 9620.30  304.09
   2   1  -1 8963.99  155.92
   2   1  -1 9771.05  307.33
  -2  -1   1 9318.18  161.40
  -2  -1   2   98.61    5.32
   2   1  -2   96.99    4.86
  -2  -1   2  106.96   16.04
   2   1  -2  110.08    6.34
   2   1  -2  109.02    5.95
  -2  -1   2   89.18    5.19
  -2  -1   3  383.27    9.43
   2   1  -3  380.03   10.87
   2   1  -3  347.13   10.67
  -2  -1   3  371.14   10.18
  -2  -1   4   17.19    3.00
   2   1  -4    6.79    1.71
  -2  -1   4   13.36    4.88
   2   1  -4   11.09    3.02
   2   1  -4   13.11    2.40
   2   1  -4    9.34    6.19
  -2  -1   5  562.20   18.84
   2   1  -5  575.64   19.12
   2   1  -5  532.42   20.19
  -2  -1   6 1100.52   35.63
  -2  -1   7    3.48    1.40
  -2  -1   8    0.98    0.67
  -2  -1   9    0.62    0.89
  -2  -1  10    3.02    1.97
  -2  -1  10   16.20    3.24
  -2  -1  10   23.69    6.92
  -2  -1  11   66.25    5.37
  -2  -1  11   76.36    9.47
  -2  -1  12  198.98   11.78
  -2  -1  12  227.89   17.02
   2   1 -12  294.69   19.46
  -2  -1  13   39.00   10.49
   2   1 -13   27.55    7.01
  -2  -1  14  382.43   27.42
   2   1 -14  391.84   26.47
  -2  -1  15    8.05    5.10
   2   1 -15   12.65    6.70
  -2  -1  16  122.77   22.54
   2   1 -16  118.16   21.05
  -1  -1 -14    8.63    3.42
   1   1  14   43.95   11.18
   1   1  14   30.50   10.96
  -1  -1 -13   40.78   11.76
   1   1  13   53.64   14.93
   1   1  13   41.20   10.83
  -1  -1 -12   21.32    7.14
   1   1  12   13.84    6.15
   1   1  12   25.36    5.48
  -1  -1 -11  226.67   25.25
   1   1  11  250.65   18.66
   1   1  11  177.53   29.51
  -1  -1 -10   82.53   11.25
   1   1  10   89.96   10.85
   1   1  10   67.44   14.53
  -1  -1  -9  837.32   55.82
   1   1   9  802.86   39.56
   1   1   9  781.83   38.56
  -1  -1  -8   12.20    5.52
   1   1   8    1.84    4.28
   1   1   8   21.81    5.24
  -1  -1  -7   35.85    5.17
   1   1   7   47.81    7.37
   1   1   7   49.70    6.15
  -1  -1  -6  437.52   18.77
   1   1   6  448.88   19.28
   1   1   6  454.67   18.37
   1   1   5  151.73    9.32
   1   1   5  173.38    9.23
  -1  -1  -5  130.25    7.21
  -1  -1  -4  254.78   12.51
   1   1   4  254.95   11.49
  -1  -1  -4  244.88   10.45
  -1  -1  -3  763.20   19.46
   1   1   3  768.96   17.81
  -1  -1  -3  764.04   16.88
  -1  -1  -2  101.63    7.41
   1   1   2  102.83    6.43
   1   1   2  102.61    5.79
   1   1   2   95.86    5.26
  -1  -1  -2   94.98    5.01
  -1  -1  -1  875.68   19.63
   1   1   1  828.60   17.86
  -1  -1  -1  888.79   19.12
   1   1   1  858.70   18.59
   1   1   1  910.33   19.39
  -1  -1   0 9522.02  165.04
   1   1   0 9292.20  160.73
  -1  -1   0 9999.00  314.48
   1   1   0 9639.24  303.05
  -1  -1   1 3207.75   57.50
  -1  -1   1 3190.67   58.81
   1   1  -1 3159.10   57.24
  -1  -1   1 3079.34   55.42
  -1  -1   2 1858.57   34.39
   1   1  -2 1770.45   32.63
  -1  -1   2 1803.51   34.68
   1   1  -2 1870.55   35.50
  -1  -1   2 1854.02   34.99
  -1  -1   3   67.98    3.66
   1   1  -3   78.58    4.61
  -1  -1   3   90.45    5.86
  -1  -1   3   71.17    5.04
  -1  -1   4  329.61    8.34
   1   1  -4  316.72    7.99
  -1  -1   4  325.64   11.07
   1   1  -4  292.80    9.27
   1   1  -4  347.69   10.49
  -1  -1   5   37.87    4.86
  -1  -1   5   25.18    2.55
  -1  -1   5   36.05    6.06
   1   1  -5   37.36    5.12
   1   1  -5   33.32    5.10
  -1  -1   6  564.77   25.29
  -1  -1   6  610.47   21.16
  -1  -1   6  608.90   23.92
   1   1  -6  604.64   22.72
  -1  -1   7  161.18   15.97
  -1  -1   7  184.18    8.45
  -1  -1   7  187.62   12.20
   1   1  -7  204.86   10.89
  -1  -1   8  225.18   21.30
  -1  -1   8  299.70   13.33
  -1  -1   8  338.04   18.21
   1   1  -8  296.28   14.86
  -1  -1   9   20.50    3.68
  -1  -1   9   29.99    4.35
  -1  -1   9   52.60    8.94
   1   1  -9   46.23    7.61
  -1  -1  10  972.69   44.26
   1   1 -10  946.20   44.81
  -1  -1  11   17.13    3.99
  -1  -1  11   15.26    5.55
   1   1 -11   14.60    5.19
  -1  -1  12   27.42    6.10
  -1  -1  12   41.82    9.36
   1   1 -12   46.01   10.18
  -1  -1  13  123.02   12.82
   1   1 -13  112.86   11.34
  -1  -1  14   55.69   15.31
   1   1 -14   46.92   12.29
  -1  -1  15   17.97    9.69
   1   1 -15   33.03   10.80
   0  -1 -15  158.31   41.91
   0   1  15  231.02   43.90
   0   1  15  109.75   37.36
   0  -1 -14   26.89    7.72
   0   1  14   33.48   10.36
   0   1  14    7.05    4.90
   0  -1 -13   52.98   13.73
   0   1  13   63.65   12.14
   0   1  13   56.91   12.22
   0  -1 -12   47.10   11.09
   0   1  12   33.66    6.66
   0   1  12   36.85    8.25
   0  -1 -11  172.05   19.21
   0   1  11  183.43   14.33
   0   1  11  221.72   32.46
   0  -1 -10  944.14   59.55
   0   1  10  863.47   37.09
   0   1  10  771.14   41.26
   0  -1  -9  596.90   23.80
   0   1   9  582.28   23.18
   0   1   9  578.79   23.09
   0  -1  -8   17.22    4.44
   0   1   8   -3.02    3.62
   0   1   8   11.11    3.62
   0  -1  -7  560.82   27.64
   0   1   7  568.63   27.95
   0   1   7  565.79   27.42
   0  -1  -6  144.09    8.87
   0   1   6  134.49    8.19
   0   1   6  115.21    7.54
   0  -1  -5   89.78    6.97
   0   1   5   68.91    5.55
   0  -1  -5   77.43    5.21
   0   1   5   78.03    6.30
   0  -1  -4 2468.89   47.30
   0  -1  -4 2345.61   43.86
   0  -1  -4 2438.76   45.95
   0  -1  -3  292.54   10.21
   0   1   3  276.03    9.23
   0   1   3  283.26    8.81
   0  -1  -3  275.79    8.21
   0   1   3  274.72    9.27
   0  -1  -2 1363.55   27.89
   0   1   2 1349.27   26.02
   0   1   2 1323.53   25.73
   0   1   2 1363.46   27.38
   0  -1  -1   76.94    7.05
   0   1   1   80.73    4.93
   0  -1  -1   90.23   10.94
   0   1   1   87.79    9.16
   0   1   1   76.41    5.12
   0  -1   0    8.92    4.17
   0   1   0    5.28    3.68
   0  -1   0    3.79    1.62
   0  -1   0    8.79    3.31
   0  -1   1   71.13    5.88
   0   1  -1   75.61    5.04
   0  -1   1   73.41    4.84
   0  -1   1   79.13    4.55
   0  -1   2 1307.16   25.54
   0   1  -2 1266.98   24.43
   0  -1   2 1322.35   26.40
   0   1  -2 1274.41   25.25
   0   1  -2 1331.38   26.40
   0  -1   2 1313.81   25.78
   0  -1   3  287.19    8.52
   0   1  -3  277.60    7.92
   0  -1   3  284.90    9.45
   0   1  -3  263.16    8.67
   0  -1   3  270.37    8.25
   0  -1   4 2531.23   46.66
   0  -1   4 2454.45   47.19
   0   1  -4 2415.47   45.08
   0   1  -4 2541.30   47.81
   0  -1   5   86.90    9.34
   0  -1   5   94.00    5.66
   0  -1   5   90.14    6.86
   0   1  -5   94.38    7.37
   0   1  -5   99.61    6.68
   0  -1   6  101.28   10.23
   0  -1   6  141.23    7.52
   0  -1   6  152.21   10.56
   0   1  -6  144.14    8.16
   0  -1   7  458.41   27.49
   0  -1   7  518.27   24.32
   0  -1   7  546.38   27.53
   0   1  -7  502.45   24.45
   0  -1   8   11.67    5.19
   0   1  -8   25.69    4.66
   0  -1   9  515.67   19.30
   0  -1   9  610.45   25.07
   0   1  -9  549.66   21.21
   0  -1  10  816.66   33.43
   0  -1  10  905.05   39.29
   0   1 -10  843.40   35.21
   0  -1  11  196.23   13.09
   0  -1  11  178.28   14.78
   0   1 -11  166.72   12.20
   0  -1  12   32.04    6.30
   0  -1  12   51.54   10.03
   0   1 -12   43.39    8.65
   0  -1  13   57.50   10.45
   0   1 -13   44.28    9.32
   0  -1  14   31.41   10.80
   0  -1  15  258.35   60.63
  -1   1  15   14.09    6.66
  -1   1  15   11.05    4.48
   1  -1 -14   38.25   13.24
  -1   1  14   13.09    5.61
  -1   1  14   19.90    7.41
   1  -1 -13  127.77   20.61
  -1   1  13  138.04   13.64
  -1   1  13  113.43   17.39
   1  -1 -12   39.53    8.52
  -1   1  12   47.68   10.23
  -1   1  12   43.73   11.27
   1  -1 -11   40.69    9.67
  -1   1  11    9.34    4.75
  -1   1  11   25.03    6.26
   1  -1 -10 1030.33   48.63
  -1   1  10  947.29   45.19
  -1   1  10  913.66   47.59
   1  -1  -9   50.69    7.92
  -1   1   9   28.89    5.41
  -1   1   9   38.76    6.83
   1  -1  -8  315.41   15.95
  -1   1   8  328.30   16.44
  -1   1   8  316.50   16.31
   1  -1  -7  193.88   11.29
  -1   1   7  166.23    9.94
  -1   1   7  164.55    9.69
   1  -1  -6  586.69   22.30
  -1   1   6  602.55   22.36
   1  -1  -5   34.21    5.19
  -1   1   5   34.56    4.75
  -1   1   5   30.70    4.30
   1  -1  -5   30.06    3.46
  -1   1   5   35.96    4.99
  -1   1   4  338.59   10.03
  -1   1   4  338.41    9.65
   1  -1  -4  333.33    8.87
  -1   1   4  350.59   11.45
   1  -1  -4  321.02   10.01
   1  -1  -3   72.28    6.63
  -1   1   3   82.53    4.57
   1  -1  -3   77.45    3.97
  -1   1   3   86.41    6.01
   1  -1  -3   87.50    6.63
   1  -1  -2 1876.17   36.27
  -1   1   2 1985.25   36.74
  -1   1   2 1880.09   34.12
  -1   1   2 1866.89   36.07
   1  -1  -2 1846.06   35.07
   1  -1  -1 3118.36   56.75
  -1   1   1 3127.13   56.75
   1  -1  -1 3183.32   56.13
  -1   1   1 3199.92   56.93
  -1   1   1 3110.56   56.62
   1  -1  -1 3002.67   54.40
   1  -1   0 9588.15  301.54
  -1   1   0 9165.01  158.67
  -1   1   0 9309.26  160.13
  -1   1   0 9340.01  161.64
   1  -1   0 9462.94  163.51
   1  -1   1  840.40   18.33
  -1   1  -1  823.45   17.62
  -1   1  -1  816.02   16.91
   1  -1   2   94.91    5.41
   1  -1   2   93.56    5.95
  -1   1  -2  102.45    5.30
  -1   1  -2  102.07    5.59
   1  -1   2  102.12    5.35
   1  -1   3  805.90   18.10
  -1   1  -3  813.40   17.64
   1  -1   3  812.82   18.81
  -1   1  -3  790.37   17.81
  -1   1  -3  829.91   18.13
   1  -1   3  799.54   17.06
   1  -1   4  250.03   15.55
   1  -1   4  237.43   10.63
   1  -1   4  250.83   12.40
  -1   1  -4  252.27   18.46
  -1   1  -4  245.26   10.45
   1  -1   5  131.82   16.22
   1  -1   5  124.97    7.34
   1  -1   5  145.76    8.90
  -1   1  -5  150.88   11.27
  -1   1  -5  146.91    7.94
   1  -1   6  441.69   17.79
   1  -1   6  434.96   19.21
  -1   1  -6  428.66   17.08
   1  -1   7   59.74    7.63
   1  -1   7   50.34    6.86
  -1   1  -7   47.12    5.39
   1  -1   8   16.73    5.21
   1  -1   8   11.78    5.21
  -1   1  -8    9.76    3.15
   1  -1   9  812.87   38.42
   1  -1   9  844.42   41.58
  -1   1  -9  803.13   37.87
   1  -1  10   91.54    9.30
   1  -1  10   59.35    8.59
  -1   1 -10   71.15    7.70
   1  -1  11  220.97   15.49
   1  -1  11  197.09   16.02
  -1   1 -11  211.80   13.98
   1  -1  12   16.13    4.64
  -1   1 -12   35.43    6.57
   1  -1  13   67.55    8.41
   1  -1  13   61.01   15.40
  -1   1 -13   69.15    8.41
   1  -1  14   32.12   11.67
  -2   1  16  101.08   18.61
  -2   1  16   84.17   19.41
  -2   1  15   20.63    8.59
  -2   1  15   16.35    6.08
   2  -1 -14  387.09   43.73
  -2   1  14  424.16   28.44
  -2   1  14  326.81   50.74
   2  -1 -13   13.16    5.32
  -2   1  13    2.35    3.64
  -2   1  13   32.61    7.57
   2  -1 -12  235.05   28.20
  -2   1  12  242.04   16.35
  -2   1  12  214.89   32.99
   2  -1 -11   67.11    8.05
  -2   1  11   90.23    9.52
  -2   1  11   86.66   13.89
   2  -1 -10   22.47    5.08
  -2   1  10   19.01    6.17
  -2   1  10   17.04    4.95
   2  -1  -9  310.33   15.29
  -2   1   9  297.24   15.04
  -2   1   9  269.77   14.78
   2  -1  -8  668.04   31.57
  -2   1   8  718.12   33.59
  -2   1   8  703.25   34.08
   2  -1  -7  147.35    9.05
  -2   1   7  148.60    8.65
  -2   1   7  183.94   10.92
   2  -1  -6 1091.72   37.43
  -2   1   6 1061.03   36.12
  -2   1   6 1170.83   39.33
  -2   1   6 1121.02   39.18
   2  -1  -5  607.34   22.27
  -2   1   5  546.16   19.97
  -2   1   5  576.75   20.28
   2  -1  -5  571.72   19.81
  -2   1   5  556.14   21.10
   2  -1  -4   22.10    4.53
  -2   1   4    6.10    3.06
  -2   1   4    5.57    2.48
   2  -1  -4    9.23    1.93
  -2   1   4    5.04    2.95
   2  -1  -4   13.89    4.26
  -2   1   1   -1.84    1.06
  -2   1   0 2765.75   50.65
   2  -1   0 2883.42   51.25
  -2   1   0 2770.68   49.16
  -2   1   0 2874.99   52.09
   2  -1   0 2802.31   50.58
  -2   1  -1  492.05   12.38
   2  -1   1  507.33   12.40
  -2   1  -1  482.35   11.27
  -2   1  -1  503.72   12.22
   2  -1   1  476.50   11.14
   2  -1   2    9.94    6.01
  -2   1  -2    3.93    3.22
   2  -1   2    2.04    3.93
  -2   1  -2    0.40    3.11
  -2   1  -2    2.00    2.35
   2  -1   2    8.61    3.02
   2  -1   3  672.84   23.96
   2  -1   3  727.03   25.96
  -2   1  -3  708.66   25.14
  -2   1  -3  709.77   24.40
   2  -1   3  712.35   24.18
   2  -1   4  139.72    8.12
  -2   1  -4  131.40    9.10
  -2   1  -4  109.97    6.01
   2  -1   5 1096.40   39.56
   2  -1   5 1014.71   37.52
  -2   1  -5  998.40   36.52
  -2   1  -5 1060.88   37.20
   2  -1   6   15.69    3.77
   2  -1   6   15.93    3.99
  -2   1  -6   18.06    2.15
  -2   1  -6   14.58    3.13
   2  -1   7  587.20   25.54
   2  -1   7  598.74   27.22
  -2   1  -7  594.79   24.78
   2  -1   8   14.82    5.97
  -2   1  -8    5.19    2.66
   2  -1   9   15.33    4.41
   2  -1   9   16.24    7.81
  -2   1  -9   33.17    5.28
   2  -1  10   80.80   10.80
   2  -1  10  100.32   13.80
  -2   1 -10   56.79    8.36
   2  -1  11  203.26   11.69
   2  -1  11  230.95   15.15
  -2   1 -11  222.59   11.51
   2  -1  12   25.27    6.21
   2  -1  12   13.13    5.50
  -2   1 -12   14.27    4.39
   2  -1  13  143.34   15.26
   2  -1  13  145.40   16.20
   2  -1  14   73.77   17.66
  -3   1  16   10.27    7.08
  -3   1  16    3.28    4.35
  -3   1  15   42.06   12.56
  -3   1  15   63.94   16.04
   3  -1 -14  120.38   22.94
  -3   1  14  123.66   13.24
  -3   1  14  134.22   16.57
   3  -1 -13   24.20    7.81
  -3   1  13   45.92    9.05
  -3   1  13   55.60   10.36
   3  -1 -12   48.14    7.52
  -3   1  12   47.88    7.81
  -3   1  12   54.46   10.03
   3  -1 -11  397.21   18.70
  -3   1  11  416.95   20.65
  -3   1  11  456.15   32.88
   3  -1 -10  692.20   33.37
  -3   1  10  692.09   33.77
  -3   1  10  656.24   53.31
   3  -1  -9  533.56   23.63
  -3   1   9  600.69   26.11
  -3   1   9  590.75   27.33
   3  -1  -8   16.22    3.95
  -3   1   8   31.21    4.57
  -3   1   8   34.81    5.77
   3  -1  -7 1041.18   37.40
  -3   1   7 1085.50   38.31
   3  -1  -7 1033.95   36.23
  -3   1   7 1033.61   38.42
   3  -1  -6   84.79    6.74
  -3   1   6   72.15    6.23
  -3   1   6   71.57    5.72
   3  -1  -6   59.97    4.15
  -3   1   6   63.18    6.66
   3  -1  -5  347.84   14.31
  -3   1   5  349.26   13.82
  -3   1   5  349.68   12.69
   3  -1  -5  333.96   12.00
   3  -1  -4   68.13    5.79
  -3   1   4   69.08    5.19
  -3   1   4   69.28    3.62
   3  -1  -4   61.94    3.24
   3  -1  -4   74.96    5.39
  -3   1   3  648.48   15.31
  -3   1   3  626.42   11.58
  -3   1   3  622.65   11.36
  -3   1   3  589.42   15.37
   3  -1  -3  609.19   14.91
   3  -1  -2  185.20    8.08
   3  -1  -2  204.79    6.19
  -3   1   2  192.79    4.06
  -3   1   2  193.21    7.57
   3  -1  -2  200.18    7.05
   3  -1   0  171.05    7.81
  -3   1   0  158.51    6.63
   3  -1   0  198.14    6.68
  -3   1   0  177.97    5.46
  -3   1   0  198.74    7.39
   3  -1   0  171.38    5.77
   3  -1   1  944.03   21.74
  -3   1  -1  928.45   20.50
   3  -1   1  933.53   20.03
  -3   1  -1  914.99   19.08
  -3   1  -1  933.76   19.10
   3  -1   1  915.74   18.46
   3  -1   2  663.01   24.36
   3  -1   2  695.69   24.71
  -3   1  -2  661.65   23.36
  -3   1  -2  688.19   23.27
   3  -1   2  679.56   22.87
   3  -1   3  241.29   11.78
   3  -1   3  216.33   10.32
  -3   1  -3  211.91    8.85
   3  -1   3  227.47    8.94
   3  -1   4  645.81   25.27
   3  -1   4  615.69   24.27
  -3   1  -4  659.13   34.68
  -3   1  -4  677.65   24.23
   3  -1   5  721.73   34.23
   3  -1   5  731.58   35.01
  -3   1  -5  614.84   36.85
  -3   1  -5  757.56   34.05
   3  -1   6   83.15    8.30
   3  -1   6   55.91    6.50
  -3   1  -6   45.55    5.44
  -3   1  -6   63.47    5.15
   3  -1   7  121.86   12.76
   3  -1   7  154.83   10.34
  -3   1  -7   71.15   11.29
  -3   1  -7  120.02   11.60
   3  -1   8   91.23   10.32
   3  -1   8   76.18   10.80
  -3   1  -8  100.46    9.36
   3  -1   9  253.31   15.31
   3  -1   9  243.37   16.57
  -3   1  -9  234.74   12.93
   3  -1  10  485.46   59.19
   3  -1  10  432.57   27.40
  -3   1 -10  452.18   25.51
   3  -1  11    0.69    3.75
   3  -1  11   25.03    7.63
   3  -1  12  214.95   24.05
   3  -1  12  252.45   25.11
   3  -1  13   10.01    7.01
   3  -1  13   37.29   12.96
  -4   1  16   24.76    8.74
  -4   1  16   74.90   19.37
  -4   1  15  150.31   18.01
  -4   1  15  144.00   30.99
  -4   1  14   11.51    6.50
  -4   1  14   20.54    6.54
   4  -1 -13  309.02   14.02
  -4   1  13  306.82   15.13
  -4   1  13  355.45   29.77
   4  -1 -12   68.77    9.25
  -4   1  12   54.66    8.54
  -4   1  12   63.76   13.33
   4  -1 -11  552.50   24.32
  -4   1  11  513.92   23.25
  -4   1  11  475.19   48.10
   4  -1 -10   24.63    5.08
  -4   1  10   24.47    6.12
  -4   1  10   14.51    6.39
   4  -1  -9   31.61    5.24
  -4   1   9   40.87    5.21
  -4   1   9   26.38    7.61
   4  -1  -8   48.43    4.90
  -4   1   8   36.23    4.33
   4  -1  -8   29.99    3.31
  -4   1   8   57.06    8.50
   4  -1  -7  731.98   33.68
  -4   1   7  655.26   30.08
  -4   1   7  783.27   35.19
   4  -1  -7  691.16   30.97
  -4   1   7  763.68   36.65
   4  -1  -6  145.34    8.19
  -4   1   6  143.47    7.37
  -4   1   6  150.90    6.72
   4  -1  -6  124.66    5.77
  -4   1   6  154.83    9.78
  -4   1   5 2349.80   75.96
  -4   1   5 2387.80   75.56
   4  -1  -5 2358.70   74.59
   4  -1  -4  231.50   10.94
  -4   1   4  210.49    9.63
  -4   1   4  185.87    9.94
   4  -1  -3  176.55    8.92
  -4   1   3  161.71    8.08
  -4   1   3  177.39    8.85
   4  -1  -3  169.81    8.21
   4  -1  -2  205.10   10.23
  -4   1   2  198.65    9.16
   4  -1  -2  208.52    6.97
  -4   1   2  191.26    6.37
  -4   1   2  196.38   10.05
   4  -1  -2  196.27    8.79
  -4   1   1    2.97    0.95
   4  -1   0  775.53   27.93
   4  -1   0  722.97   24.54
  -4   1   0  706.58   23.83
  -4   1   0  742.61   25.31
   4  -1   0  694.09   23.58
   4  -1   1  900.21   30.68
  -4   1  -1  866.09   29.33
  -4   1  -1  927.68   30.75
   4  -1   1  848.92   28.11
   4  -1   2  276.27   12.98
   4  -1   2  322.35   13.75
  -4   1  -2  338.13   13.69
  -4   1  -2  323.11   11.87
   4  -1   2  311.13   11.29
   4  -1   3  669.57   26.44
   4  -1   3  698.61   26.58
  -4   1  -3  702.79   24.65
  -4   1  -4   19.99    3.04
  -4   1  -5    0.98    0.87
  -4   1  -6    3.57    1.20
  -4   1  -7    0.82    1.09
   4  -1   8  278.00   17.33
   4  -1   8  322.40   19.41
  -4   1  -8  276.72   13.95
   4  -1   9   42.97    9.12
   4  -1   9   84.70   15.88
  -4   1  -9   42.95    7.25
   4  -1  10   20.85    6.72
   4  -1  10   15.51    5.99
   4  -1  11   28.06    8.61
   4  -1  11   21.81    8.08
   4  -1  12   59.83   10.52
   4  -1  12  127.92   18.30
   4  -1  13   13.69    6.74
   4  -1  13    9.47    5.72
  -5   1  16   18.17    7.45
  -5   1  16   33.06   11.25
  -5   1  15   11.40    6.34
  -5   1  15   29.00    9.83
  -5   1  14    4.50    4.88
  -5   1  14    0.80    5.30
   5  -1 -13  154.56    9.07
  -5   1  13  135.06   10.14
  -5   1  13  123.66   17.50
   5  -1 -12  283.22   17.08
  -5   1  12  251.89   16.00
  -5   1  12  283.86   31.90
  -5   1  11  225.98   12.45
  -5   1  11  263.81   34.74
   5  -1 -10  171.12   10.85
  -5   1  10  146.20   17.66
  -5   1  10  187.20   28.86
   5  -1  -9  118.00   12.05
  -5   1   9  121.40   12.14
  -5   1   9  119.53   20.94
   5  -1  -8  691.89   28.60
  -5   1   8  732.18   29.44
   5  -1  -8  592.37   23.89
  -5   1   8  672.06   29.68
   5  -1  -7  150.59    9.25
  -5   1   7  126.61    7.05
   5  -1  -7  135.77    7.19
   5  -1  -6  970.25   34.96
  -5   1   6  956.05   32.48
  -5   1   6  948.42   35.32
   5  -1  -5  482.00   19.17
  -5   1   5  454.89   15.51
   5  -1  -5  416.53   13.93
  -5   1   5  413.76   17.81
   5  -1  -4  142.96    8.19
  -5   1   4  126.61    9.21
   5  -1  -3  109.42    7.01
  -5   1   3  104.14    6.41
   5  -1  -3   95.42    6.19
   5  -1  -2  320.53   10.92
  -5   1   2  321.95   10.85
  -5   1   2  349.31   14.35
   5  -1   0 1476.92   50.32
   5  -1   0 1446.81   47.30
  -5   1   0 1402.29   47.94
  -5   1   0 1440.07   46.92
   5  -1   0 1384.34   44.97
   5  -1   1  158.27    9.94
   5  -1   1  166.63    8.61
  -5   1  -1  155.85    7.85
  -5   1  -1  151.86    6.70
   5  -1   1  149.99    6.41
   5  -1   2  943.65   43.90
   5  -1   2  867.29   39.71
  -5   1  -2  936.95   32.06
   5  -1   2  891.89   38.89
   5  -1   3  308.64   16.84
  -5   1  -3  272.48   18.75
  -5   1  -3  337.22   15.26
   5  -1   4   42.37    7.28
   5  -1   4   31.66    4.66
  -5   1  -4   28.15    2.82
  -5   1  -4   32.15    2.53
   5  -1   5   48.43    7.99
   5  -1   5   57.17    8.54
  -5   1  -5   44.88    4.46
  -5   1  -5   55.29    5.44
   5  -1   6  278.65   16.20
   5  -1   6  283.39   16.28
  -5   1  -6  261.94   10.92
   5  -1   7  340.37   20.10
   5  -1   7  308.58   18.59
  -5   1  -7  316.14   14.86
   5  -1   8  175.42   14.11
   5  -1   8  153.39   13.33
   5  -1   9   71.17    9.10
   5  -1   9   92.11   10.29
   5  -1  10   70.11   10.47
   5  -1  10   94.27   11.09
   5  -1  11  106.40   14.02
   5  -1  11  151.75   17.66
   5  -1  12   30.79    9.47
   5  -1  12   13.11    6.41
  -6   1  16   19.77    7.19
  -6   1  16   13.73    7.74
  -6   1  15  211.76   20.19
  -6   1  15  153.54   29.55
  -6   1  14  152.06   14.27
  -6   1  14  117.56   18.41
  -6   1  13   60.21    9.89
  -6   1  13   59.30   15.55
   6  -1 -12   34.76    5.83
  -6   1  12   28.86    5.77
  -6   1  12   61.41   13.36
   6  -1 -11  245.86   13.58
  -6   1  11  270.02   14.86
  -6   1  11  271.66   39.09
   6  -1 -10  605.64   25.45
  -6   1  10  620.06   25.62
  -6   1  10  561.64   52.05
   6  -1  -9  176.26    9.34
  -6   1   9  148.02   17.26
   6  -1  -9  136.06   12.76
  -6   1   9  184.12   23.21
   6  -1  -8  204.39   10.78
  -6   1   8  203.33    9.38
   6  -1  -8  189.46    8.76
  -6   1   8  195.70   25.93
   6  -1  -7   43.48    4.97
  -6   1   7   41.00    3.00
   6  -1  -7   28.09    2.29
  -6   1   7   43.26    6.26
   6  -1  -6 1292.65   57.75
  -6   1   6 1088.52   46.79
   6  -1  -6 1253.96   53.82
  -6   1   6 1276.28   57.84
   6  -1  -5   23.89    5.06
  -6   1   5   21.79    4.79
   6  -1  -4  423.05   17.55
  -6   1   4  452.78   18.68
   6  -1  -3   20.81    4.90
   6  -1  -3   22.47    1.42
   6  -1  -3   21.56    1.44
  -6   1   3   23.34    3.82
   6  -1  -2  503.43   20.74
   6  -1  -2  512.77   17.97
   6  -1  -2  538.73   18.99
  -6   1   2  540.81   20.63
   6  -1  -2  525.86   19.63
   6  -1  -1  248.16   12.67
   6  -1  -1  235.90    9.89
  -6   1   1  210.54    8.54
  -6   1   1  218.10    9.63
   6  -1  -1  210.34    8.99
   6  -1   0  123.99   10.49
   6  -1   0  110.97    7.05
  -6   1   0  110.24    7.10
  -6   1   0   98.48    5.97
   6  -1   0  103.27    5.79
   6  -1   1  208.41   12.73
   6  -1   1  174.07   10.21
  -6   1  -1  197.21    9.65
   6  -1   1  198.05    9.50
   6  -1   2  214.49   12.69
   6  -1   2  199.58   11.00
   6  -1   2  190.90    7.94
   6  -1   3  162.71   11.40
   6  -1   3  147.22    9.27
   6  -1   4  820.68   31.19
   6  -1   4  757.89   28.29
   6  -1   5   69.75    8.99
   6  -1   5   56.53    8.76
   6  -1   6  119.27   11.76
   6  -1   6  116.74   11.05
   6  -1   7  264.03   18.46
   6  -1   7  228.49   16.55
   6  -1   8   26.64    7.81
   6  -1   8    1.91    4.84
   6  -1   9  211.34   16.79
   6  -1   9  212.38   19.41
   6  -1  10   56.02   10.60
   6  -1  10   55.82   16.57
   6  -1  11    5.35    4.90
   6  -1  11    5.59    5.92
  -7   1  16  149.17   43.08
  -7   1  15   25.69   10.16
  -7   1  14    9.14    4.13
  -7   1  14   11.47    7.59
  -7   1  13   58.41    9.94
   7  -1 -12  107.15    8.67
  -7   1  12  110.35    8.63
  -7   1  12   92.78   22.54
   7  -1 -11    2.80    2.91
  -7   1  11    5.72    2.60
  -7   1  11   16.71    6.37
   7  -1 -10  651.38   27.13
  -7   1  10  697.08   27.95
  -7   1  10  631.08   28.95
   7  -1  -9   15.62    3.88
  -7   1   9   25.18    4.19
  -7   1   9   31.46    5.48
   7  -1  -8  251.47   11.54
  -7   1   8  282.82   15.22
   7  -1  -8  274.45    9.78
  -7   1   8  263.14   43.44
   7  -1  -7  290.61   14.20
  -7   1   7  315.83   15.60
   7  -1  -7  298.84   11.82
  -7   1   7  284.66   22.65
   7  -1  -6   91.00    7.92
  -7   1   6   97.77   15.04
   7  -1  -5  483.46   23.98
  -7   1   5  474.37   24.34
   7  -1  -4  341.65   18.33
   7  -1  -4  329.96   14.24
  -7   1   4  335.09   17.50
   7  -1  -3  102.54    8.47
   7  -1  -3   84.48    7.79
   7  -1  -3   91.07    4.95
  -7   1   3  100.90    7.70
   7  -1  -2  149.13   10.16
   7  -1  -2  136.53   13.64
   7  -1  -2  195.25    9.94
  -7   1   2  192.77   10.63
   7  -1  -2  155.32    8.65
   7  -1  -1  122.82    9.18
   7  -1  -1  115.41    6.66
  -7   1   1   97.81    5.59
  -7   1   1  103.78    6.37
   7  -1  -1   89.54    5.19
   7  -1   0  272.88   15.06
   7  -1   0  267.00   12.93
  -7   1   0  226.82   10.69
  -7   1   0  271.95   11.71
   7  -1   0  250.69   10.74
   7  -1   1  663.78   29.93
   7  -1   1  608.25   25.85
  -7   1  -1  629.55   26.64
   7  -1   1  574.67   22.25
   7  -1   2  206.88   12.51
   7  -1   2  173.87    9.45
   7  -1   3 1007.39   48.30
   7  -1   3 1020.46   47.92
   7  -1   4  192.39   12.22
   7  -1   5   33.50    7.57
   7  -1   5    3.66    4.61
   7  -1   6  141.87   13.73
   7  -1   6  139.81   13.00
   7  -1   7  114.94   12.31
   7  -1   7   98.10   10.87
   7  -1   8   44.95   12.98
   7  -1   8   50.09   13.56
   7  -1   9  246.01   25.93
   7  -1   9  195.03   22.10
   7  -1  10   21.43    9.10
   7  -1  10   25.07    9.47
  -8   1  16   88.16   22.56
  -8   1  15   29.64    9.74
  -8   1  14  279.05   38.67
  -8   1  13   95.42   14.11
  -8   1  12   68.40    9.52
   8  -1 -11  176.42   11.51
  -8   1  11  164.35   10.14
  -8   1  11  168.87   17.48
   8  -1 -10   47.12    6.68
  -8   1  10   32.06    4.61
  -8   1  10   54.53    9.36
   8  -1  -9  204.95   10.98
  -8   1   9  133.82   15.66
  -8   1   9  159.38   22.65
   8  -1  -8   54.80    7.92
  -8   1   8   45.10    7.10
   8  -1  -8   48.14    5.77
  -8   1   8   81.13   14.75
   8  -1  -7  219.52   11.65
  -8   1   7  242.60   24.12
   8  -1  -6  697.99   25.56
  -8   1   6  688.72   35.72
   8  -1  -5  491.20   20.01
   8  -1  -4   59.06    7.48
   8  -1  -4   61.61    3.26
   8  -1  -4   70.64    3.55
  -8   1   4   74.99    9.85
   8  -1  -3  471.55   22.10
   8  -1  -3  401.89   20.61
  -8   1   3  486.12   21.70
   8  -1  -2   24.87    6.28
   8  -1  -2   10.94    2.82
   8  -1  -2   12.73    2.62
  -8   1   2   25.49    6.12
   8  -1  -2   12.65    2.80
   8  -1  -1  507.16   21.28
   8  -1  -1  484.64   17.64
  -8   1   1  431.66   15.66
  -8   1   1  498.90   26.36
   8  -1  -1  425.05   14.98
   8  -1   0   39.53    7.68
   8  -1   0   29.22    5.06
  -8   1   0   23.01    4.06
   8  -1   0   19.23    2.57
   8  -1   1    5.32    5.46
   8  -1   1    8.63    4.44
  -8   1  -1    1.46    0.91
   8  -1   2  130.87   14.04
   8  -1   2  128.79   12.40
   8  -1   3  193.86   14.27
   8  -1   3  217.13   13.60
   8  -1   4  144.56   13.75
   8  -1   4  126.81   19.97
   8  -1   5  178.68   13.11
   8  -1   5  162.37   11.67
   8  -1   6  140.08   17.48
   8  -1   6  173.29   15.75
   8  -1   7   23.72    8.67
   8  -1   7   13.11    5.88
   8  -1   8   87.92   11.91
   8  -1   8  124.55   16.95
   8  -1   9   19.32    8.43
   8  -1   9    8.59    5.37
  -9   1  16   55.57   15.62
  -9   1  15   83.31   23.34
  -9   1  13   34.23    9.85
  -9   1  12   20.26    7.14
   9  -1 -11  232.24   14.84
  -9   1  11  262.81   39.27
   9  -1 -10   98.61   12.02
  -9   1  10   72.52   13.09
   9  -1  -9  502.61   24.76
  -9   1   9  536.17   54.82
   9  -1  -8   48.90    6.77
  -9   1   8   65.09   10.87
   9  -1  -7  446.19   20.43
  -9   1   7  451.25   21.43
   9  -1  -6   52.91    8.12
  -9   1   6   46.39    9.58
   9  -1  -5  158.94   19.66
   9  -1  -5  122.60   13.80
   9  -1  -5  132.05   14.84
  -9   1   5  156.98   24.12
   9  -1  -4  379.06   20.65
   9  -1  -4  330.74   15.37
   9  -1  -4  367.14   16.95
  -9   1   4  395.30   34.56
   9  -1  -3  591.33   30.55
   9  -1  -3  554.32   25.51
  -9   1   3  597.69   29.64
   9  -1  -2   99.88   13.93
   9  -1  -2   50.58   10.36
   9  -1  -2  110.37   13.29
  -9   1   2   99.61   15.53
   9  -1  -2   75.08    9.21
   9  -1  -1  324.77   17.84
   9  -1  -1  361.62   16.35
  -9   1   1  337.77   18.46
   9  -1   0   11.27    5.44
   9  -1   0   30.70    5.10
  -9   1   0    8.79    2.20
   9  -1   1   50.60    8.54
   9  -1   1   25.73    5.21
   9  -1   2  330.76   21.92
   9  -1   2  365.06   21.25
   9  -1   3  322.69   22.27
   9  -1   3  299.99   19.28
   9  -1   4  220.59   14.27
   9  -1   4  228.13   14.11
   9  -1   5  106.31   12.18
   9  -1   6   46.15   13.36
   9  -1   6   49.87   13.11
   9  -1   7   19.79    7.57
   9  -1   7   40.62   10.87
   9  -1   8   88.28   17.73
   9  -1   8   45.37   11.38
 -10   1  15  150.99   37.80
 -10   1  14   18.84    6.74
 -10   1  13  231.33   42.40
 -10   1  12   13.58    4.28
 -10   1  11  109.46   20.85
  10  -1 -10   74.08    7.52
 -10   1  10   82.86   12.76
  10  -1  -9   34.94    7.85
 -10   1   9   12.45    9.16
  10  -1  -8  111.48   13.58
 -10   1   8  135.55   28.77
  10  -1  -7  191.61   13.64
 -10   1   7  148.26   22.23
  10  -1  -6   26.29    5.52
 -10   1   6   17.46    4.22
  10  -1  -5  147.82   11.09
 -10   1   5  140.08   14.98
  10  -1  -4  365.13   20.74
  10  -1  -4  330.32   15.66
 -10   1   4  337.08   24.98
  10  -1  -3   17.02    5.46
  10  -1  -3   20.10    3.04
 -10   1   3   25.07    5.99
  10  -1  -2  332.58   20.23
  10  -1  -2  336.73   16.88
 -10   1   2  265.54   19.15
  10  -1  -1   60.52   10.36
  10  -1  -1   48.67    6.83
  10  -1   0   95.84   16.46
  10  -1   0  113.37    9.25
  10  -1   1   21.79    7.72
  10  -1   1   15.29    5.52
  10  -1   2   33.19    9.56
  10  -1   2   13.64    5.06
  10  -1   3   51.16   10.60
  10  -1   3   41.24    9.16
  10  -1   4  214.98   18.37
  10  -1   4  192.32   15.26
  10  -1   5   51.05   11.82
  10  -1   5   59.15   10.80
  10  -1   6  186.67   36.10
  10  -1   6  197.89   37.52
 -11   1  14  203.26   49.41
 -11   1  13   68.89   15.77
 -11   1  12   73.81   14.66
 -11   1  11  166.26   30.70
  11  -1 -10   53.20    6.30
 -11   1  10   53.00   12.05
  11  -1  -9    7.03    5.32
 -11   1   9    7.39    4.50
  11  -1  -8  352.19   15.62
 -11   1   8  334.89   35.98
  11  -1  -7  182.07   13.64
 -11   1   7  161.49   21.45
  11  -1  -6  455.20   27.33
 -11   1   6  406.12   45.72
  11  -1  -5  127.54   12.25
 -11   1   5   81.82   17.06
  11  -1  -4  130.23   12.38
 -11   1   4   68.80   15.06
  11  -1  -3   57.48   11.49
 -11   1   3   45.46   10.27
  11  -1  -2  168.63   14.35
  11  -1  -2  120.62    8.72
  11  -1  -1   18.37    9.27
  11  -1  -1   14.18    4.30
  11  -1   0  254.29   21.41
  11  -1   0  214.69   16.17
  11  -1   1  105.47   12.53
  11  -1   1  113.43   11.49
  11  -1   2  127.03   14.80
  11  -1   2  112.97   11.34
  11  -1   3  213.51   22.52
  11  -1   3  256.53   23.92
  11  -1   4    9.45    6.39
  11  -1   4   14.38    5.21
  11  -1   5  111.08   20.81
  11  -1   5  103.83   19.03
 -12   1  14   83.06   29.40
 -12   1  13   28.84   10.16
 -12   1  12  122.53   26.89
 -12   1  11    9.03    4.59
 -12   1  10    5.26    3.13
  12  -1  -9   33.21    8.85
 -12   1   9   47.10   12.98
 -12   1   8   43.88    9.41
  12  -1  -7   39.84    8.76
 -12   1   7   22.10    9.21
  12  -1  -6  421.88   29.86
 -12   1   6  353.19   24.51
  12  -1  -5  100.79   11.58
 -12   1   5   73.81   12.02
  12  -1  -4  170.94   15.97
  12  -1  -3   87.59   10.74
  12  -1  -2   63.61   13.27
  12  -1  -1  130.58   12.82
  12  -1   0   11.85    6.23
  12  -1   1    8.56    5.72
  12  -1   2    9.12    6.19
  12  -1   2    1.80    3.84
  12  -1   3   10.16    6.03
  12  -1   3   30.57    9.78
 -13   1  12   62.92   17.77
 -13   1  10  120.71   22.67
  13  -1  -9   14.82    5.24
 -13   1   9   28.84    7.19
  13  -1  -8   23.07    8.43
 -13   1   8    6.26    5.24
 -13   1   7  110.59   20.54
  13  -1  -6   32.46    9.65
  13  -1  -5  357.03   32.06
  13  -1  -4  116.65   13.49
  13  -1  -3   24.54    7.65
  13  -1  -2   12.27    7.68
  13  -1  -1   51.94   12.29
  13  -1   0   64.23   15.88
  13  -1   1  162.29   28.57
 -14   1  10    8.81    6.54
 -14   1   9   15.62    5.90
  14  -1  -8   23.54    8.81
  14  -1  -7   10.27    5.95
  14  -1  -6    2.46    4.02
  14  -1  -5   47.52   11.80
  14  -1  -3  179.79   30.95
  14  -1  -2   15.13    9.96
 -13  -2   2   19.70    9.41
  13   2  -2   22.01    8.59
 -13  -2   3  158.98   52.18
  13   2  -3  264.12   61.50
 -13  -2   4   33.08   11.89
  13   2  -4   50.27   11.96
  13   2  -5   13.31    7.23
  13   2  -6  134.11   26.47
  13   2  -6   99.57   19.86
  13   2  -7   61.12   13.91
  13   2  -7  109.66   21.87
 -13  -2   8  147.98   28.64
  13   2  -8  170.80   32.50
 -13  -2   9   74.30   21.50
  13   2  -9   87.32   16.15
 -13  -2  10    7.72    4.88
  13   2 -10   22.81    9.34
 -12  -2  -1   24.18   13.16
  12   2   1   43.53   10.40
 -12  -2   0   28.80   11.87
  12   2   0   22.58    9.05
 -12  -2   1   23.03    7.92
  12   2  -1    8.63    6.39
 -12  -2   2  104.36   27.40
  12   2  -2  121.60   15.26
 -12  -2   3   96.73   26.96
  12   2  -3  144.74   15.51
 -12  -2   4   33.66   12.76
  12   2  -4   80.53   11.96
  12   2  -4   46.59   11.98
 -12  -2   5   65.14   17.66
  12   2  -5  137.66   15.57
  12   2  -5   99.48   11.82
  12   2  -6   26.47    8.41
  12   2  -6   49.65   12.87
 -12  -2   7  106.47   13.89
  12   2  -7   73.08   10.63
 -12  -2   8  155.59   38.67
  12   2  -8  238.07   22.87
 -12  -2   9   37.78    9.56
  12   2  -9   31.10    8.83
 -12  -2  10   88.01   30.73
  12   2 -10   79.11   16.84
 -12  -2  11   35.47   14.09
  12   2 -11   55.09   13.60
 -12  -2  12   23.96    9.25
  12   2 -12   14.33    7.96
 -11  -2  -3   45.01   15.57
  11   2   3   39.20   12.71
 -11  -2  -2  116.76   23.65
  11   2   2  179.28   20.52
 -11  -2  -1   88.56   27.33
  11   2   1  136.86   15.93
 -11  -2   0    7.90    5.41
  11   2   0    0.64    5.06
 -11  -2   1   23.69   10.89
  11   2  -1   56.71   14.20
 -11  -2   2   58.37   19.48
  11   2  -2   93.07   10.98
  11   2  -2   89.70    9.38
 -11  -2   3   36.25    9.98
  11   2  -3   60.79   11.71
  11   2  -3   58.37   10.63
 -11  -2   4  147.53   28.71
  11   2  -4  208.59   18.75
  11   2  -4  205.35   16.84
 -11  -2   5    3.86    2.88
  11   2  -5    2.26    4.55
  11   2  -5   27.91    6.74
 -11  -2   6  113.50   25.47
 -11  -2   6  168.16   15.71
  11   2  -6  128.05   12.82
 -11  -2   7   25.11    8.21
  11   2  -7   40.49    9.07
 -11  -2   8   10.78    6.86
  11   2  -8   48.32   11.60
 -11  -2   9   61.92   19.79
  11   2  -9   68.51    9.89
 -11  -2  10  224.76   41.80
  11   2 -10  272.21   26.18
 -11  -2  11   25.34    7.90
  11   2 -11   33.72    9.58
 -11  -2  12  102.30   28.24
  11   2 -12  143.38   29.04
 -11  -2  13   14.95    8.05
  11   2 -13   22.38    8.63
 -10  -2  -5   26.22    9.89
  10   2   5   46.19   11.78
 -10  -2  -4   46.83   20.26
  10   2   4   59.35   11.23
 -10  -2  -3   99.10   22.10
  10   2   3  117.83   14.66
 -10  -2  -2  356.85   60.08
  10   2   2  355.03   26.00
  10   2   1   26.40    7.32
 -10  -2   0  101.59   15.95
  10   2   0   97.04   11.09
  10   2   0  106.33    9.23
 -10  -2   1   76.56   13.02
  10   2  -1   93.73    8.99
  10   2  -1   76.96    6.77
 -10  -2   2   24.76    9.43
  10   2  -2   11.00    4.64
  10   2  -2   33.50    7.12
 -10  -2   3   14.71    5.61
  10   2  -3   17.93    7.59
  10   2  -3   23.25    6.48
 -10  -2   4   70.75   16.31
  10   2  -4  118.49   11.05
  10   2  -4   91.34   15.35
 -10  -2   5    8.52    4.93
 -10  -2   5    8.61    7.08
  10   2  -5   19.10    6.06
 -10  -2   6  107.82   23.65
 -10  -2   6  149.71   17.59
  10   2  -6  145.60   11.29
 -10  -2   7    8.16    2.40
 -10  -2   7   19.88    5.08
  10   2  -7   40.89    8.99
 -10  -2   8   63.52   14.27
  10   2  -8   60.06    8.47
 -10  -2   9  127.48   29.33
  10   2  -9  158.78   15.22
 -10  -2  10   30.06   12.45
  10   2 -10   26.56    8.32
 -10  -2  11  314.79   41.51
  10   2 -11  292.93   22.05
 -10  -2  12   63.96   14.66
  10   2 -12   63.21   12.38
 -10  -2  13   40.62   14.95
  10   2 -13   86.12   19.55
 -10  -2  14   21.56   10.34
  10   2 -14   58.66   13.91
  -9  -2  -6  131.96   36.56
   9   2   6  179.26   34.63
  -9  -2  -5   23.14    7.72
   9   2   5   38.03   10.83
  -9  -2  -4   66.11   19.72
   9   2   4   47.41   12.89
  -9  -2  -3  163.62   36.38
   9   2   3  308.84   25.29
  -9  -2  -2   69.86   13.62
   9   2   2   79.80   11.00
  -9  -2  -1  173.71   25.56
   9   2   1  172.87   13.36
   9   2   1  160.55    9.10
  -9  -2   0  107.60   13.47
   9   2   0  118.78   11.91
   9   2   0  114.39   10.05
  -9  -2   1  115.23   17.93
   9   2  -1   89.18   12.67
   9   2  -1   91.80   11.45
  -9  -2   2  100.01   16.02
   9   2  -2  108.57   14.31
   9   2  -2  103.49   12.80
  -9  -2   3  226.76   28.13
   9   2  -3  268.42   17.99
   9   2  -3  259.17   17.33
  -9  -2   4   59.79   11.40
  -9  -2   4   69.73   18.41
   9   2  -4   52.56    8.96
  -9  -2   5  319.80   30.42
  -9  -2   5  311.17   36.85
   9   2  -5  321.53   20.68
  -9  -2   6  228.91   20.43
  -9  -2   6  257.04   35.96
   9   2  -6  259.88   18.15
  -9  -2   7  231.99   15.64
  -9  -2   7  268.73   33.39
   9   2  -7  310.19   20.68
  -9  -2   8   18.17    6.28
   9   2  -8   20.83    8.30
  -9  -2   9   13.80    4.30
   9   2  -9   13.36    5.75
  -9  -2  10   -0.02    4.84
   9   2 -10   14.69    6.79
  -9  -2  11  191.15   36.25
   9   2 -11  195.76   18.52
  -9  -2  12   19.79    7.01
   9   2 -12   11.69    6.17
  -9  -2  13  184.43   37.71
   9   2 -13  177.68   19.94
  -9  -2  14   23.61   13.38
   9   2 -14   23.01   10.56
  -8  -2  -8   12.80    9.18
   8   2   8   16.04    8.63
  -8  -2  -7   19.66   10.80
   8   2   7   43.79   12.82
  -8  -2  -6   59.61   16.06
   8   2   6   76.25   13.07
   8   2   5   73.37   11.16
  -8  -2  -4  146.73   22.10
   8   2   4  105.51   11.78
  -8  -2  -3   92.53   14.80
   8   2   3   78.00    9.23
   8   2   3   70.28    7.10
  -8  -2  -2   10.38    6.88
   8   2   2   28.11   10.21
   8   2   2   26.67    5.83
  -8  -2  -1  355.87   53.47
   8   2   1  361.80   23.03
   8   2   1  335.06   19.50
  -8  -2   0   89.25   13.24
   8   2   0   72.90    9.05
   8   2   0   56.62    6.08
  -8  -2   1  511.75   26.87
   8   2  -1  526.77   28.11
   8   2  -1  568.88   28.24
  -8  -2   2   28.20    6.19
   8   2  -2   37.34    6.74
   8   2  -2   42.04    6.41
  -8  -2   3  368.14   41.24
  -8  -2   3  382.41   21.30
   8   2  -3  341.12   17.62
  -8  -2   4  130.16   19.43
  -8  -2   4  169.10   24.80
   8   2  -4  165.41   11.94
  -8  -2   5  232.12   22.03
  -8  -2   5  276.30   43.42
   8   2  -5  224.34   14.07
  -8  -2   6   54.20    9.85
  -8  -2   6   67.95   12.60
   8   2  -6   52.73    7.50
  -8  -2   7  435.01   20.61
  -8  -2   7  500.86   27.69
   8   2  -7  427.02   23.76
  -8  -2   8    3.17    3.44
   8   2  -8    4.48    4.79
  -8  -2   9   80.18   17.15
   8   2  -9   71.99   13.44
  -8  -2  10   96.64   23.63
   8   2 -10   88.70    8.67
  -8  -2  11   77.45   23.78
   8   2 -11   97.37   12.31
  -8  -2  12   79.76   18.28
   8   2 -12   79.62   10.29
  -8  -2  13    2.15    5.17
   8   2 -13    8.34    6.28
  -8  -2  14   13.53    6.23
   8   2 -14   37.09   11.47
  -8  -2  15   27.60    9.92
   8   2 -15   21.59    9.18
  -7  -2  -9   13.40    8.54
   7   2   9   11.56    6.68
  -7  -2  -8   98.90   20.08
   7   2   8   95.95   14.49
  -7  -2  -7  193.66   27.75
   7   2   7  205.90   18.50
  -7  -2  -6   99.48   17.95
   7   2   6   94.31   12.49
  -7  -2  -5  179.37   23.54
   7   2   5  182.43   13.87
   7   2   5  169.14    8.83
  -7  -2  -4   85.77   17.59
   7   2   4  105.20   11.96
   7   2   4   89.67   14.27
  -7  -2  -3   97.59   16.99
   7   2   3   96.42   13.29
   7   2   3   85.70   10.80
  -7  -2  -2   56.17   10.25
   7   2   2   26.89    5.28
   7   2   2   43.08    5.81
  -7  -2  -1   36.32    8.32
   7   2   1   55.26    9.81
   7   2   1   72.97    8.19
  -7  -2   0  206.32   30.55
   7   2   0  204.10   13.98
   7   2   0  212.56   12.82
  -7  -2   1  499.39   31.28
   7   2  -1  431.53   23.54
   7   2  -1  460.61   23.69
  -7  -2   2  122.44   22.87
  -7  -2   2  148.11   18.88
   7   2  -2  137.17   17.04
  -7  -2   3  735.71   29.53
  -7  -2   3  686.35   34.50
   7   2  -3  665.87   32.77
  -7  -2   4  169.23   19.81
  -7  -2   4  183.12   23.78
   7   2  -4  176.15   12.11
  -7  -2   5   63.67   11.91
  -7  -2   5   72.92   17.57
   7   2  -5   53.44    9.87
  -7  -2   6  780.52   39.49
   7   2  -6  671.24   31.04
  -7  -2   6  728.41   42.09
   7   2  -6  750.93   37.12
  -7  -2   7  138.24   13.11
  -7  -2   7  166.88   29.13
   7   2  -7  144.60   14.84
  -7  -2   8  159.40   10.94
  -7  -2   8  139.12   20.23
   7   2  -8  229.48   16.44
  -7  -2   9   41.44   12.34
   7   2  -9   33.37    8.30
  -7  -2  10  100.59   17.30
   7   2 -10   89.12   16.35
  -7  -2  11   10.54    6.10
   7   2 -11   43.66    9.96
  -7  -2  12  373.89   29.33
   7   2 -12  388.78   30.15
  -7  -2  13  126.61   13.49
   7   2 -13  107.40   13.29
  -7  -2  14  218.81   22.96
   7   2 -14  256.24   26.93
  -7  -2  15   15.09    6.92
   7   2 -15   42.60   10.40
  -6  -2 -10   15.75    6.68
   6   2  10    7.21    5.86
  -6  -2  -9   56.46   11.56
   6   2   9   25.58    8.32
  -6  -2  -8  107.58   15.97
  -6  -2  -7   62.43   14.64
   6   2   7   48.43    9.32
   6   2   7   38.40    5.01
  -6  -2  -6  129.30   18.68
   6   2   6  162.26   13.33
   6   2   6  143.41    8.99
  -6  -2  -5  161.95   29.97
   6   2   5  157.09   12.91
   6   2   5  176.79   11.94
   6   2   4   20.45    7.12
   6   2   4    7.57    4.17
  -6  -2  -3  551.86   39.00
   6   2   3  550.44   26.38
   6   2   3  528.90   23.25
  -6  -2  -2   68.49   11.36
   6   2   2   47.50    8.47
   6   2   2   60.81    8.36
  -6  -2  -1  131.31   14.27
   6   2   1  144.80   15.73
   6   2   1  118.71   12.29
  -6  -2   0  168.34   10.67
   6   2   0  220.52   12.56
   6   2   0  224.60   11.43
  -6  -2   1   22.70    5.46
  -6  -2   1   36.30    6.79
   6   2  -1   31.21    6.21
  -6  -2   2  336.26   17.33
   6   2  -2  324.50   16.28
  -6  -2   3  174.13   10.72
  -6  -2   3  168.61   19.30
   6   2  -3  154.03   10.92
  -6  -2   4  139.23   14.15
  -6  -2   4  132.96   22.16
   6   2  -4  103.65   12.25
  -6  -2   5   31.57    5.24
  -6  -2   5   32.52    7.41
   6   2  -5   28.84    6.90
  -6  -2   6  278.11   11.25
   6   2  -6  261.32   10.60
  -6  -2   6  277.01   39.40
   6   2  -6  338.81   16.59
  -6  -2   7  150.26   17.35
   6   2  -7  144.16   16.59
  -6  -2   7  178.99   32.32
   6   2  -7  160.58   15.49
  -6  -2   8  565.72   25.82
  -6  -2   8  616.77   28.15
   6   2  -8  573.82   26.98
  -6  -2   9   14.11    4.13
   6   2  -9   33.85    7.21
  -6  -2  10  279.14   19.55
   6   2 -10  259.08   19.15
  -6  -2  11   23.65    6.19
  -6  -2  12  123.75   14.00
   6   2 -12  108.82   12.87
  -6  -2  13  202.57   16.77
   6   2 -13  215.04   19.03
  -6  -2  14   80.31   11.18
   6   2 -14   73.32   12.18
  -6  -2  15   31.33   11.40
   6   2 -15   33.41   12.38
  -5  -2 -11   61.96   13.49
   5   2  11   56.77   11.91
  -5  -2 -10   78.49   14.82
   5   2  10   76.98   12.45
  -5  -2  -9   72.92   14.66
   5   2   9   62.58   15.71
  -5  -2  -8   51.45   10.52
   5   2   8   50.89   10.38
   5   2   8   68.02    7.34
  -5  -2  -7   51.65   13.36
   5   2   7   47.61   10.94
   5   2   7   43.33    8.50
  -5  -2  -6  272.01   31.88
   5   2   6  275.63   16.82
  -5  -2  -5   74.88    9.45
   5   2   5   85.88    7.96
  -5  -2  -4 1183.21   49.47
   5   2   4 1148.62   47.52
   5   2   4 1202.09   73.43
  -5  -2  -3  189.91   13.42
   5   2   3  199.51   13.16
   5   2   3  207.12   12.78
  -5  -2  -2   98.52   11.58
   5   2   2   92.40   11.16
   5   2   2  100.83   11.05
  -5  -2  -1   18.97    5.10
   5   2   1   22.01    4.90
   5   2   1   17.35    3.84
  -5  -2   0   93.98    8.21
   5   2   0   81.46    7.65
  -5  -2   1  127.45    9.27
  -5  -2   1  152.26   25.85
   5   2  -1  138.68    9.61
  -5  -2   2  339.59   18.48
  -5  -2   2  302.21   25.00
   5   2  -2  380.72   20.54
  -5  -2   3  128.72    9.21
  -5  -2   3  112.10   21.39
   5   2  -3  119.84    9.34
  -5  -2   4  439.47   19.23
  -5  -2   4  466.60   44.93
   5   2  -4  452.60   21.12
  -5  -2   5  228.04   11.74
   5   2  -5  201.84   10.07
   5   2  -5  220.21   12.85
  -5  -2   6  112.70   10.89
   5   2  -6  114.54   10.96
  -5  -2   6  138.70   24.67
   5   2  -6  126.83   14.09
  -5  -2   7  431.99   15.40
   5   2  -7  341.41   12.22
  -5  -2   7  403.28   17.81
   5   2  -7  369.63   17.62
  -5  -2   8  248.76   12.05
   5   2  -8  226.53   10.83
  -5  -2   8  230.08   14.86
   5   2  -8  267.91   16.77
  -5  -2   9  266.33   10.40
  -5  -2   9  275.50   16.42
   5   2  -9  246.23   14.80
  -5  -2  10  239.82   16.91
   5   2 -10  238.91   16.62
  -5  -2  11  119.42   13.44
   5   2 -11  105.45   11.40
  -5  -2  12  163.51   15.06
   5   2 -12  159.05   15.71
  -5  -2  13   46.23   11.63
   5   2 -13   85.77   11.20
  -5  -2  14   21.99    7.30
   5   2 -14   19.57    7.45
  -5  -2  15  267.13   62.47
   5   2 -15  238.43   45.17
  -4  -2 -12   49.45   18.90
   4   2  12   37.78    9.89
  -4  -2 -11   54.15   14.95
   4   2  11   40.87   10.21
  -4  -2 -10  286.79   38.27
   4   2  10  335.60   24.47
   4   2  10  274.83   18.59
  -4  -2  -9   70.84   15.42
   4   2   9   77.94   14.24
   4   2   9   65.58    8.72
  -4  -2  -8  395.63   41.20
   4   2   8  325.33   22.38
   4   2   8  350.28   21.79
  -4  -2  -7   47.54    9.43
   4   2   7   54.51    9.87
   4   2   7   56.35    8.12
  -4  -2  -6   42.06    7.94
   4   2   6   26.44    6.61
   4   2   6   37.43    6.57
  -4  -2  -5  127.70   16.91
   4   2   5   85.26   12.62
   4   2   5  111.77   14.11
  -4  -2  -4  142.90   16.13
   4   2   4  123.24   13.36
   4   2   4  157.32    9.38
   4   2   3   71.81    6.50
  -4  -2  -2  568.83   26.71
   4   2   2  492.58   22.01
  -4  -2  -1  176.46   12.20
   4   2   1  224.96   13.62
   4   2   1  213.98   13.20
  -4  -2   0  518.47   26.49
  -4  -2   0  486.35   24.43
   4   2   0  488.28   24.38
  -4  -2   1 1154.15   52.60
  -4  -2   1  777.99   37.18
   4   2  -1 1140.66   51.89
  -4  -2   2  545.31   26.53
  -4  -2   2  534.47   26.91
   4   2  -2  510.00   25.42
  -4  -2   3  146.13    9.52
  -4  -2   3  142.65   25.60
   4   2  -3  114.41    9.34
  -4  -2   4  129.94    8.52
   4   2  -4  109.33    7.21
  -4  -2   4  112.41   18.97
   4   2  -4  103.76    8.39
  -4  -2   5   37.47    4.84
   4   2  -5   31.35    3.70
  -4  -2   5   42.48    9.12
   4   2  -5   23.52    4.95
  -4  -2   6   51.07    4.39
   4   2  -6   27.58    2.84
  -4  -2   6   42.13    6.52
   4   2  -6   42.77    5.92
  -4  -2   7   76.38    7.72
   4   2  -7   58.41    6.06
  -4  -2   7   89.25   10.94
   4   2  -7   93.67   10.83
  -4  -2   8  109.22   12.71
   4   2  -8   94.82   11.09
   4   2  -8  112.72   15.02
  -4  -2   9  462.12   18.33
  -4  -2   9  520.05   25.07
   4   2  -9  450.21   21.96
  -4  -2  10  325.24   19.43
   4   2 -10  336.13   19.81
  -4  -2  11  412.25   25.98
   4   2 -11  387.98   24.76
  -4  -2  12   32.75    7.48
   4   2 -12   21.76    5.99
  -4  -2  13   31.28    9.58
   4   2 -13   39.36   10.98
  -4  -2  14   56.88   11.40
   4   2 -14   38.25   11.87
  -4  -2  15  150.93   29.40
   4   2 -15  166.12   32.32
  -3  -2 -12   16.26    6.63
   3   2  12    4.61    5.55
  -3  -2 -11   17.08    7.57
   3   2  11   35.10   11.16
   3   2  11   16.86    6.61
  -3  -2 -10   33.57   11.27
   3   2  10   43.11    9.14
  -3  -2  -9   34.81    8.56
   3   2   9   38.42    8.19
   3   2   9   24.80    5.61
  -3  -2  -8  302.34   20.50
   3   2   8  326.19   20.94
   3   2   8  295.57   18.10
  -3  -2  -7  226.73   16.82
   3   2   7  204.90   16.02
   3   2   7  216.64   13.42
  -3  -2  -6  208.96   14.55
   3   2   6  216.08   14.22
   3   2   6  212.45   12.98
  -3  -2  -5  190.75   12.02
   3   2   5  224.60   12.62
   3   2   5  228.89   11.51
  -3  -2  -4   58.15    7.08
   3   2   4   81.82    8.54
   3   2   4   70.59    6.52
  -3  -2  -3  769.41   33.61
   3   2   3  787.16   33.85
   3   2   3  777.20   32.90
  -3  -2  -2  177.19   11.65
   3   2   2  166.06   10.78
   3   2   2  171.60   11.16
  -3  -2  -1  490.18   20.97
  -3  -2  -1  517.36   21.72
   3   2   1  484.53   20.23
  -3  -2   0  105.34    8.30
  -3  -2   0  134.20   18.06
   3   2   0   95.42    7.43
  -3  -2   1 2970.61  101.19
  -3  -2   1 3331.70  145.31
   3   2  -1 3132.98  106.84
  -3  -2   2  111.26    7.32
  -3  -2   2  134.75   19.88
   3   2  -2  140.50    9.34
  -3  -2   3  945.27   34.28
  -3  -2   3  929.30   35.36
   3   2  -3  863.39   32.63
  -3  -2   4   61.08    6.06
   3   2  -4   47.65    4.30
  -3  -2   4   52.45   10.34
   3   2  -4   51.94    6.81
  -3  -2   5  999.49   44.61
   3   2  -5  922.82   41.11
  -3  -2   5 1009.12   46.97
   3   2  -5  953.90   44.28
  -3  -2   6   58.15    4.66
   3   2  -6   51.00    4.13
  -3  -2   6   53.29    7.43
  -3  -2   7  153.37   17.79
   3   2  -7  125.68   11.69
  -3  -2   7  140.43   14.93
   3   2  -7  148.31   18.70
  -3  -2   8    2.51    1.31
  -3  -2   8   54.18    7.12
  -3  -2   8   48.12    8.03
   3   2  -8   47.06    8.36
  -3  -2   9   22.74    3.28
  -3  -2   9    7.08    4.53
   3   2  -9   10.69    5.46
  -3  -2  10   26.58    3.48
  -3  -2  10   20.32    5.08
   3   2 -10   25.58    6.08
   3   2 -11  176.17   14.35
  -3  -2  12   38.25    8.01
   3   2 -12   31.06    9.32
  -3  -2  13   19.77    8.43
   3   2 -13   19.52    6.74
  -3  -2  14   90.63   13.24
   3   2 -14  130.07   15.95
  -3  -2  15   32.12   10.78
   3   2 -15    7.19    5.08
  -2  -2 -13   16.31   10.43
   2   2  13    6.48    6.99
  -2  -2 -12   42.88   14.33
   2   2  12   59.30   10.32
   2   2  12   44.81   12.05
  -2  -2 -11   38.54   11.54
   2   2  11   15.49    6.74
   2   2  11   12.69    5.12
  -2  -2 -10  246.39   14.93
   2   2  10  245.81   14.75
   2   2  10  248.08   13.18
  -2  -2  -9  376.71   24.98
   2   2   9  375.57   23.69
   2   2   9  392.28   24.12
  -2  -2  -8   10.60    5.24
   2   2   8   38.47    7.01
   2   2   8   25.25    5.79
  -2  -2  -7  150.44   16.17
   2   2   7  134.66   13.87
   2   2   7  163.55   11.51
  -2  -2  -6   43.35    9.07
   2   2   6   19.55    4.88
   2   2   6   50.34    7.30
  -2  -2  -5  149.46   10.69
   2   2   5  132.60    9.63
   2   2   5  139.83    9.18
  -2  -2  -4  170.47   12.45
   2   2   4  132.16    9.63
   2   2   4  140.68   10.60
  -2  -2  -3  521.58   26.84
   2   2   3  466.38   23.12
   2   2   3  545.69   27.18
   2   2   2  404.66   17.19
   2   2   2  413.45   18.13
  -2  -2  -1  678.47   26.76
  -2  -2  -1  673.68   26.51
   2   2   1  644.50   25.34
  -2  -2   0  307.55   14.38
  -2  -2   0  350.79   28.69
  -2  -2   1 2105.25   72.90
   2   2  -1 2045.99   70.95
  -2  -2   2  115.14    7.79
   2   2  -2  116.03    8.92
  -2  -2   3  215.57   10.49
  -2  -2   3  217.46   29.57
   2   2  -3  171.12    9.89
  -2  -2   4  690.23   25.51
   2   2  -4  569.98   21.19
  -2  -2   4  723.20   28.11
   2   2  -4  733.27   28.62
  -2  -2   5 1013.18   45.44
   2   2  -5  889.45   39.73
  -2  -2   5 1003.22   46.46
   2   2  -5 1025.09   47.37
  -2  -2   6   99.55    6.19
   2   2  -6  103.61    6.68
  -2  -2   6  101.85   10.05
   2   2  -6   99.83    8.39
  -2  -2   7   44.75    6.01
   2   2  -7   19.43    3.19
  -2  -2   7   40.47    6.70
   2   2  -7   25.80    5.32
  -2  -2   8  113.97   20.54
  -2  -2   8  205.70   11.16
  -2  -2   8  176.93   12.78
   2   2  -8  197.12   12.93
  -2  -2   9   10.60    2.82
  -2  -2   9    4.35    4.95
   2   2  -9    3.53    4.24
  -2  -2  10  415.91   20.12
  -2  -2  10  447.70   25.45
   2   2 -10  381.81   21.25
  -2  -2  11   51.11    8.36
  -2  -2  11   70.97   13.60
   2   2 -11   63.29   12.42
  -2  -2  12  308.00   24.74
   2   2 -12  330.45   24.20
  -2  -2  13   11.25    7.32
   2   2 -13   -1.31    4.41
   2   2 -14   12.18    6.70
  -2  -2  15   19.97    8.96
   2   2 -15   17.19    7.37
  -1  -2 -13  135.62   27.84
   1   2  13  207.17   22.03
   1   2  13  115.47   28.02
  -1  -2 -12   15.11    7.74
   1   2  12   15.29    8.03
   1   2  12   22.34    8.05
  -1  -2 -11   48.79    8.47
   1   2  11   20.28    8.16
   1   2  11   38.89    7.37
  -1  -2 -10  182.14   14.69
   1   2  10  190.02   15.29
   1   2  10  189.46   14.62
  -1  -2  -9  435.16   26.82
   1   2   9  440.13   26.29
   1   2   9  444.57   26.27
  -1  -2  -8    8.32    4.95
   1   2   8    7.28    5.79
   1   2   8   13.18    5.81
  -1  -2  -7  320.67   19.77
   1   2   7  281.27   16.79
   1   2   7  288.01   16.51
  -1  -2  -6   24.74    7.14
   1   2   6   22.25    4.81
   1   2   6   21.90    5.70
  -1  -2  -5  486.06   22.76
   1   2   5  582.05   25.71
   1   2   5  511.93   23.34
  -1  -2  -4  153.81   10.92
   1   2   4  155.63   10.54
   1   2   4  156.94   11.38
  -1  -2  -3   39.60    5.06
   1   2   3   46.52    6.48
   1   2   3   48.54    6.41
  -1  -2  -2  424.36   19.17
   1   2   2  461.81   20.10
  -1  -2  -1  229.93   12.60
  -1  -2  -1  242.35   16.35
   1   2   1  226.02   12.14
  -1  -2   0 1050.16   37.34
  -1  -2   0 1001.04   34.94
   1   2   0  999.82   35.45
  -1  -2   1  815.33   29.71
  -1  -2   1  813.91   29.20
   1   2  -1  736.35   27.71
  -1  -2   2  244.39   11.94
   1   2  -2  213.78   11.03
  -1  -2   3  119.65    7.37
  -1  -2   3  130.05    8.94
   1   2  -3  114.50    8.12
  -1  -2   4  574.33   22.01
  -1  -2   4  561.80   23.25
   1   2  -4  558.67   22.98
  -1  -2   5   48.87    5.17
  -1  -2   5   43.53    6.46
   1   2  -5   38.09    5.15
  -1  -2   6  550.13   25.31
   1   2  -6  628.09   27.73
  -1  -2   7  191.77    9.54
  -1  -2   7  185.67   11.36
   1   2  -7  169.21   10.32
  -1  -2   8  196.07   11.25
  -1  -2   8  156.94   19.81
   1   2  -8  181.72   12.27
  -1  -2   9  101.14    9.74
  -1  -2   9   69.88    9.58
   1   2  -9  120.75   13.09
  -1  -2  10  430.42   23.54
  -1  -2  10  406.06   25.62
   1   2 -10  414.20   24.58
  -1  -2  11  128.32    8.05
  -1  -2  11  139.30   11.94
   1   2 -11  105.78    9.45
  -1  -2  12  229.99   20.68
   1   2 -12  213.07   17.68
   1   2 -13   17.35    7.12
  -1  -2  14  142.61   29.57
   1   2 -14   86.37   17.62
   0   2  14   33.30   12.78
   0   2  14   13.31    6.26
   0  -2 -13  139.26   26.05
   0   2  13  194.92   21.14
   0   2  13  113.10   26.98
   0  -2 -12    9.43    5.97
   0   2  12   11.47    5.88
   0   2  12   16.99    6.12
   0  -2 -11   86.97   10.07
   0   2  11  107.69    9.67
   0   2  11  115.25    9.81
   0  -2 -10   67.53   12.76
   0   2  10   74.32   12.78
   0   2  10   58.68   10.98
   0  -2  -9  100.46   10.56
   0   2   9  104.40   10.01
   0   2   9   83.55   10.85
   0  -2  -8  665.89   34.74
   0   2   8  663.74   32.75
   0   2   8  660.74   33.21
   0  -2  -7  166.88   11.27
   0   2   7  163.84   10.36
   0   2   7  158.11   11.31
   0  -2  -6 1072.64   44.88
   0   2   6 1108.69   45.10
   0   2   6 1140.95   47.01
   0  -2  -5  287.45   17.10
   0   2   5  262.39   14.33
   0   2   5  292.62   17.35
   0  -2  -4  184.63   12.40
   0   2   4  153.79    9.78
   0   2   4  156.32   10.72
   0  -2  -3  181.83   10.76
   0   2   3  153.08    8.16
   0   2   3  169.23   10.40
   0  -2  -2  211.63   12.36
   0  -2  -2  187.84    9.50
   0   2   2  204.48   11.20
   0  -2  -1  111.39   10.69
   0   2   1   99.79    7.50
   0  -2   0  372.78   27.20
   0   2   0  342.01   15.09
   0  -2   1  104.94    7.54
   0  -2   1  103.74   11.58
   0  -2   2  179.32    9.72
   0  -2   2  171.60    9.38
   0   2  -2  202.68   11.18
   0  -2   3  179.72   10.03
   0  -2   3  155.72    8.94
   0   2  -3  178.70    9.89
   0  -2   4  186.58   12.25
   0  -2   4  140.30   10.36
   0   2  -4  156.74   10.76
   0  -2   5  296.64   16.33
   0  -2   5  285.08   16.28
   0   2  -5  284.73   15.51
   0  -2   6 1083.31   43.42
   0  -2   6  995.17   41.51
   0   2  -6 1112.50   45.68
   0  -2   7  185.96   10.36
   0  -2   7  162.31   11.47
   0   2  -7  180.81   10.78
   0  -2   8  662.59   31.66
   0  -2   8  603.86   31.86
   0   2  -8  624.87   31.10
   0  -2   9   93.27    8.50
   0  -2   9   97.79   11.09
   0   2  -9   94.49    9.07
   0  -2  10   72.75   12.49
   0  -2  10   76.07   15.31
   0   2 -10   82.68   14.09
   0  -2  11   93.49    7.28
   0  -2  11   92.53    9.67
   0   2 -11  114.56    9.21
   0  -2  12   18.64    6.46
   0   2 -12   24.63    7.05
   0  -2  13  151.97   18.06
   0   2 -13  149.82   16.68
   0  -2  14    6.12    5.90
   0   2 -14   34.76    8.79
   1  -2 -14   97.11   26.56
  -1   2  14   97.66   19.72
  -1   2  14   66.11   22.16
   1  -2 -13   34.32   10.69
  -1   2  13   10.16    7.03
  -1   2  13   14.82    7.54
   1  -2 -12  201.24   17.99
  -1   2  12  228.86   18.79
  -1   2  12  270.66   22.38
   1  -2 -11  111.84   10.47
  -1   2  11  140.83   11.58
  -1   2  11  120.98   10.34
   1  -2 -10  403.64   25.09
  -1   2  10  357.23   21.48
  -1   2  10  457.73   27.42
   1  -2  -9   97.15   11.60
  -1   2   9  113.88   11.85
  -1   2   9   89.14   10.80
   1  -2  -8  159.87   15.60
  -1   2   8  148.89   18.50
  -1   2   8  191.24   13.80
   1  -2  -7  169.30   11.63
  -1   2   7  183.54    9.85
  -1   2   7  197.85   11.71
   1  -2  -6  639.56   28.73
  -1   2   6  574.47   24.83
  -1   2   6  579.10   26.09
   1  -2  -5   53.84    7.30
  -1   2   5   45.39    5.08
  -1   2   5   42.60    6.50
   1  -2  -4  571.05   24.36
  -1   2   4  604.59   22.96
  -1   2   4  597.63   24.25
   1  -2  -3  124.37    9.32
  -1   2   3  108.89    8.03
  -1   2   3  131.96    7.63
  -1   2   3  104.58    9.50
   1  -2  -2  273.26   15.22
   1  -2  -2  278.00   19.39
  -1   2   2  187.73   15.71
  -1   2   2  231.99   12.34
   1  -2  -1  818.42   29.88
   1  -2  -1  810.16   30.15
  -1   2   1  748.80   26.13
  -1   2   1  801.53   29.11
   1  -2   0 1004.48   35.70
   1  -2   0 1031.39   36.43
  -1   2   0  909.42   31.13
  -1   2   0  997.18   35.25
   1  -2   1  200.87   11.94
   1  -2   1  219.99   10.78
  -1   2  -1  195.74   10.47
   1  -2   2  405.15   17.99
   1  -2   2  446.43   18.30
  -1   2  -2  443.42   18.55
   1  -2   3   63.07    7.08
   1  -2   3   55.17    6.10
  -1   2  -3   56.84    6.79
   1  -2   4  159.80   10.21
   1  -2   4  172.16   11.51
  -1   2  -4  148.86    9.98
   1  -2   5  549.42   24.14
   1  -2   5  536.62   24.34
  -1   2  -5  577.17   25.56
   1  -2   6   16.20    3.97
   1  -2   6   23.63    5.86
  -1   2  -6   13.91    4.13
   1  -2   7  288.48   16.17
   1  -2   7  264.78   16.42
  -1   2  -7  272.90   15.57
   1  -2   8   16.79    5.06
   1  -2   8   14.18    5.68
  -1   2  -8    2.22    3.95
   1  -2   9  475.87   26.93
   1  -2   9  468.53   28.40
  -1   2  -9  395.01   23.09
   1  -2  10  196.30   14.27
   1  -2  10  168.43   14.86
  -1   2 -10  173.24   13.24
   1  -2  11   38.36    6.43
   1  -2  11   64.49   10.45
  -1   2 -11   50.29    8.50
   1  -2  12   -0.55    3.39
   1  -2  12   46.70   14.04
  -1   2 -12   13.27    6.63
   1  -2  13  214.82   23.67
  -1   2 -13  182.61   19.01
   2  -2 -15   14.07    8.45
  -2   2  15   33.50    9.32
  -2   2  15   17.39    5.57
   2  -2 -14    5.79    4.64
  -2   2  14   23.32    8.34
  -2   2  14   10.92    6.17
   2  -2 -13   12.69    8.03
  -2   2  13   11.31    5.50
  -2   2  13   10.78    5.52
   2  -2 -12  310.46   23.38
  -2   2  12  308.44   23.32
  -2   2  12  312.70   24.07
   2  -2 -11   59.43   12.14
  -2   2  11   31.57    7.08
  -2   2  11   74.70   13.75
   2  -2 -10  427.31   23.85
  -2   2  10  376.60   20.26
  -2   2  10  412.96   23.41
   2  -2  -9   22.94    6.46
  -2   2   9    7.90    3.37
  -2   2   9    8.05    5.35
   2  -2  -8  212.76   14.86
  -2   2   8  196.45   11.96
  -2   2   8  222.25   14.80
   2  -2  -7   37.89    6.68
  -2   2   7   41.06    6.15
  -2   2   7   35.10    6.97
   2  -2  -6  114.68    9.10
  -2   2   6  111.06    7.10
  -2   2   6   93.71    7.85
   2  -2  -5 1080.65   49.96
  -2   2   5  984.83   46.59
  -2   2   5 1076.47   47.94
  -2   2   5 1042.66   48.30
   2  -2  -4  724.68   28.73
  -2   2   4  673.39   34.61
  -2   2   4  753.43   27.24
  -2   2   4  776.75   30.22
   2  -2  -3  176.51   10.94
  -2   2   3  176.57   13.56
  -2   2   3  196.76    8.99
  -2   2   3  180.77   10.45
   2  -2  -2  111.64    7.94
   2  -2  -2  129.41   12.87
  -2   2   2  121.44    6.32
  -2   2   2  116.63    7.94
   2  -2  -1 2034.86   70.73
   2  -2  -1 2060.75   69.88
  -2   2   1 1993.77   67.58
  -2   2   1 2060.02   71.37
   2  -2   0  343.92   28.71
  -2   2   0  283.24   12.22
  -2   2   0  259.68   12.25
   2  -2   1  687.90   26.98
   2  -2   1  646.37   24.29
  -2   2  -1  612.07   22.83
  -2   2  -1  639.38   24.89
   2  -2   2  427.09   18.39
   2  -2   2  434.96   17.59
  -2   2  -2  420.26   17.66
   2  -2   3  437.41   22.36
   2  -2   3  497.93   24.45
  -2   2  -3  501.37   24.47
   2  -2   4  104.09    8.30
   2  -2   4  134.95   10.27
  -2   2  -4  114.48    8.25
   2  -2   5  155.10   10.32
   2  -2   5  153.79   10.21
  -2   2  -5  152.72    9.38
   2  -2   6   55.15    8.39
   2  -2   6   42.42    7.61
  -2   2  -6   34.68    6.08
   2  -2   7  162.26   13.47
   2  -2   7  172.78   13.51
  -2   2  -7  130.14   12.56
   2  -2   8   27.53    6.79
   2  -2   8   35.56    8.36
  -2   2  -8   16.75    5.75
   2  -2   9  381.94   23.85
   2  -2   9  364.08   24.40
  -2   2  -9  439.36   25.67
   2  -2  10  281.53   14.44
   2  -2  10  259.50   16.53
  -2   2 -10  300.06   14.29
   2  -2  11   26.78    8.03
   2  -2  11   35.74   10.69
  -2   2 -11   20.41    7.54
   2  -2  12   46.54   10.16
   2  -2  12   46.26   11.74
   2  -2  13    9.87    6.21
   3  -2 -15   14.82    7.30
  -3   2  15   10.38    5.90
  -3   2  15   19.77    7.08
   3  -2 -14  122.88   15.11
  -3   2  14  125.64   15.20
  -3   2  14   91.54   22.81
   3  -2 -13   25.51    7.83
  -3   2  13   32.30    8.92
  -3   2  13   19.52    8.01
   3  -2 -12   32.55    6.48
  -3   2  12   20.50    5.01
  -3   2  12   45.39    9.56
   3  -2 -11  232.50   16.73
  -3   2  11  222.98   15.35
  -3   2  11  206.88   16.71
   3  -2 -10   35.25    7.68
  -3   2  10   31.24    6.08
  -3   2  10   33.34    7.45
   3  -2  -9   27.24    6.70
  -3   2   9   21.61    4.57
  -3   2   9    9.43    6.01
   3  -2  -8   57.04   10.05
  -3   2   8   62.74    8.72
  -3   2   8   66.36   11.87
   3  -2  -7  137.99   14.40
  -3   2   7  116.38   11.51
  -3   2   7  141.32   15.02
   3  -2  -6   57.81    6.34
  -3   2   6   47.25    6.17
  -3   2   6   65.25    5.30
  -3   2   6   53.78    6.32
   3  -2  -5  948.29   44.28
  -3   2   5  987.13   43.97
  -3   2   5 1011.69   44.70
  -3   2   5 1065.52   49.47
   3  -2  -4   54.84    6.39
  -3   2   4   40.09    4.99
  -3   2   4   57.93    4.57
   3  -2  -3  954.23   35.87
  -3   2   3  917.85   31.72
  -3   2   3  966.35   33.48
  -3   2   3  894.58   33.74
   3  -2  -2  144.29    9.76
   3  -2  -2  142.21   11.60
  -3   2   2  111.44    5.72
  -3   2   2  125.10    7.94
   3  -2  -1 3144.83  107.38
   3  -2  -1 2913.37   97.90
  -3   2   1 3124.55  104.45
  -3   2   1 3100.06  105.56
   3  -2   0   93.76    8.10
   3  -2   0   89.10    5.97
  -3   2   0   86.12    5.12
  -3   2   0   72.46    6.34
   3  -2   1  518.60   21.70
   3  -2   1  486.17   18.72
  -3   2  -1  450.47   17.42
  -3   2  -1  477.38   19.57
   3  -2   2  191.95   12.96
   3  -2   2  197.25   11.51
  -3   2  -2  211.12   12.36
   3  -2   3  788.35   33.48
   3  -2   3  810.74   33.81
  -3   2  -3  832.61   34.34
   3  -2   4   72.83    8.10
   3  -2   4   73.03    7.83
  -3   2  -4   69.48    6.34
   3  -2   5  206.32   11.47
   3  -2   5  224.85   13.40
  -3   2  -5  215.20   10.76
   3  -2   6  211.47   13.82
   3  -2   6  242.11   15.69
  -3   2  -6  232.10   13.58
   3  -2   7  209.52   13.67
   3  -2   7  214.80   15.37
  -3   2  -7  211.87   12.69
   3  -2   8  315.63   19.79
   3  -2   8  317.80   21.28
  -3   2  -8  352.90   20.74
   3  -2   9   21.10    6.06
   3  -2   9   26.89    7.90
  -3   2  -9   32.81    6.39
   3  -2  10   43.33   10.83
   3  -2  10   45.50   10.36
  -3   2 -10   26.16    6.57
   3  -2  11   21.32    8.47
   3  -2  11   22.05    9.47
   3  -2  12   17.79    7.63
   3  -2  12   25.82   10.05
  -4   2  15  125.50   37.16
   4  -2 -14   20.92    7.30
  -4   2  14    7.65    4.41
  -4   2  14    9.38    3.42
   4  -2 -13   46.28   12.22
  -4   2  13   10.54    5.66
   4  -2 -12   31.46    6.34
  -4   2  12   19.37    4.79
  -4   2  12   27.18    8.79
   4  -2 -11  389.24   23.92
  -4   2  11  406.15   23.94
  -4   2  11  423.30   27.15
   4  -2 -10  329.36   19.10
  -4   2  10  348.11   18.21
  -4   2  10  368.01   21.81
   4  -2  -9  480.71   22.90
  -4   2   9  487.83   21.34
  -4   2   9  536.09   26.96
   4  -2  -8  122.77   16.08
  -4   2   8   56.31   11.76
  -4   2   8  122.11   14.75
  -4   2   8   91.69   12.96
   4  -2  -7   60.01    8.19
  -4   2   7   44.93    6.86
  -4   2   7   78.87    7.83
  -4   2   7   72.46    9.32
   4  -2  -6   31.39    5.30
  -4   2   6    0.35    0.60
   4  -2  -5   26.93    4.81
  -4   2   5   20.37    3.26
  -4   2   5   24.58    2.60
  -4   2   5   23.54    5.39
   4  -2  -4  134.24   10.21
  -4   2   4  114.74    6.03
  -4   2   4  123.97    6.46
  -4   2   4  108.51    9.47
   4  -2  -3  142.85   11.09
  -4   2   3  126.72    6.72
  -4   2   3  139.79    9.89
  -4   2   2    3.82    1.31
   4  -2  -1 1071.99   49.54
   4  -2  -1 1057.22   46.61
  -4   2   1 1069.75   46.92
  -4   2   1 1110.40   50.45
   4  -2   0  496.66   25.67
   4  -2   0  476.72   22.43
  -4   2   0  452.47   21.14
  -4   2   0  454.07   22.47
   4  -2   1  191.86   10.89
  -4   2  -1  163.33    9.30
  -4   2  -1  204.33   11.76
   4  -2   2  484.84   22.78
   4  -2   2  483.35   21.54
  -4   2  -2  498.90   21.83
   4  -2   3   57.57    7.37
   4  -2   3   92.67    7.70
  -4   2  -3   87.17    6.77
   4  -2   4  145.60   15.42
   4  -2   4  134.49   14.33
  -4   2  -4  180.79    9.43
   4  -2   5  104.69   14.07
   4  -2   5  150.93   19.37
  -4   2  -5  100.10   12.67
   4  -2   6   20.92    5.19
   4  -2   6   45.10    8.76
  -4   2  -6   42.48    5.61
   4  -2   7   54.86    9.94
   4  -2   7   49.10    8.08
  -4   2  -7   66.98    8.65
   4  -2   8  346.60   17.13
   4  -2   8  334.64   22.70
  -4   2  -8  373.22   21.85
   4  -2   9   87.32   10.74
   4  -2   9   87.68   10.45
   4  -2  10  323.24   23.07
   4  -2  10  339.79   25.29
   4  -2  11   31.95    8.16
   4  -2  11   60.32   11.98
   4  -2  12   65.74   15.26
   4  -2  12   92.53   18.72
  -5   2  15  185.60   44.75
   5  -2 -14   60.70    9.98
  -5   2  14   14.93    5.81
   5  -2 -13   72.90    9.18
  -5   2  13   75.27    8.36
  -5   2  13   59.61   17.04
   5  -2 -12  160.02   13.71
  -5   2  12  128.92   10.80
  -5   2  12  150.62   14.49
   5  -2 -11  104.76   10.38
  -5   2  11   89.85   14.27
  -5   2  11  137.64   13.38
   5  -2 -10  242.26   16.04
  -5   2  10  282.77   16.24
  -5   2  10  260.06   18.95
   5  -2  -9  307.98   17.22
  -5   2   9  302.19   13.51
  -5   2   9  299.26   17.53
   5  -2  -8  284.99   17.48
  -5   2   8  257.53   12.91
  -5   2   8  259.83   16.00
   5  -2  -7  387.04   16.97
  -5   2   7  324.55   15.13
  -5   2   7  395.36   13.53
  -5   2   7  386.67   18.01
   5  -2  -6  104.40   12.27
  -5   2   6   97.93    8.81
  -5   2   6  109.00    9.72
  -5   2   6   89.03   11.07
   5  -2  -5  203.57   12.58
  -5   2   5  181.63    6.94
  -5   2   5  230.26   13.49
   5  -2  -4  427.95   20.52
  -5   2   4  479.56   22.63
   5  -2  -3   94.49    8.90
  -5   2   3  104.54    5.10
  -5   2   3  104.58    5.10
  -5   2   3   95.24    8.08
   5  -2  -2  295.77   17.50
   5  -2  -2  274.65   19.17
  -5   2   2  290.83   13.42
  -5   2   2  307.73   17.19
  -5   2   1   -0.24    0.89
   5  -2   0   85.52    8.52
   5  -2   0   88.03    6.08
  -5   2   0   74.25    4.90
  -5   2   0   76.89    6.03
   5  -2   1   13.02    5.06
   5  -2   1    7.30    2.95
  -5   2  -1   14.80    3.79
   5  -2   2   92.42   12.00
   5  -2   2  110.55   11.63
  -5   2  -2  103.36   10.60
   5  -2   3  199.11   14.29
   5  -2   3  208.81   12.67
  -5   2  -3  195.32   11.49
   5  -2   4 1224.21   76.03
   5  -2   4 1180.75   47.61
  -5   2  -4 1169.85   45.99
   5  -2   5   83.17   10.07
   5  -2   5   77.43    9.96
  -5   2  -5   94.35    8.25
   5  -2   6  295.04   19.72
   5  -2   6  258.21   17.39
  -5   2  -6  274.30   15.80
   5  -2   7   36.92    8.99
   5  -2   7   36.18    8.63
   5  -2   8   74.05    9.69
   5  -2   8   66.84   10.94
   5  -2   9   72.55   10.80
   5  -2   9   59.46   15.24
   5  -2  10   51.80   11.34
   5  -2  10   79.82   14.62
   5  -2  11   32.10    8.63
   5  -2  11   51.89   12.76
  -6   2  15   16.48    9.36
  -6   2  14   73.83   18.30
   6  -2 -13  178.41   14.42
  -6   2  13  185.42   33.97
   6  -2 -12  132.96   12.25
  -6   2  12  159.38   16.13
   6  -2 -11   38.29    9.36
  -6   2  11   14.29    5.95
   6  -2 -10  277.89   18.26
  -6   2  10  247.03   13.84
  -6   2  10  318.38   21.25
   6  -2  -9    6.63    3.82
  -6   2   9   14.18    2.55
   6  -2  -8  603.26   27.35
  -6   2   8  535.95   20.52
  -6   2   8  568.54   27.13
   6  -2  -7  151.26   18.70
  -6   2   7  167.08   16.79
   6  -2  -6  317.01   15.62
  -6   2   6  288.83   15.29
   6  -2  -5   24.98    5.81
  -6   2   5   25.76    5.32
   6  -2  -4  126.54    9.85
  -6   2   4  153.66   10.58
   6  -2  -3  143.58   10.89
  -6   2   3  154.48   10.07
   6  -2  -2  292.31   15.82
   6  -2  -2  271.19   16.95
  -6   2   2  307.18   12.49
  -6   2   2  311.46   15.57
   6  -2  -1   26.13    6.57
   6  -2  -1   30.11    3.99
  -6   2   1    0.42    0.98
  -6   2   1   31.46    5.99
   6  -2   0  208.28   12.65
   6  -2   0  187.38    8.67
  -6   2   0  178.64    8.19
  -6   2   0  166.92    8.81
   6  -2   1  120.27   13.60
   6  -2   1  116.76   11.80
  -6   2  -1  111.48   11.14
   6  -2   2   47.57    7.41
  -6   2  -2   48.52    7.01
   6  -2   3  639.80   29.62
   6  -2   3  567.77   24.94
  -6   2  -3  611.83   25.40
   6  -2   4   21.52    6.37
   6  -2   4   11.54    4.10
  -6   2  -4    7.32    2.13
   6  -2   5  187.27   15.29
   6  -2   5  143.69   12.29
  -6   2  -5  163.44   10.18
   6  -2   6  149.82   11.56
   6  -2   6  167.92   12.02
   6  -2   7   48.70    8.56
   6  -2   7   60.48   10.07
   6  -2   8   81.95    9.85
   6  -2   8  127.23   13.78
   6  -2   9   37.96    9.54
   6  -2   9   68.95   12.34
   6  -2  10   25.87    9.23
   6  -2  10   17.62    8.76
  -7   2  14  159.02   29.64
   7  -2 -13  104.27   10.16
  -7   2  13   67.11   14.69
   7  -2 -12  405.15   80.29
  -7   2  12  402.75   47.12
   7  -2 -11   12.47    4.81
  -7   2  11    4.66    6.70
   7  -2 -10   98.26   16.64
  -7   2  10   81.62   14.40
   7  -2  -9   25.03    6.30
  -7   2   9   26.07    6.99
   7  -2  -8  198.76   13.62
  -7   2   8  198.38   14.18
   7  -2  -7  173.91   12.22
  -7   2   7  152.30   14.95
   7  -2  -6  748.95   36.89
  -7   2   6  714.34   35.39
   7  -2  -5   60.34   10.01
  -7   2   5   84.73   12.73
   7  -2  -4  121.75   16.24
  -7   2   4  180.28   12.11
   7  -2  -3  688.12   26.84
  -7   2   3  627.76   24.09
   7  -2  -2  138.77   18.79
   7  -2  -2  121.86   13.98
  -7   2   2  112.04   12.78
  -7   2   2  134.95   16.86
   7  -2  -1  447.08   24.40
   7  -2  -1  441.11   20.77
  -7   2   1  497.39   24.58
   7  -2   0  209.45   14.44
   7  -2   0  198.96   11.47
  -7   2   0  153.21   18.01
  -7   2   0  219.39   12.53
   7  -2   1   51.07    8.70
   7  -2   1   74.32    7.81
  -7   2  -1   61.90    7.08
   7  -2   2   41.15    7.50
   7  -2   2   44.84    5.81
  -7   2  -2   40.53    4.70
   7  -2   3   80.47   11.80
   7  -2   3   66.60    9.65
  -7   2  -3   87.54   10.09
   7  -2   4   78.20   14.86
   7  -2   4  116.49   10.34
   7  -2   5  156.45   12.82
   7  -2   5  155.67   10.85
   7  -2   6  122.37   13.69
   7  -2   6  124.64   13.47
   7  -2   7  227.84   19.15
   7  -2   7  210.29   17.46
   7  -2   8   79.36   13.84
   7  -2   8   92.58   13.13
   7  -2   9    5.59    5.52
   7  -2   9    4.10    5.17
  -8   2  15   21.10   11.94
  -8   2  14   20.92    8.92
   8  -2 -13   15.73    5.39
  -8   2  13    6.03    3.15
   8  -2 -12  123.28   12.22
  -8   2  12   96.55   15.06
   8  -2 -11   44.88    6.70
  -8   2  11   59.52   14.84
   8  -2 -10   84.75    8.67
  -8   2  10   95.88   10.49
   8  -2  -9   70.31   12.18
  -8   2   9   63.87   12.40
   8  -2  -8    6.26    3.95
  -8   2   8    9.23    4.99
   8  -2  -7  452.62   24.56
  -8   2   7  522.20   27.75
   8  -2  -6   65.31    9.38
  -8   2   6   67.00    8.10
   8  -2  -5  220.28   14.91
  -8   2   5  221.83   13.80
   8  -2  -4  160.00   14.49
  -8   2   4  132.18   13.53
   8  -2  -3  331.87   18.19
  -8   2   3  325.35   16.33
   8  -2  -2   34.03    7.99
   8  -2  -2   30.06    3.24
  -8   2   2   34.63    5.77
   8  -2  -1  537.51   26.22
   8  -2  -1  505.62   20.63
  -8   2   1  571.52   24.38
   8  -2   0   97.39   11.89
   8  -2   0   79.33    7.19
  -8   2   0   69.20    6.70
   8  -2   1  353.59   22.98
   8  -2   1  279.71   16.59
  -8   2  -1  370.49   20.37
   8  -2   2   29.40    8.65
   8  -2   2   29.24    7.10
   8  -2   3   91.38    7.65
   8  -2   4  141.21   15.13
   8  -2   4  125.81   11.69
   8  -2   5   44.88   10.85
   8  -2   5   51.89   10.85
   8  -2   6   66.49   10.63
   8  -2   7   26.31    8.14
   8  -2   8   27.35    9.96
  -9   2  14   24.94    9.52
  -9   2  13  171.74   25.91
   9  -2 -12   12.67    4.55
  -9   2  12   52.85   13.60
  -9   2  11  168.87   26.82
   9  -2 -10    9.03    4.10
  -9   2  10    9.03    5.83
   9  -2  -9    2.62    3.51
  -9   2   9    6.83    4.95
   9  -2  -8   23.76    6.74
  -9   2   8   22.27    5.95
   9  -2  -7  269.40   18.24
  -9   2   7  321.29   20.85
   9  -2  -6  267.55   18.90
  -9   2   6  219.81   15.24
   9  -2  -5  328.52   21.03
  -9   2   5  327.79   20.88
   9  -2  -4   63.21   10.76
  -9   2   4   72.66   10.36
   9  -2  -3  257.19   17.79
  -9   2   3  294.13   18.15
   9  -2  -2   83.73   12.11
  -9   2   2  114.08   13.69
   9  -2  -1  130.80   21.63
   9  -2  -1   90.32   10.49
  -9   2   1   98.86   11.65
   9  -2   0   86.01   15.64
   9  -2   0   81.64   13.02
  -9   2   0  100.68    7.41
   9  -2   1  157.74   12.36
   9  -2   1  155.70    9.67
   9  -2   2   89.54   12.05
   9  -2   2   62.36    7.50
   9  -2   3  134.71   14.93
   9  -2   3  169.45   14.78
   9  -2   4   97.04   13.84
   9  -2   4   35.39    9.16
   9  -2   5   39.73   10.92
   9  -2   5   26.51    6.86
   9  -2   6  134.47   27.00
   9  -2   6  131.38   25.80
 -10   2  14   27.33   13.24
 -10   2  13   42.95   13.80
 -10   2  12   62.23   13.91
  10  -2 -11  322.22   22.16
 -10   2  11  328.03   54.95
  10  -2 -10   30.22    7.37
 -10   2  10   22.63    8.52
  10  -2  -9  161.91   14.95
 -10   2   9  127.08   16.97
  10  -2  -8  103.56   10.80
 -10   2   8   51.34   10.67
  10  -2  -7   32.88    8.08
 -10   2   7   42.80    9.78
  10  -2  -6  151.79   11.43
 -10   2   6  128.08    9.85
  10  -2  -5   18.86    7.21
 -10   2   5    0.18    3.75
  10  -2  -4  119.38   13.64
 -10   2   4   88.83   15.42
  10  -2  -3   20.32    9.05
 -10   2   3    6.74    3.46
  10  -2  -2   27.58    8.59
 -10   2   2    3.31    1.91
  10  -2  -1   57.28   11.27
  10  -2   0  103.69   11.89
  10  -2   1   40.84   10.87
  10  -2   2  400.56   28.44
  10  -2   3  126.81   15.02
  10  -2   4   45.17   10.23
  10  -2   5   23.67   10.43
  10  -2   5   14.11    6.68
 -11   2  13    9.30    5.57
 -11   2  12   90.63   22.23
  11  -2 -11   13.07    5.79
 -11   2  11   18.95    7.10
  11  -2 -10  265.29   24.47
 -11   2  10  187.35   39.22
  11  -2  -9   69.75    9.47
 -11   2   9   63.18   15.86
  11  -2  -8   27.64    9.30
 -11   2   8   25.11    9.47
  11  -2  -7   54.15   11.78
 -11   2   7   35.21   10.32
  11  -2  -6  167.99   16.06
 -11   2   6  124.37   20.30
  11  -2  -5   21.14    6.99
 -11   2   5   26.78    7.94
  11  -2  -4  203.95   18.61
 -11   2   4  115.61   16.26
  11  -2  -3   43.73    9.45
  11  -2  -2   63.69   12.02
  11  -2  -1   43.02   12.40
  11  -2   0    8.83    6.43
  11  -2   1  135.91   15.80
  11  -2   2  156.56   20.19
  11  -2   3   50.74   14.51
 -12   2  12   25.07    8.43
 -12   2  11   39.05   13.42
  12  -2 -10   85.70   18.08
 -12   2  10   81.66   20.57
  12  -2  -9   70.59   10.80
 -12   2   9   21.65    6.41
  12  -2  -8  241.80   23.76
 -12   2   8  181.39   27.73
  12  -2  -7   60.48    9.63
 -12   2   7   43.86   15.97
  12  -2  -6   60.28    9.83
 -12   2   6   28.77   10.43
  12  -2  -5  108.75   13.98
  12  -2  -4   68.33   10.67
  12  -2  -3  147.53   16.82
  12  -2  -2  149.68   17.55
  12  -2  -1   24.87    9.85
  12  -2   0   28.91   11.34
  12  -2   1   47.81   12.45
 -13   2  10   17.81    6.12
  13  -2  -9   66.42   13.20
 -13   2   9   54.95   18.41
  13  -2  -8  138.33   27.24
 -13   2   8   79.07   24.56
  13  -2  -7   56.31   13.38
  13  -2  -6  115.45   23.29
  13  -2  -5   29.44   10.49
  13  -2  -4   34.72   12.18
  13  -2  -3  221.08   41.97
 -11  -3   0   62.83   18.86
  11   3   0  110.84   20.28
 -11  -3   1   22.34    8.81
  11   3  -1   38.94   10.18
 -11  -3   2   25.36   11.58
  11   3  -2   68.89   16.26
  11   3  -2   32.06   10.76
 -11  -3   3   34.25   14.07
  11   3  -3   10.78    5.95
  11   3  -3   22.74    8.72
 -11  -3   4   14.93    6.90
  11   3  -4   18.37    8.08
  11   3  -4   20.12    8.21
  11   3  -5   16.08    7.61
 -11  -3   6   97.42   20.77
  11   3  -6  106.38   22.83
 -11  -3   7   87.83   24.00
  11   3  -7  168.52   32.48
 -11  -3   8   77.54   27.33
  11   3  -8  130.76   26.40
 -11  -3   9   22.38    9.27
  11   3  -9   16.02    8.94
 -10  -3  -2   10.58    7.19
  10   3   2   54.53   13.36
 -10  -3  -1   47.92   13.22
  10   3   1   68.86   15.46
 -10  -3   0   44.26   13.89
  10   3   0  105.09   13.89
  10   3   0   63.94    8.52
  10   3  -1  109.57   14.78
  10   3  -1   93.76   11.60
 -10  -3   2  258.30   43.64
  10   3  -2  332.22   31.21
  10   3  -2  292.96   26.96
 -10  -3   3    6.77    4.04
  10   3  -3   -0.09    5.70
  10   3  -3    9.92    5.50
 -10  -3   4   38.11   11.69
 -10  -3   4   46.90   13.22
  10   3  -4   53.09    9.01
 -10  -3   5   39.38   14.35
 -10  -3   5   53.29   10.05
  10   3  -5   61.48   10.63
 -10  -3   6   12.67    6.99
  10   3  -6    9.85    5.90
 -10  -3   7  103.78   18.50
  10   3  -7  102.76   12.73
 -10  -3   8  168.76   35.19
  10   3  -8  152.04   17.66
 -10  -3   9   68.15   17.64
  10   3  -9   57.50   14.00
 -10  -3  10   62.61   19.72
  10   3 -10   44.61   15.31
 -10  -3  11   29.71   12.71
  10   3 -11   41.31   12.22
  -9  -3  -4   79.49   24.20
   9   3   4   82.46   16.39
  -9  -3  -3   28.49   13.42
   9   3   3   29.79   10.89
  -9  -3  -2   26.64    9.01
   9   3   2   72.28   11.85
  -9  -3  -1   23.80    9.54
   9   3   1   29.06   10.40
   9   3   1    3.77    4.30
  -9  -3   0   20.26   10.09
   9   3   0   21.23    9.34
   9   3   0   25.54    7.94
  -9  -3   1  129.43   19.97
   9   3  -1  188.46   17.19
   9   3  -1  163.82   13.69
  -9  -3   2   75.14   16.13
   9   3  -2   60.57   12.27
   9   3  -2   78.76   10.25
  -9  -3   3   57.02   14.89
  -9  -3   3   76.12   12.14
   9   3  -3   75.76   12.25
  -9  -3   4    5.35    2.80
  -9  -3   4    0.64    5.08
   9   3  -4   15.64    8.10
  -9  -3   5   11.78    4.24
  -9  -3   5    8.63    5.75
   9   3  -5   11.03    5.68
  -9  -3   6    7.52    3.00
  -9  -3   6    7.30    4.61
   9   3  -6   16.84    6.90
  -9  -3   7  265.51   44.35
   9   3  -7  266.51   20.83
  -9  -3   8   32.04    9.63
   9   3  -8   43.75   13.42
   9   3  -9  181.68   19.92
  -9  -3  10   31.86    9.21
   9   3 -10   14.82    8.16
  -9  -3  11   30.88    9.94
   9   3 -11   11.45    6.59
  -9  -3  12   23.96    9.05
   9   3 -12    7.88    6.28
  -8  -3  -5   97.08   25.89
   8   3   5  113.21   23.61
  -8  -3  -4   80.51   16.77
   8   3   4   66.69   10.94
  -8  -3  -3  216.35   42.60
   8   3   3  201.82   20.77
   8   3   3  171.23   16.77
  -8  -3  -2   87.54   21.52
   8   3   2  149.84   14.02
   8   3   2  145.60   13.11
  -8  -3  -1   12.80    4.17
   8   3   1   25.82    7.83
   8   3   1   31.97    7.41
  -8  -3   0    5.04    5.08
   8   3   0   11.87    4.59
   8   3   0    6.81    3.62
  -8  -3   1   75.34    9.83
   8   3  -1   84.55   10.07
   8   3  -1   65.87    9.61
  -8  -3   2   16.53    4.79
   8   3  -2   16.86    5.81
  -8  -3   3  358.89   18.01
   8   3  -3  329.54   16.73
  -8  -3   4    2.35    3.39
  -8  -3   4   11.29    5.26
   8   3  -4   17.75    8.12
  -8  -3   5  124.39   11.31
  -8  -3   5   81.73   15.42
   8   3  -5  120.09   11.98
  -8  -3   6   25.49    5.95
   8   3  -6   17.22    5.46
  -8  -3   7   41.77   15.31
   8   3  -7   28.73    7.83
  -8  -3   8   80.58   13.75
   8   3  -8  103.07   13.33
  -8  -3   9  146.78   23.56
   8   3  -9  160.73   17.13
  -8  -3  10   69.86   11.09
   8   3 -10   72.43   11.54
  -8  -3  11  167.70   30.04
   8   3 -11  210.12   24.23
  -8  -3  12   51.14   16.84
   8   3 -12   58.72   14.20
  -7  -3  -7   18.26    6.94
  -7  -3  -5   37.65   12.60
   7   3   5   31.77   10.12
   7   3   5   29.26    8.08
   7   3   4   36.25    9.67
  -7  -3  -3  124.77   13.93
   7   3   3  130.56   13.91
   7   3   3  161.89   15.29
  -7  -3  -2  109.75   12.78
   7   3   2   84.75   11.07
   7   3   2  114.52   11.09
  -7  -3  -1   84.86    9.43
   7   3   1  112.63   11.18
   7   3   1   97.26    9.12
  -7  -3   0   45.66    9.23
   7   3   0   42.06    9.50
   7   3   0   33.06    7.65
  -7  -3   1   22.07    6.48
   7   3  -1   47.63   10.32
   7   3  -1   31.37    7.52
  -7  -3   2  155.08   12.71
  -7  -3   2  147.04   13.44
   7   3  -2  154.28   13.27
  -7  -3   3  202.15   14.91
  -7  -3   3  208.76   41.20
   7   3  -3  205.52   15.57
  -7  -3   4   81.42   14.20
  -7  -3   4   54.62   12.76
   7   3  -4   72.48   13.73
  -7  -3   5  118.31   10.27
  -7  -3   5  143.10   25.42
   7   3  -5  171.31   14.58
  -7  -3   6  138.55    9.52
   7   3  -6  128.32   11.36
  -7  -3   7    9.78    3.66
  -7  -3   7   12.00    4.68
   7   3  -7   45.55   11.27
  -7  -3   8  176.57   26.58
   7   3  -8  158.85   14.66
  -7  -3   9   30.19   11.63
   7   3  -9   15.35    8.12
  -7  -3  10  170.32   28.20
   7   3 -10  247.96   19.99
  -7  -3  11    1.46    6.70
   7   3 -11    7.65    5.92
  -7  -3  12   14.71   11.05
  -7  -3  13   53.40   16.13
   7   3 -13   35.25    9.81
  -6  -3  -8   42.31   16.55
   6   3   8   46.79   12.29
  -6  -3  -7  143.07   32.26
   6   3   7  231.77   24.38
  -6  -3  -6    2.84    5.24
   6   3   6   25.27    9.92
   6   3   6    1.40    3.86
  -6  -3  -5   86.32   13.42
   6   3   5   62.65   15.95
   6   3   5   46.41   11.14
  -6  -3  -4  135.04   15.24
   6   3   4  125.66   14.86
   6   3   4  104.16   10.65
  -6  -3  -3   14.15    8.39
   6   3   3   26.36    8.19
   6   3   3    5.86    4.10
  -6  -3  -2  201.58   15.64
   6   3   2  208.16   16.91
   6   3   2  260.54   18.24
  -6  -3  -1  108.75   12.11
   6   3   1  141.30   12.78
  -6  -3   0   80.13   11.71
   6   3   0   74.43   11.34
   6   3   0   68.20   11.58
  -6  -3   1  128.34   20.99
  -6  -3   1  133.47   21.65
   6   3  -1  116.34   15.04
  -6  -3   2  570.52   32.15
  -6  -3   2  482.71   39.91
   6   3  -2  514.01   29.64
  -6  -3   3  406.83   24.38
  -6  -3   3  408.28   51.07
   6   3  -3  450.43   27.82
  -6  -3   4  354.01   21.56
  -6  -3   4  344.36   40.60
   6   3  -4  327.85   21.01
  -6  -3   5   59.08    9.12
  -6  -3   5   67.04   17.08
   6   3  -5   87.59   12.71
  -6  -3   6   77.76   12.91
  -6  -3   6   83.77   17.62
   6   3  -6   65.20   12.85
  -6  -3   7   10.96    4.13
  -6  -3   7   28.89    9.52
   6   3  -7   33.92   10.32
  -6  -3   8   66.02   11.51
   6   3  -8   99.21   11.67
   6   3  -9   22.85    6.03
  -6  -3  10    8.01    6.86
   6   3 -10   32.12   10.49
  -6  -3  11   42.02   12.82
   6   3 -11   87.88   11.56
  -6  -3  12  356.07   52.78
   6   3 -12  368.25   36.18
  -5  -3  -9   24.98    8.92
   5   3   9   18.35    8.05
  -5  -3  -8  183.05   30.13
   5   3   8  197.34   22.58
   5   3   8  166.23   18.35
  -5  -3  -7   45.61   13.69
   5   3   7   77.25   10.27
  -5  -3  -6   66.07   17.93
   5   3   6   38.03    9.05
   5   3   6   66.27   12.53
   5   3   5   97.84   11.27
   5   3   5   66.78    7.63
  -5  -3  -4   52.11   11.14
   5   3   4   44.44    9.98
   5   3   4   62.61   10.23
  -5  -3  -3   28.24    8.61
   5   3   3   23.78    7.30
   5   3   3   43.75    9.72
  -5  -3  -2  244.19   18.13
   5   3   2  195.92   14.89
   5   3   2  221.92   15.82
  -5  -3  -1  110.82   11.51
   5   3   1  109.64   11.56
   5   3   1  131.54   17.93
  -5  -3   0  418.53   23.38
  -5  -3   0  389.88   22.65
   5   3   0  363.04   20.94
  -5  -3   1  194.41   14.44
  -5  -3   1  177.13   36.96
   5   3  -1  184.78   14.60
  -5  -3   2  226.16   14.35
  -5  -3   2  264.07   40.36
   5   3  -2  264.85   17.02
  -5  -3   3   70.97    8.56
  -5  -3   3   90.60   15.66
   5   3  -3   77.74    9.50
  -5  -3   4  146.64   10.12
  -5  -3   4  155.61   33.06
   5   3  -4  190.06   14.91
  -5  -3   5  111.50    9.89
  -5  -3   5  132.69   24.20
   5   3  -5   83.24   10.43
  -5  -3   6  369.25   21.70
  -5  -3   6  415.06   57.86
   5   3  -6  359.62   23.23
  -5  -3   7   60.17   10.27
  -5  -3   7   39.56    9.94
   5   3  -7   51.09   10.80
  -5  -3   8   40.55    7.14
  -5  -3   8   68.55   16.84
   5   3  -8   79.56   14.75
  -5  -3   9  140.70   25.20
  -5  -3  10   40.80   10.47
   5   3 -10    5.88    6.15
  -5  -3  11  380.17   26.82
   5   3 -11  405.35   67.20
   5   3 -12   35.41   10.52
  -5  -3  13   26.69   10.16
   5   3 -13   50.43   13.51
  -4  -3 -10   28.82   10.72
   4   3  10   25.22    9.43
  -4  -3  -9   62.32   15.35
   4   3   9   26.89   10.07
   4   3   9   45.61   13.04
  -4  -3  -8  119.42   14.89
   4   3   8  126.50   14.73
   4   3   8  137.86   14.75
  -4  -3  -7   28.86    9.45
   4   3   7   42.82   12.09
   4   3   7   31.70    9.03
  -4  -3  -6  171.80   16.71
   4   3   6  209.14   17.97
   4   3   6  223.92   17.93
  -4  -3  -5  125.26   11.65
   4   3   5  124.39   10.60
   4   3   5  105.67    8.94
  -4  -3  -4  361.18   24.83
   4   3   4  341.28   22.41
   4   3   4  349.93   23.18
  -4  -3  -3   21.25    7.68
   4   3   3    5.06    4.39
   4   3   3   13.38    5.50
  -4  -3  -2   16.24    7.23
   4   3   2    8.63    6.21
   4   3   2   15.55    5.19
  -4  -3  -1   66.51    9.74
   4   3   1   68.82    8.70
   4   3   1   78.03   12.00
  -4  -3   0   22.92    5.57
  -4  -3   0   33.39    6.32
   4   3   0   65.91    9.47
  -4  -3   1  607.63   27.98
  -4  -3   1  610.10   28.06
   4   3  -1  628.38   29.04
  -4  -3   2 1014.38   42.37
  -4  -3   2  957.67   41.97
   4   3  -2 1007.52   43.28
  -4  -3   3   86.63   10.45
  -4  -3   3   62.87    9.83
   4   3  -3   61.36    9.14
  -4  -3   4   57.66    6.86
  -4  -3   4   49.96    9.69
   4   3  -4   62.07    9.96
  -4  -3   5  363.88   19.35
  -4  -3   5  389.24   32.08
   4   3  -5  375.66   22.23
  -4  -3   6  126.46   14.86
  -4  -3   6  154.28   19.26
   4   3  -6  141.54   11.71
  -4  -3   7   66.11    9.01
  -4  -3   7   68.15   15.95
   4   3  -7   73.23   11.51
  -4  -3   8   33.48    6.77
  -4  -3   8   51.87   13.40
   4   3  -8   43.33   10.43
  -4  -3   9   62.25   11.36
   4   3  -9   69.64    9.16
   4   3 -10   51.91   11.56
  -4  -3  11   36.25   10.67
   4   3 -11   13.91    6.79
  -4  -3  12   89.54   13.51
   4   3 -12   52.16   12.07
  -4  -3  13  177.64   34.21
   4   3 -13  168.32   32.21
  -3  -3 -10   44.39   14.00
   3   3  10   56.06   13.20
   3   3  10   37.32   11.56
  -3  -3  -9   86.92   12.47
   3   3   9   99.26   13.09
   3   3   9   55.29    8.72
  -3  -3  -8   24.56    9.63
   3   3   8   38.42   11.09
   3   3   8   42.64   11.76
  -3  -3  -7  154.21   15.17
   3   3   7  203.20   18.28
   3   3   7  155.59   14.46
  -3  -3  -6   63.85   11.65
   3   3   6   61.65   11.94
   3   3   6   72.10   10.54
  -3  -3  -5   84.35   12.71
   3   3   5   57.64    9.56
   3   3   5   53.69    9.10
   3   3   4  224.09   14.75
   3   3   4  235.10   15.75
  -3  -3  -3   98.64   10.43
   3   3   3   96.28   10.43
   3   3   3   78.31    9.65
  -3  -3  -2   18.46    6.30
   3   3   2    4.44    4.90
   3   3   2   12.18    6.70
  -3  -3  -1  286.03   17.28
  -3  -3  -1  239.96   15.53
   3   3   1  284.33   18.15
  -3  -3   0  203.88   13.91
  -3  -3   0  197.40   27.38
   3   3   0  173.47   12.82
  -3  -3   1  928.79   44.70
  -3  -3   1  764.48   38.40
   3   3  -1  801.58   40.13
  -3  -3   2   26.87    6.70
  -3  -3   2   24.20    7.41
   3   3  -2   25.36    6.77
  -3  -3   3   96.15   13.13
  -3  -3   3   82.42   15.44
   3   3  -3   93.60   13.38
  -3  -3   4   68.06    8.45
  -3  -3   4   91.43   16.57
   3   3  -4   68.62    9.85
  -3  -3   5  134.24   12.80
  -3  -3   5   95.66   18.10
   3   3  -5   86.70   10.27
  -3  -3   6   28.35    5.30
  -3  -3   6   32.88    8.45
   3   3  -6   21.99    5.90
  -3  -3   7  460.83   25.62
  -3  -3   7  433.66   53.40
   3   3  -7  449.30   27.04
  -3  -3   8   68.40   11.40
  -3  -3   8   63.72   12.45
   3   3  -8   82.24   14.95
  -3  -3   9  225.09   10.14
  -3  -3   9  199.60   14.60
   3   3  -9  240.38   14.15
  -3  -3  10   69.00   10.05
   3   3 -10   69.68   10.05
   3   3 -11    9.10    5.64
  -3  -3  12  198.16   22.25
   3   3 -12  172.34   19.94
  -3  -3  13   53.20   13.40
   3   3 -13   74.92   15.73
  -2  -3 -11   33.21   11.60
   2   3  11   40.04   12.76
   2   3  11   19.55    8.28
   2   3  10  103.21   13.67
   2   3  10   84.42   11.91
  -2  -3  -9  251.12   20.72
   2   3   9  230.55   18.44
   2   3   9  258.15   19.68
  -2  -3  -8  154.23   14.89
   2   3   8  181.72   16.13
   2   3   8  179.52   15.66
  -2  -3  -7  121.80   12.98
   2   3   7   99.88    9.47
   2   3   7   87.77    8.85
  -2  -3  -6  109.51   11.65
   2   3   6   88.50   14.93
   2   3   6  101.30   10.56
  -2  -3  -5  437.18   27.80
   2   3   5  516.87   29.75
   2   3   5  588.18   33.99
  -2  -3  -4  102.74   11.54
   2   3   4  114.68   11.56
   2   3   4   91.23    9.61
  -2  -3  -3  144.74   14.62
   2   3   3  162.57   13.18
   2   3   3  169.94   12.22
  -2  -3  -2   37.52    8.90
   2   3   2   38.25    7.94
   2   3   2   26.93    8.19
  -2  -3  -1   49.10    9.52
  -2  -3  -1   32.06    6.79
   2   3   1   41.60    7.88
  -2  -3   0   20.48    6.15
  -2  -3   0   13.58    4.13
   2   3   0   21.34    6.74
  -2  -3   1   21.52    6.34
  -2  -3   1   30.55    7.85
   2   3  -1   48.45   11.27
  -2  -3   2   34.83    7.50
  -2  -3   2   94.84   21.70
   2   3  -2   50.23    9.43
  -2  -3   3  318.65   18.39
  -2  -3   3  278.36   37.29
   2   3  -3  292.27   17.48
  -2  -3   4  106.13   14.09
  -2  -3   4  121.44   22.90
  -2  -3   5  179.70   11.89
  -2  -3   5  173.82   17.37
   2   3  -5  146.07   14.53
  -2  -3   6  159.27   10.47
  -2  -3   6  144.45   11.34
   2   3  -6  150.24   11.78
  -2  -3   7  190.13   12.98
  -2  -3   7  188.11   14.95
   2   3  -7  179.01   14.55
  -2  -3   8  183.56   12.49
  -2  -3   8  194.79   16.71
   2   3  -8  200.11   15.06
  -2  -3   9  140.30    8.81
  -2  -3   9  147.16   13.04
   2   3  -9  129.56   10.05
  -2  -3  10  108.82   12.69
   2   3 -10   83.79   11.07
  -2  -3  11   70.44   11.20
   2   3 -11  115.70   13.67
  -2  -3  12   37.89   11.45
   2   3 -12   53.13   11.87
  -2  -3  13   18.19    9.27
   2   3 -13   10.34    5.44
  -1  -3 -12    3.13    5.83
   1   3  12    7.14    5.37
   1   3  12    2.93    4.64
  -1  -3 -11  208.45   23.01
   1   3  11  259.01   27.09
   1   3  11  173.22   19.12
  -1  -3 -10   64.09   11.98
   1   3  10   40.51   12.11
   1   3  10   51.27   13.89
  -1  -3  -9  212.00   19.37
   1   3   9  171.25   15.91
   1   3   9  143.87   15.29
  -1  -3  -8  260.37   16.24
   1   3   8  259.63   14.15
   1   3   8  247.74   15.22
  -1  -3  -7   20.08    9.05
   1   3   7    8.39    4.30
   1   3   7   12.56    5.81
  -1  -3  -6  250.25   17.84
   1   3   6  267.64   17.88
   1   3   6  215.73   15.97
  -1  -3  -5  157.38   13.75
   1   3   5  153.72   10.83
   1   3   5  128.87   16.86
  -1  -3  -4  141.54   15.17
   1   3   4  161.07   13.58
   1   3   4  135.42   13.98
   1   3   3  476.72   24.98
   1   3   3  451.47   24.65
  -1  -3  -2   43.51    8.23
  -1  -3  -2   25.07    5.32
   1   3   2   37.76    7.94
  -1  -3  -1  142.12   16.33
  -1  -3  -1  217.04   25.07
   1   3   1  190.24   11.96
  -1  -3   0  454.44   20.37
  -1  -3   0  443.40   39.27
   1   3   0  384.45   17.79
  -1  -3   1   35.03    6.46
  -1  -3   1   44.90   11.63
   1   3  -1   37.07    6.94
  -1  -3   2  452.31   18.99
  -1  -3   2  439.62   27.82
  -1  -3   3  172.85   11.51
  -1  -3   3  170.76   19.15
   1   3  -3  195.16   14.38
  -1  -3   4  270.02   16.06
  -1  -3   4  294.64   31.15
   1   3  -4  257.68   16.68
  -1  -3   5   42.55    6.81
  -1  -3   5   21.25    5.57
   1   3  -5   28.97    6.68
  -1  -3   6  193.50   12.56
  -1  -3   6  191.70   14.22
   1   3  -6  243.22   16.53
  -1  -3   7   27.00    6.26
  -1  -3   7   24.80    6.79
   1   3  -7   47.74    8.83
  -1  -3   8  269.33   17.77
  -1  -3   8  285.10   20.23
   1   3  -8  253.71   17.70
  -1  -3   9    0.62    2.73
  -1  -3   9   25.11    7.65
   1   3  -9   15.80    4.84
  -1  -3  10  151.90   13.27
  -1  -3  10  144.34   14.89
   1   3 -10  176.33   16.62
  -1  -3  11   12.20    7.83
   1   3 -11    9.52    5.32
  -1  -3  12   36.03   12.38
   1   3 -12   35.70   11.69
   0  -3 -12   68.38   15.75
   0   3  12   35.12   11.14
   0   3  12   33.94   11.71
   0  -3 -11   40.00   10.92
   0   3  11   45.70   10.40
   0   3  11   43.39   11.76
   0  -3 -10   51.87   14.64
   0   3  10   39.49   11.16
   0   3  10   51.69   12.78
   0  -3  -9  135.44   14.46
   0   3   9  113.26   12.87
   0  -3  -8   63.01   13.04
   0   3   8   45.06    8.12
   0   3   8   66.58   12.60
   0  -3  -7   92.05   15.66
   0   3   7   85.12   12.11
   0   3   7  109.86   15.53
   0  -3  -6   49.05    9.34
   0   3   6   56.88    7.45
   0   3   6   54.53    8.32
   0  -3  -5  232.72   15.40
   0   3   5  229.20   13.67
   0   3   5  179.06   13.56
   0  -3  -4  370.14   20.01
   0   3   4  529.07   23.98
   0   3   4  507.89   25.58
   0  -3  -3  297.99   18.06
   0   3   3  294.04   16.51
   0   3   3  300.94   18.24
   0  -3  -2  235.54   14.02
   0  -3  -2  230.44   25.00
   0   3   2  216.15   13.84
   0  -3  -1   28.84    5.30
   0  -3  -1   31.81    7.99
   0   3   1   36.21    7.59
   0  -3   0    7.85    4.86
   0  -3   0    4.68    3.02
   0   3   0   13.49    6.15
   0  -3   1   18.33    4.93
   0  -3   1   40.13    6.61
   0   3  -1   32.55    6.46
   0  -3   2  227.04   13.13
   0  -3   2  249.65   22.47
   0   3  -2  224.67   12.91
   0  -3   3  305.07   17.28
   0  -3   3  282.09   25.80
   0   3  -3  315.36   19.30
   0  -3   4  484.48   22.85
   0  -3   4  491.38   23.49
   0   3  -4  505.54   24.56
   0  -3   5  220.21   13.36
   0  -3   5  208.23   13.91
   0   3  -5  223.47   13.56
   0  -3   6   46.03    7.19
   0  -3   6   54.51    8.56
   0   3  -6   52.80    7.48
   0  -3   7   70.99    9.58
   0  -3   7  111.55   15.80
   0   3  -7   87.25   12.51
   0  -3   8   58.46    9.50
   0  -3   8   66.44   11.49
   0   3  -8   62.94   10.47
   0  -3   9  126.39   11.43
   0  -3   9  114.92   13.16
   0   3  -9  137.84   13.16
   0  -3  10   35.47    9.41
   0  -3  10   39.87   10.92
   0   3 -10   24.65    8.03
   0  -3  11   27.93    8.47
   0   3 -11   49.67   11.63
   0  -3  12   54.49   14.18
   0   3 -12   48.36   11.36
   1  -3 -12   27.51   10.18
  -1   3  12   19.55    7.85
  -1   3  12    9.72    6.52
   1  -3 -11   28.84    9.89
  -1   3  11   16.59    6.97
  -1   3  11   10.56    7.83
   1  -3 -10  206.79   19.32
  -1   3  10  160.69   14.55
  -1   3  10  167.79   17.13
   1  -3  -9   11.36    5.64
  -1   3   9   28.89    5.83
  -1   3   9   22.50    8.72
   1  -3  -8  307.58   22.12
  -1   3   8  277.80   18.01
  -1   3   8  257.17   18.68
   1  -3  -7   49.12   11.07
  -1   3   7   30.77    6.26
  -1   3   7   51.07   10.29
   1  -3  -6  230.24   16.73
  -1   3   6  180.28   11.56
  -1   3   6  206.10   16.08
   1  -3  -5   44.73    8.50
  -1   3   5   25.49    4.90
  -1   3   5   26.71    7.83
   1  -3  -4  324.06   20.32
  -1   3   4  293.09   16.13
  -1   3   4  312.64   20.08
   1  -3  -3  186.76   13.93
  -1   3   3  143.83   17.50
  -1   3   3  145.56   19.15
   1  -3  -2  398.43   18.21
   1  -3  -2  413.93   23.69
  -1   3   2  459.83   20.37
   1  -3  -1   26.62    6.46
   1  -3  -1   42.40    7.68
   1  -3   0  461.48   21.30
   1  -3   0  436.07   29.66
  -1   3   0  354.19   16.71
   1  -3   1  160.42   11.56
   1  -3   1  206.99   17.84
  -1   3  -1  168.79   11.45
   1  -3   2   55.93   10.21
   1  -3   2   30.26    6.17
  -1   3  -2   40.87    8.08
   1  -3   3  433.23   23.12
   1  -3   3  404.90   22.78
  -1   3  -3  411.27   22.38
   1  -3   4   97.77   10.58
   1  -3   4  126.12   13.20
  -1   3  -4  139.43   14.27
   1  -3   5  150.93   10.94
   1  -3   5  173.20   12.87
  -1   3  -5  125.79   15.84
   1  -3   6  265.31   17.79
   1  -3   6  250.83   17.30
  -1   3  -6  211.87   15.35
   1  -3   7   12.82    4.48
   1  -3   7   24.00    7.59
  -1   3  -7   15.95    6.43
   1  -3   8  234.85   13.20
   1  -3   8  243.08   14.42
  -1   3  -8  266.80   15.77
   1  -3   9  165.52   14.75
   1  -3   9  175.55   16.64
  -1   3  -9  149.97   14.27
   1  -3  10   38.58   11.03
   1  -3  10   39.80   13.93
  -1   3 -10   29.64    9.41
   1  -3  11  277.65   29.48
  -1   3 -11  195.72   20.63
   1  -3  12   -2.80    5.17
  -1   3 -12   14.73    7.79
   2  -3 -13    9.67    5.99
  -2   3  13   33.74   10.98
   2  -3 -12   32.12    9.76
  -2   3  12   28.51    7.39
  -2   3  12   24.34    8.19
   2  -3 -11   76.30   11.38
  -2   3  11   62.61    9.89
  -2   3  11   86.41   15.40
   2  -3 -10   72.19   10.49
  -2   3  10  115.16   11.07
  -2   3  10  129.03   14.20
   2  -3  -9  102.05   10.54
  -2   3   9  106.69    7.96
  -2   3   9  127.14   13.71
   2  -3  -8  166.41   14.46
  -2   3   8  184.60   13.00
  -2   3   8  183.32   15.13
   2  -3  -7  178.66   15.24
  -2   3   7  180.41   12.09
  -2   3   7  243.39   19.17
   2  -3  -6  156.45   12.76
  -2   3   6  160.36   10.54
  -2   3   6  138.37   11.94
   2  -3  -5  161.49   15.64
  -2   3   5  148.97   13.84
  -2   3   5  142.81   14.98
   2  -3  -4   99.75   14.31
  -2   3   4  107.71   13.44
  -2   3   4   97.08   13.62
   2  -3  -3  180.21   12.87
   2  -3  -2   32.19    7.39
   2  -3  -2   35.92    8.14
  -2   3   2   40.73    9.38
   2  -3  -1   21.76    6.52
   2  -3  -1   23.41    5.90
  -2   3   1   19.61    5.83
   2  -3   0   26.49    6.10
   2  -3   0   30.90    7.23
  -2   3   0   29.71    7.85
   2  -3   1   43.62    9.45
   2  -3   1   38.47    7.65
  -2   3  -1   28.37    7.08
   2  -3   2   22.34    6.70
   2  -3   2   97.95   13.38
  -2   3  -2   26.51    6.34
   2  -3   3  131.14   13.38
   2  -3   3  137.57   13.53
  -2   3  -3  126.77   13.36
   2  -3   4   96.97   11.80
   2  -3   4   95.24   10.07
  -2   3  -4   98.77    9.89
   2  -3   5  503.74   29.15
   2  -3   5  576.93   32.77
  -2   3  -5  595.08   33.19
   2  -3   6  123.84   11.36
   2  -3   6  115.45   12.16
  -2   3  -6  129.21   11.11
   2  -3   7   79.56    8.21
   2  -3   7   86.77    9.89
  -2   3  -7   81.40    7.88
   2  -3   8  135.02   13.20
   2  -3   8  142.83   15.04
  -2   3  -8  188.97   16.04
   2  -3   9  306.42   22.07
   2  -3   9  238.94   18.92
  -2   3  -9  239.65   17.57
   2  -3  10   65.56   11.27
   2  -3  10   92.07   12.82
  -2   3 -10  104.29   13.18
   2  -3  11   12.67    6.21
   2  -3  11   23.41    9.63
   3  -3 -13   45.39   11.80
  -3   3  13   58.41   13.80
   3  -3 -12  156.34   18.44
  -3   3  12  141.10   17.08
   3  -3 -11   13.29    6.01
  -3   3  11   14.80    6.72
   3  -3 -10   62.45   12.58
  -3   3  10   39.07    7.65
  -3   3  10   73.48   11.38
   3  -3  -9  255.46   15.91
  -3   3   9  220.21   11.11
  -3   3   9  234.14   15.35
   3  -3  -8   74.48   14.20
  -3   3   8   75.90   12.49
  -3   3   8   74.41   13.93
   3  -3  -7  482.26   28.84
  -3   3   7  400.07   22.21
  -3   3   7  461.32   28.29
   3  -3  -6   27.64    7.10
  -3   3   6    8.41    2.64
  -3   3   6   16.02    8.30
   3  -3  -5  129.81   13.93
  -3   3   5  102.07    9.56
  -3   3   5  113.48   12.36
   3  -3  -4   80.11   11.18
  -3   3   4   78.34    7.96
  -3   3   4   62.36    8.63
   3  -3  -3   81.82   12.98
   3  -3  -3   74.08    9.65
  -3   3   3   77.47   11.67
   3  -3  -2   17.90    5.72
  -3   3   2   14.78    5.66
   3  -3  -1  825.14   47.88
  -3   3   1  818.04   40.20
   3  -3   0  172.25   12.98
   3  -3   0  214.04   19.90
  -3   3   0  195.59   13.18
   3  -3   1  255.06   14.93
   3  -3   1  256.33   25.60
  -3   3  -1  304.94   16.57
   3  -3   2    6.72    5.35
   3  -3   2   23.38    5.10
  -3   3  -2    9.78    4.77
   3  -3   3   90.72    9.92
   3  -3   3  106.22    9.94
  -3   3  -3   87.03    9.10
   3  -3   4  216.35   14.55
   3  -3   4  178.81   12.76
  -3   3  -4  238.67   15.77
   3  -3   5  120.75   17.59
   3  -3   5   77.52   11.47
  -3   3  -5   65.11    9.67
   3  -3   6   50.67   10.27
   3  -3   6   68.82    9.58
  -3   3  -6   50.85    8.94
   3  -3   7  159.56   15.62
   3  -3   7  143.38   13.80
  -3   3  -7  155.23   13.78
   3  -3   8   53.69   13.09
   3  -3   8   60.88   15.64
  -3   3  -8   35.70    9.38
   3  -3   9   69.15   10.78
   3  -3   9   68.09   10.89
  -3   3  -9   89.61   11.14
   3  -3  10   51.03   11.49
   3  -3  10   54.33   13.18
   4  -3 -13  147.58   28.97
  -4   3  13  182.43   35.70
   4  -3 -12   69.64   11.58
  -4   3  12   60.61   12.14
   4  -3 -11   33.52    9.56
  -4   3  11   52.42   13.98
   4  -3 -10   12.38    6.37
  -4   3  10   32.21    9.65
   4  -3  -9  108.09   10.92
  -4   3   9   33.26    5.95
  -4   3   9   49.78   10.34
   4  -3  -8   44.02    9.76
  -4   3   8   21.45    4.53
  -4   3   8   26.80    8.19
   4  -3  -7   58.15   10.92
  -4   3   7   47.68    6.52
  -4   3   7   61.92   11.16
   4  -3  -6  121.55   16.28
  -4   3   6  120.58    8.94
   4  -3  -5  415.89   23.45
  -4   3   5  390.22   18.68
  -4   3   5  380.74   22.07
   4  -3  -4   48.21    9.34
  -4   3   4   60.14    5.97
  -4   3   4   73.48    9.54
   4  -3  -3   63.89    8.96
   4  -3  -3   62.25    6.39
  -4   3   3   76.85   10.40
   4  -3  -2  799.71   35.72
   4  -3  -2  954.81   39.07
  -4   3   2 1036.67   43.86
   4  -3  -1  601.22   27.89
   4  -3  -1  636.78   26.80
  -4   3   1  655.62   29.48
   4  -3   0   50.65    9.10
   4  -3   0   28.75    5.17
  -4   3   0   68.84    9.61
   4  -3   1   59.50    8.65
   4  -3   1   66.62    7.10
  -4   3  -1   67.60    8.47
   4  -3   2   10.83    7.14
  -4   3  -2   10.36    4.61
   4  -3   3   19.21    5.92
   4  -3   3    3.62    3.37
  -4   3  -3   18.28    6.59
   4  -3   4  351.02   22.70
   4  -3   4  323.37   20.28
  -4   3  -4  347.95   21.92
   4  -3   5  147.44   11.29
   4  -3   5   86.37    8.16
  -4   3  -5   85.28    7.61
   4  -3   6  156.65   14.29
   4  -3   6  161.91   14.42
  -4   3  -6  250.09   19.08
   4  -3   7   40.95   10.18
   4  -3   7   35.43    8.81
  -4   3  -7   20.79    5.50
   4  -3   8   93.24   11.96
   4  -3   8  136.31   15.17
   4  -3   9   66.33   15.51
   4  -3   9   45.28   12.91
   4  -3  10   24.87    8.96
   4  -3  10   38.14    9.98
   5  -3 -13   40.93   13.31
  -5   3  13   52.40   14.95
   5  -3 -12   23.45    7.08
  -5   3  12   16.33    6.15
   5  -3 -11  384.18   26.58
   5  -3 -10   17.53    6.37
  -5   3  10   27.91    9.83
   5  -3  -9  150.70   14.02
  -5   3   9  152.48   14.86
   5  -3  -8   57.59   11.94
   5  -3  -7   47.96   10.49
  -5   3   7   58.68   11.94
   5  -3  -6  347.93   22.45
  -5   3   6  382.74   24.47
   5  -3  -5   96.31   11.63
  -5   3   5   99.61    7.19
  -5   3   5   96.44   11.23
   5  -3  -4  109.51   11.94
  -5   3   4  122.55   13.27
  -5   3   4  105.67   10.58
   5  -3  -3  100.90   11.89
   5  -3  -3   65.40    5.52
  -5   3   3   66.93    7.88
   5  -3  -2  267.35   17.88
  -5   3   2  227.09   15.42
   5  -3  -1  218.37   15.69
   5  -3  -1  150.02   20.54
  -5   3   1  145.25   11.27
   5  -3   0  328.96   34.70
  -5   3   0  400.05   21.65
   5  -3   1  115.45   11.40
   5  -3   1  123.35   14.64
  -5   3  -1  138.57   11.78
   5  -3   2  268.60   19.17
   5  -3   2  206.92   13.69
  -5   3  -2  264.20   17.22
   5  -3   3   17.04    8.01
   5  -3   3   36.34    7.83
  -5   3  -3   26.64    7.48
   5  -3   4   52.91    9.94
   5  -3   4   48.08    8.34
  -5   3  -4   51.18    9.14
   5  -3   5   49.96    9.74
   5  -3   5   61.34    7.92
  -5   3  -5   69.00    7.90
   5  -3   6   61.79   14.58
   5  -3   6   47.37   11.40
  -5   3  -6   56.22   12.76
   5  -3   7   81.86   11.60
   5  -3   7  115.63   13.60
   5  -3   8  182.94   20.54
   5  -3   8  163.93   19.30
   5  -3   9   56.99   13.24
   6  -3 -13   11.09    5.50
  -6   3  13   22.23   10.01
   6  -3 -12  396.70   98.81
  -6   3  12  341.70   34.41
   6  -3 -11   42.71   12.58
  -6   3  11   58.28    9.92
   6  -3 -10   25.56    9.12
  -6   3  10    4.95    5.37
   6  -3  -9   44.95    7.92
  -6   3   9   18.81    5.57
   6  -3  -8   76.16    9.69
  -6   3   8   47.54    8.96
   6  -3  -7   29.00    8.30
  -6   3   7   22.25    6.12
   6  -3  -6   46.35    9.74
  -6   3   6   43.24    9.78
   6  -3  -5   77.40   11.78
  -6   3   5   70.31   10.40
   6  -3  -4  354.59   22.61
  -6   3   4  384.47   23.58
   6  -3  -3  390.46   24.89
  -6   3   3  352.39   22.72
   6  -3  -2  463.16   29.40
   6  -3  -2  446.68   24.16
  -6   3   2  575.75   32.46
   6  -3  -1  145.03   13.00
   6  -3  -1   89.14   16.28
  -6   3   1  116.92   14.40
   6  -3   0   40.73    8.76
   6  -3   0   55.88   10.45
  -6   3   0   71.44   10.54
   6  -3   1  137.35   12.76
   6  -3   1   85.68   13.84
  -6   3  -1   89.76   15.02
   6  -3   2  231.70   17.30
   6  -3   2  207.03   13.98
  -6   3  -2  220.99   15.42
   6  -3   3    7.72    6.43
   6  -3   3   15.09    5.72
  -6   3  -3    9.23    3.95
   6  -3   4   81.04   11.00
   6  -3   4  108.93   11.11
  -6   3  -4   89.56    9.16
   6  -3   5   66.67   10.65
   6  -3   5   86.74   10.03
   6  -3   6    6.54    6.23
   6  -3   6   23.32    8.81
   6  -3   7  226.53   23.72
   6  -3   7  233.74   23.89
   6  -3   8   86.39   17.22
   6  -3   8   63.78   13.42
   7  -3 -13   95.71   18.13
  -7   3  13   70.46   16.06
   7  -3 -12   21.92    8.34
  -7   3  12   38.76   13.27
   7  -3 -11   21.70    8.92
  -7   3  11   10.09    5.57
   7  -3 -10  181.21   15.62
  -7   3  10  210.34   17.97
   7  -3  -9   18.86    8.76
  -7   3   9   46.43   11.31
   7  -3  -8  158.03   14.35
  -7   3   8  144.07   14.38
   7  -3  -7   49.74   11.23
  -7   3   7   43.04    9.16
   7  -3  -6  159.89   12.38
  -7   3   6  130.09   10.58
   7  -3  -5  115.30   12.58
  -7   3   5  116.27   11.00
   7  -3  -4   59.46   13.64
  -7   3   4   62.41   12.76
   7  -3  -3  181.23   15.35
  -7   3   3  227.29   16.11
   7  -3  -2  166.61   16.15
  -7   3   2  145.65   11.71
   7  -3  -1   35.16    9.92
  -7   3   1   38.42    8.16
   7  -3   0   64.16   12.20
  -7   3   0   45.48    8.39
   7  -3   1  102.85   10.34
   7  -3   1   76.94    5.90
  -7   3  -1  117.36    9.52
   7  -3   2  104.27   12.67
   7  -3   2  116.05   10.07
  -7   3  -2   83.99    8.85
   7  -3   3  128.90   14.00
   7  -3   3  112.10   10.89
  -7   3  -3  112.04   10.47
   7  -3   4   16.99    7.32
   7  -3   4   25.71    8.12
   7  -3   5   28.22    8.54
   7  -3   5   32.17    7.57
   7  -3   6   11.74    6.94
   7  -3   6    2.91    3.77
   7  -3   7    9.83    6.23
   7  -3   7   11.94    6.70
   8  -3 -12   44.41   14.29
  -8   3  12   67.75   16.08
   8  -3 -11  183.89   20.06
  -8   3  11  171.51   20.92
   8  -3 -10   78.91   13.29
  -8   3  10   63.98   10.87
   8  -3  -9  119.71   12.53
  -8   3   9  144.54   14.69
   8  -3  -8   66.16   13.53
  -8   3   8   94.82   11.76
   8  -3  -7   34.76    7.94
  -8   3   7   50.21    9.21
   8  -3  -6   21.19    6.61
  -8   3   6   19.32    7.01
   8  -3  -5   86.50   10.34
  -8   3   5  122.09   12.40
   8  -3  -4    4.73    5.75
  -8   3   4   10.69    5.35
   8  -3  -3  338.68   18.95
  -8   3   3  327.61   16.57
   8  -3  -2   42.66   10.34
  -8   3   2    9.34    3.39
   8  -3  -1   59.61   10.43
  -8   3   1   75.34    8.99
   8  -3   0   11.25    5.15
  -8   3   0    7.76    3.90
   8  -3   1    2.60    5.04
  -8   3  -1   13.87    5.26
   8  -3   2  132.18   14.73
   8  -3   3  174.73   19.50
   8  -3   4   92.96   14.44
   8  -3   5  103.29   22.05
   9  -3 -12   41.55   10.12
  -9   3  12   29.86   10.25
   9  -3 -11   41.53   13.09
  -9   3  11   36.38   12.65
   9  -3 -10   16.86    5.86
  -9   3  10   25.51    7.74
   9  -3  -9  106.09   14.69
  -9   3   9  127.52   15.46
   9  -3  -8   42.80   12.82
  -9   3   8   40.69   11.36
   9  -3  -7  295.77   22.05
  -9   3   7  263.12   20.28
   9  -3  -6   12.07    7.68
  -9   3   6   10.52    4.73
   9  -3  -5   14.73    7.34
  -9   3   5    9.87    6.59
   9  -3  -4    7.83    5.15
  -9   3   4   13.87    6.52
   9  -3  -3   83.15   12.31
  -9   3   3   78.25    9.87
   9  -3  -2   54.66   11.29
  -9   3   2   82.13    9.89
   9  -3  -1  141.23   15.26
  -9   3   1  185.80   14.53
   9  -3   0   23.56   10.12
   9  -3   1   16.37    7.76
   9  -3   3   44.35   13.73
   9  -3   4   67.75   14.13
  10  -3 -11   28.24    9.54
 -10   3  11   20.06    9.54
  10  -3  -9   74.14   16.75
 -10   3   9   19.88    7.81
  10  -3  -8  143.07   17.15
 -10   3   8  156.65   18.39
  10  -3  -7  150.53   17.19
  10  -3  -6    8.63    5.08
 -10   3   6   11.00    5.59
  10  -3  -5   47.74   13.64
 -10   3   5   80.89   10.74
  10  -3  -4   52.20    9.36
 -10   3   4   51.18   13.78
 -10   3   3   11.43    5.30
  10  -3  -2  295.73   28.40
  10  -3  -1  115.27   15.97
  10  -3   0   96.68   15.24
  10  -3   1   50.56   14.15
  10  -3   2   42.20   11.29
  11  -3  -9   43.17   11.85
 -11   3   9   11.54    5.92
  11  -3  -8   88.14   18.61
 -11   3   8  107.67   21.90
  11  -3  -7  112.52   23.74
 -11   3   7  157.20   30.55
  11  -3  -6  113.94   23.43
 -11   3   6   87.01   19.19
  11  -3  -5   19.37    8.74
 -11   3   5    0.40    4.28
  11  -3  -4   40.16   11.94
  11  -3  -3   74.81   17.48
  11  -3  -2   35.07   13.24
  11  -3  -1   11.40    6.19
  11  -3   0   74.56   16.97
  -8  -4   0   19.83    8.74
   8   4   0   53.80   12.60
   8   4   0   39.29   10.18
  -8  -4   1  111.92   20.12
   8   4  -1  166.90   28.91
  -8  -4   2   17.13    6.88
   8   4  -2    1.71    6.26
   8   4  -2   30.35   12.34
  -8  -4   3   26.76   10.54
  -8  -4   3   32.08   12.51
   8   4  -3   30.48   11.25
  -8  -4   4   16.99    8.41
  -8  -4   4   18.17    9.16
   8   4  -4   18.04    8.45
  -8  -4   5   44.81   15.00
   8   4  -5   35.92   12.11
  -8  -4   6   38.16   10.56
   8   4  -6   27.47   10.80
  -8  -4   7   40.89   19.66
   8   4  -7   63.43   13.53
  -7  -4  -2   26.27   10.58
   7   4   2    9.63    5.77
   7   4   2    7.37    5.19
  -7  -4  -1   33.54   12.07
   7   4   1   27.29   10.98
   7   4   1   19.30    9.14
  -7  -4   0    1.97    5.04
   7   4   0   17.84    8.59
  -7  -4   1   78.51   11.74
   7   4  -1   78.11   11.45
   7   4  -1   98.84   13.20
  -7  -4   2  110.66   14.84
  -7  -4   2  166.15   19.41
   7   4  -2  148.93   17.79
  -7  -4   3   24.51    7.34
  -7  -4   3   25.82   12.11
   7   4  -3   40.18   10.58
  -7  -4   4   42.26    9.43
  -7  -4   4   29.31   15.26
   7   4  -4   45.92   11.98
  -7  -4   5   35.94    9.47
  -7  -4   5   38.71   11.82
   7   4  -5   28.53    8.96
  -7  -4   6   71.68   20.77
   7   4  -6   96.22   20.83
  -7  -4   7   55.80   13.22
   7   4  -7   59.37   15.31
  -7  -4   8   44.73   15.35
   7   4  -8   59.74   13.91
  -6  -4  -4   27.98   11.07
   6   4   4   37.91   10.43
   6   4   4   10.98    6.90
  -6  -4  -3   76.96   17.84
   6   4   3   85.04   18.95
   6   4   3  109.77   22.34
  -6  -4  -2   19.66    8.23
   6   4   2   34.03    9.21
   6   4   2   18.28    5.86
  -6  -4  -1   11.85    7.43
   6   4   1    5.77    5.97
  -6  -4   0   81.40   11.47
   6   4   0   79.84   10.80
   6   4   0   92.80   12.56
  -6  -4   1   38.09   10.85
  -6  -4   1   64.94   13.80
   6   4  -1   54.20    9.76
  -6  -4   2  377.86   34.12
  -6  -4   2  316.34   60.63
   6   4  -2  369.61   33.43
  -6  -4   3   69.44   10.78
  -6  -4   3   47.39   20.17
   6   4  -3  124.93   16.86
  -6  -4   4   11.69    6.12
  -6  -4   4   15.66    5.90
   6   4  -4   18.39    6.92
  -6  -4   5   82.71   11.54
  -6  -4   5   58.50   16.46
   6   4  -5   79.25   12.87
  -6  -4   6   24.83    7.94
  -6  -4   6   20.48    8.36
   6   4  -6   29.53    9.87
  -6  -4   7   27.22   11.36
   6   4  -7   37.38   10.69
  -6  -4   8   38.65   12.58
   6   4  -8   33.43   11.74
  -6  -4   9   15.00    7.94
   6   4  -9   22.25    9.94
  -5  -4  -5   23.78   10.12
   5   4   5   40.89   10.96
   5   4   5   27.44   10.67
  -5  -4  -4   38.18   13.42
   5   4   4   30.53   10.83
   5   4   4   18.39    8.63
  -5  -4  -3   41.04   10.58
   5   4   3   15.31    6.57
   5   4   3   25.78    9.94
  -5  -4  -2   37.96   12.49
   5   4   2   18.06    8.32
   5   4   2   19.52    7.45
  -5  -4  -1    5.77    5.64
   5   4   1   11.98    7.72
   5   4   1   31.21   10.54
  -5  -4   0   93.53   11.94
   5   4   0   30.35    9.14
   5   4   0   64.94   16.59
  -5  -4   1  149.93   14.18
  -5  -4   1  149.26   14.73
   5   4  -1  146.22   15.09
  -5  -4   2  869.06  190.08
  -5  -4   2  778.97   71.44
   5   4  -2  904.16  197.94
  -5  -4   3   61.19   14.71
  -5  -4   3   83.06   15.22
   5   4  -3   64.69   16.15
  -5  -4   4   43.53   11.23
  -5  -4   4   65.03   16.02
   5   4  -4   74.23   10.40
  -5  -4   5  104.36    9.87
  -5  -4   5  118.29   31.15
   5   4  -5  111.35   14.84
  -5  -4   6   16.77    6.63
  -5  -4   6   11.89    6.99
   5   4  -6    9.67    6.66
  -5  -4   7   58.61   18.28
   5   4  -7   84.73   12.09
  -5  -4   8   73.37   15.93
   5   4  -8   37.83   10.45
  -5  -4   9   10.87    4.15
   5   4  -9    9.21    5.92
   4   4   6   15.15    6.32
   4   4   6   14.58    7.57
  -4  -4  -5   45.75   15.09
   4   4   5    8.23    5.97
   4   4   5    8.36    5.68
  -4  -4  -4   79.47   14.95
   4   4   4   83.64   12.05
   4   4   4   77.05   12.45
  -4  -4  -3   37.47   12.45
   4   4   3   33.92   10.43
   4   4   3   44.61   14.13
  -4  -4  -2   90.29   11.91
   4   4   2  150.48   13.78
   4   4   2  130.52   12.89
  -4  -4  -1   21.30    8.43
   4   4   1   20.63    7.94
   4   4   1   21.79    9.38
  -4  -4   0   33.28    9.21
  -4  -4   0    7.94    4.75
   4   4   0   37.87   10.12
  -4  -4   1   10.47    4.93
  -4  -4   1   16.42    7.34
   4   4  -1   15.37    8.43
  -4  -4   2   76.25   11.47
  -4  -4   2   69.84   15.37
   4   4  -2   97.99   12.67
  -4  -4   3  239.60   20.72
  -4  -4   3  226.89   36.27
   4   4  -3  281.07   24.25
  -4  -4   4   28.35    8.01
  -4  -4   4   15.88    9.03
   4   4  -4   49.32   10.72
  -4  -4   5   14.15    5.79
  -4  -4   5   23.92   10.03
   4   4  -5   35.78   11.67
  -4  -4   6  112.35   10.83
  -4  -4   6  120.02   30.70
   4   4  -6  127.39   13.02
  -4  -4   7   66.31   12.40
   4   4  -7   23.18    8.25
  -4  -4   8   45.52   11.69
   4   4  -8   59.55   11.67
  -4  -4   9   52.96   15.42
   4   4  -9   89.61   19.32
  -4  -4  10   16.44    8.52
   4   4 -10   71.04   15.64
  -3  -4  -7   35.12   13.91
   3   4   7   39.36    9.41
   3   4   7   28.62   10.03
  -3  -4  -6   44.50   16.04
   3   4   6   20.54    8.25
   3   4   6   18.88    8.05
  -3  -4  -5  268.04   28.06
   3   4   5  264.85   26.71
   3   4   5  270.88   28.02
  -3  -4  -4   86.30   12.42
   3   4   4   88.21   11.51
   3   4   4  113.61   14.86
  -3  -4  -3  147.44   14.38
   3   4   3   95.29   10.16
   3   4   3   92.73   11.63
  -3  -4  -2   66.51   16.08
   3   4   2   73.37   10.47
   3   4   2   66.93   15.46
  -3  -4  -1   68.51   10.74
   3   4   1   85.32   11.40
  -3  -4   0   31.08    9.16
  -3  -4   0   32.50    9.56
   3   4   0   27.51    8.94
  -3  -4   1   13.47    5.06
  -3  -4   1   23.89    8.59
   3   4  -1   22.78    7.48
  -3  -4   2   64.45    8.03
  -3  -4   2   71.41   15.77
   3   4  -2   77.03   14.86
  -3  -4   3  136.35   13.27
  -3  -4   3  118.34   17.88
   3   4  -3  155.54   16.04
  -3  -4   4   32.59    8.47
  -3  -4   4   30.13    7.50
   3   4  -4   30.06    8.81
  -3  -4   5  244.26   19.99
  -3  -4   5  282.13   33.90
  -3  -4   6   43.31   11.00
  -3  -4   6   36.43    9.63
   3   4  -6   15.37    6.86
  -3  -4   7   32.77    8.96
  -3  -4   7   22.67    7.59
   3   4  -7   55.35   11.14
  -3  -4   8  114.32   18.95
   3   4  -8  142.65   17.95
  -3  -4   9   72.70   17.37
   3   4  -9   67.95   15.73
  -3  -4  10   82.86   27.00
   3   4 -10  102.92   19.59
  -2  -4  -8   28.33   10.36
   2   4   8   74.23   14.98
   2   4   8   44.48   11.34
  -2  -4  -7  184.87   36.07
   2   4   7  179.66   34.61
   2   4   7  125.61   26.73
  -2  -4  -6   50.80   13.51
   2   4   6   71.10   11.51
  -2  -4  -5   12.62    7.70
   2   4   5   25.07    8.85
   2   4   5   23.52    7.81
  -2  -4  -4   76.56   11.03
   2   4   4   75.08    9.45
   2   4   4   56.35   14.20
  -2  -4  -3  181.88   18.95
   2   4   3  124.81   13.13
   2   4   3  155.19   16.44
  -2  -4  -2   56.00   10.25
   2   4   2   45.46    8.03
   2   4   2   43.53    8.87
  -2  -4  -1   72.70    9.45
  -2  -4  -1   86.37   10.34
   2   4   1  112.95   14.02
  -2  -4   0   37.09    8.94
  -2  -4   0   54.15   12.51
   2   4   0   37.29    8.61
  -2  -4   1   92.47   10.98
  -2  -4   1   70.33   19.83
   2   4  -1   85.48   10.21
  -2  -4   2   14.86    5.01
  -2  -4   2   31.15    7.08
   2   4  -2   19.32    6.97
  -2  -4   3   44.22    7.96
  -2  -4   3   36.89    8.01
   2   4  -3   46.74    8.65
  -2  -4   4  101.16   11.20
  -2  -4   4  119.09   18.19
   2   4  -4  162.60   17.15
  -2  -4   5   49.18   10.09
  -2  -4   5   28.53   12.45
   2   4  -5   58.72   12.56
  -2  -4   6   22.07    7.41
  -2  -4   6   48.81   16.53
   2   4  -6   42.71   12.14
  -2  -4   7   82.80   10.69
  -2  -4   7   68.22   16.44
   2   4  -7   88.10   13.24
  -2  -4   8   14.64    5.83
  -2  -4   8   24.56    9.89
   2   4  -8   15.60    6.57
  -2  -4   9   56.17   15.02
   2   4  -9   64.83   14.58
  -2  -4  10   30.22   14.00
   2   4 -10   31.68    9.12
  -1  -4  -8   55.57   14.75
   1   4   8   20.59    8.72
   1   4   8   53.05   13.20
  -1  -4  -7  194.61   22.21
   1   4   7  183.12   19.59
   1   4   7  175.95   20.54
  -1  -4  -6   37.76   12.42
   1   4   6   46.26   12.98
   1   4   6   26.98    9.65
  -1  -4  -5  146.93   15.17
   1   4   5  146.98   13.04
   1   4   5  137.35   13.18
  -1  -4  -4  130.85   14.18
   1   4   4  142.96   14.09
   1   4   4  153.46   15.60
  -1  -4  -3  100.61   14.58
   1   4   3   43.15    6.61
   1   4   3   83.79   11.65
  -1  -4  -2  136.64   14.53
   1   4   2  158.74   13.98
   1   4   2  166.92   15.66
  -1  -4  -1  167.90   12.98
  -1  -4  -1  122.91   25.25
   1   4   1  137.93   11.20
  -1  -4   0   91.67    9.76
  -1  -4   0   98.86   15.55
   1   4   0   68.89   10.72
  -1  -4   1   26.84    9.07
  -1  -4   1   85.99   12.67
  -1  -4   2   39.60    9.21
  -1  -4   2   27.86    7.70
   1   4  -2   51.49    8.90
  -1  -4   3    0.87    3.88
  -1  -4   3   20.97    6.08
   1   4  -3   10.78    5.88
  -1  -4   4  297.90   23.43
  -1  -4   4  295.95   41.55
   1   4  -4  317.27   25.98
  -1  -4   5   62.81   12.25
  -1  -4   5   65.49   14.33
   1   4  -5   67.69   16.42
  -1  -4   6  286.66   20.70
  -1  -4   6  254.82   35.05
   1   4  -6  257.75   19.86
  -1  -4   7   88.32   11.58
  -1  -4   7   68.20   11.18
   1   4  -7   89.34   12.49
  -1  -4   8   10.56    5.59
  -1  -4   8   24.67    9.81
   1   4  -8   25.25    8.81
  -1  -4   9   19.48    8.25
   1   4  -9   40.71   13.73
   0  -4  -9   68.71   14.64
   0   4   9  118.80   21.34
   0   4   9  105.65   20.41
   0  -4  -8   10.45    6.59
   0   4   8   21.25    8.94
   0   4   8   29.31   11.91
   0  -4  -7   70.82   12.62
   0   4   7   42.77   11.89
   0   4   7   32.12   10.14
   0  -4  -6   87.68   13.64
   0   4   6   94.95   10.36
   0   4   6   75.47   10.83
   0  -4  -5    5.99    5.92
   0   4   5    7.76    5.46
   0   4   5   32.61   10.07
   0  -4  -4   52.67   11.36
   0   4   4   32.24    7.59
   0   4   4   39.96    9.87
   0  -4  -3   32.19    8.08
   0   4   3   23.45    6.81
   0   4   3   17.55    6.92
   0  -4  -2  215.04   18.66
   0  -4  -2  194.25   16.35
   0   4   2  190.86   17.26
   0  -4  -1   38.14   10.29
   0  -4  -1   36.49    8.56
   0   4   1   41.18   10.07
   0  -4   0   51.18   10.29
   0  -4   0   45.04    9.87
   0  -4   1   31.21    8.83
   0  -4   1   23.47    7.59
   0   4  -1   42.68    9.23
   0  -4   2  195.16   16.99
   0  -4   2  199.40   26.16
   0   4  -2  222.50   19.74
   0  -4   3    8.50    5.37
   0  -4   3   15.00    6.94
   0   4  -3   14.55    6.32
   0  -4   4   43.26    9.69
   0  -4   4   28.89    9.96
   0   4  -4   22.01    7.25
   0  -4   5   33.08    9.65
   0  -4   5   14.80    8.76
   0   4  -5   15.20    7.14
   0  -4   6   93.13    9.89
   0  -4   6   97.06   20.37
   0   4  -6   88.25   11.85
   0  -4   7   71.30   10.47
   0  -4   7   45.72   14.31
   0   4  -7   36.43   11.20
   0  -4   8    8.65    5.97
   0  -4   8   13.60    6.97
   0   4  -8   11.78    6.01
   0  -4   9   79.31   15.71
   0   4  -9   93.76   17.86
   1  -4  -9   19.70    8.45
  -1   4   9   26.16    9.14
  -1   4   9   10.72    6.79
   1  -4  -8   23.01    9.72
  -1   4   8   27.38    8.65
  -1   4   8   28.84    8.28
   1  -4  -7   68.57   11.11
  -1   4   7   65.93    8.65
  -1   4   7   88.94   12.76
   1  -4  -6  293.36   23.16
  -1   4   6  261.99   18.75
  -1   4   6  202.06   17.39
   1  -4  -5   74.79   10.47
  -1   4   5   70.59    8.81
  -1   4   5   68.06   16.28
   1  -4  -4  322.71   25.76
  -1   4   4  276.65   20.63
  -1   4   4  293.49   23.78
   1  -4  -3   16.35    6.63
  -1   4   3   12.14    3.68
  -1   4   3   29.51    7.10
   1  -4  -2   50.47   10.69
   1  -4  -2   25.69    6.63
  -1   4   2   39.47    9.23
   1  -4  -1   55.75   10.36
   1  -4  -1   25.91    7.48
  -1   4   1   46.39    9.45
   1  -4   0   89.36    9.63
   1  -4   0   79.65   13.29
  -1   4   0  124.30   11.43
   1  -4   1  124.19   10.69
   1  -4   1  132.40   16.93
  -1   4  -1  149.91   12.56
   1  -4   2  144.87   15.00
   1  -4   2  159.56   24.09
  -1   4  -2  152.63   15.02
   1  -4   3   56.91    9.63
   1  -4   3   62.76   12.85
  -1   4  -3   64.12    9.52
   1  -4   4  128.45   13.53
   1  -4   4  102.61   19.15
  -1   4  -4  128.52   14.02
   1  -4   5  196.25   16.68
   1  -4   5  164.02   27.58
  -1   4  -5  226.00   18.44
   1  -4   6   36.56   12.09
   1  -4   6   38.94   12.91
  -1   4  -6   45.32   12.89
   1  -4   7  207.17   22.27
   1  -4   7  231.61   24.32
  -1   4  -7  246.19   25.38
   1  -4   8   49.81   11.87
   1  -4   8   52.36   13.73
  -1   4  -8   37.14   12.27
   2  -4 -10   73.39   16.06
  -2   4  10   50.58   13.49
   2  -4  -9   57.48   14.11
  -2   4   9   64.63   16.11
   2  -4  -8    8.70    5.41
  -2   4   8   22.19    9.01
   2  -4  -7   91.47   14.24
  -2   4   7   56.71    7.41
  -2   4   7   63.27   11.03
   2  -4  -6   63.07   16.79
  -2   4   6   39.45    9.67
  -2   4   6   70.06   11.40
   2  -4  -5   42.66    9.89
  -2   4   5   25.18    6.21
  -2   4   5   65.54   13.33
   2  -4  -4   97.37   11.27
  -2   4   4   92.29    9.23
  -2   4   4  138.28   14.64
   2  -4  -3   46.46    8.61
  -2   4   3   28.51    4.90
  -2   4   3   26.00    5.90
   2  -4  -2   40.18   10.32
   2  -4  -2   22.23    7.61
  -2   4   2   24.60    7.48
   2  -4  -1   60.39   10.16
   2  -4  -1   70.44   10.76
  -2   4   1  105.60   12.89
   2  -4   0   46.50    9.83
   2  -4   0   42.40    8.87
  -2   4   0   24.32    7.32
   2  -4   1   60.26    9.05
   2  -4   1   65.71    9.85
  -2   4  -1   87.32   10.45
   2  -4   2   61.74    9.61
   2  -4   2   45.50    9.63
  -2   4  -2   73.77   10.76
   2  -4   3  154.50   15.37
   2  -4   3   78.34   15.77
  -2   4  -3  119.96   12.76
   2  -4   4   63.14   14.78
   2  -4   4   60.65   17.37
  -2   4  -4   96.88   12.42
   2  -4   5    5.86    4.90
   2  -4   5   17.48    8.59
  -2   4  -5   25.91   10.03
   2  -4   6   66.11    9.56
   2  -4   6   80.40   11.71
   2  -4   7  116.67   23.58
   2  -4   7  116.36   23.14
  -2   4  -7  124.04   24.89
   2  -4   8   64.09   13.31
   2  -4   8   48.08   11.54
  -2   4  -8   52.58   12.85
   3  -4 -10  109.13   20.70
  -3   4  10   99.10   19.30
   3  -4  -9   67.27   15.35
  -3   4   9   38.03   11.91
   3  -4  -8  138.84   17.79
  -3   4   8  189.93   22.38
   3  -4  -7   51.85   14.89
  -3   4   7   14.89    6.52
   3  -4  -6   22.36    8.28
  -3   4   6   11.36    5.30
   3  -4  -5  267.18   23.74
   3  -4  -4   14.33    6.61
  -3   4   4   14.95    4.57
  -3   4   4   16.71    6.88
   3  -4  -3  152.28   14.93
  -3   4   3  127.74   10.83
  -3   4   3  112.75   12.98
   3  -4  -2   80.51   11.40
   3  -4  -2   67.78   12.89
  -3   4   2  116.96   13.36
   3  -4  -1   14.22    5.64
   3  -4  -1   11.94    3.88
  -3   4   1   20.14    7.43
   3  -4   0   25.91    7.59
   3  -4   0   25.49    9.85
  -3   4   0   22.47    7.52
   3  -4   1   70.62   10.67
   3  -4   1   53.95   11.18
  -3   4  -1   67.71   15.82
   3  -4   2   58.30   12.31
   3  -4   2   32.15   11.51
  -3   4  -2   68.20   16.51
   3  -4   3  101.61   12.42
   3  -4   3   48.74   14.27
  -3   4  -3  115.96   12.29
   3  -4   4  111.04   13.51
   3  -4   4   53.33   12.67
  -3   4  -4  110.73   14.22
   3  -4   5  232.57   24.34
   3  -4   5  252.51   25.58
  -3   4  -5  270.33   27.82
   3  -4   6   35.10   11.89
   3  -4   6   16.77    7.70
  -3   4  -6   13.38    7.23
   3  -4   7   22.83    9.12
   3  -4   7   43.42   10.05
  -3   4  -7   29.42    9.63
   4  -4 -10   38.25   10.76
  -4   4  10   49.36   13.84
   4  -4  -9   78.05   17.97
  -4   4   9   59.57   15.33
   4  -4  -8   31.86   10.32
  -4   4   8   23.52    9.23
   4  -4  -7   57.13   11.20
  -4   4   7   28.00    9.56
   4  -4  -6  117.98   13.29
  -4   4   6  114.74   12.82
   4  -4  -5   26.05   11.76
  -4   4   5   31.99   10.94
   4  -4  -4   26.78    8.90
  -4   4   4   43.73   10.05
   4  -4  -3  220.74   19.79
  -4   4   3  263.03   22.32
   4  -4  -2   88.79   11.78
  -4   4   2   79.87   10.43
   4  -4  -1   10.76    6.72
   4  -4  -1    8.61    3.15
  -4   4   1   22.58    8.70
   4  -4   0   27.22    8.39
   4  -4   0   21.72    6.59
  -4   4   0   23.49    7.03
   4  -4   1   22.52    8.94
   4  -4   1    0.82    2.53
  -4   4  -1    8.65    4.73
   4  -4   2  111.02   14.42
   4  -4   2   78.69   16.35
  -4   4  -2  192.92   16.02
   4  -4   3   46.46   14.53
   4  -4   3   21.65    7.72
  -4   4  -3   47.57   13.69
   4  -4   4   53.09   12.76
   4  -4   4   54.33   18.48
  -4   4  -4   95.82   12.42
   4  -4   5    7.59    6.66
   4  -4   5   13.89    5.97
  -4   4  -5    1.18    4.73
   4  -4   6   22.74    9.36
   4  -4   6   22.03    7.83
  -4   4  -6   15.26    7.19
   5  -4 -10   57.50   13.93
   5  -4  -9   22.12    9.25
  -5   4   9    3.99    6.08
   5  -4  -8   67.15   12.05
  -5   4   8   49.16   12.56
   5  -4  -7   77.09   11.76
  -5   4   7   94.27   14.71
   5  -4  -6    8.79    8.76
  -5   4   6   11.47    6.79
   5  -4  -5  110.73   13.91
  -5   4   5  113.34   12.51
   5  -4  -4   62.70   15.40
  -5   4   4   89.32   12.89
   5  -4  -3   63.83   15.33
  -5   4   3   59.30   14.53
   5  -4  -2  818.59   50.96
  -5   4   2  815.24   50.29
  -5   4   1  111.86   11.65
   5  -4   0   48.30   13.22
  -5   4   0   57.70   14.33
   5  -4   1   13.51    7.43
  -5   4  -1   36.12   11.45
   5  -4   2   37.56   11.63
   5  -4   3   19.86    8.12
   5  -4   3   16.84    9.36
  -5   4  -3   17.86    6.54
   5  -4   4   23.29    9.23
   5  -4   4    9.72    5.41
  -5   4  -4   22.47    8.21
   5  -4   5    9.03    5.77
   5  -4   5   14.91    7.23
  -5   4  -5   23.87    7.96
   6  -4  -9   13.00    7.28
  -6   4   9   30.55   11.49
   6  -4  -8   27.84   11.65
  -6   4   8   95.62   20.88
   6  -4  -7   16.46    6.37
  -6   4   7   42.09   11.09
   6  -4  -6   38.96    9.87
  -6   4   6   27.58    9.03
   6  -4  -5   87.19   13.44
  -6   4   5   74.83   12.18
   6  -4  -4   18.30    8.65
  -6   4   4   19.43    7.88
   6  -4  -3   44.57   15.02
  -6   4   3   69.97   10.49
   6  -4  -2  377.95   34.65
  -6   4   2  402.62   66.71
   6  -4  -1   54.38   11.29
  -6   4   1   54.35    9.16
   6  -4   0   91.03   13.44
  -6   4   0   85.99   11.80
   6  -4   1   15.02    6.92
  -6   4  -1    6.88    4.50
   6  -4   2   23.69    8.39
  -6   4  -2    2.80    4.50
   6  -4   3   87.43   19.39
  -6   4  -3  108.69   21.90
   6  -4   4   13.09    8.19
   7  -4  -8   47.57   11.25
  -7   4   8   55.69   13.78
   7  -4  -7   38.03   12.87
  -7   4   7   14.80    6.68
   7  -4  -6   86.94   18.64
  -7   4   6   75.78   17.68
   7  -4  -5   35.61   10.07
  -7   4   5   61.45   11.07
   7  -4  -4   33.48    9.56
  -7   4   4   29.64    8.96
   7  -4  -3   37.76   11.40
  -7   4   3   36.96   10.49
   7  -4  -2  212.27   24.18
  -7   4   2  157.63   17.57
   7  -4  -1   60.50   10.72
  -7   4   1   81.58   12.60
   7  -4   0   24.91    9.87
  -7   4   0    7.14    5.01
   7  -4   1    6.94    5.44
  -7   4  -1    6.01    4.64
   7  -4   2   21.83    8.96
   8  -4  -7   30.84    9.72
  -8   4   7   75.39   15.88
   8  -4  -6    7.48    4.84
  -8   4   6   20.10    8.41
   8  -4  -5   49.85   13.22
  -8   4   5   30.33   10.47
   8  -4  -4   17.02    8.25
  -8   4   4   10.49    5.48
   8  -4  -3    9.50    5.24
  -8   4   3    7.52    6.34
   8  -4  -2   22.23    9.52
  -8   4   2    6.79    5.21
   8  -4  -1  103.36   19.99
  -8   4   1  104.54   19.30
   8  -4   0   54.40   14.18
  -8   4   0   48.05   10.72

_computing_structure_solution     'SHELXT 2014/4 (Sheldrick, 2014)'
;
_shelx_hkl_checksum              23688
_shelx_shelxl_version_number     2014/7
_olex2_submission_special_instructions 'No special instructions were received'
loop_
_space_group_symop_operation_xyz
'x, y, z'
'-x, y+1/2, -z'
loop_
_atom_site_label
_atom_site_type_symbol
_atom_site_fract_x
_atom_site_fract_y
_atom_site_fract_z
_atom_site_U_iso_or_equiv
_atom_site_adp_type
_atom_site_occupancy
_atom_site_site_symmetry_order
_atom_site_calc_flag
_atom_site_refinement_flags_posn
Cl1 Cl -0.74121(10) -0.3281(3) -0.05123(8) 0.0288(3) Uani 1 1 d .
S1 S -0.93568(9) -0.2882(3) -0.57994(8) 0.0198(2) Uani 1 1 d .
O1 O -0.6083(3) -0.6770(8) -0.4262(2) 0.0227(7) Uani 1 1 d .
C13 C -0.6291(4) -0.6037(11) -0.3312(3) 0.0188(9) Uani 1 1 d .
C14 C -0.7156(4) -0.5615(11) -0.5104(4) 0.0192(9) Uani 1 1 d .
C6 C -0.8748(4) -0.4370(11) -0.6766(4) 0.0202(9) Uani 1 1 d .
C5 C -0.9358(4) -0.4246(11) -0.7906(4) 0.0229(10) Uani 1 1 d .
H5 H -1.0158 -0.3289 -0.8229 0.028 Uiso 1 1 calc R
C7 C -0.7997(4) -0.4217(11) -0.4729(4) 0.0193(9) Uani 1 1 d .
C12 C -0.5450(4) -0.6757(11) -0.2257(4) 0.0224(10) Uani 1 1 d .
H12 H -0.4674 -0.7778 -0.2125 0.027 Uiso 1 1 calc R
C10 C -0.6991(4) -0.4335(11) -0.1623(4) 0.0212(10) Uani 1 1 d .
C8 C -0.7460(4) -0.4439(11) -0.3548(4) 0.0190(9) Uani 1 1 d .
C1 C -0.7532(4) -0.5803(11) -0.6269(4) 0.0204(9) Uani 1 1 d .
C11 C -0.5829(4) -0.5874(12) -0.1406(4) 0.0225(10) Uani 1 1 d .
H11 H -0.5298 -0.6317 -0.0681 0.027 Uiso 1 1 calc R
C4 C -0.8751(4) -0.5571(13) -0.8544(4) 0.0262(10) Uani 1 1 d .
H4 H -0.9151 -0.5509 -0.9308 0.031 Uiso 1 1 calc R
C9 C -0.7822(4) -0.3585(12) -0.2674(3) 0.0181(9) Uani 1 1 d .
H9 H -0.8595 -0.2550 -0.2799 0.022 Uiso 1 1 calc R
C3 C -0.7552(4) -0.7003(11) -0.8072(4) 0.0244(10) Uani 1 1 d .
H3 H -0.7165 -0.7888 -0.8524 0.029 Uiso 1 1 calc R
C2 C -0.6929(4) -0.7123(11) -0.6938(4) 0.0235(10) Uani 1 1 d .
H2 H -0.6125 -0.8062 -0.6625 0.028 Uiso 1 1 calc R
loop_
_atom_site_aniso_label
_atom_site_aniso_U_11
_atom_site_aniso_U_22
_atom_site_aniso_U_33
_atom_site_aniso_U_23
_atom_site_aniso_U_13
_atom_site_aniso_U_12
Cl1 0.0291(6) 0.0368(7) 0.0206(5) -0.0021(5) 0.0096(4) 0.0003(6)
S1 0.0184(5) 0.0211(5) 0.0191(5) 0.0010(5) 0.0062(4) 0.0027(5)
O1 0.0184(15) 0.0263(18) 0.0231(17) 0.0014(13) 0.0077(14) 0.0038(13)
C13 0.017(2) 0.018(2) 0.020(2) 0.0003(17) 0.0057(18) -0.0005(17)
C14 0.015(2) 0.020(2) 0.024(2) 0.0001(18) 0.0078(18) -0.0012(17)
C6 0.020(2) 0.017(2) 0.024(2) -0.0011(17) 0.0099(19) -0.0022(18)
C5 0.024(2) 0.022(2) 0.021(2) 0.0042(18) 0.0075(19) -0.0002(19)
C7 0.018(2) 0.018(2) 0.021(2) 0.0021(16) 0.0054(18) 0.0002(16)
C12 0.015(2) 0.023(2) 0.027(2) 0.0030(18) 0.0059(19) 0.0024(17)
C10 0.023(2) 0.020(2) 0.022(2) -0.0031(17) 0.0096(19) -0.0048(18)
C8 0.019(2) 0.016(2) 0.020(2) 0.0014(17) 0.0066(18) -0.0002(17)
C1 0.020(2) 0.019(2) 0.023(2) -0.0012(18) 0.0091(19) -0.0049(18)
C11 0.020(2) 0.021(2) 0.019(2) 0.0023(19) -0.0010(18) -0.0016(18)
C4 0.030(3) 0.028(2) 0.020(2) 0.0020(19) 0.008(2) -0.004(2)
C9 0.0156(19) 0.017(2) 0.020(2) -0.0015(17) 0.0050(16) -0.0010(17)
C3 0.029(3) 0.024(2) 0.026(2) -0.0030(18) 0.018(2) -0.0036(18)
C2 0.022(2) 0.026(3) 0.024(2) -0.0009(18) 0.010(2) -0.0016(17)
loop_
_atom_type_symbol
_atom_type_description
_atom_type_scat_dispersion_real
_atom_type_scat_dispersion_imag
_atom_type_scat_source
C C 0.0033 0.0016 'International Tables Vol C Tables 4.2.6.8 and 6.1.1.4'
H H 0.0000 0.0000 'International Tables Vol C Tables 4.2.6.8 and 6.1.1.4'
Cl Cl 0.1484 0.1585 'International Tables Vol C Tables 4.2.6.8 and 6.1.1.4'
O O 0.0106 0.0060 'International Tables Vol C Tables 4.2.6.8 and 6.1.1.4'
S S 0.1246 0.1234 'International Tables Vol C Tables 4.2.6.8 and 6.1.1.4'
loop_
_geom_angle_atom_site_label_1
_geom_angle_atom_site_label_2
_geom_angle_atom_site_label_3
_geom_angle
C7 S1 C6 90.2(2)
C14 O1 C13 104.2(3)
O1 C13 C8 111.7(4)
C12 C13 O1 124.5(4)
C12 C13 C8 123.8(4)
O1 C14 C1 131.0(4)
C7 C14 O1 112.5(4)
C7 C14 C1 116.4(4)
C5 C6 S1 125.9(4)
C5 C6 C1 121.1(4)
C1 C6 S1 112.9(3)
C6 C5 H5 120.8
C4 C5 C6 118.4(4)
C4 C5 H5 120.8
C14 C7 S1 111.9(3)
C14 C7 C8 107.2(4)
C8 C7 S1 140.9(4)
C13 C12 H12 121.9
C13 C12 C11 116.3(4)
C11 C12 H12 121.9
C11 C10 Cl1 118.6(3)
C9 C10 Cl1 118.6(3)
C9 C10 C11 122.8(4)
C13 C8 C7 104.3(4)
C9 C8 C13 118.8(4)
C9 C8 C7 136.9(4)
C6 C1 C14 108.6(4)
C2 C1 C14 132.0(4)
C2 C1 C6 119.4(4)
C12 C11 C10 120.8(4)
C12 C11 H11 119.6
C10 C11 H11 119.6
C5 C4 H4 119.3
C5 C4 C3 121.5(4)
C3 C4 H4 119.3
C10 C9 C8 117.4(4)
C10 C9 H9 121.3
C8 C9 H9 121.3
C4 C3 H3 119.6
C2 C3 C4 120.7(4)
C2 C3 H3 119.6
C1 C2 H2 120.6
C3 C2 C1 118.8(4)
C3 C2 H2 120.6
loop_
_geom_bond_atom_site_label_1
_geom_bond_atom_site_label_2
_geom_bond_distance
Cl1 C10 1.749(5)
S1 C6 1.761(5)
S1 C7 1.735(4)
O1 C13 1.385(5)
O1 C14 1.380(5)
C13 C12 1.381(6)
C13 C8 1.401(6)
C14 C7 1.351(6)
C14 C1 1.423(6)
C6 C5 1.389(6)
C6 C1 1.411(6)
C5 H5 0.9300
C5 C4 1.376(6)
C7 C8 1.436(6)
C12 H12 0.9300
C12 C11 1.385(6)
C10 C11 1.389(6)
C10 C9 1.377(6)
C8 C9 1.399(6)
C1 C2 1.404(6)
C11 H11 0.9300
C4 H4 0.9300
C4 C3 1.393(6)
C9 H9 0.9300
C3 H3 0.9300
C3 C2 1.384(6)
C2 H2 0.9300
loop_
_geom_torsion_atom_site_label_1
_geom_torsion_atom_site_label_2
_geom_torsion_atom_site_label_3
_geom_torsion_atom_site_label_4
_geom_torsion
Cl1 C10 C11 C12 -180.0(4)
Cl1 C10 C9 C8 179.7(3)
S1 C6 C5 C4 -179.1(4)
S1 C6 C1 C14 0.1(5)
S1 C6 C1 C2 179.5(3)
S1 C7 C8 C13 177.4(4)
S1 C7 C8 C9 -0.7(9)
O1 C13 C12 C11 -179.3(4)
O1 C13 C8 C7 0.4(5)
O1 C13 C8 C9 178.9(4)
O1 C14 C7 S1 -178.4(3)
O1 C14 C7 C8 -0.1(5)
O1 C14 C1 C6 177.3(4)
O1 C14 C1 C2 -2.0(8)
C13 O1 C14 C7 0.4(5)
C13 O1 C14 C1 -176.4(4)
C13 C12 C11 C10 -0.3(6)
C13 C8 C9 C10 0.9(6)
C14 O1 C13 C12 -179.9(4)
C14 O1 C13 C8 -0.5(4)
C14 C7 C8 C13 -0.2(5)
C14 C7 C8 C9 -178.2(5)
C14 C1 C2 C3 178.8(4)
C6 S1 C7 C14 1.0(3)
C6 S1 C7 C8 -176.5(5)
C6 C5 C4 C3 -0.2(7)
C6 C1 C2 C3 -0.5(6)
C5 C6 C1 C14 -179.3(4)
C5 C6 C1 C2 0.1(6)
C5 C4 C3 C2 -0.2(7)
C7 S1 C6 C5 178.8(4)
C7 S1 C6 C1 -0.6(3)
C7 C14 C1 C6 0.7(5)
C7 C14 C1 C2 -178.6(5)
C7 C8 C9 C10 178.7(5)
C12 C13 C8 C7 179.9(4)
C12 C13 C8 C9 -1.7(7)
C8 C13 C12 C11 1.4(7)
C1 C14 C7 S1 -1.2(5)
C1 C14 C7 C8 177.2(4)
C1 C6 C5 C4 0.2(6)
C11 C10 C9 C8 0.1(6)
C4 C3 C2 C1 0.6(7)
C9 C10 C11 C12 -0.4(7)
