#------------------------------------------------------------------------------
#$Date: 2017-06-04 17:45:51 +0300 (Sun, 04 Jun 2017) $
#$Revision: 197329 $
#$URL: file:///home/coder/svn-repositories/cod/cif/4/03/25/4032533.cif $
#------------------------------------------------------------------------------
#
# This file is available in the Crystallography Open Database (COD),
# http://www.crystallography.net/
#
# All data on this site have been placed in the public domain by the
# contributors.
#
data_4032533
loop_
_publ_author_name
'Tumula, Nagaraju'
'Jatangi, Nagesh'
'Palakodety, Radha Krishna'
'Balasubramanian, Sridhar'
'Nakka, Mangarao'
_publ_section_title
;
 I2-Catalyzed Oxidative N-S Bond Formation: Metal-Free Regiospecific
 Synthesis of N-Fused and 3,4-Disubstituted 5-Imino-1,2,4-thiadiazoles.
;
_journal_issue                   10
_journal_name_full               'The Journal of organic chemistry'
_journal_page_first              5310
_journal_page_last               5316
_journal_paper_doi               10.1021/acs.joc.7b00646
_journal_volume                  82
_journal_year                    2017
_chemical_formula_moiety         'C13 H13 N3 O S'
_chemical_formula_sum            'C13 H13 N3 O S'
_chemical_formula_weight         259.32
_space_group_crystal_system      triclinic
_space_group_IT_number           2
_space_group_name_Hall           '-P 1'
_space_group_name_H-M_alt        'P -1'
_symmetry_space_group_name_Hall  '-P 1'
_symmetry_space_group_name_H-M   'P -1'
_atom_sites_solution_hydrogens   mixed
_audit_creation_method           SHELXL-2014/7
_cell_angle_alpha                70.464(3)
_cell_angle_beta                 74.325(3)
_cell_angle_gamma                73.849(3)
_cell_formula_units_Z            2
_cell_length_a                   7.5226(13)
_cell_length_b                   8.7242(15)
_cell_length_c                   10.8567(19)
_cell_measurement_reflns_used    2511
_cell_measurement_temperature    294(2)
_cell_measurement_theta_max      27.40
_cell_measurement_theta_min      2.53
_cell_volume                     632.52(19)
_computing_cell_refinement       'SAINT (Bruker, 2001)'
_computing_data_collection       'SMART (Bruker, 2001)'
_computing_data_reduction        'SAINT (Bruker, 2001)'
_computing_molecular_graphics    'SHELXL2014 (Sheldrick, 2015)'
_computing_publication_material  'SHELXL2014 (Sheldrick, 2015)'
_computing_structure_refinement  'SHELXL-2014/7 (Sheldrick, 2015)'
_computing_structure_solution    'SHELXL-2014/7 (Sheldrick, 2015)'
_diffrn_ambient_temperature      294(2)
_diffrn_measured_fraction_theta_full 0.998
_diffrn_measured_fraction_theta_max 0.945
_diffrn_measurement_device_type  'Bruker SMART APEX CCD area-detector'
_diffrn_measurement_method       \w
_diffrn_radiation_type           MoK\a
_diffrn_radiation_wavelength     0.71073
_diffrn_reflns_av_R_equivalents  0.0220
_diffrn_reflns_av_unetI/netI     0.0254
_diffrn_reflns_Laue_measured_fraction_full 0.998
_diffrn_reflns_Laue_measured_fraction_max 0.945
_diffrn_reflns_limit_h_max       9
_diffrn_reflns_limit_h_min       -9
_diffrn_reflns_limit_k_max       11
_diffrn_reflns_limit_k_min       -11
_diffrn_reflns_limit_l_max       14
_diffrn_reflns_limit_l_min       -14
_diffrn_reflns_number            7491
_diffrn_reflns_point_group_measured_fraction_full 0.998
_diffrn_reflns_point_group_measured_fraction_max 0.945
_diffrn_reflns_theta_full        25.242
_diffrn_reflns_theta_max         28.319
_diffrn_reflns_theta_min         2.030
_exptl_absorpt_coefficient_mu    0.247
_exptl_absorpt_correction_T_max  0.96
_exptl_absorpt_correction_T_min  0.93
_exptl_absorpt_correction_type   multi-scan
_exptl_absorpt_process_details   'SADABS; Bruker,2001'
_exptl_crystal_colour            colorless
_exptl_crystal_density_diffrn    1.362
_exptl_crystal_description       block
_exptl_crystal_F_000             272
_exptl_crystal_size_max          0.210
_exptl_crystal_size_mid          0.170
_exptl_crystal_size_min          0.090
_refine_diff_density_max         0.189
_refine_diff_density_min         -0.228
_refine_diff_density_rms         0.045
_refine_ls_extinction_method     none
_refine_ls_goodness_of_fit_ref   1.038
_refine_ls_hydrogen_treatment    mixed
_refine_ls_matrix_type           full
_refine_ls_number_parameters     172
_refine_ls_number_reflns         2972
_refine_ls_number_restraints     0
_refine_ls_restrained_S_all      1.038
_refine_ls_R_factor_all          0.0619
_refine_ls_R_factor_gt           0.0487
_refine_ls_shift/su_max          0.000
_refine_ls_shift/su_mean         0.000
_refine_ls_structure_factor_coef Fsqd
_refine_ls_weighting_details
'w=1/[\s^2^(Fo^2^)+(0.0507P)^2^+0.1932P] where P=(Fo^2^+2Fc^2^)/3'
_refine_ls_weighting_scheme      calc
_refine_ls_wR_factor_gt          0.1146
_refine_ls_wR_factor_ref         0.1223
_reflns_Friedel_coverage         0.000
_reflns_number_gt                2367
_reflns_number_total             2972
_reflns_threshold_expression     'I > 2\s(I)'
_cod_data_source_file            jo7b00646_si_004.cif
_cod_data_source_block           BE44m
_cod_database_code               4032533
_shelx_shelxl_version_number     2014/7
_shelx_space_group_comment
;
The symmetry employed for this shelxl refinement is uniquely defined
by the following loop, which should always be used as a source of
symmetry information in preference to the above space-group names.
They are only intended as comments.
;
_shelx_estimated_absorpt_t_min   0.950
_shelx_estimated_absorpt_t_max   0.978
_shelx_res_file
;

    BE44m.res created by SHELXL-2014/7

TITL BE44m in P-1
CELL 0.71073   7.5226   8.7242  10.8567  70.464  74.325  73.849
ZERR    2.00   0.0013   0.0015   0.0019   0.003   0.003   0.003
LATT 1
SFAC C  H  N  S  O
UNIT 26  26  6  2  2
L.S. 25
ACTA
BOND $H
FMAP 2
PLAN 5
SIZE 0.21 0.17 0.09
CONF
HTAB N3 N1
HTAB N2 S1_$1
HTAB N3 N1
HTAB N2 S1_$1
EQIV $1 -x+1, -y+1, -z+2
TEMP 21
WGHT    0.050700    0.193200
FVAR       1.00662
MOLE 1
C1    1    0.610449    0.172344    0.874699    11.00000    0.03703    0.03953 =
         0.05723   -0.01518   -0.01024   -0.00231
C2    1    0.668956   -0.029315    0.770711    11.00000    0.05667    0.05998 =
         0.08565   -0.04067   -0.02104    0.00647
AFIX  43
H2    2    0.645267   -0.066420    0.706920    11.00000   -1.20000
AFIX   0
C3    1    0.795254   -0.132804    0.847579    11.00000    0.05464    0.04820 =
         0.09626   -0.03254   -0.02121    0.00893
AFIX  43
H3    2    0.857938   -0.236128    0.834958    11.00000   -1.20000
AFIX   0
C4    1    0.827256   -0.080257    0.944023    11.00000    0.05091    0.04849 =
         0.08480   -0.01771   -0.02689    0.00727
AFIX  43
H4    2    0.911123   -0.148623    0.998905    11.00000   -1.20000
AFIX   0
C5    1    0.734559    0.074010    0.958930    11.00000    0.05036    0.04660 =
         0.06976   -0.01912   -0.02450    0.00124
AFIX  43
H5    2    0.754286    0.111803    1.023756    11.00000   -1.20000
AFIX   0
C6    1    0.375994    0.443128    0.833205    11.00000    0.04384    0.03927 =
         0.05350   -0.01472   -0.01551    0.00035
C7    1    0.168639    0.514826    0.675311    11.00000    0.05334    0.04260 =
         0.05526   -0.02273   -0.02248    0.00465
C8    1   -0.012141    0.489753    0.719503    11.00000    0.05938    0.05035 =
         0.06557   -0.00635   -0.01998   -0.00584
AFIX  43
H8    2   -0.040263    0.404388    0.795711    11.00000   -1.20000
AFIX   0
C9    1   -0.153475    0.590303    0.651794    11.00000    0.04761    0.05975 =
         0.07840   -0.01230   -0.01924   -0.00651
AFIX  43
H9    2   -0.275943    0.572127    0.682359    11.00000   -1.20000
AFIX   0
C10   1   -0.113315    0.716394    0.539969    11.00000    0.05488    0.04881 =
         0.06077   -0.02175   -0.02738    0.00299
C11   1    0.066662    0.742279    0.495162    11.00000    0.06673    0.06506 =
         0.05844   -0.00158   -0.02201   -0.00931
AFIX  43
H11   2    0.094615    0.828183    0.419354    11.00000   -1.20000
AFIX   0
C12   1    0.207854    0.639894    0.563173    11.00000    0.04970    0.06915 =
         0.06847   -0.01184   -0.01954   -0.00662
AFIX  43
H12   2    0.330752    0.656862    0.531817    11.00000   -1.20000
AFIX   0
C13   1   -0.229247    0.948820    0.368950    11.00000    0.10729    0.07725 =
         0.10511    0.00536   -0.07040   -0.00539
AFIX 137
H13A  2   -0.177214    1.020778    0.393363    11.00000   -1.50000
H13B  2   -0.345777    1.008801    0.340387    11.00000   -1.50000
H13C  2   -0.141744    0.910340    0.297593    11.00000   -1.50000
AFIX   0
N1    3    0.576308    0.123482    0.781489    11.00000    0.05005    0.04787 =
         0.06743   -0.02574   -0.01904    0.00579
N2    3    0.518365    0.329655    0.889808    11.00000    0.04832    0.04113 =
         0.06033   -0.01914   -0.02466    0.00327
H1N   2    0.549518    0.352971    0.947620    11.00000    0.05031
N3    3    0.316290    0.407672    0.743449    11.00000    0.05705    0.04413 =
         0.06569   -0.02513   -0.02937    0.01065
H2N   2    0.372500    0.317455    0.725436    11.00000    0.06574
O1    5   -0.263122    0.811205    0.480134    11.00000    0.06630    0.06472 =
         0.08716   -0.01142   -0.04319    0.00202
S1    4    0.286585    0.619055    0.879408    11.00000    0.07165    0.05187 =
         0.08661   -0.03742   -0.04532    0.02017
HKLF 4

REM  BE44m in P-1
REM R1 =  0.0487 for    2367 Fo > 4sig(Fo)  and  0.0619 for all    2972 data
REM    172 parameters refined using      0 restraints

END

WGHT      0.0576      0.1644

REM Highest difference peak  0.189,  deepest hole -0.228,  1-sigma level  0.045
Q1    1   0.3628  0.5455  0.8410  11.00000  0.05    0.19
Q2    1   0.7690 -0.1178  0.9240  11.00000  0.05    0.19
Q3    1   0.2387  0.5298  0.9588  11.00000  0.05    0.17
Q4    1  -0.1211  1.0240  0.3454  11.00000  0.05    0.16
Q5    1   0.7611 -0.0034  0.9579  11.00000  0.05    0.16
;
_shelx_res_checksum              41561
_shelx_hkl_file
;
   1   0   0   34.96    1.12
   1   0   0   34.36    1.11
  -1   0   0   37.51    1.03
  -2   0   0 3258.44   69.20
   2   0   0 3085.43   68.59
   2   0   0 3002.35   66.55
  -3   0   0   15.28    0.68
   3   0   0   15.24    0.91
  -3   0   0   14.78    1.09
   3   0   0   13.18    0.90
  -4   0   0   43.21    2.00
  -4   0   0   40.30    1.33
   4   0   0   41.12    1.76
   4   0   0   40.73    1.74
   5   0   0    4.55    0.77
   5   0   0    3.80    0.77
  -5   0   0    4.97    1.00
   6   0   0    2.18    0.73
  -6   0   0    3.37    1.04
   6   0   0    1.55    0.76
   7   0   0   16.62    1.67
  -7   0   0   15.31    1.88
   7   0   0   16.66    1.61
   8   0   0    0.27    0.73
   8   0   0    0.03    0.84
  -8   0   0    1.01    0.82
  -9   0   0   11.37    2.07
   9  -1   0    3.19    1.22
   8  -1   0    4.73    1.12
  -8   1   0    5.99    1.38
   7  -1   0    8.46    1.39
  -7   1   0    6.55    1.37
   7  -1   0    7.98    1.35
  -6   1   0   28.24    2.10
   6  -1   0   31.01    1.95
   6  -1   0   33.55    1.94
  -5   1   0    8.80    1.24
   5  -1   0   10.25    1.09
   5  -1   0   12.60    1.25
  -4   1   0   10.97    1.14
   4  -1   0    8.53    0.86
  -4   1   0   11.67    0.58
   4  -1   0   11.17    1.03
   3  -1   0  267.97    6.50
  -3   1   0  270.27    6.12
  -3   1   0  271.59    6.95
   3  -1   0  261.31    6.70
  -2   1   0  182.24    4.24
  -2   1   0  182.28    4.71
   2  -1   0  185.78    4.46
  -2   1   0  184.06    4.78
  -1   1   0   52.94    1.42
   1  -1   0   56.45    1.49
   0   1   0  350.16    8.24
   0   1   0  384.81    8.15
   0   1   0  369.85    8.12
   1   1   0  210.90    4.84
  -1  -1   0  200.75    4.85
   1   1   0  204.46    4.80
   1   1   0  209.32    4.68
  -2  -1   0 1082.95   23.94
  -2  -1   0 1089.50   23.58
   2   1   0 1078.10   23.60
   2   1   0 1079.67   23.40
   3   1   0    2.74    0.42
   3   1   0    3.90    0.60
  -3  -1   0    3.58    0.61
  -3  -1   0    3.07    0.42
  -4  -1   0    0.28    0.26
   4   1   0    0.20    0.29
  -4  -1   0   -0.40    0.35
   4   1   0   -0.37    0.36
   5   1   0  272.55    6.98
  -5  -1   0  269.21    6.56
  -5  -1   0  263.26    7.50
   5   1   0  272.91    7.22
  -6  -1   0   56.35    2.82
   6   1   0   49.31    2.28
   6   1   0   57.39    2.60
   7   1   0    4.02    1.04
  -7  -1   0    4.98    1.21
   7   1   0    4.66    0.96
   8   1   0   -0.15    0.78
  -8  -1   0    0.22    0.80
  -9  -1   0    1.19    1.12
   8  -2   0    4.49    1.14
  -8   2   0    5.48    1.48
   7  -2   0   45.14    2.70
  -7   2   0   48.24    2.99
  -6   2   0   18.23    1.93
   6  -2   0   19.47    1.55
   6  -2   0   22.88    1.76
  -5   2   0  187.41    6.02
   5  -2   0  196.39    5.82
   5  -2   0  184.47    5.36
  -4   2   0    2.70    0.78
   4  -2   0    2.04    0.62
   4  -2   0    3.27    0.61
   3  -2   0  468.73   10.79
   3  -2   0  458.05   11.13
  -3   2   0  468.73   10.50
  -3   2   0  469.97   11.40
  -2   2   0    7.06    0.76
  -2   2   0    7.58    0.53
   2  -2   0    7.62    0.60
  -2   2   0    7.59    0.78
  -1   2   0  843.58   18.49
  -1   2   0  840.40   18.85
  -1   2   0  839.54   18.62
   0   2   0  505.88   11.19
   0   2   0  502.83   11.17
   0   2   0  509.05   11.35
   0   2   0  498.06   11.38
  -1  -2   0  668.93   15.25
   1   2   0  693.07   15.10
   1   2   0  696.80   14.95
   1   2   0  674.35   15.20
   2   2   0 1429.32   29.94
  -2  -2   0 1327.02   30.19
   2   2   0 1355.36   29.95
   2   2   0 1378.82   29.56
  -3  -2   0 1625.48   35.82
   3   2   0 1665.85   35.88
   3   2   0 1678.80   35.39
  -3  -2   0 1600.25   36.29
   4   2   0    2.17    0.43
   4   2   0    1.35    0.50
  -4  -2   0    1.57    0.43
   5   2   0    1.41    0.45
  -5  -2   0    0.30    0.38
   5   2   0    1.29    0.62
  -5  -2   0    1.41    0.69
   6   2   0   80.09    2.86
   6   2   0   80.98    3.29
  -6  -2   0   81.17    3.48
   7   2   0    5.18    1.15
  -7  -2   0    5.22    1.19
  -8  -2   0    2.35    1.05
   8   2   0    3.77    1.11
  -9  -2   0   -0.32    0.91
   9   2   0    1.13    1.01
   8  -3   0   14.41    2.06
  -8   3   0    7.13    1.77
   7  -3   0   16.49    1.90
  -7   3   0   13.28    1.92
  -6   3   0  110.32    4.57
   6  -3   0  104.30    4.29
  -5   3   0  658.17   16.33
   5  -3   0  655.87   15.99
   5  -3   0  634.20   15.24
  -4   3   0    2.06    0.77
   4  -3   0    2.64    0.73
   4  -3   0    2.28    0.57
  -3   3   0   90.98    3.29
   3  -3   0   93.45    2.87
  -3   3   0   93.24    2.68
   3  -3   0   93.87    3.23
  -2   3   0    1.09    0.46
  -2   3   0    1.30    0.37
  -2   3   0    1.60    0.51
   2  -3   0    1.01    0.37
  -1   3   0   90.85    2.62
  -1   3   0   98.29    2.75
  -1   3   0   91.38    2.83
  -1   3   0   90.70    2.87
   0   3   0    9.81    0.67
   0   3   0    8.63    0.67
   0   3   0    9.01    0.73
   0   3   0    8.38    0.73
   1   3   0  113.28    3.30
   1   3   0  111.49    3.20
  -1  -3   0  112.29    3.19
   1   3   0  123.85    2.86
   2   3   0  214.51    5.55
   2   3   0  219.84    4.84
   2   3   0  212.03    5.54
  -2  -3   0  218.38    5.53
  -3  -3   0  161.92    4.45
  -3  -3   0  162.72    4.52
   3   3   0  159.41    4.55
   3   3   0  163.09    3.79
   4   3   0   67.85    1.94
  -4  -3   0   61.59    2.51
   4   3   0   63.52    2.54
  -4  -3   0   65.39    2.36
  -5  -3   0   13.98    1.07
   5   3   0   12.68    1.29
  -5  -3   0   13.23    1.34
  -6  -3   0   13.67    1.54
   6   3   0   12.66    1.43
   7   3   0   25.25    1.96
  -7  -3   0   27.46    2.20
   8   3   0    0.94    0.82
  -8  -3   0    0.68    0.90
  -9  -3   0    1.99    1.11
   9   3   0    2.73    1.15
   7  -4   0   13.59    1.89
  -7   4   0   15.19    2.03
  -6   4   0   19.64    2.06
   6  -4   0   18.27    1.91
  -5   4   0    0.53    0.77
   5  -4   0    0.68    0.69
   4  -4   0   94.84    3.65
   4  -4   0   91.37    3.15
  -4   4   0   95.06    3.76
   3  -4   0   19.60    1.46
  -3   4   0   22.53    1.21
   3  -4   0   21.53    1.23
  -3   4   0   18.38    1.44
  -2   4   0  657.87   14.96
  -2   4   0  656.56   15.53
   2  -4   0  641.43   14.80
  -1   4   0  202.78    5.61
  -1   4   0  210.31    5.34
  -1   4   0  207.79    5.44
  -1   4   0  206.53    5.54
   0   4   0  671.10   15.49
   0   4   0  663.81   15.17
   0   4   0  680.44   15.14
   0   4   0  667.35   15.43
   1   4   0  774.39   17.77
  -1  -4   0  777.62   17.70
   1   4   0  785.61   17.07
   1   4   0  769.36   17.48
   2   4   0  155.41    3.56
   2   4   0  154.96    4.48
   2   4   0  155.94    4.39
  -2  -4   0  148.79    4.32
   3   4   0   17.79    1.24
   3   4   0   17.87    1.22
  -3  -4   0   22.73    1.37
   4   4   0   12.74    1.22
  -4  -4   0   12.33    1.13
  -4  -4   0   11.94    1.19
  -5  -4   0   28.57    1.62
   5   4   0   28.90    1.81
  -5  -4   0   28.64    1.86
   6   4   0    0.29    0.68
  -6  -4   0    1.08    0.72
  -6  -4   0    0.23    0.51
  -7  -4   0    5.35    1.27
   7   4   0    2.75    0.93
   8   4   0    2.93    0.96
  -8  -4   0    1.69    1.08
   9   4   0    7.25    1.64
  -9  -4   0    1.13    1.31
   7  -5   0    4.43    1.39
  -7   5   0    5.71    1.49
  -6   5   0   11.01    1.73
   6  -5   0    9.76    1.64
   5  -5   0   91.91    4.02
  -5   5   0  100.86    4.31
   4  -5   0    5.45    1.09
  -4   5   0    2.72    0.91
  -3   5   0  279.50    7.88
   3  -5   0  270.53    7.63
   3  -5   0  272.14    7.05
   2  -5   0  811.70   18.28
  -2   5   0  692.90   18.45
   2  -5   0  798.67   17.79
  -2   5   0  832.04   18.11
  -1   5   0   51.06    2.06
  -1   5   0   49.74    2.29
  -1   5   0   53.64    2.18
  -1   5   0   54.27    2.24
   0   5   0   22.95    1.39
   0   5   0   26.49    1.38
   0   5   0   23.69    1.29
   1   5   0  631.97   14.33
   1   5   0  652.23   14.87
  -1  -5   0  634.58   14.99
   1   5   0  636.19   15.12
   2   5   0   16.39    1.40
  -2  -5   0   16.56    1.19
   2   5   0   16.28    1.14
   3   5   0   86.68    3.22
   3   5   0   84.90    3.14
  -3  -5   0   89.18    3.14
   4   5   0    6.83    1.07
  -4  -5   0    8.93    1.12
  -4  -5   0    7.47    1.05
  -5  -5   0    2.19    0.72
   5   5   0    4.72    1.04
  -5  -5   0    2.15    0.85
  -6  -5   0    0.80    0.78
  -6  -5   0    0.14    0.54
   6   5   0    0.90    0.65
  -7  -5   0    2.40    1.08
   7   5   0    1.42    0.80
   8   5   0    0.60    0.89
  -8  -5   0    1.46    1.08
  -9  -5   0    1.78    1.35
   9   5   0    2.50    1.15
   6  -6   0    5.41    1.48
  -6   6   0    6.52    1.48
  -5   6   0    5.97    1.29
   5  -6   0    7.80    1.36
   4  -6   0    5.06    1.14
  -4   6   0    3.97    1.05
   3  -6   0   10.01    1.36
  -3   6   0    9.42    1.38
  -2   6   0   54.82    2.40
   2  -6   0   57.73    2.31
   2  -6   0   58.24    2.60
  -2   6   0   51.28    2.64
  -1   6   0  120.26    4.07
  -1   6   0  114.88    3.68
   1  -6   0  114.68    3.71
  -1   6   0  101.36    3.72
   0   6   0    3.07    0.77
   0   6   0    2.77    0.66
   0  -6   0    1.70    0.61
   1   6   0    3.53    0.75
  -1  -6   0    3.88    0.77
   1   6   0    2.38    0.71
   2   6   0   44.47    2.18
   2   6   0   50.75    2.40
  -2  -6   0   52.42    2.30
   3   6   0   23.03    1.66
   3   6   0   24.38    1.70
  -3  -6   0   21.95    1.55
  -4  -6   0   32.75    2.07
   4   6   0   30.06    1.96
  -4  -6   0   31.71    1.96
  -5  -6   0   12.71    1.48
  -5  -6   0    8.10    1.28
   5   6   0    9.87    1.38
  -6  -6   0    0.63    0.58
   6   6   0    2.10    0.94
  -6  -6   0    1.89    0.95
  -7  -6   0    6.69    1.25
  -7  -6   0    9.43    1.56
   7   6   0    6.35    1.27
  -8  -6   0    2.03    1.13
   8   6   0    1.21    1.02
   5  -7   0   32.06    2.49
  -5   7   0   32.28    2.56
  -4   7   0    1.00    0.79
   4  -7   0    1.50    0.84
   3  -7   0   23.07    2.02
  -3   7   0   24.06    2.11
  -2   7   0    0.83    0.60
  -2   7   0    1.21    0.77
   2  -7   0    0.53    0.67
   1  -7   0   16.25    1.43
  -1   7   0   17.04    1.33
  -1   7   0   16.46    1.59
  -1   7   0   16.68    1.54
   0   7   0   14.27    1.47
   0  -7   0   14.88    1.43
   0   7   0   14.67    1.33
   1   7   0   50.64    2.40
  -1  -7   0   52.87    2.48
   1   7   0   51.93    2.60
   2   7   0   76.86    3.31
   2   7   0   76.66    3.22
  -2  -7   0   82.97    3.22
   3   7   0   20.93    1.75
   3   7   0   19.53    1.80
  -3  -7   0   17.53    1.60
  -4  -7   0  153.23    5.42
  -4  -7   0  162.95    5.28
   4   7   0  159.12    5.42
  -5  -7   0   11.30    1.57
   5   7   0   10.68    1.55
  -5  -7   0   13.88    1.60
   6   7   0    0.91    0.76
  -6  -7   0   -0.29    0.58
  -6  -7   0   -0.76    0.70
  -7  -7   0    1.22    0.79
   7   7   0    0.06    0.80
  -7  -7   0    1.78    1.01
   8   7   0    1.25    0.98
  -8  -7   0    2.61    1.17
  -4   8   0    8.05    1.59
   4  -8   0   10.32    1.73
   3  -8   0    3.10    1.04
  -3   8   0    3.04    1.08
  -2   8   0    0.94    0.82
   2  -8   0    0.84    0.77
  -1   8   0   43.49    2.44
   1  -8   0   38.43    2.40
   0   8   0   11.53    1.56
   0  -8   0   12.30    1.46
   0   8   0   13.26    1.41
   1   8   0    0.04    0.57
  -1  -8   0    2.56    0.84
   1   8   0    1.89    0.81
   2   8   0    8.99    1.30
  -2  -8   0    5.74    1.11
   2   8   0    9.03    1.38
   3   8   0    2.62    0.89
   3   8   0    3.50    0.99
  -3  -8   0    2.38    0.91
   4   8   0    3.58    1.03
  -4  -8   0    4.25    1.02
  -4  -8   0    3.73    1.05
  -5  -8   0    0.17    0.86
  -5  -8   0   -0.16    0.59
   5   8   0    0.35    0.73
  -6  -8   0    5.81    1.27
  -6  -8   0    4.42    1.26
   6   8   0    3.92    1.10
   7   8   0   -0.86    0.93
  -7  -8   0    0.71    0.85
  -3   9   0    9.20    1.71
   1  -9   0   46.78    2.74
  -1   9   0   47.70    2.74
   0   9   0   31.24    2.19
   0  -9   0   32.35    2.30
  -1  -9   0    1.29    0.83
   1   9   0    2.99    0.90
  -2  -9   0   33.60    2.33
   2   9   0   35.65    2.36
   2   9   0   36.49    2.46
   3   9   0    2.73    0.98
   4   9   0    0.14    0.71
  -4  -9   0    1.51    0.78
   5   9   0    0.33    0.88
  -5  -9   0    0.59    0.74
  -6  -9   0    1.30    0.86
   6   9   0   -1.23    0.86
   0  10   0    2.51    1.08
   1  10   0   10.10    1.65
   2  10   0    2.70    0.97
  -3 -10   0    3.71    1.18
   3  10   0    4.06    1.17
   4  10   0    4.40    1.30
  -4 -10   0    2.22    0.93
   5  10   0   -0.68    1.00
   4  10  -1    3.89    1.25
   3  10  -1    5.00    1.34
  -3 -10   1    3.51    1.26
   2  10  -1    6.60    1.36
  -2 -10   1    3.29    1.19
  -1 -10   1    1.80    0.92
   0 -10   1    7.35    1.52
  -6  -9   1    3.05    1.09
   5   9  -1    1.11    1.04
  -5  -9   1    1.69    0.78
  -4  -9   1    0.77    0.69
   4   9  -1    1.25    0.86
  -3  -9   1    7.62    1.42
   3   9  -1    9.00    1.56
   2   9  -1    3.02    1.08
  -2  -9   1    3.71    1.02
   1   9  -1    0.91    0.80
  -1  -9   1    1.38    0.80
   0   9  -1   10.40    1.52
  -1   9  -1    1.99    0.93
  -7  -8   1    1.46    0.98
   6   8  -1    4.24    1.28
  -6  -8   1    4.50    1.18
   5   8  -1    9.23    1.53
  -5  -8   1    8.77    1.51
   4   8  -1    0.72    0.83
  -4  -8   1    1.65    0.81
  -3  -8   1    9.29    1.46
   3   8  -1   12.55    1.67
  -2  -8   1    1.71    0.80
   2   8  -1    2.09    0.82
   1   8  -1    2.12    0.86
   1   8  -1    0.94    0.72
   0   8  -1    2.11    0.87
   0   8  -1    3.47    0.96
   0  -8   1    2.54    0.90
  -1   8  -1    2.51    0.89
   1  -8   1    1.30    0.85
  -2   8  -1   19.20    1.93
  -3   8  -1    2.19    0.93
   3  -8   1    2.89    1.08
   4  -8   1   44.50    2.99
  -4   8  -1   49.15    3.12
  -7  -7   1    3.57    1.08
   7   7  -1    1.98    1.09
   6   7  -1    0.72    0.81
  -6  -7   1   -0.14    0.62
  -5  -7   1   15.70    1.79
   5   7  -1   18.03    1.94
   4   7  -1   22.65    2.03
  -4  -7   1   21.38    1.76
  -4  -7   1   17.25    1.85
   3   7  -1    0.90    0.69
  -3  -7   1    1.07    0.72
  -3  -7   1    0.50    0.61
   2   7  -1   18.48    1.71
  -2  -7   1   18.54    1.49
  -1  -7   1    6.15    1.05
   1   7  -1    6.65    1.17
   1   7  -1    7.44    1.22
   0  -7   1   59.02    2.67
   0   7  -1   61.52    2.77
   0   7  -1   59.60    2.78
  -1   7  -1   12.35    1.41
  -1   7  -1   11.66    1.36
  -1   7  -1   11.60    1.36
  -2   7  -1    0.83    0.70
   2  -7   1    1.31    0.73
  -3   7  -1    1.43    0.83
   3  -7   1    1.79    0.86
  -4   7  -1    2.89    0.96
   4  -7   1    3.69    1.14
  -5   7  -1   13.52    1.95
   5  -7   1   13.47    1.93
   8   6  -1    0.18    0.81
   7   6  -1    0.65    0.82
  -7  -6   1    1.82    0.80
  -7  -6   1    0.91    0.93
  -6  -6   1    0.59    0.72
  -6  -6   1    0.02    0.83
   6   6  -1   -0.63    0.51
  -5  -6   1    1.42    0.77
   5   6  -1    3.68    1.00
  -5  -6   1    1.02    0.67
   4   6  -1    4.94    1.07
  -4  -6   1    5.24    1.06
  -4  -6   1    6.55    1.09
  -3  -6   1    0.14    0.58
   3   6  -1    0.36    0.61
  -3  -6   1    0.60    0.58
  -2  -6   1    8.41    1.02
   2   6  -1    7.54    1.15
   2   6  -1    7.94    1.14
   1   6  -1    9.55    1.23
   1   6  -1   11.07    1.19
  -1  -6   1   12.70    1.16
   0   6  -1   26.35    1.65
   0   6  -1   33.52    1.88
   0  -6   1   32.62    1.73
   0   6  -1   29.99    1.59
  -1   6  -1  347.39    8.95
  -1   6  -1  333.77    8.81
  -1   6  -1  322.18    8.70
  -1   6  -1  332.61    8.76
  -2   6  -1  441.75   10.97
  -2   6  -1  429.44   10.91
  -2   6  -1  383.88   10.45
   2  -6   1  410.17   10.45
  -3   6  -1  136.08    4.81
   3  -6   1  131.77    4.69
   4  -6   1  102.63    4.20
  -4   6  -1   98.61    4.15
  -5   6  -1   45.38    2.89
   5  -6   1   44.84    2.79
  -6   6  -1    2.53    1.20
   6  -6   1    1.59    0.96
  -8  -5   1   -0.09    0.96
   8   5  -1    2.36    1.07
  -7  -5   1    0.48    0.89
   7   5  -1   -0.13    0.77
   6   5  -1    2.99    0.95
  -6  -5   1    3.35    0.91
  -6  -5   1    4.12    1.14
  -5  -5   1   33.95    2.08
   5   5  -1   34.96    2.17
  -5  -5   1   37.27    2.17
   4   5  -1  177.92    5.50
  -4  -5   1  172.24    5.22
  -4  -5   1  171.30    5.41
  -3  -5   1    0.73    0.54
   3   5  -1    0.66    0.59
  -3  -5   1    0.25    0.50
   2   5  -1  528.12   13.04
   2   5  -1  540.83   12.94
  -2  -5   1  537.26   12.79
   1   5  -1  150.26    4.56
   1   5  -1  151.98    4.02
  -1  -5   1  144.08    4.26
   1   5  -1  144.37    4.43
   0   5  -1    8.22    0.83
   0   5  -1    6.18    0.86
   0  -5   1    7.74    0.88
   0   5  -1    7.16    0.94
  -1   5  -1   78.56    2.90
  -1   5  -1   81.45    2.90
  -1   5  -1   79.87    2.94
  -1   5  -1   77.99    2.86
   2  -5   1    8.66    0.99
  -2   5  -1    9.68    1.00
  -2   5  -1   10.76    1.19
  -2   5  -1   11.41    1.19
  -3   5  -1    1.48    0.80
  -3   5  -1    2.58    0.82
   3  -5   1    1.33    0.63
  -4   5  -1    1.01    0.71
   4  -5   1    0.30    0.60
   5  -5   1    4.69    1.17
  -5   5  -1    5.54    1.25
   6  -5   1   23.35    2.27
  -6   5  -1   26.05    2.42
   7  -5   1   13.56    2.02
  -7   5  -1   10.33    1.94
  -9  -4   1    5.01    1.53
   9   4  -1    4.71    1.38
   8   4  -1    1.39    0.98
  -8  -4   1    0.81    1.00
   7   4  -1    3.36    1.04
  -7  -4   1    2.94    1.13
  -6  -4   1    4.83    0.99
   6   4  -1    4.73    1.07
  -6  -4   1    3.93    1.05
  -5  -4   1   58.46    2.60
  -5  -4   1   59.38    2.69
   5   4  -1   62.74    2.85
   4   4  -1   29.54    1.82
  -4  -4   1   31.61    1.73
  -4  -4   1   31.66    1.76
   3   4  -1   22.99    1.44
  -3  -4   1   24.22    1.48
  -3  -4   1   21.94    1.33
  -2  -4   1   11.68    0.94
   2   4  -1   14.06    0.67
  -2  -4   1   11.74    1.08
   2   4  -1   12.99    1.01
   1   4  -1   60.49    2.28
   1   4  -1   60.90    1.88
   1   4  -1   57.47    2.21
  -1  -4   1   55.97    2.05
   0   4  -1  453.30   10.92
   0   4  -1  464.09   11.03
   0   4  -1  462.83   10.74
  -1   4  -1   13.09    0.95
  -1   4  -1   13.75    1.02
  -1   4  -1   15.23    1.04
  -1   4  -1   13.78    1.00
  -2   4  -1  132.95    4.25
  -2   4  -1  135.18    4.21
   2  -4   1  136.85    3.98
  -2   4  -1  136.60    3.89
  -3   4  -1  198.58    5.89
  -3   4  -1  185.43    5.70
   3  -4   1  190.13    5.31
  -3   4  -1  196.73    5.08
  -4   4  -1  723.43   17.72
   4  -4   1  734.24   16.97
   5  -4   1   23.60    1.87
  -5   4  -1   24.25    1.94
  -6   4  -1   67.96    3.49
   6  -4   1   63.07    3.27
   7  -4   1   22.59    2.20
  -7   4  -1   17.46    2.18
   9   3  -1    1.09    1.11
  -9  -3   1    1.30    1.20
   8   3  -1    1.09    0.89
  -8  -3   1   -0.69    0.78
   7   3  -1   19.95    1.89
  -7  -3   1   18.98    1.98
  -6  -3   1    1.20    0.71
   6   3  -1    1.44    0.77
  -6  -3   1    1.81    0.65
  -5  -3   1   57.71    2.67
  -5  -3   1   66.82    2.59
   5   3  -1   64.00    2.76
  -4  -3   1  452.77   10.99
   4   3  -1  446.06   10.18
  -4  -3   1  447.55   10.86
   4   3  -1  433.26   10.92
   3   3  -1   45.57    1.98
   3   3  -1   45.96    1.45
  -3  -3   1   44.94    1.89
  -3  -3   1   43.85    1.85
  -2  -3   1  139.81    3.81
   2   3  -1  141.50    3.40
   2   3  -1  137.26    3.98
  -2  -3   1  136.57    3.97
  -1  -3   1    5.70    0.57
   1   3  -1    6.13    0.70
   1   3  -1    5.98    0.68
   1   3  -1    5.96    0.49
   0   3  -1   40.50    1.58
   0   3  -1   41.77    1.51
   0   3  -1   39.79    1.60
   0   3  -1   39.57    1.48
  -1   3  -1   11.01    0.76
  -1   3  -1   10.39    0.80
  -1   3  -1    8.81    0.82
  -1   3  -1    9.72    0.78
  -2   3  -1  222.53    5.39
  -2   3  -1  208.76    5.72
  -2   3  -1  215.86    5.84
   2  -3   1  216.13    5.54
   3  -3   1    0.46    0.38
  -3   3  -1    0.64    0.28
  -3   3  -1    0.84    0.54
  -3   3  -1    0.58    0.44
   4  -3   1   34.95    1.75
  -4   3  -1   37.30    2.11
  -4   3  -1   36.05    2.07
   5  -3   1  164.43    5.34
  -5   3  -1  177.39    5.62
   5  -3   1  144.85    4.79
   6  -3   1   77.32    3.56
  -6   3  -1   82.41    3.80
   7  -3   1   14.62    1.81
  -7   3  -1   12.86    1.81
  -8   3  -1    1.41    1.13
   8  -3   1   -0.79    0.82
  -9  -2   1    0.81    1.11
   9   2  -1    2.51    1.19
  -8  -2   1    1.31    0.82
   8   2  -1    1.20    0.88
   7   2  -1   46.24    2.54
  -7  -2   1   42.72    2.72
   6   2  -1   37.50    1.86
   6   2  -1   35.95    2.11
  -6  -2   1   38.25    2.33
  -5  -2   1    0.61    0.60
   5   2  -1    0.71    0.37
  -5  -2   1    0.35    0.43
   5   2  -1    0.24    0.48
   4   2  -1   10.83    1.04
   4   2  -1    9.12    0.73
  -4  -2   1    6.96    0.92
  -4  -2   1    9.91    0.90
  -3  -2   1    5.02    0.69
  -3  -2   1    5.11    0.66
   3   2  -1    4.54    0.50
   3   2  -1    5.58    0.75
   2   2  -1   96.67    2.90
  -2  -2   1   98.67    2.86
  -2  -2   1   94.46    2.75
   2   2  -1   98.64    2.52
   1   2  -1   -0.02    0.20
   1   2  -1    0.14    0.26
  -1  -2   1    0.38    0.26
  -1  -2   1   -0.58    0.22
   0   2  -1    9.24    0.55
   0   2  -1    8.50    0.57
   0   2  -1    7.73    0.58
   0   2  -1    8.42    0.63
  -1   2  -1  593.28   13.19
  -1   2  -1  592.84   13.38
  -1   2  -1  595.20   13.42
  -1   2  -1  586.51   13.27
  -2   2  -1  131.09    3.85
  -2   2  -1  126.74    3.73
   2  -2   1  135.34    3.64
  -2   2  -1  140.67    3.38
  -3   2  -1  132.95    4.05
   3  -2   1  130.10    3.75
  -3   2  -1  132.51    3.25
  -3   2  -1  133.28    4.10
   4  -2   1    8.64    0.90
  -4   2  -1   10.23    1.17
  -4   2  -1    9.16    1.11
  -5   2  -1   59.95    2.85
   5  -2   1   60.14    2.46
   5  -2   1   57.98    2.67
  -6   2  -1   16.35    1.79
   6  -2   1   17.98    1.70
   6  -2   1   17.48    1.52
   7  -2   1   10.54    1.57
  -7   2  -1   10.28    1.72
  -8   2  -1    2.77    1.21
   8  -2   1    4.35    1.07
  -9  -1   1   -0.54    1.02
   8   1  -1    0.63    0.83
  -8  -1   1    1.09    0.83
  -7  -1   1    4.05    1.10
   7   1  -1    3.77    0.90
   7   1  -1    2.30    0.94
  -6  -1   1   14.52    1.58
   6   1  -1   13.01    1.37
   6   1  -1   12.20    1.20
  -5  -1   1   16.67    1.07
   5   1  -1   18.94    1.21
  -5  -1   1   17.09    1.52
   5   1  -1   16.65    1.26
   4   1  -1    8.08    0.88
  -4  -1   1    7.30    0.73
   4   1  -1    6.49    0.71
  -4  -1   1    7.49    0.93
  -3  -1   1  748.07   17.18
   3   1  -1  750.68   16.69
   3   1  -1  743.33   16.87
  -3  -1   1  757.21   16.81
   2   1  -1 5110.71  112.01
   2   1  -1 4917.79  110.63
  -2  -1   1 4997.66  109.33
  -2  -1   1 5013.85  111.67
  -1  -1   1 9751.10  210.22
   1   1  -1 8719.62  206.91
   1   1  -1 9999.25  208.48
  -1  -1   1 9773.28  209.18
   0   1  -1   25.04    0.89
   0   1  -1   25.14    0.78
   0   1  -1   26.25    0.95
   0  -1   1   25.78    0.91
  -1   1  -1  577.51   12.82
   1  -1   1  582.15   12.91
  -1   1  -1  584.85   13.05
  -1   1  -1  594.05   13.03
  -2   1  -1  508.09   11.71
  -2   1  -1  504.69   11.75
   2  -1   1  508.68   11.49
  -2   1  -1  518.01   11.21
  -3   1  -1   47.88    1.92
  -3   1  -1   42.14    1.84
   3  -1   1   44.45    1.71
   4  -1   1  206.14    5.51
  -4   1  -1  206.23    5.88
  -4   1  -1  203.45    5.77
   5  -1   1   29.49    1.65
  -5   1  -1   29.13    1.90
   5  -1   1   29.10    1.73
   6  -1   1  242.35    6.90
  -6   1  -1  240.01    7.40
   6  -1   1  241.38    7.04
   7  -1   1   15.94    1.65
   7  -1   1   10.98    1.44
  -7   1  -1   12.12    1.74
  -8   1  -1   38.97    2.84
   8  -1   1   41.30    2.62
   9  -1   1    0.79    1.09
  -9   0   1    3.08    1.31
  -8   0   1    1.03    0.96
   8   0  -1    1.21    0.81
   7   0  -1    3.31    0.92
   7   0  -1    4.75    1.09
  -7   0   1    5.65    1.26
   6   0  -1   12.27    1.31
  -6   0   1   13.14    1.60
   6   0  -1   11.74    1.29
   5   0  -1   -0.20    0.39
  -5   0   1   -0.22    0.55
   5   0  -1   -0.06    0.38
   4   0  -1   52.74    2.10
  -4   0   1   53.51    2.31
  -4   0   1   55.89    1.84
   4   0  -1   55.50    2.10
   3   0  -1  919.69   20.60
   3   0  -1  934.41   20.53
  -3   0   1  905.77   21.02
  -3   0   1  950.05   20.47
  -2   0   1   29.50    1.08
   2   0  -1   29.29    1.12
   2   0  -1   27.79    1.15
   1   0  -1 3402.75   76.99
  -1   0   1 3482.69   77.23
  -1   0   1 3494.35   77.20
   1   0  -1 3410.71   75.43
   0   0  -1   57.12    1.47
   0   0   1   56.13    1.45
   0   0  -1   59.09    1.44
  -1   0  -1 1130.61   24.94
   1   0   1 1149.71   24.61
  -2   0  -1   59.86    1.90
   2   0   1   61.01    1.89
  -2   0  -1   57.17    1.95
  -3   0  -1  366.51    8.94
  -3   0  -1  359.22    8.72
  -3   0  -1  364.89    8.12
   3   0   1  371.61    8.67
  -4   0  -1  410.10   10.09
  -4   0  -1  382.36    9.70
   4   0   1  399.29    9.66
  -4   0  -1  404.30    8.83
   5   0   1   11.61    1.10
  -5   0  -1    7.87    1.09
   5   0   1    9.23    1.07
  -6   0  -1    1.07    0.65
   6   0   1    1.67    0.69
   6   0   1    0.50    0.65
   7   0   1    3.70    0.99
  -7   0  -1    3.64    1.09
   7   0   1    4.30    0.96
   8   0   1    2.96    1.07
   8   0   1    1.65    0.85
  -8   0  -1    4.22    1.22
  -9   0  -1   15.57    2.31
   9  -1  -1   11.67    1.93
   8  -1  -1    0.65    0.81
  -8   1   1    0.74    0.99
   7  -1  -1    5.35    1.12
  -7   1   1    5.03    1.25
  -6   1   1   60.27    3.18
   6  -1  -1   66.33    2.78
   6  -1  -1   62.95    2.91
   5  -1  -1    4.96    0.83
  -5   1   1    5.71    1.07
   5  -1  -1    5.64    0.96
   4  -1  -1  111.75    3.34
  -4   1   1  110.84    3.07
  -4   1   1  113.63    3.86
   4  -1  -1  111.56    3.61
  -3   1   1   10.58    1.00
   3  -1  -1    9.84    0.88
  -3   1   1    8.68    0.60
   3  -1  -1   10.24    0.75
   2  -1  -1   75.44    2.09
   2  -1  -1   77.57    2.36
  -2   1   1   74.65    2.42
  -2   1   1   76.50    2.10
   1  -1  -1  215.86    5.17
  -1   1   1  224.31    5.10
   1  -1  -1  215.93    4.88
   0   1   1  269.85    6.23
   0   1   1  268.90    6.28
   0  -1  -1  270.44    6.16
   1   1   1  826.56   17.75
  -1  -1  -1  818.16   17.78
   1   1   1  825.23   17.84
  -1  -1  -1  801.39   18.01
  -2  -1  -1 1199.58   25.74
   2   1   1 1184.38   25.88
   2   1   1 1185.92   25.80
   3   1   1  290.73    7.07
  -3  -1  -1  293.99    6.60
  -3  -1  -1  282.51    6.85
   4   1   1   84.28    2.64
  -4  -1  -1   83.45    2.98
  -4  -1  -1   87.38    2.32
   4   1   1   84.19    2.86
   5   1   1  503.34   11.94
   5   1   1  498.97   12.18
  -5  -1  -1  507.70   12.63
  -6  -1  -1   75.02    3.33
   6   1   1   77.69    2.88
   6   1   1   71.55    3.05
   7   1   1   39.54    2.36
   7   1   1   42.48    2.24
  -7  -1  -1   44.42    2.67
   8   1   1    3.62    1.12
  -8  -1  -1    5.58    1.26
   9   1   1   15.84    2.03
  -9  -1  -1   12.30    2.05
  -8   2   1    0.07    1.04
   8  -2  -1    2.78    0.95
  -7   2   1  119.61    5.05
   7  -2  -1  119.88    4.73
   6  -2  -1  259.46    7.77
  -6   2   1  264.09    8.15
   5  -2  -1   31.47    1.91
   5  -2  -1   33.29    1.74
  -5   2   1   29.06    2.03
  -4   2   1   68.94    2.17
  -4   2   1   73.01    2.98
   4  -2  -1   67.92    2.76
   4  -2  -1   69.57    2.40
  -3   2   1   10.09    0.65
   3  -2  -1    6.17    0.61
   3  -2  -1    7.36    0.85
  -3   2   1    7.65    0.94
   2  -2  -1   72.00    2.38
  -2   2   1   65.08    2.40
  -2   2   1   73.56    2.10
   2  -2  -1   73.44    2.02
  -1   2   1   18.98    0.86
   1  -2  -1   18.06    0.93
  -1   2   1   19.02    1.01
   1  -2  -1   19.48    0.70
   0   2   1 1369.37   29.94
   0  -2  -1 1359.55   29.41
   0   2   1 1385.69   29.69
   0   2   1 1345.36   29.35
   1   2   1  606.01   13.46
  -1  -2  -1  604.64   13.59
   1   2   1  615.04   13.31
  -1  -2  -1  589.33   13.23
   2   2   1 1114.27   24.72
  -2  -2  -1 1089.71   25.09
  -2  -2  -1 1164.65   24.80
   2   2   1 1162.41   24.81
   3   2   1    8.17    0.78
   3   2   1    6.77    0.50
   3   2   1    7.57    0.61
  -3  -2  -1    6.86    0.74
  -4  -2  -1   76.84    2.30
   4   2   1   73.52    2.66
   4   2   1   75.38    2.26
  -5  -2  -1    9.61    1.15
   5   2   1    6.71    0.72
  -5  -2  -1    5.82    0.65
   5   2   1    5.87    0.96
   6   2   1   16.58    1.16
  -6  -2  -1   12.40    1.49
   6   2   1   13.01    1.39
  -7  -2  -1    0.02    0.67
   7   2   1    0.91    0.76
  -8  -2  -1    0.78    0.94
   8   2   1    0.52    0.81
   9   2   1    1.66    1.09
  -9  -2  -1    4.09    1.40
   8  -3  -1   11.23    1.87
  -8   3   1    8.61    1.95
  -7   3   1   20.17    2.30
   7  -3  -1   16.07    1.92
  -6   3   1    7.72    1.52
   6  -3  -1    9.09    1.49
  -5   3   1  317.90    9.06
   5  -3  -1  307.39    8.73
   4  -3  -1    4.00    0.82
  -4   3   1    6.58    1.12
   4  -3  -1    5.62    0.72
  -3   3   1  283.64    7.85
  -3   3   1  305.13    7.22
   3  -3  -1  299.04    7.75
   3  -3  -1  299.88    7.14
   2  -3  -1  452.80   10.06
  -2   3   1  449.65   10.34
  -2   3   1  426.90   10.79
   2  -3  -1  449.05   10.62
   1  -3  -1 1152.08   25.48
  -1   3   1 1155.21   25.54
  -1   3   1 1169.59   25.97
   0   3   1   16.25    0.77
   0   3   1   15.22    0.94
   0  -3  -1   13.05    0.76
   0   3   1   14.44    0.90
  -1  -3  -1    4.41    0.36
  -1  -3  -1    3.84    0.52
   1   3   1    4.44    0.59
   1   3   1    4.09    0.47
  -2  -3  -1    7.50    0.75
   2   3   1    7.18    0.69
   2   3   1    9.70    0.81
  -3  -3  -1    2.87    0.58
   3   3   1    3.91    0.62
   3   3   1    2.89    0.24
   3   3   1    2.46    0.58
  -4  -3  -1  477.92   11.24
   4   3   1  481.16   10.68
   4   3   1  473.99   11.51
  -4  -3  -1  479.64   11.69
   5   3   1   35.74    1.39
  -5  -3  -1   31.92    1.95
  -5  -3  -1   35.19    1.59
   5   3   1   30.97    1.81
  -6  -3  -1   15.08    1.59
   6   3   1   14.45    1.48
   7   3   1   -0.27    0.62
  -7  -3  -1    0.35    0.73
  -8  -3  -1   24.67    2.36
   8   3   1   23.67    2.16
   9   3   1    2.50    1.11
  -9  -3  -1    2.16    1.23
  -7   4   1    1.67    0.99
   7  -4  -1   -0.37    0.75
  -6   4   1    5.40    1.22
   6  -4  -1    5.34    1.20
   5  -4  -1    9.16    1.39
  -5   4   1    6.27    1.28
   4  -4  -1  323.17    8.82
  -4   4   1  319.99    8.99
  -3   4   1  764.08   18.28
   3  -4  -1  748.43   17.89
  -3   4   1  770.55   17.39
   3  -4  -1  769.96   17.14
  -2   4   1    1.44    0.48
   2  -4  -1    3.82    0.51
   2  -4  -1    1.65    0.60
  -2   4   1    1.83    0.58
   1  -4  -1  173.78    4.79
  -1   4   1  181.51    4.84
  -1   4   1  180.30    4.52
  -1   4   1  181.22    5.09
   0  -4  -1 1364.53   30.45
   0   4   1 1411.17   30.43
   0   4   1 1417.93   31.23
   0   4   1 1403.93   30.94
   1   4   1   42.18    1.75
   1   4   1   38.90    1.54
  -1  -4  -1   41.47    1.75
  -1  -4  -1   41.31    1.31
  -2  -4  -1  174.84    4.81
   2   4   1  174.52    4.68
   2   4   1  170.18    4.80
  -3  -4  -1    8.88    0.94
   3   4   1    9.54    0.96
   3   4   1    9.05    0.92
  -4  -4  -1  160.36    4.82
   4   4   1  155.22    4.72
   4   4   1  155.68    4.55
  -5  -4  -1   15.74    1.15
   5   4   1   13.62    1.36
  -5  -4  -1   13.29    1.38
  -6  -4  -1   12.11    1.17
  -6  -4  -1   11.22    1.49
   6   4   1    9.50    1.35
  -7  -4  -1    5.35    1.28
   7   4   1    5.11    1.18
   8   4   1    3.17    1.08
  -8  -4  -1    4.06    1.22
   9   4   1    4.25    1.38
  -9  -4  -1    4.93    1.57
   7  -5  -1    1.99    1.14
  -7   5   1    1.59    1.20
   6  -5  -1    0.81    0.89
  -6   5   1    0.94    0.92
   5  -5  -1   66.39    3.34
  -5   5   1   69.61    3.52
   4  -5  -1    1.07    0.71
  -4   5   1    0.22    0.64
   3  -5  -1  393.12   10.23
  -3   5   1  396.47    9.73
  -3   5   1  390.86   10.53
   2  -5  -1   46.90    1.79
   2  -5  -1   46.68    2.18
  -2   5   1   47.31    2.31
  -2   5   1   46.03    1.99
   1  -5  -1    0.72    0.47
  -1   5   1    0.34    0.34
  -1   5   1   -0.13    0.46
  -1   5   1    0.60    0.45
   0  -5  -1    0.10    0.33
   0   5   1   -0.26    0.35
   0   5   1    0.27    0.33
   0   5   1    0.09    0.38
   1   5   1  183.33    4.84
  -1  -5  -1  178.87    4.44
  -1  -5  -1  178.30    5.11
   1   5   1  175.01    5.13
   2   5   1   57.89    2.22
  -2  -5  -1   54.70    2.27
   2   5   1   53.13    2.29
  -2  -5  -1   55.86    1.49
  -3  -5  -1    3.90    0.77
   3   5   1    5.64    0.90
   3   5   1    4.50    0.75
   4   5   1    1.64    0.62
   4   5   1    1.35    0.57
  -4  -5  -1    1.52    0.66
  -5  -5  -1   18.62    1.35
   5   5   1   16.45    1.52
  -5  -5  -1   19.04    1.66
   6   5   1   10.79    1.47
  -6  -5  -1    9.51    1.21
  -6  -5  -1   12.68    1.57
  -7  -5  -1   -0.87    0.75
   7   5   1    0.11    0.64
  -8  -5  -1    2.56    1.03
   8   5   1    1.90    1.04
  -9  -5  -1   -1.42    1.03
   9   5   1    0.63    1.07
   6  -6  -1    8.32    1.76
  -6   6   1    7.34    1.65
  -5   6   1    0.99    0.78
   5  -6  -1    0.90    0.86
  -4   6   1    7.17    1.33
   4  -6  -1    8.51    1.41
  -3   6   1    0.65    0.70
   3  -6  -1   -0.36    0.50
   2  -6  -1   44.82    2.25
  -2   6   1   42.88    2.06
  -2   6   1   40.27    2.28
  -1   6   1    9.81    1.21
  -1   6   1    9.38    0.90
   1  -6  -1    9.48    1.04
  -1   6   1   10.10    1.13
   0   6   1  151.45    4.32
   0  -6  -1  148.38    4.71
   0  -6  -1  152.84    4.25
   0   6   1  138.30    4.58
   1   6   1  161.47    4.61
  -1  -6  -1  153.27    4.13
  -1  -6  -1  162.18    4.92
   1   6   1  150.84    4.83
  -2  -6  -1  266.95    7.21
   2   6   1  257.88    6.96
   2   6   1  261.66    7.30
   3   6   1  286.31    7.93
   3   6   1  287.75    7.79
  -3  -6  -1  291.80    7.88
   4   6   1   12.28    1.37
  -4  -6  -1   14.50    1.45
   4   6   1   12.93    1.38
   5   6   1   -0.08    0.64
  -5  -6  -1    0.61    0.77
  -5  -6  -1    0.13    0.56
  -6  -6  -1    1.66    0.80
  -6  -6  -1    1.00    0.84
   6   6   1    1.56    0.81
   7   6   1   11.97    1.61
  -7  -6  -1   14.75    1.83
  -8  -6  -1    5.02    1.39
   8   6   1    5.51    1.34
  -9  -6  -1    0.19    1.15
   5  -7  -1   18.10    2.18
  -5   7   1   16.46    2.09
  -4   7   1   11.83    1.71
   4  -7  -1   13.43    1.76
   3  -7  -1   23.90    1.86
  -3   7   1   24.33    1.98
  -2   7   1    1.21    0.81
   2  -7  -1   -0.14    0.56
  -2   7   1    0.64    0.57
  -1   7   1   37.58    2.26
  -1   7   1   37.82    2.10
   1  -7  -1   36.72    1.98
   0   7   1    7.43    0.96
   0  -7  -1    6.08    1.10
   0   7   1    4.92    0.98
   1   7   1   64.82    2.91
   1   7   1   64.97    2.62
  -1  -7  -1   63.47    2.88
   2   7   1    5.16    1.05
   2   7   1    3.86    0.84
  -2  -7  -1    3.87    0.91
   3   7   1   17.35    1.53
   3   7   1   13.36    1.59
  -3  -7  -1   18.07    1.58
   4   7   1    9.42    1.33
  -4  -7  -1    9.05    1.31
   4   7   1   11.62    1.47
  -5  -7  -1   52.38    2.71
   5   7   1   46.64    2.55
  -5  -7  -1   49.16    2.69
  -6  -7  -1    5.34    1.26
  -6  -7  -1    3.81    1.00
   6   7   1    2.76    1.01
  -7  -7  -1    9.39    1.39
   7   7   1    6.85    1.32
  -7  -7  -1    7.16    1.47
  -8  -7  -1    0.50    0.97
   8   7   1   -0.22    0.77
   4  -8  -1    2.14    1.10
  -4   8   1    0.28    0.93
   3  -8  -1   34.10    2.39
  -3   8   1   32.16    2.44
   2  -8  -1   63.20    3.09
  -2   8   1   63.40    3.30
  -1   8   1   44.17    2.45
   0  -8  -1    1.63    0.74
   0   8   1    1.25    0.71
   1   8   1   32.59    1.99
   1   8   1   31.42    2.13
  -1  -8  -1   32.54    2.12
   2   8   1    9.00    1.39
  -2  -8  -1   10.57    1.38
   2   8   1   12.66    1.42
   3   8   1   -0.90    0.61
   3   8   1   -0.29    0.55
  -3  -8  -1   -0.31    0.69
   4   8   1    2.16    0.83
  -4  -8  -1    1.44    0.86
   4   8   1    0.02    0.72
  -5  -8  -1   14.22    1.67
   5   8   1   13.84    1.69
  -5  -8  -1   18.08    1.90
  -6  -8  -1    5.32    1.26
  -6  -8  -1    9.04    1.53
   6   8   1    5.28    1.24
  -7  -8  -1    2.34    0.96
  -7  -8  -1    0.19    0.96
   7   8   1    1.46    0.94
  -8  -8  -1    0.46    1.20
  -3   9   1   73.29    3.88
  -2   9   1   75.05    3.80
   1  -9  -1   50.93    2.95
  -1   9   1   52.87    2.87
   0   9   1   15.93    1.79
   0  -9  -1   14.03    1.71
  -1  -9  -1    5.37    1.16
   1   9   1    5.28    1.15
  -2  -9  -1   30.74    2.21
   2   9   1   31.05    2.24
   2   9   1   28.63    2.08
  -3  -9  -1    1.62    0.91
   3   9   1    3.91    1.10
   3   9   1    2.09    0.86
  -4  -9  -1   -0.85    0.72
   4   9   1    0.55    0.81
   4   9   1    0.92    0.79
  -5  -9  -1    1.42    0.86
  -5  -9  -1    2.97    0.89
   5   9   1    2.31    0.99
   6   9   1    5.32    1.28
  -6  -9  -1    4.93    1.30
  -6  -9  -1    5.48    1.19
  -7  -9  -1    0.85    0.86
   2 -10  -1   11.72    1.97
   1 -10  -1    0.42    0.87
   0 -10  -1    5.96    1.37
   0  10   1    4.28    1.14
  -1 -10  -1   11.81    1.70
   1  10   1    9.48    1.60
  -2 -10  -1   -0.01    0.78
   2  10   1    1.64    0.84
   3  10   1    0.66    0.79
   3  10   1    1.10    0.84
  -3 -10  -1    0.96    0.81
   4  10   1    1.21    1.03
  -5 -10  -1    4.66    1.20
   5  10   1    4.04    1.16
   3  10  -2    0.35    1.11
  -2 -10   2    0.06    0.90
   2  10  -2    0.58    1.08
   1  10  -2    1.68    1.17
  -1 -10   2    1.81    1.07
   0 -10   2    5.24    1.42
  -5  -9   2    3.10    1.03
   5   9  -2   -0.01    1.18
   4   9  -2    4.64    1.29
  -4  -9   2    3.55    0.99
  -3  -9   2    0.21    0.93
   3   9  -2   -1.41    0.61
   2   9  -2    3.45    1.04
  -2  -9   2    2.53    1.00
   1   9  -2    0.92    0.84
  -1  -9   2    1.38    0.92
   0  -9   2    1.21    0.85
   0   9  -2    5.21    1.19
  -6  -8   2    1.87    0.92
   6   8  -2    1.03    0.93
   5   8  -2   12.44    1.87
  -5  -8   2    9.51    1.71
  -4  -8   2    2.63    0.84
   4   8  -2    1.29    0.86
  -3  -8   2    1.55    0.78
   3   8  -2    2.36    0.82
   2   8  -2    0.47    0.87
  -2  -8   2    1.12    0.74
  -1  -8   2    6.77    1.32
   1   8  -2    6.84    1.31
   0   8  -2    0.22    0.73
   0  -8   2    3.20    0.92
   1  -8   2    0.57    0.66
  -1   8  -2    0.34    0.76
   3  -8   2    4.80    1.24
   4  -8   2   24.78    2.54
   7   7  -2    0.69    0.99
  -7  -7   2    1.23    0.88
  -6  -7   2    0.82    0.75
   6   7  -2    0.87    0.78
   5   7  -2   -0.53    0.75
  -5  -7   2   -1.01    0.65
   4   7  -2    0.44    0.77
  -4  -7   2    0.71    0.71
  -3  -7   2    0.69    0.72
   3   7  -2   -1.20    0.59
  -2  -7   2   -0.31    0.50
   2   7  -2    0.56    0.71
   1   7  -2   19.01    1.76
  -1  -7   2   12.02    1.52
   0   7  -2  120.58    4.35
   0  -7   2  117.27    4.33
   1  -7   2  146.04    4.92
  -1   7  -2  150.10    5.05
  -1   7  -2  137.51    4.83
  -2   7  -2  160.20    5.56
  -2   7  -2  165.22    5.49
   2  -7   2  166.14    5.46
  -3   7  -2   10.44    1.60
  -3   7  -2    9.71    1.53
   4  -7   2   12.18    1.78
  -4   7  -2   10.39    1.58
   5  -7   2    1.29    1.16
  -5   7  -2    1.44    0.94
   7   6  -2    1.31    0.93
  -7  -6   2    1.92    0.91
   6   6  -2    1.84    0.89
  -6  -6   2    1.03    0.85
  -5  -6   2   23.38    2.09
   5   6  -2   22.07    2.08
  -4  -6   2   14.39    1.62
   4   6  -2   10.24    1.48
  -3  -6   2   56.11    2.77
   3   6  -2   56.06    2.80
  -3  -6   2   51.49    2.40
   2   6  -2   57.14    2.76
  -2  -6   2   57.21    2.40
  -2  -6   2   54.65    2.69
  -1  -6   2    0.72    0.52
   1   6  -2   -0.03    0.55
  -1  -6   2    0.55    0.51
   0  -6   2   49.03    2.18
   0   6  -2   51.67    2.47
   0  -6   2   46.51    2.33
   0   6  -2   49.48    2.17
  -1   6  -2  307.89    8.36
  -1   6  -2  313.95    8.37
  -1   6  -2  317.01    8.53
  -2   6  -2   27.82    1.92
   2  -6   2   29.14    1.86
  -2   6  -2   30.32    2.03
  -3   6  -2    2.00    0.87
  -3   6  -2    3.77    1.03
   3  -6   2    3.30    0.91
  -4   6  -2    7.64    1.34
   5  -6   2   36.30    2.57
  -5   6  -2   34.71    2.49
  -6   6  -2    0.87    0.98
   6  -6   2    0.21    0.95
   8   5  -2    0.46    0.90
  -7  -5   2    9.89    1.49
   7   5  -2   11.21    1.63
   6   5  -2    0.74    0.67
  -6  -5   2    1.10    0.90
  -6  -5   2    0.38    0.63
  -5  -5   2   50.59    2.65
  -5  -5   2   47.77    2.52
   5   5  -2   46.47    2.63
   4   5  -2   95.22    3.81
  -4  -5   2   92.18    3.37
  -4  -5   2   90.55    3.64
   3   5  -2    5.24    0.98
  -3  -5   2    3.93    0.87
  -3  -5   2    3.59    0.77
  -2  -5   2    2.41    0.61
  -2  -5   2    4.32    0.86
   2   5  -2    2.74    0.77
   1   5  -2   82.92    3.10
  -1  -5   2   84.87    2.77
   1   5  -2   83.74    2.67
  -1  -5   2   74.20    3.05
   0  -5   2    6.32    0.76
   0   5  -2    6.85    0.83
   0  -5   2    7.82    0.99
   0   5  -2    8.58    1.04
  -1   5  -2   32.96    1.75
  -1   5  -2   33.87    1.82
  -1   5  -2   30.97    1.66
  -1   5  -2   32.37    1.71
  -2   5  -2  304.98    7.91
  -2   5  -2  301.52    7.62
  -2   5  -2  278.91    7.92
   2  -5   2  285.28    7.76
  -3   5  -2  187.32    6.08
   3  -5   2  193.88    5.73
  -3   5  -2  198.84    5.95
   4  -5   2   -0.40    0.56
  -4   5  -2   -0.40    0.57
  -4   5  -2    0.75    0.69
  -5   5  -2   53.39    2.99
   5  -5   2   47.41    2.77
  -6   5  -2   39.79    2.75
   6  -5   2   37.26    2.63
  -7   5  -2    7.31    1.75
  -8  -4   2    1.86    1.07
   8   4  -2    1.37    0.97
   7   4  -2   -0.01    0.73
  -7  -4   2    1.35    0.98
  -6  -4   2   38.98    2.24
  -6  -4   2   38.44    2.37
   6   4  -2   38.12    2.37
   5   4  -2   30.40    1.95
  -5  -4   2   32.53    2.01
  -5  -4   2   30.08    1.91
  -4  -4   2   22.90    1.54
   4   4  -2   19.26    1.52
  -4  -4   2   22.41    1.56
   3   4  -2   89.00    3.45
  -3  -4   2  104.20    3.22
  -3  -4   2  101.87    3.51
  -2  -4   2    5.81    0.89
   2   4  -2    6.36    0.59
   2   4  -2    4.66    0.80
  -2  -4   2    4.99    0.67
  -1  -4   2   79.85    2.50
   1   4  -2   77.95    2.45
   1   4  -2   77.89    2.82
  -1  -4   2   78.70    2.85
   0  -4   2   14.75    1.07
   0   4  -2   15.88    1.00
   0  -4   2   15.07    0.96
   0   4  -2   15.29    1.13
  -1   4  -2  168.43    4.87
  -1   4  -2  169.24    4.93
  -1   4  -2  177.70    4.79
  -1   4  -2  172.83    4.78
  -2   4  -2   24.73    1.43
   2  -4   2   26.98    1.49
  -2   4  -2   26.19    1.31
  -2   4  -2   24.20    1.54
  -3   4  -2  278.40    7.69
  -3   4  -2  271.86    7.50
   3  -4   2  276.21    7.33
  -4   4  -2  575.03   14.31
   4  -4   2  568.08   13.80
  -4   4  -2  575.91   14.49
  -5   4  -2    0.72    0.71
  -5   4  -2    0.52    0.70
   5  -4   2    0.43    0.62
   6  -4   2   26.14    2.22
  -6   4  -2   25.84    2.30
  -7   4  -2    0.43    0.96
   7  -4   2    1.12    0.82
  -9  -3   2    5.31    1.64
   9   3  -2    4.60    1.39
  -8  -3   2   10.67    1.66
   8   3  -2   10.28    1.60
   7   3  -2    2.47    0.90
  -7  -3   2   -0.06    0.80
  -6  -3   2    0.33    0.59
   6   3  -2   -0.27    0.66
  -6  -3   2    1.09    0.80
   5   3  -2    0.68    0.61
  -5  -3   2    0.47    0.54
  -5  -3   2    0.11    0.58
   4   3  -2   60.79    2.68
  -4  -3   2   69.73    2.71
   4   3  -2   68.83    2.27
  -4  -3   2   67.28    2.61
  -3  -3   2  119.08    3.79
   3   3  -2  120.75    3.24
  -3  -3   2  118.91    3.55
   3   3  -2  114.70    3.78
  -2  -3   2   20.26    1.23
   2   3  -2   18.63    0.92
   2   3  -2   20.28    1.24
  -2  -3   2   17.54    0.99
  -1  -3   2  138.23    3.95
   1   3  -2  134.64    3.56
   1   3  -2  131.53    3.91
  -1  -3   2  138.52    3.56
   0  -3   2  322.40    7.81
   0   3  -2  320.22    7.84
   0   3  -2  318.40    7.63
   0  -3   2  312.07    7.49
  -1   3  -2    3.20    0.60
  -1   3  -2    2.66    0.54
   1  -3   2    2.13    0.49
  -1   3  -2    3.32    0.53
   2  -3   2   23.06    1.33
  -2   3  -2   22.98    1.39
  -2   3  -2   27.27    1.35
  -3   3  -2   15.80    1.25
   3  -3   2   16.37    0.88
  -3   3  -2   14.95    1.19
   3  -3   2   15.39    1.15
   4  -3   2    7.63    0.98
  -4   3  -2    5.32    0.98
  -4   3  -2    8.11    1.19
   5  -3   2   -0.38    0.52
  -5   3  -2    0.29    0.66
  -5   3  -2    0.06    0.61
  -6   3  -2   -0.34    0.73
   6  -3   2    0.39    0.65
   6  -3   2    0.24    0.64
   7  -3   2    7.68    1.36
  -7   3  -2    9.10    1.59
  -8   3  -2   15.10    2.25
   8  -3   2   13.66    1.95
  -9  -2   2    1.14    1.16
   8   2  -2    1.12    0.89
  -8  -2   2    1.28    1.10
  -7  -2   2   10.87    1.60
   7   2  -2   11.00    1.49
  -6  -2   2    4.53    1.08
   6   2  -2    1.72    0.77
   5   2  -2   29.67    1.53
   5   2  -2   28.12    1.75
  -5  -2   2   22.88    1.68
  -5  -2   2   27.62    1.59
  -4  -2   2   11.22    1.11
   4   2  -2   12.90    1.18
   4   2  -2   13.56    0.96
  -4  -2   2   15.04    1.19
   3   2  -2 1219.60   27.13
  -3  -2   2 1226.20   27.65
  -3  -2   2 1259.36   27.71
   3   2  -2 1257.46   27.58
  -2  -2   2  501.90   11.33
  -2  -2   2  485.30   11.57
   2   2  -2  496.01   11.18
   2   2  -2  491.26   11.53
  -1  -2   2  167.96    4.06
   1   2  -2  169.66    4.17
  -1  -2   2  163.53    4.42
   0  -2   2  886.25   19.86
   0   2  -2  901.21   19.71
   0  -2   2  896.29   19.66
  -1   2  -2  261.20    6.29
  -1   2  -2  267.18    6.50
  -1   2  -2  261.53    6.49
   1  -2   2  264.19    6.29
  -2   2  -2  383.45    9.32
   2  -2   2  389.76    9.14
  -2   2  -2  373.82    9.10
   2  -2   2  383.44    8.72
  -3   2  -2  877.64   20.47
   3  -2   2  909.25   19.56
  -3   2  -2  903.30   20.54
   3  -2   2  890.84   20.15
  -4   2  -2   13.71    1.28
  -4   2  -2   15.05    1.39
   4  -2   2   19.33    1.28
  -5   2  -2  189.44    5.85
  -5   2  -2  186.25    5.91
   5  -2   2  181.28    5.44
   6  -2   2   27.77    1.82
  -6   2  -2   25.86    2.01
   6  -2   2   27.29    1.93
   7  -2   2   49.23    2.62
   7  -2   2   44.77    2.67
  -7   2  -2   43.71    2.81
   8  -2   2    4.31    1.10
  -8   2  -2    2.12    1.01
  -9  -1   2    1.45    1.33
  -8  -1   2    1.14    0.83
   7   1  -2   12.57    1.40
  -7  -1   2   11.60    1.65
   7   1  -2   12.69    1.54
   6   1  -2   15.92    1.48
   6   1  -2   16.03    1.39
  -6  -1   2   14.61    1.58
  -5  -1   2   12.29    0.99
   5   1  -2   12.13    1.12
  -5  -1   2   14.14    1.39
   5   1  -2   11.77    1.19
   4   1  -2  317.33    8.12
  -4  -1   2  319.38    8.37
  -4  -1   2  328.19    8.06
   4   1  -2  322.95    7.98
  -3  -1   2   23.22    1.29
   3   1  -2   23.65    1.17
  -3  -1   2   24.05    1.25
   3   1  -2   21.41    1.22
   2   1  -2 1520.18   33.47
   2   1  -2 1544.64   33.61
  -2  -1   2 1553.59   33.93
  -2  -1   2 1564.65   33.84
   1   1  -2 5321.09  122.00
  -1  -1   2 5717.01  122.22
   1   1  -2 5478.87  122.90
  -1  -1   2 5558.27  123.64
   0   1  -2  252.43    5.99
   0  -1   2  246.68    5.97
   0   1  -2  258.16    5.95
  -1   1  -2  403.35    9.23
  -1   1  -2  396.47    9.19
  -1   1  -2  398.64    9.03
   1  -1   2  401.99    9.02
   2  -1   2  576.45   12.35
  -2   1  -2  554.86   12.87
  -2   1  -2  562.06   12.83
   2  -1   2  550.68   12.72
   3  -1   2  775.27   17.39
  -3   1  -2  769.20   17.62
  -3   1  -2  763.71   17.67
  -4   1  -2   17.58    1.27
   4  -1   2   19.59    1.22
  -4   1  -2   18.71    1.34
   5  -1   2   28.14    1.66
  -5   1  -2   31.72    1.96
  -5   1  -2   27.64    1.78
  -6   1  -2    0.44    0.68
   6  -1   2    0.34    0.62
   6  -1   2    0.43    0.56
   7  -1   2   29.89    2.07
   7  -1   2   31.35    2.13
  -7   1  -2   32.84    2.41
   8  -1   2   15.11    1.79
  -8   1  -2   13.56    1.98
   8  -1   2   16.89    1.87
   9  -1   2    3.07    1.17
   8   0  -2    0.30    0.75
  -8   0   2    1.64    0.98
  -7   0   2    0.12    0.78
   7   0  -2    0.06    0.62
   6   0  -2    0.19    0.56
   6   0  -2    0.07    0.60
  -6   0   2   -0.64    0.63
   5   0  -2   13.01    1.19
  -5   0   2   12.13    0.93
   5   0  -2   13.74    1.25
  -5   0   2   12.16    1.36
  -4   0   2  108.02    3.65
   4   0  -2  109.81    3.33
  -4   0   2  104.82    3.18
   4   0  -2  101.91    3.38
   3   0  -2  185.15    4.97
  -3   0   2  184.88    5.11
   3   0  -2  189.67    4.84
  -3   0   2  186.10    4.86
  -2   0   2   46.82    1.61
  -2   0   2   41.86    1.60
   2   0  -2   43.44    1.52
   2   0  -2   44.08    1.59
   1   0  -2 1249.68   27.13
  -1   0   2 1266.74   27.37
   1   0  -2 1236.19   27.00
  -1   0   2 1252.29   27.29
   0   0  -2    2.94    0.36
   0   0  -2    2.61    0.32
   0   0   2    1.89    0.30
   1   0   2   56.01    1.51
   1   0   2   54.59    1.65
  -1   0  -2   56.28    1.69
  -1   0  -2   55.38    1.53
   2   0   2  609.33   12.96
  -2   0  -2  573.98   13.22
   2   0   2  582.67   13.23
   3   0   2  369.05    8.86
  -3   0  -2  374.45    9.06
  -3   0  -2  372.67    8.92
  -4   0  -2 1592.31   35.89
  -4   0  -2 1623.06   35.37
   4   0   2 1592.25   35.24
   5   0   2  111.50    3.68
  -5   0  -2  102.79    3.83
  -5   0  -2  111.17    3.76
   6   0   2  366.27    9.61
  -6   0  -2  361.00   10.05
   6   0   2  384.25    9.80
   7   0   2   13.61    1.51
  -7   0  -2   14.76    1.81
   7   0   2   13.14    1.53
  -8   0  -2   39.76    2.75
   8   0   2   38.28    2.46
   8   0   2   35.35    2.29
  -9   0  -2   -0.76    1.04
   9   0   2    2.38    0.91
   9   0   2    2.36    1.17
  -8   1   2   45.80    3.25
   8  -1  -2   48.39    2.90
  -7   1   2   15.19    1.88
   7  -1  -2   14.20    1.67
  -6   1   2   -0.07    0.71
   6  -1  -2   -0.03    0.51
   5  -1  -2   24.35    1.61
   5  -1  -2   26.13    1.53
  -5   1   2   24.88    1.79
  -4   1   2   19.67    1.44
   4  -1  -2   22.17    1.40
   4  -1  -2   20.64    1.20
  -4   1   2   19.91    1.11
   3  -1  -2   92.06    3.04
  -3   1   2   93.26    2.79
   3  -1  -2   95.69    2.73
  -3   1   2   96.54    3.17
   2  -1  -2   39.49    1.58
  -2   1   2   40.66    1.65
  -2   1   2   39.05    1.47
   2  -1  -2   41.67    1.34
  -1   1   2 1892.88   41.04
  -1   1   2 1788.65   40.70
   1  -1  -2 1950.83   41.64
   1  -1  -2 1892.89   40.58
   0  -1  -2  823.94   18.24
   0   1   2  843.19   18.43
   0   1   2  852.91   18.38
   0   1   2  826.60   18.14
  -1  -1  -2 1903.10   42.93
   1   1   2 1962.91   43.20
   1   1   2 1921.83   41.33
  -1  -1  -2 1918.52   43.63
   2   1   2  917.94   20.38
   2   1   2  949.22   20.25
  -2  -1  -2  942.67   20.29
  -2  -1  -2  908.02   20.64
   3   1   2   10.03    0.83
  -3  -1  -2    9.67    0.72
  -3  -1  -2   10.03    0.86
   3   1   2    9.79    0.50
  -4  -1  -2    8.12    0.91
  -4  -1  -2   10.88    0.90
   4   1   2    9.66    0.95
  -5  -1  -2    7.51    0.91
  -5  -1  -2    6.53    1.03
   5   1   2    5.50    0.91
   6   1   2   98.89    3.46
   6   1   2  100.48    3.71
  -6  -1  -2   97.00    3.88
   7   1   2   37.62    2.12
   7   1   2   37.89    2.29
  -7  -1  -2   36.05    2.41
   8   1   2    2.59    0.96
  -8  -1  -2    2.38    0.92
   8   1   2    2.21    0.81
   9   1   2   13.63    1.95
  -9  -1  -2    8.28    1.79
  -8   2   2    2.51    1.23
   8  -2  -2    0.10    0.80
   7  -2  -2   54.27    3.02
  -7   2   2   57.62    3.34
   6  -2  -2   78.46    3.49
  -6   2   2   73.02    3.65
   5  -2  -2   30.61    1.92
  -5   2   2   28.57    2.01
  -4   2   2    0.95    0.39
   4  -2  -2   -0.28    0.39
   4  -2  -2    0.78    0.42
  -4   2   2    0.20    0.50
   3  -2  -2  176.73    4.48
  -3   2   2  181.03    5.21
  -3   2   2  176.16    4.70
   3  -2  -2  187.03    5.11
   2  -2  -2   13.65    0.65
   2  -2  -2   13.75    0.99
  -2   2   2   15.16    1.07
  -2   2   2   13.63    0.87
  -1   2   2    0.15    0.32
   1  -2  -2    0.26    0.31
  -1   2   2   -0.24    0.27
   1  -2  -2   -0.09    0.12
   0   2   2 3927.45   85.23
   0  -2  -2 3689.25   84.50
   0   2   2 3667.44   82.99
   0   2   2 3793.24   83.62
   1   2   2 3706.19   79.75
   1   2   2 3549.30   76.68
  -1  -2  -2 3516.00   80.68
  -1  -2  -2 3500.93   78.20
  -2  -2  -2  174.42    4.59
   2   2   2  177.34    4.39
   2   2   2  178.98    4.45
  -2  -2  -2  179.45    4.16
   3   2   2  816.10   18.09
  -3  -2  -2  814.67   18.66
  -3  -2  -2  829.24   18.00
   3   2   2  817.53   18.36
   4   2   2   91.73    2.58
   4   2   2   91.37    3.06
  -4  -2  -2   91.59    2.74
  -4  -2  -2   94.74    3.21
  -5  -2  -2   23.99    1.61
   5   2   2   28.92    1.65
  -5  -2  -2   26.87    1.11
  -6  -2  -2   49.84    2.59
   6   2   2   50.83    2.51
   6   2   2   50.06    2.11
  -7  -2  -2   22.75    2.09
   7   2   2   21.53    1.91
   8   2   2    1.49    0.90
  -8  -2  -2    3.84    1.14
   9   2   2    0.09    1.02
  -9  -2  -2    0.17    0.85
   8  -3  -2    2.41    1.22
   7  -3  -2    3.20    0.98
  -7   3   2    4.14    1.32
   6  -3  -2   13.83    1.73
  -6   3   2   13.92    1.85
   5  -3  -2  162.51    5.42
  -5   3   2  163.01    5.68
  -4   3   2  232.46    6.93
   4  -3  -2  233.63    6.74
  -4   3   2  234.59    6.05
   3  -3  -2    8.39    1.03
   3  -3  -2    9.45    0.68
  -3   3   2   10.98    1.19
  -3   3   2    9.32    0.84
   2  -3  -2 1078.25   23.44
  -2   3   2 1089.00   24.08
  -2   3   2 1092.39   24.68
   2  -3  -2 1074.16   24.25
  -1   3   2 1011.09   22.61
  -1   3   2 1017.46   23.00
   1  -3  -2 1019.95   21.98
   1  -3  -2 1026.00   22.58
   0   3   2    5.00    0.64
   0  -3  -2    6.25    0.57
   0   3   2    5.13    0.62
   0   3   2    5.95    0.41
  -1  -3  -2 2310.26   50.88
  -1  -3  -2 2343.01   52.18
   1   3   2 2334.12   50.49
   1   3   2 2325.05   49.93
  -2  -3  -2  305.46    7.53
   2   3   2  302.02    7.35
  -2  -3  -2  308.20    6.76
   2   3   2  300.45    7.23
   3   3   2 1240.50   27.50
  -3  -3  -2 1250.89   27.98
   3   3   2 1240.11   27.49
  -3  -3  -2 1255.74   26.89
   4   3   2    0.24    0.33
   4   3   2    0.06    0.37
  -4  -3  -2   -0.13    0.40
   5   3   2   85.11    2.46
  -5  -3  -2   83.87    2.58
   5   3   2   67.67    2.88
  -5  -3  -2   71.21    3.04
  -6  -3  -2   17.46    1.66
   6   3   2   16.85    1.59
  -7  -3  -2   18.25    1.93
   7   3   2   18.88    1.81
   8   3   2   24.85    2.21
  -8  -3  -2   19.17    2.16
  -9  -3  -2    1.07    1.06
   9   3   2    1.02    0.89
  -7   4   2    2.22    1.21
   7  -4  -2    3.83    1.18
   6  -4  -2   96.04    4.20
  -6   4   2   96.04    4.39
  -5   4   2  153.47    5.67
   5  -4  -2  170.36    5.70
  -4   4   2  159.32    5.41
   4  -4  -2  160.42    5.30
  -3   4   2   26.03    1.39
   3  -4  -2   24.78    1.70
  -3   4   2   25.68    1.72
  -2   4   2   59.07    2.55
   2  -4  -2   64.67    2.49
   2  -4  -2   62.86    1.86
  -2   4   2   60.89    2.27
  -1   4   2   -0.28    0.30
  -1   4   2    0.35    0.40
   1  -4  -2    0.14    0.21
   1  -4  -2   -0.35    0.32
   0  -4  -2    7.11    0.67
   0   4   2    6.70    0.80
   0   4   2    8.16    0.57
   0   4   2    7.33    0.83
  -1  -4  -2  133.97    4.05
  -1  -4  -2  147.74    3.59
   1   4   2  142.29    3.70
   1   4   2  145.20    4.11
   2   4   2   79.84    2.71
  -2  -4  -2   82.60    1.99
  -2  -4  -2   80.22    2.75
   2   4   2   77.88    2.54
   3   4   2    1.03    0.45
  -3  -4  -2    2.16    0.62
   3   4   2    0.75    0.42
   4   4   2    1.00    0.49
   4   4   2    0.90    0.44
  -4  -4  -2    0.50    0.51
  -5  -4  -2   14.06    1.43
   5   4   2   14.16    1.07
   5   4   2   13.53    1.32
   6   4   2    1.77    0.84
  -6  -4  -2    2.35    0.86
   7   4   2    2.59    0.94
  -7  -4  -2    1.69    0.98
  -8  -4  -2   20.16    2.20
   8   4   2   20.86    2.11
   9   4   2    6.71    1.60
  -9  -4  -2    6.58    1.57
   6  -5  -2    1.20    0.95
  -6   5   2    2.99    1.13
  -5   5   2    1.51    0.80
   5  -5  -2   -0.64    0.64
   4  -5  -2   -0.15    0.61
  -4   5   2   -1.34    0.47
   3  -5  -2   78.52    3.23
  -3   5   2   73.55    3.25
  -3   5   2   72.99    2.75
  -2   5   2    0.90    0.59
   2  -5  -2    1.15    0.57
  -2   5   2    2.05    0.58
   1  -5  -2  253.38    6.85
  -1   5   2  270.07    6.35
  -1   5   2  265.39    7.30
  -1   5   2  270.32    7.02
   0   5   2    0.63    0.47
   0   5   2    0.86    0.48
   0  -5  -2    0.58    0.38
   0   5   2    0.92    0.35
  -1  -5  -2  761.88   16.64
   1   5   2  757.97   16.86
   1   5   2  732.62   17.39
  -1  -5  -2  748.81   17.54
  -2  -5  -2  225.92    5.08
  -2  -5  -2  214.77    6.07
   2   5   2  228.02    5.80
   2   5   2  216.03    6.05
   3   5   2    0.59    0.40
   3   5   2    1.98    0.61
  -3  -5  -2    0.33    0.45
   4   5   2   81.61    3.06
  -4  -5  -2   82.52    3.20
   4   5   2   80.74    3.01
   5   5   2   33.40    1.81
   5   5   2   34.05    1.99
  -5  -5  -2   38.52    2.22
   6   5   2   57.45    2.83
  -6  -5  -2   63.00    2.63
  -6  -5  -2   60.04    3.03
  -7  -5  -2   24.39    2.24
   7   5   2   28.45    2.07
  -8  -5  -2    8.74    1.68
   8   5   2    6.63    1.44
   9   5   2    0.58    1.09
  -9  -5  -2   -0.13    1.12
  -6   6   2    7.69    1.71
   6  -6  -2    5.50    1.45
   5  -6  -2   16.67    2.00
  -5   6   2   25.10    2.39
   4  -6  -2   14.76    1.74
  -4   6   2    9.87    1.53
  -3   6   2   29.79    2.07
   3  -6  -2   27.65    1.93
  -2   6   2   13.41    1.51
  -2   6   2   13.31    1.28
   2  -6  -2   13.28    1.37
  -1   6   2    0.56    0.62
   1  -6  -2    1.72    0.61
  -1   6   2    0.55    0.52
   0   6   2  276.22    6.76
   0  -6  -2  271.55    6.91
   0   6   2  258.82    7.30
   1   6   2   28.15    1.75
  -1  -6  -2   36.94    1.93
  -1  -6  -2   35.54    1.45
   1   6   2   36.88    1.63
   2   6   2   33.95    1.91
   2   6   2   35.49    1.72
  -2  -6  -2   35.07    1.94
  -3  -6  -2   21.22    1.54
   3   6   2   23.36    1.43
   3   6   2   22.76    1.61
  -4  -6  -2    3.09    0.91
   4   6   2    2.87    0.80
   4   6   2    1.31    0.64
   5   6   2   19.46    1.55
  -5  -6  -2   19.80    1.75
   5   6   2   22.57    1.63
  -6  -6  -2    1.81    0.72
   6   6   2    1.41    0.78
  -6  -6  -2    1.72    0.97
  -7  -6  -2    3.04    1.05
   7   6   2    3.77    1.12
   8   6   2    1.04    0.96
  -8  -6  -2    1.10    1.03
  -9  -6  -2    0.29    1.13
   9   6   2    2.41    1.14
  -5   7   2   -0.73    0.81
   5  -7  -2   -0.71    0.85
  -4   7   2   39.99    2.67
   4  -7  -2   40.90    2.70
   3  -7  -2   17.00    1.78
  -3   7   2   14.69    1.82
   2  -7  -2    0.68    0.68
  -2   7   2    0.94    0.62
  -2   7   2   -0.17    0.60
  -1   7   2    5.13    1.12
  -1   7   2    7.64    1.15
   1  -7  -2    7.27    1.08
   0   7   2   30.11    1.88
   0  -7  -2   27.74    1.91
   0  -7  -2   30.46    1.64
  -1  -7  -2    0.38    0.63
   1   7   2    1.39    0.65
   1   7   2    1.14    0.53
   2   7   2   25.79    1.54
   2   7   2   24.78    1.73
  -2  -7  -2   24.34    1.74
  -3  -7  -2   42.64    2.36
   3   7   2   44.06    2.39
   3   7   2   48.57    2.29
   4   7   2   48.42    2.58
  -4  -7  -2   46.54    2.53
   4   7   2   48.40    2.39
   5   7   2   37.44    2.21
   5   7   2   32.21    2.11
  -5  -7  -2   37.13    2.33
   6   7   2    5.43    1.23
  -6  -7  -2    3.89    1.11
  -6  -7  -2    6.74    1.22
  -7  -7  -2    0.95    0.83
   7   7   2    0.70    0.79
  -7  -7  -2    1.05    0.77
   8   7   2    0.98    0.81
  -8  -7  -2    2.51    1.13
  -4   8   2  118.31    5.16
   4  -8  -2  115.87    4.92
   3  -8  -2   34.27    2.45
  -3   8   2   39.43    2.68
  -2   8   2   67.75    3.12
  -2   8   2   59.42    3.22
   2  -8  -2   66.53    3.16
  -1   8   2   23.83    1.83
  -1   8   2   26.29    2.10
   0  -8  -2   53.70    2.78
   0   8   2   51.02    2.63
  -1  -8  -2  102.69    4.13
   1   8   2  103.29    4.08
   2   8   2    6.09    1.16
  -2  -8  -2    5.36    1.13
   2   8   2    4.78    0.96
  -3  -8  -2    8.36    1.29
   3   8   2    9.21    1.39
   3   8   2    8.20    1.22
   4   8   2    2.14    0.96
  -4  -8  -2    0.52    0.79
   4   8   2    1.34    0.76
   5   8   2    1.15    0.78
  -5  -8  -2    2.63    1.02
   5   8   2    3.44    1.03
  -6  -8  -2    7.45    1.30
   6   8   2    7.89    1.30
  -6  -8  -2    7.90    1.50
   7   8   2    0.56    0.80
  -7  -8  -2    1.74    0.86
  -7  -8  -2    3.14    1.15
   8   8   2    2.16    1.31
  -8  -8  -2    1.71    1.36
   3  -9  -2   18.99    2.11
  -3   9   2   21.71    2.34
  -2   9   2    0.44    0.82
   1  -9  -2   13.94    1.78
  -1   9   2   16.73    1.83
   0  -9  -2   23.81    2.09
   0   9   2   24.86    2.14
   1   9   2   -0.29    0.59
  -1  -9  -2    0.47    0.70
   2   9   2    9.81    1.52
  -2  -9  -2   11.90    1.62
   3   9   2    0.66    0.65
   3   9   2    0.29    0.65
  -3  -9  -2    1.15    0.82
   4   9   2   -1.27    0.64
  -4  -9  -2    0.27    0.76
   4   9   2   -0.87    0.66
   5   9   2    1.39    0.93
   5   9   2    0.49    0.81
  -5  -9  -2    1.27    0.91
  -6  -9  -2   33.39    2.41
  -6  -9  -2   36.45    2.61
   6   9   2   35.70    2.48
  -7  -9  -2    4.30    1.39
   7   9   2    3.93    1.23
  -7  -9  -2    3.75    1.14
   2 -10  -2   10.93    1.92
   1 -10  -2   29.48    2.34
  -1  10   2   29.83    2.28
   0 -10  -2    5.17    1.23
   0  10   2    3.71    1.06
   1  10   2    1.58    0.83
  -1 -10  -2    2.73    0.99
   2  10   2    1.77    0.84
  -2 -10  -2    2.04    0.99
  -3 -10  -2    1.24    0.88
   3  10   2    1.33    0.77
  -4 -10  -2    2.06    1.05
   4  10   2    1.19    0.95
   4  10   2    3.90    1.07
   5  10   2   10.85    1.68
   5  10   2   12.35    1.90
  -5 -10  -2    8.48    1.60
  -6 -10  -2    0.52    0.85
   6  10   2    0.07    1.01
  -6 -10  -2    0.05    1.09
   0 -11  -2    1.34    1.19
   0  11   2    1.00    1.11
  -1 -11  -2   10.60    1.88
   1  11   2   11.05    2.05
  -2 -11  -2    2.70    1.16
   2  11   2    2.75    1.23
  -3 -11  -2    7.14    1.57
  -4 -11  -2    0.23    1.13
  -4  -9   3    0.38    0.96
   4   9  -3    0.16    1.15
  -3  -9   3    0.41    0.99
   3   9  -3    2.58    1.11
  -2  -9   3    1.46    0.91
   2   9  -3    1.64    1.02
   1   9  -3    1.00    0.82
  -1  -9   3    1.57    0.87
   0  -9   3   -0.10    0.83
   0   9  -3    1.12    0.86
  -5  -8   3    0.85    0.84
   5   8  -3    1.47    1.14
   4   8  -3    1.49    0.85
  -4  -8   3    0.50    0.73
  -3  -8   3   -0.18    0.69
   3   8  -3    3.35    1.06
  -2  -8   3   10.77    1.63
   2   8  -3   15.12    1.87
   1   8  -3   42.56    2.60
  -1  -8   3   34.94    2.50
   0  -8   3    0.32    0.68
   0   8  -3    1.32    0.84
   1  -8   3   15.25    1.76
  -1   8  -3   11.93    1.72
  -3   8  -3    4.38    1.19
   4  -8   3   -0.04    1.12
  -7  -7   3    1.83    1.08
  -6  -7   3    1.59    0.87
   6   7  -3    1.10    0.96
  -5  -7   3    1.68    0.84
   5   7  -3    1.85    0.95
   4   7  -3   11.06    1.66
  -4  -7   3    9.40    1.58
  -3  -7   3    0.61    0.75
   3   7  -3    0.99    0.82
  -2  -7   3    6.72    1.28
   2   7  -3    6.39    1.24
  -1  -7   3   82.23    3.68
   1   7  -3   85.91    3.68
   0  -7   3  154.16    5.34
   0   7  -3  155.14    5.37
  -1   7  -3   25.10    2.07
   1  -7   3   20.58    1.81
  -2   7  -3   12.17    1.60
   2  -7   3   12.09    1.62
  -3   7  -3    7.93    1.38
   3  -7   3    8.47    1.41
  -4   7  -3   18.16    2.13
   5  -7   3    1.32    1.04
  -7  -6   3    5.51    1.25
   7   6  -3    2.92    1.23
  -6  -6   3    0.19    0.74
   6   6  -3    0.36    0.80
   5   6  -3    1.38    0.89
  -5  -6   3    1.49    0.92
  -4  -6   3   -0.58    0.55
   4   6  -3   -0.03    0.63
   3   6  -3   28.82    2.07
  -3  -6   3   26.62    1.99
   2   6  -3    4.51    1.01
  -2  -6   3    4.36    0.99
   1   6  -3   35.17    2.14
  -1  -6   3   35.74    2.20
   0   6  -3    5.58    0.89
   0  -6   3    5.45    1.05
   0   6  -3    5.74    1.09
  -1   6  -3  180.02    5.60
   1  -6   3  178.67    5.62
  -1   6  -3  185.90    5.83
   2  -6   3    5.98    1.13
  -2   6  -3    5.35    1.03
   3  -6   3   -0.39    0.58
  -3   6  -3    1.07    0.75
  -4   6  -3   11.00    1.61
  -4   6  -3   13.68    1.63
   4  -6   3   15.59    1.68
  -5   6  -3   49.03    3.09
  -5   6  -3   42.22    2.73
  -6   6  -3    2.40    1.14
   6  -6   3    0.58    1.03
   8   5  -3    2.49    1.20
   7   5  -3    0.46    0.91
  -7  -5   3    1.17    0.77
   6   5  -3    6.09    1.30
  -6  -5   3    6.17    1.19
   5   5  -3    8.88    1.48
  -5  -5   3    7.62    1.31
   4   5  -3   15.56    1.67
  -4  -5   3   18.44    1.75
   3   5  -3    0.06    0.53
  -3  -5   3    0.33    0.64
  -2  -5   3    7.11    1.13
   2   5  -3    8.58    1.24
   1   5  -3    3.30    0.58
  -1  -5   3    2.29    0.71
   1   5  -3    1.76    0.68
   0   5  -3  111.83    3.66
   0  -5   3  112.42    3.87
   0  -5   3  115.00    3.45
   0   5  -3  109.31    3.88
   1  -5   3   19.67    1.40
  -1   5  -3   19.12    1.51
  -1   5  -3   19.52    1.41
  -1   5  -3   19.28    1.27
  -2   5  -3  746.24   17.24
  -2   5  -3  700.07   17.36
   2  -5   3  734.09   17.06
   3  -5   3  319.35    8.49
  -3   5  -3  304.28    8.37
  -3   5  -3  300.21    8.64
   4  -5   3   47.63    2.53
  -4   5  -3   52.87    2.90
  -4   5  -3   48.31    2.57
  -5   5  -3   26.82    2.10
   5  -5   3   25.10    1.94
  -5   5  -3   25.61    2.32
  -6   5  -3    1.54    0.96
   6  -5   3    2.40    1.00
  -7   5  -3    7.68    1.73
   8   4  -3   -0.10    0.76
   7   4  -3    0.90    0.85
  -6  -4   3    8.85    1.40
   6   4  -3   12.38    1.66
   5   4  -3   38.35    2.32
  -5  -4   3   37.49    2.23
  -5  -4   3   39.44    2.18
  -4  -4   3    0.06    0.55
   4   4  -3    0.31    0.62
  -4  -4   3   -0.18    0.59
  -3  -4   3    1.97    0.67
  -3  -4   3    2.44    0.65
   3   4  -3    1.26    0.63
   2   4  -3   11.12    0.85
   2   4  -3    9.58    1.17
  -2  -4   3   11.33    1.24
  -2  -4   3   13.46    0.96
   1   4  -3    0.01    0.38
  -1  -4   3    1.05    0.38
   1   4  -3   -0.51    0.26
  -1  -4   3   -0.19    0.37
   0   4  -3   21.29    1.27
   0   4  -3   21.18    1.40
   0  -4   3   20.22    1.36
   0  -4   3   23.38    1.12
   1  -4   3   -0.50    0.33
  -1   4  -3    0.64    0.38
  -1   4  -3    0.25    0.41
  -1   4  -3   -0.14    0.39
  -2   4  -3   43.35    2.14
   2  -4   3   46.00    2.15
   2  -4   3   40.59    1.81
  -2   4  -3   41.58    1.87
   3  -4   3    4.88    0.95
  -3   4  -3    6.60    1.09
  -3   4  -3    5.81    0.89
   4  -4   3   12.34    1.33
  -4   4  -3   13.38    1.57
  -4   4  -3   17.15    1.55
   5  -4   3   13.77    1.51
  -5   4  -3   14.76    1.63
  -5   4  -3   17.04    1.88
  -6   4  -3   25.51    2.05
   6  -4   3   26.19    1.96
  -6   4  -3   27.44    2.44
  -7   4  -3   36.73    2.73
   7  -4   3   39.14    2.68
   8   3  -3    1.83    1.04
  -7  -3   3   -0.43    0.77
   7   3  -3    0.51    0.71
   6   3  -3    0.78    0.75
  -6  -3   3    1.30    0.83
  -6  -3   3    0.39    0.65
  -5  -3   3   52.41    2.53
  -5  -3   3   49.17    2.46
   5   3  -3   51.68    2.54
  -4  -3   3   -0.07    0.45
   4   3  -3    0.47    0.56
   4   3  -3    0.67    0.44
  -4  -3   3   -0.08    0.48
   3   3  -3  131.44    4.20
   3   3  -3  125.37    3.66
  -3  -3   3  124.24    4.13
  -3  -3   3  132.06    3.82
  -2  -3   3  107.56    3.06
  -2  -3   3  110.14    3.61
   2   3  -3  110.22    3.58
   2   3  -3  105.41    3.14
  -1  -3   3  730.04   16.36
   1   3  -3  725.47   16.88
   1   3  -3  756.89   16.57
  -1  -3   3  721.25   16.98
   0   3  -3  248.77    6.47
   0   3  -3  245.22    6.26
   0  -3   3  240.70    6.37
   0  -3   3  248.35    5.86
  -1   3  -3   73.17    2.23
   1  -3   3   69.79    2.39
  -1   3  -3   69.71    2.53
  -1   3  -3   68.89    2.60
   2  -3   3  129.20    3.60
   2  -3   3  124.22    3.95
  -2   3  -3  132.74    4.11
  -2   3  -3  126.41    3.74
   3  -3   3   84.78    3.09
  -3   3  -3   87.95    3.02
   3  -3   3   88.82    2.60
  -3   3  -3   76.38    3.16
  -4   3  -3   15.20    1.50
   4  -3   3   16.06    1.39
  -4   3  -3   11.51    1.28
   5  -3   3    5.06    1.00
  -5   3  -3    5.81    1.20
  -5   3  -3    5.50    1.08
  -6   3  -3   57.68    3.16
   6  -3   3   62.82    2.95
  -6   3  -3   63.24    3.18
   7  -3   3    2.75    0.93
  -7   3  -3    3.94    1.23
   7  -3   3    4.19    1.06
  -8   3  -3    2.12    1.22
   8  -3   3    1.40    1.00
  -8  -2   3   -0.07    0.85
   7   2  -3    2.49    1.00
  -7  -2   3    2.14    1.10
   6   2  -3    7.44    1.25
  -6  -2   3    6.72    1.11
  -6  -2   3   10.77    1.41
   5   2  -3   24.72    1.49
  -5  -2   3   28.57    1.73
   5   2  -3   24.08    1.64
  -5  -2   3   27.22    1.80
   4   2  -3    8.18    1.03
  -4  -2   3    7.16    0.99
  -4  -2   3    8.06    0.99
   4   2  -3    8.66    0.89
  -3  -2   3 1567.14   34.24
   3   2  -3 1555.45   33.83
   3   2  -3 1555.17   34.17
  -3  -2   3 1494.20   34.27
   2   2  -3  538.69   12.69
  -2  -2   3  545.59   12.83
   2   2  -3  543.73   12.41
  -2  -2   3  539.02   12.34
  -1  -2   3  659.95   15.37
   1   2  -3  673.25   15.07
  -1  -2   3  685.81   14.80
   1   2  -3  651.76   15.25
   0   2  -3  121.99    3.38
   0   2  -3  115.70    3.46
   0  -2   3  118.32    2.85
   0  -2   3  115.03    3.39
  -1   2  -3   26.43    1.36
  -1   2  -3   26.49    1.36
   1  -2   3   27.30    1.23
  -1   2  -3   26.94    1.05
   2  -2   3  239.63    6.30
  -2   2  -3  248.80    6.12
  -2   2  -3  240.60    6.39
   2  -2   3  247.78    5.93
   3  -2   3    2.25    0.37
  -3   2  -3    2.82    0.69
  -3   2  -3    2.24    0.54
   3  -2   3    2.11    0.58
  -4   2  -3   37.92    2.08
  -4   2  -3   37.18    1.92
   4  -2   3   43.29    2.02
  -5   2  -3    5.47    1.07
   5  -2   3    5.24    1.00
  -5   2  -3    6.14    1.11
  -6   2  -3   75.40    3.40
  -6   2  -3   71.65    3.43
   6  -2   3   69.07    3.10
   7  -2   3   20.25    1.90
  -7   2  -3   18.00    1.99
   7  -2   3   16.50    1.72
   8  -2   3   10.70    1.63
  -8   2  -3    9.64    1.70
   8  -2   3    9.86    1.61
  -8  -1   3    0.36    0.95
   7   1  -3    1.40    0.89
  -7  -1   3    1.89    1.00
   6   1  -3    0.09    0.59
  -6  -1   3   -0.25    0.72
   6   1  -3    0.33    0.64
  -5  -1   3    5.15    1.00
   5   1  -3    4.06    0.80
   5   1  -3    3.15    0.78
  -5  -1   3    3.36    0.75
  -4  -1   3    0.47    0.48
   4   1  -3    0.76    0.48
   4   1  -3   -0.07    0.39
  -4  -1   3   -0.53    0.35
  -3  -1   3   53.12    2.00
   3   1  -3   52.45    1.97
   3   1  -3   45.81    1.92
  -3  -1   3   50.43    2.05
  -2  -1   3   25.85    1.36
   2   1  -3   28.87    1.38
  -2  -1   3   32.20    1.28
   2   1  -3   26.56    1.31
  -1  -1   3    1.18    0.26
   1   1  -3    0.45    0.33
   1   1  -3    0.83    0.35
  -1  -1   3    1.00    0.42
   0   1  -3  368.73    8.63
   0  -1   3  370.95    8.66
   0   1  -3  364.76    8.63
  -1   1  -3   -0.01    0.21
  -1   1  -3    0.02    0.31
  -1   1  -3    0.47    0.36
   1  -1   3   -0.36    0.26
   2  -1   3 1637.75   35.09
   2  -1   3 1623.88   35.35
  -2   1  -3 1614.00   35.52
  -2   1  -3 1602.58   35.44
  -3   1  -3 1098.87   24.64
   3  -1   3 1120.83   23.78
   3  -1   3 1064.53   24.38
  -4   1  -3    9.28    1.04
  -4   1  -3    8.33    1.04
   4  -1   3    9.00    1.01
  -5   1  -3  124.65    4.41
   5  -1   3  130.86    4.27
  -5   1  -3  137.90    4.52
  -6   1  -3   24.55    1.86
   6  -1   3   25.90    1.77
  -6   1  -3   22.67    1.78
   7  -1   3   51.96    2.75
  -7   1  -3   54.20    3.05
   7  -1   3   54.93    2.85
   8  -1   3   11.06    1.58
  -8   1  -3    8.28    1.49
   8  -1   3    9.67    1.56
  -9   1  -3    1.00    1.14
   9  -1   3    2.90    1.18
   9  -1   3    0.77    1.04
  -8   0   3    1.18    1.14
  -7   0   3    4.12    1.16
   7   0  -3    4.78    1.07
   6   0  -3   21.85    1.64
   6   0  -3   20.72    1.63
  -6   0   3   19.83    1.90
   5   0  -3    6.22    0.98
   5   0  -3    6.26    0.93
  -5   0   3    5.16    0.80
  -5   0   3    6.27    1.13
   4   0  -3   14.07    1.07
  -4   0   3   13.10    1.24
  -4   0   3   12.60    0.99
   4   0  -3   13.33    1.15
   3   0  -3    0.52    0.39
  -3   0   3    0.28    0.40
   3   0  -3    0.84    0.42
  -3   0   3    0.45    0.39
  -2   0   3  107.83    3.22
   2   0  -3  106.07    3.16
   2   0  -3  107.16    3.00
  -2   0   3  106.30    3.07
  -1   0   3  138.39    3.44
  -1   0   3  138.10    3.75
   1   0  -3  136.37    3.72
   1   0  -3  137.42    3.52
   0   0  -3 1244.23   27.82
   0   0  -3 1249.17   27.16
   0   0  -3 1242.10   26.98
   0   0   3 1239.55   27.23
  -1   0  -3 1172.53   25.52
   1   0   3 1186.63   25.50
  -1   0  -3 1144.33   25.55
   1   0   3 1169.30   25.45
   2   0   3  180.51    4.74
   2   0   3  189.71    4.39
  -2   0  -3  184.23    4.62
   3   0   3 1196.71   27.00
  -3   0  -3 1227.42   27.32
   3   0   3 1253.59   26.55
  -3   0  -3 1211.27   27.08
  -4   0  -3   15.71    1.16
  -4   0  -3   13.44    1.15
   4   0   3   15.60    1.15
   5   0   3  252.74    6.98
  -5   0  -3  240.41    7.12
  -5   0  -3  274.32    7.16
  -6   0  -3   70.76    3.08
   6   0   3   67.16    2.94
  -6   0  -3   68.25    3.11
   7   0   3    0.36    0.77
  -7   0  -3    1.87    0.88
   7   0   3    2.22    0.74
   8   0   3    2.22    0.83
  -8   0  -3    1.86    0.96
   8   0   3    1.95    0.93
  -9   0  -3    1.37    1.01
   9   0   3    1.73    1.12
   9   0   3    2.61    0.97
  -8   1   3   28.62    2.77
   8  -1  -3   33.93    2.45
  -7   1   3    8.32    1.56
   7  -1  -3    8.82    1.41
   6  -1  -3    4.63    1.05
  -6   1   3    2.49    1.01
   5  -1  -3   -0.28    0.52
  -5   1   3    0.19    0.63
   5  -1  -3    0.02    0.47
  -4   1   3   35.75    1.97
   4  -1  -3   31.63    1.80
  -4   1   3   37.31    1.71
   4  -1  -3   35.70    1.60
  -3   1   3   18.94    1.12
  -3   1   3   17.72    1.22
   3  -1  -3   17.17    0.99
   3  -1  -3   16.86    1.16
  -2   1   3  142.18    3.99
   2  -1  -3  145.14    3.59
   2  -1  -3  142.19    4.02
  -2   1   3  140.45    3.96
  -1   1   3  102.81    3.01
   1  -1  -3  102.12    3.01
  -1   1   3  108.53    2.92
   1  -1  -3  105.16    2.62
   0   1   3  232.56    5.46
   0   1   3  234.80    5.69
   0  -1  -3  231.01    5.33
   1   1   3  919.19   19.92
  -1  -1  -3  897.26   19.89
   1   1   3  899.35   19.73
  -1  -1  -3  902.78   19.96
   2   1   3   -0.06    0.24
  -2  -1  -3   -0.09    0.26
  -2  -1  -3   -0.01    0.27
   2   1   3    0.19    0.29
   3   1   3   35.64    1.57
   3   1   3   39.24    1.20
  -3  -1  -3   37.34    1.59
  -3  -1  -3   38.28    1.55
   4   1   3   51.74    1.39
   4   1   3   48.41    2.07
  -4  -1  -3   51.26    2.03
  -4  -1  -3   50.86    2.13
   5   1   3  127.92    4.17
  -5  -1  -3  130.14    4.30
  -5  -1  -3  129.63    4.06
   6   1   3   28.62    1.87
  -6  -1  -3   30.85    2.05
  -6  -1  -3   26.17    1.73
   7   1   3   49.49    2.43
  -7  -1  -3   47.79    2.80
   7   1   3   47.79    2.66
   8   1   3    1.48    0.86
  -8  -1  -3   -0.72    0.70
   8   1   3   -0.31    0.67
   9   1   3    1.47    0.98
  -9  -1  -3   -0.17    0.89
   8  -2  -3    3.18    1.25
  -8   2   3    1.47    1.28
  -7   2   3    0.94    1.01
   7  -2  -3    1.31    0.74
   6  -2  -3    4.13    1.13
  -6   2   3    6.72    1.33
   5  -2  -3   78.65    3.29
  -5   2   3   79.15    3.50
   4  -2  -3    5.07    0.89
  -4   2   3    4.88    0.74
  -4   2   3    3.47    0.90
   3  -2  -3  420.65    9.73
  -3   2   3  423.75   10.22
   3  -2  -3  426.71   10.52
  -3   2   3  436.79   10.75
   2  -2  -3 1106.31   23.54
   2  -2  -3 1078.52   24.32
  -2   2   3 1072.80   24.56
  -2   2   3 1096.65   24.26
   1  -2  -3   18.05    1.03
  -1   2   3   17.72    1.00
  -1   2   3   17.25    1.05
   0   2   3 5502.93  124.85
   0   2   3 5745.27  120.56
   0  -2  -3 5158.04  121.63
   0   2   3 5710.66  123.92
  -1  -2  -3 3278.96   75.37
  -1  -2  -3 3424.67   78.82
   1   2   3 3487.73   74.54
   1   2   3 3476.59   74.84
  -2  -2  -3 2278.34   50.26
   2   2   3 2330.56   49.50
  -2  -2  -3 2321.87   49.43
   2   2   3 2273.95   49.71
   3   2   3   19.20    1.09
  -3  -2  -3   19.50    0.96
  -3  -2  -3   19.49    1.19
   3   2   3   18.32    0.89
  -4  -2  -3  536.88   12.92
  -4  -2  -3  542.34   12.40
   4   2   3  537.32   12.74
   4   2   3  535.89   12.10
  -5  -2  -3    6.22    0.97
   5   2   3    5.45    0.95
  -5  -2  -3    7.12    0.85
  -6  -2  -3   99.22    3.42
   6   2   3   98.89    3.76
  -6  -2  -3   96.93    3.84
   7   2   3   43.84    2.56
   7   2   3   49.00    2.28
  -7  -2  -3   47.72    2.82
   8   2   3    0.58    0.86
  -8  -2  -3    0.77    0.78
   9   2   3    1.72    1.14
  -9  -2  -3    0.43    0.98
   7  -3  -3    4.88    1.16
  -7   3   3    5.79    1.49
  -6   3   3  105.67    4.63
   6  -3  -3  109.79    4.48
   5  -3  -3   55.91    2.82
  -5   3   3   53.60    2.91
  -4   3   3   65.91    2.96
  -4   3   3   60.99    2.39
   4  -3  -3   64.60    2.83
   3  -3  -3    5.09    0.88
  -3   3   3    7.67    0.84
  -3   3   3    5.95    0.97
   2  -3  -3  129.94    3.06
   2  -3  -3  130.35    3.97
  -2   3   3  126.74    3.79
  -2   3   3  129.50    4.05
  -1   3   3   34.32    1.62
   1  -3  -3   36.29    1.61
  -1   3   3   35.21    1.57
   0  -3  -3  762.62   16.95
   0   3   3  750.61   17.17
   0   3   3  759.77   17.32
   0   3   3  764.24   16.50
   1   3   3   31.75    1.13
  -1  -3  -3   31.75    1.44
  -1  -3  -3   32.52    1.26
   1   3   3   32.47    1.42
   2   3   3   29.28    1.32
   2   3   3   27.20    1.20
  -2  -3  -3   29.05    1.39
  -2  -3  -3   28.36    1.07
   3   3   3   26.97    1.33
  -3  -3  -3   25.16    1.02
   3   3   3   27.15    1.24
  -3  -3  -3   27.65    1.45
   4   3   3    0.88    0.46
   4   3   3    1.16    0.40
  -4  -3  -3    0.41    0.32
  -4  -3  -3    0.42    0.47
  -5  -3  -3   21.83    1.57
   5   3   3   26.51    1.24
  -5  -3  -3   24.81    1.27
   5   3   3   21.63    1.48
   6   3   3    2.22    0.83
  -6  -3  -3    2.48    0.90
   7   3   3   43.53    2.60
  -7  -3  -3   39.49    2.50
   8   3   3    9.74    1.58
  -8  -3  -3    8.10    1.56
   9   3   3    1.37    1.08
  -9  -3  -3    2.47    1.15
   7  -4  -3    0.34    0.86
  -7   4   3    0.64    1.03
   6  -4  -3    2.53    0.88
  -6   4   3    1.89    0.97
   5  -4  -3    2.73    0.89
  -5   4   3    5.32    1.25
   4  -4  -3   75.80    3.27
  -4   4   3   71.31    3.35
  -3   4   3    0.52    0.54
   3  -4  -3    0.22    0.54
  -3   4   3    0.72    0.40
  -2   4   3  104.87    3.68
  -2   4   3  106.25    3.40
   2  -4  -3  105.41    3.57
  -1   4   3   23.24    1.44
   1  -4  -3   22.12    1.31
  -1   4   3   24.18    1.34
   0   4   3  592.17   13.94
   0  -4  -3  596.77   13.66
   0   4   3  612.50   13.09
   0   4   3  587.89   14.11
  -1  -4  -3  955.90   21.65
  -1  -4  -3  949.15   20.91
   1   4   3  960.77   20.81
   1   4   3  943.92   21.51
  -2  -4  -3   80.81    2.80
   2   4   3   77.51    2.68
   2   4   3   76.58    2.44
  -2  -4  -3   81.76    2.19
   3   4   3  228.09    6.01
  -3  -4  -3  234.61    5.33
   3   4   3  235.94    6.12
  -3  -4  -3  233.24    6.34
  -4  -4  -3  554.95   12.13
   4   4   3  548.71   13.05
   4   4   3  549.66   12.88
  -4  -4  -3  539.29   13.32
   5   4   3  115.87    3.56
  -5  -4  -3  116.27    4.13
   5   4   3  113.08    3.92
   6   4   3   14.84    1.52
  -6  -4  -3   13.94    1.58
   7   4   3   16.12    1.74
  -7  -4  -3   13.51    1.73
   8   4   3    2.09    0.97
  -8  -4  -3    3.52    1.20
  -9  -4  -3    0.45    1.03
   9   4   3    2.63    1.24
  -6   5   3    5.19    1.45
   6  -5  -3    7.03    1.49
   5  -5  -3    0.69    0.85
  -5   5   3    0.98    0.79
  -4   5   3   26.13    2.00
   4  -5  -3   24.26    1.89
  -3   5   3    8.32    1.32
  -3   5   3   10.77    1.13
   3  -5  -3    9.38    1.27
   2  -5  -3   34.33    1.89
  -2   5   3   36.63    2.10
  -2   5   3   33.07    1.76
  -1   5   3  314.44    8.07
  -1   5   3  305.40    8.34
   1  -5  -3  306.30    7.93
   0  -5  -3   30.19    1.47
   0   5   3   31.41    1.67
   0   5   3   33.34    1.80
   0   5   3   32.67    1.20
   1   5   3  367.83    9.31
  -1  -5  -3  369.43    8.66
  -1  -5  -3  366.35    9.35
   1   5   3  377.16    8.64
  -2  -5  -3   49.06    1.56
   2   5   3   47.69    2.12
   2   5   3   50.40    1.86
  -2  -5  -3   50.24    2.22
   3   5   3   87.80    2.95
  -3  -5  -3   88.36    3.22
   3   5   3   85.04    3.07
  -4  -5  -3    0.43    0.58
   4   5   3   -0.19    0.43
   4   5   3    0.20    0.45
   5   5   3    0.65    0.48
   5   5   3    0.51    0.54
  -5  -5  -3    0.41    0.61
   6   5   3   56.63    2.41
   6   5   3   51.19    2.66
  -6  -5  -3   59.20    2.97
   7   5   3   10.51    1.54
  -7  -5  -3   12.41    1.74
  -8  -5  -3    3.11    1.14
   8   5   3    3.49    1.10
   9   5   3   13.74    2.07
  -9  -5  -3   17.62    2.34
  -6   6   3   -0.60    1.03
   6  -6  -3   -0.09    0.91
   5  -6  -3   12.36    1.86
  -5   6   3   11.97    1.78
  -4   6   3   41.43    2.67
   4  -6  -3   37.05    2.44
  -3   6   3    1.79    0.67
  -3   6   3    1.79    0.82
   3  -6  -3    1.03    0.73
  -2   6   3   79.15    3.44
  -2   6   3   83.88    3.20
   2  -6  -3   80.10    3.26
   1  -6  -3   96.58    3.42
  -1   6   3   96.98    3.54
  -1   6   3  102.94    3.84
   0   6   3   13.57    1.33
   0  -6  -3   13.39    1.05
  -1  -6  -3   -0.09    0.37
   1   6   3    0.55    0.35
  -1  -6  -3   -0.55    0.34
   1   6   3   -0.51    0.37
  -2  -6  -3  189.69    5.90
   2   6   3  208.56    5.44
   2   6   3  204.97    5.93
   3   6   3    0.26    0.45
   3   6   3    1.01    0.62
  -3  -6  -3    0.97    0.64
   4   6   3   15.82    1.45
  -4  -6  -3   12.19    1.38
   4   6   3   10.66    1.19
   5   6   3   18.85    1.51
   5   6   3   21.37    1.59
  -5  -6  -3   22.70    1.87
   6   6   3    7.11    1.12
  -6  -6  -3    7.35    1.34
   6   6   3    4.66    1.10
  -7  -6  -3    0.20    0.75
   7   6   3    0.49    0.74
   8   6   3   -0.03    0.77
  -8  -6  -3    1.70    0.93
   9   6   3    1.63    1.14
  -9  -6  -3    2.72    1.43
  -5   7   3   45.70    3.15
   5  -7  -3   43.63    3.06
  -4   7   3   15.91    1.95
   4  -7  -3   15.85    1.88
  -3   7   3   24.61    2.22
   3  -7  -3   25.80    1.98
   2  -7  -3   32.64    2.06
  -2   7   3   36.47    2.09
  -2   7   3   31.35    2.24
   1  -7  -3  151.26    4.82
  -1   7   3  150.97    5.01
  -1   7   3  151.70    5.30
   0  -7  -3  108.98    3.61
   0  -7  -3  108.26    4.10
   0   7   3  111.99    4.03
   1   7   3   30.25    1.94
  -1  -7  -3   29.74    1.93
   2   7   3   67.58    2.93
  -2  -7  -3   61.08    2.86
   2   7   3   59.96    2.41
  -3  -7  -3   22.25    1.69
   3   7   3   18.80    1.38
   3   7   3   21.88    1.64
   4   7   3   18.91    1.76
  -4  -7  -3   13.41    1.53
   4   7   3   17.92    1.54
   5   7   3   50.86    2.56
  -5  -7  -3   48.79    2.72
   5   7   3   50.65    2.64
   6   7   3    1.62    0.85
   6   7   3    1.14    0.72
  -6  -7  -3    0.89    0.80
  -7  -7  -3   11.40    1.74
   7   7   3    6.51    1.29
   8   7   3    0.82    0.91
  -8  -7  -3    1.95    1.14
   4  -8  -3   32.53    2.75
  -4   8   3   33.54    2.85
   3  -8  -3    0.22    0.72
  -3   8   3    0.33    0.71
  -2   8   3   64.72    3.40
  -2   8   3   65.03    3.14
   2  -8  -3   64.59    3.14
   1  -8  -3   15.87    1.55
  -1   8   3   16.89    1.73
  -1   8   3   11.92    1.65
   0  -8  -3   42.08    2.50
   0   8   3   39.29    2.37
  -1  -8  -3   23.85    2.03
   1   8   3   23.20    1.82
   2   8   3    6.12    1.19
  -2  -8  -3    5.37    1.18
  -3  -8  -3   -0.66    0.65
   3   8   3    1.01    0.62
   3   8   3    0.45    0.67
   4   8   3   15.66    1.57
  -4  -8  -3   16.40    1.77
   4   8   3   13.61    1.72
  -5  -8  -3   71.79    3.50
   5   8   3   66.25    3.12
   5   8   3   69.28    3.36
  -6  -8  -3    0.72    0.82
   6   8   3    0.17    0.72
   6   8   3    0.66    0.77
  -7  -8  -3    2.81    1.12
  -7  -8  -3    3.18    0.96
   7   8   3    1.46    0.89
  -8  -8  -3    2.21    1.40
   8   8   3   -0.16    1.00
   3  -9  -3    4.41    1.24
  -3   9   3    4.12    1.35
  -2   9   3   24.70    2.37
  -1   9   3    6.45    1.29
   1  -9  -3    7.67    1.40
   0   9   3    1.71    0.90
   0  -9  -3    3.97    1.01
   1   9   3    0.35    0.59
  -1  -9  -3    1.32    0.82
   2   9   3    1.59    0.86
  -2  -9  -3    1.88    0.96
   3   9   3   35.29    2.46
  -3  -9  -3   40.91    2.54
  -4  -9  -3   55.22    3.11
   4   9   3   59.01    3.20
   4   9   3   59.23    2.91
   5   9   3   61.54    3.20
   5   9   3   68.63    3.52
  -5  -9  -3   69.23    3.54
  -6  -9  -3    9.73    1.63
   6   9   3    6.04    1.42
   6   9   3    7.16    1.36
   7   9   3   -0.39    0.80
  -7  -9  -3    0.72    0.82
  -7  -9  -3    2.17    1.18
   2 -10  -3    3.29    1.33
   1 -10  -3    2.05    1.01
  -1  10   3    3.48    1.03
   0 -10  -3   21.96    2.27
   0  10   3   24.05    2.29
  -1 -10  -3    4.15    1.11
   1  10   3    4.79    1.14
   2  10   3   10.79    1.64
  -2 -10  -3   11.29    1.65
   3  10   3    3.32    1.02
  -3 -10  -3    2.63    1.00
   4  10   3    2.74    1.04
  -4 -10  -3    3.67    1.12
   5  10   3    2.37    0.94
   5  10   3    1.47    1.03
  -5 -10  -3    1.95    1.07
   6  10   3   17.23    2.22
   6  10   3   14.00    1.96
  -6 -10  -3   15.64    2.09
  -7 -10  -3    2.34    1.04
   0  11   3   27.69    2.69
   0 -11  -3   22.76    2.58
  -1 -11  -3    2.84    1.21
   1  11   3    0.80    1.01
   2  11   3    7.05    1.54
  -2 -11  -3    8.16    1.65
  -3 -11  -3    5.70    1.41
   3  11   3    5.59    1.56
  -4 -11  -3   -0.85    0.97
  -5 -11  -3   -1.49    1.06
  -2  -9   4    1.61    1.11
   2   9  -4   -0.18    1.07
  -1  -9   4   -0.33    0.85
   1   9  -4   -0.19    0.90
   0  -9   4    0.71    0.84
   0   9  -4    0.32    1.02
  -1   9  -4    6.59    1.63
  -4  -8   4    1.46    0.87
   4   8  -4    0.65    1.11
  -3  -8   4   -1.50    0.80
   3   8  -4    1.87    0.91
   2   8  -4   37.61    2.64
  -2  -8   4   39.72    2.80
   1   8  -4   14.51    1.90
  -1  -8   4   14.11    1.91
   0   8  -4    1.12    0.82
   0  -8   4    1.18    0.82
  -1   8  -4   13.24    1.84
   2  -8   4   10.29    1.71
   6   7  -4    2.27    1.11
  -6  -7   4    1.18    0.93
   5   7  -4    9.64    1.80
  -5  -7   4    9.86    1.59
   4   7  -4    0.57    0.87
  -4  -7   4    2.18    0.96
  -3  -7   4    3.26    1.11
   3   7  -4    5.92    1.23
   2   7  -4    9.80    1.56
  -2  -7   4    8.37    1.53
  -1  -7   4    7.33    1.39
   1   7  -4   10.60    1.61
   0   7  -4    0.55    0.72
   0  -7   4   -0.40    0.63
  -1   7  -4    0.82    0.81
   1  -7   4    1.58    0.84
   2  -7   4   -0.53    0.70
  -2   7  -4   -0.21    0.70
  -3   7  -4   20.95    2.11
   3  -7   4   22.52    2.15
  -4   7  -4   19.85    2.18
  -7  -6   4    0.95    1.05
   6   6  -4   -0.74    0.85
  -6  -6   4    1.86    0.86
  -5  -6   4    1.28    0.82
   5   6  -4    0.56    0.77
  -4  -6   4    2.45    0.93
   4   6  -4    0.70    0.81
  -3  -6   4    1.46    0.82
   3   6  -4    1.76    0.93
   2   6  -4    4.13    1.04
  -2  -6   4    6.22    1.21
   1   6  -4    7.35    1.26
  -1  -6   4    9.84    1.46
   0   6  -4   20.53    1.57
   0  -6   4   22.18    1.76
   0   6  -4   21.14    1.70
   1  -6   4  216.74    6.63
  -1   6  -4  214.91    6.84
  -1   6  -4  227.10    6.66
  -2   6  -4   40.05    2.38
   2  -6   4   42.72    2.52
  -3   6  -4    7.86    1.39
   3  -6   4    9.24    1.43
   4  -6   4   20.16    1.97
  -4   6  -4   20.20    2.12
  -5   6  -4    7.42    1.51
   7   5  -4   11.72    1.78
  -7  -5   4    9.78    1.59
  -6  -5   4    4.14    1.17
   6   5  -4    3.69    1.20
  -5  -5   4    2.01    0.82
   5   5  -4    2.31    0.95
   4   5  -4   -0.73    0.67
  -4  -5   4    0.08    0.61
  -3  -5   4    3.56    0.95
   3   5  -4    4.91    1.13
  -2  -5   4    1.62    0.74
   2   5  -4    1.75    0.74
  -1  -5   4   27.03    1.83
   1   5  -4   24.74    1.78
   1   5  -4   28.44    1.56
   0   5  -4    8.70    1.27
   0  -5   4    7.67    1.18
   0   5  -4    8.83    1.02
   1  -5   4  112.25    3.96
  -1   5  -4  114.16    4.03
  -1   5  -4  114.83    4.19
   2  -5   4    0.63    0.57
  -2   5  -4    0.32    0.58
  -3   5  -4   45.23    2.50
   3  -5   4   38.95    2.31
   4  -5   4    3.42    1.01
  -4   5  -4    1.84    0.84
   5  -5   4    1.38    0.83
  -5   5  -4    1.80    0.79
  -6   5  -4   39.97    2.90
   8   4  -4    0.01    1.03
   7   4  -4    3.49    1.10
   6   4  -4    2.81    1.01
  -6  -4   4    3.25    1.00
   5   4  -4    6.49    1.21
  -5  -4   4    6.24    1.18
  -4  -4   4   24.06    1.78
   4   4  -4   23.98    1.80
  -3  -4   4    0.14    0.57
   3   4  -4    0.94    0.63
   2   4  -4   38.02    2.12
   2   4  -4   41.73    1.83
  -2  -4   4   41.05    2.23
  -1  -4   4   44.70    2.25
   1   4  -4   44.20    1.96
   0   4  -4    2.49    0.64
   0  -4   4    3.09    0.75
   0   4  -4    3.15    0.74
  -1   4  -4    5.39    1.01
  -1   4  -4    7.50    0.96
   1  -4   4    6.74    0.96
  -2   4  -4   90.81    3.52
  -2   4  -4   94.87    3.10
   2  -4   4   93.49    3.20
  -3   4  -4  103.99    4.00
  -3   4  -4  114.24    3.69
   3  -4   4  102.61    3.87
  -4   4  -4   -0.07    0.63
  -4   4  -4    0.03    0.53
   4  -4   4    0.78    0.70
   5  -4   4  117.03    4.41
  -5   4  -4  110.66    4.65
  -5   4  -4  122.19    4.47
  -6   4  -4    4.33    1.14
   6  -4   4    3.24    0.99
  -6   4  -4    5.13    1.16
  -7   4  -4   36.55    2.66
   7   3  -4    1.13    0.92
   6   3  -4    4.25    1.13
  -6  -3   4    3.98    0.98
   5   3  -4    9.88    1.40
  -5  -3   4    9.34    1.35
   4   3  -4  581.32   13.82
   4   3  -4  600.11   14.47
  -4  -3   4  580.69   14.53
  -3  -3   4    1.14    0.63
   3   3  -4    1.42    0.65
   3   3  -4    1.94    0.58
   2   3  -4   77.49    2.63
   2   3  -4   79.40    3.02
  -2  -3   4   71.35    2.91
   1   3  -4   10.00    0.92
  -1  -3   4    8.42    1.02
   1   3  -4    8.47    1.01
   0  -3   4    6.95    0.92
   0   3  -4    6.27    0.88
   0   3  -4    6.53    0.85
   0  -3   4    6.76    0.50
  -1   3  -4    5.78    0.54
  -1   3  -4    4.05    0.79
  -1   3  -4    5.44    0.83
   1  -3   4    4.72    0.75
   2  -3   4   11.24    0.98
  -2   3  -4   10.99    0.89
  -2   3  -4   13.01    1.22
   2  -3   4    9.82    1.12
  -3   3  -4   62.57    2.81
  -3   3  -4   61.65    2.41
   3  -3   4   66.67    2.77
  -4   3  -4    0.18    0.60
   4  -3   4   -0.36    0.44
  -4   3  -4   -0.19    0.40
   5  -3   4   61.81    2.90
  -5   3  -4   58.11    2.87
  -5   3  -4   61.45    3.05
   6  -3   4   10.21    1.46
  -6   3  -4   10.19    1.65
  -6   3  -4   10.09    1.49
   7  -3   4    2.33    0.96
  -7   3  -4    3.23    1.13
  -7   3  -4    2.25    0.91
   8  -3   4    0.42    0.98
  -8   3  -4    0.91    1.17
   7   2  -4    1.06    0.82
   6   2  -4    0.03    0.70
  -6  -2   4    0.93    0.66
  -6  -2   4    0.86    0.92
   5   2  -4   24.88    1.80
  -5  -2   4   28.82    1.86
  -5  -2   4   26.06    1.76
   4   2  -4   28.13    1.60
   4   2  -4   32.01    1.86
  -4  -2   4   28.58    1.62
  -4  -2   4   28.83    1.80
  -3  -2   4   10.44    0.93
  -3  -2   4    8.47    1.08
   3   2  -4    8.76    0.93
   3   2  -4    9.59    1.07
   2   2  -4   14.35    1.12
  -2  -2   4   14.90    0.86
   2   2  -4   15.78    1.12
  -2  -2   4   16.09    1.30
  -1  -2   4    6.63    0.47
   1   2  -4    6.28    0.80
   1   2  -4    6.41    0.75
  -1  -2   4    4.38    0.77
   0   2  -4    0.79    0.43
   0  -2   4    0.48    0.37
   0   2  -4    0.42    0.34
  -1   2  -4  808.40   18.51
   1  -2   4  803.99   18.38
  -1   2  -4  838.64   17.97
  -1   2  -4  797.43   18.57
  -2   2  -4  312.35    8.06
  -2   2  -4  313.33    7.53
   2  -2   4  308.80    7.99
   2  -2   4  313.15    7.55
   3  -2   4   42.04    1.50
  -3   2  -4   39.17    2.01
  -3   2  -4   39.26    1.75
   3  -2   4   40.09    1.99
  -4   2  -4   42.30    2.23
  -4   2  -4   42.74    2.04
   4  -2   4   43.77    2.18
  -5   2  -4   14.35    1.59
   5  -2   4   14.64    1.48
  -5   2  -4   16.11    1.50
   6  -2   4  160.41    5.39
  -6   2  -4  160.65    5.74
  -6   2  -4  168.27    5.61
  -7   2  -4    0.92    0.82
   7  -2   4    1.16    0.70
  -7   2  -4    1.23    0.80
   8  -2   4   10.34    1.60
   8  -2   4    9.41    1.59
  -8   2  -4    9.32    1.67
  -8  -1   4   -0.15    0.93
  -7  -1   4    9.41    1.57
  -6  -1   4   -0.36    0.70
   6   1  -4    0.60    0.65
   6   1  -4   -0.38    0.63
   5   1  -4    5.48    0.97
  -5  -1   4    4.61    1.00
   5   1  -4    5.25    0.96
  -5  -1   4    4.90    0.93
   4   1  -4   15.37    1.25
   4   1  -4   14.38    1.26
  -4  -1   4   11.39    1.15
  -4  -1   4   11.90    1.24
   3   1  -4    1.27    0.54
  -3  -1   4    2.41    0.60
  -3  -1   4    2.86    0.70
   3   1  -4    1.16    0.52
   2   1  -4  121.73    3.66
  -2  -1   4  118.21    3.76
   2   1  -4  122.80    3.62
  -2  -1   4  122.12    3.32
   1   1  -4  602.22   13.89
  -1  -1   4  605.77   14.08
   1   1  -4  601.42   13.83
  -1  -1   4  603.16   13.34
   0   1  -4  147.94    4.03
   0  -1   4  140.03    4.01
   0   1  -4  139.33    3.98
   1  -1   4    2.29    0.51
  -1   1  -4    2.35    0.56
  -1   1  -4    3.17    0.29
  -1   1  -4    2.28    0.54
  -2   1  -4 1111.38   24.30
   2  -1   4 1098.21   24.51
   2  -1   4 1091.94   24.16
  -2   1  -4 1091.76   24.60
   3  -1   4    6.43    0.87
   3  -1   4    7.25    0.57
  -3   1  -4    8.33    0.81
  -3   1  -4    6.67    0.88
  -4   1  -4   71.55    2.97
   4  -1   4   75.96    2.91
  -4   1  -4   73.97    2.78
  -5   1  -4   25.29    1.74
   5  -1   4   27.67    1.75
  -5   1  -4   30.44    1.93
  -6   1  -4   37.72    2.31
  -6   1  -4   41.54    2.40
   6  -1   4   40.76    2.29
  -7   1  -4   39.64    2.55
  -7   1  -4   44.96    2.70
   7  -1   4   37.92    2.41
   8  -1   4    2.24    0.85
  -8   1  -4    2.84    1.14
   8  -1   4    2.01    0.97
   9  -1   4   24.59    2.40
  -9   1  -4   20.87    2.50
   9  -1   4   22.52    2.41
  -8   0   4   -0.17    1.09
  -7   0   4    0.21    0.89
   7   0  -4    0.82    0.75
   6   0  -4    0.15    0.66
  -6   0   4    0.36    0.79
  -5   0   4    0.34    0.48
  -5   0   4    0.23    0.66
   5   0  -4    0.02    0.48
   5   0  -4    0.62    0.63
  -4   0   4    3.43    0.79
   4   0  -4    3.71    0.80
   4   0  -4    3.52    0.69
  -4   0   4    3.48    0.73
   3   0  -4    7.84    0.82
   3   0  -4   10.29    1.05
  -3   0   4    9.21    0.99
  -3   0   4    8.86    0.90
  -2   0   4   21.90    1.15
  -2   0   4   23.39    1.33
   2   0  -4   25.12    1.37
   2   0  -4   25.58    1.18
   1   0  -4  271.80    6.66
   1   0  -4  276.54    6.94
  -1   0   4  276.22    6.99
  -1   0   4  282.94    6.47
   0   0  -4   16.76    0.58
   0   0  -4   17.58    1.12
   0   0   4   15.02    0.97
   0   0  -4   17.12    0.95
   1   0   4   67.15    2.15
   1   0   4   63.19    2.08
  -1   0  -4   61.26    2.21
  -1   0  -4   66.69    1.72
  -2   0  -4  234.23    5.71
   2   0   4  239.92    5.71
   2   0   4  236.52    6.02
  -3   0  -4  765.29   17.18
  -3   0  -4  743.37   17.21
   3   0   4  712.69   17.10
   3   0   4  780.62   16.55
  -4   0  -4    1.43    0.55
   4   0   4    1.41    0.58
  -4   0  -4    0.62    0.43
  -5   0  -4    9.10    1.16
   5   0   4   11.76    1.26
  -5   0  -4    7.75    1.08
   6   0   4   27.13    1.82
  -6   0  -4   25.06    1.84
  -6   0  -4   29.05    1.90
   7   0   4    0.99    0.70
  -7   0  -4    0.23    0.64
  -7   0  -4   -0.53    0.66
  -8   0  -4    8.25    1.53
   8   0   4    6.70    1.23
   8   0   4    7.47    1.44
   9   0   4    7.03    1.52
  -9   0  -4    5.26    1.48
   9   0   4    7.57    1.36
   8  -1  -4    1.67    1.08
  -8   1   4    1.78    1.29
  -7   1   4    1.25    1.01
   7  -1  -4   -0.35    0.64
   6  -1  -4   27.75    2.01
  -6   1   4   28.88    2.22
  -5   1   4   26.00    1.62
   5  -1  -4   28.97    1.85
  -5   1   4   29.94    2.04
  -4   1   4   64.71    2.57
  -4   1   4   64.60    2.75
   4  -1  -4   62.55    2.31
   4  -1  -4   62.86    2.68
  -3   1   4  229.69    6.29
   3  -1  -4  234.71    5.76
   3  -1  -4  241.74    6.41
  -3   1   4  218.04    6.18
  -2   1   4  151.77    4.25
   2  -1  -4  149.19    3.86
   2  -1  -4  153.87    4.41
   1  -1  -4   52.31    2.02
   1  -1  -4   53.39    1.63
  -1   1   4   54.02    2.02
  -1   1   4   51.30    1.75
   0   1   4  483.82   10.79
   0  -1  -4  484.50   11.15
   0   1   4  469.91   11.11
   0  -1  -4  470.20   10.70
  -1  -1  -4  906.40   19.84
   1   1   4  906.55   19.99
   1   1   4  880.58   19.72
   2   1   4   28.89    1.18
  -2  -1  -4   27.62    1.34
  -2  -1  -4   27.10    1.14
   2   1   4   27.40    1.27
  -3  -1  -4  209.57    5.60
   3   1   4  216.39    5.66
  -3  -1  -4  209.94    5.55
   3   1   4  219.05    5.14
  -4  -1  -4   85.62    2.96
   4   1   4   85.61    2.22
   4   1   4   85.67    3.01
  -4  -1  -4   84.55    2.93
   5   1   4  180.98    5.41
  -5  -1  -4  188.24    5.38
  -5  -1  -4  175.71    5.42
  -6  -1  -4  194.43    6.16
  -6  -1  -4  199.39    5.95
   6   1   4  197.87    6.07
  -7  -1  -4    9.22    1.52
  -7  -1  -4   11.28    1.43
   7   1   4    9.85    1.45
   8   1   4   17.13    1.66
   8   1   4   14.61    1.83
  -8  -1  -4   16.37    1.95
  -9  -1  -4    6.73    1.52
   9   1   4    3.23    1.20
   8  -2  -4    3.43    1.29
  -7   2   4    9.87    1.76
   7  -2  -4   10.03    1.59
   6  -2  -4   58.87    3.04
  -6   2   4   51.18    3.03
  -5   2   4   26.59    1.99
   5  -2  -4   26.65    1.91
   4  -2  -4    1.95    0.73
  -4   2   4    2.64    0.65
  -4   2   4    3.09    0.85
   3  -2  -4  491.94   11.28
  -3   2   4  503.08   11.98
   3  -2  -4  490.87   12.17
  -3   2   4  510.13   12.32
   2  -2  -4   87.79    3.02
   2  -2  -4   86.48    2.27
  -2   2   4   82.24    2.84
  -2   2   4   87.51    2.96
   1  -2  -4  570.68   12.28
   1  -2  -4  557.73   13.08
  -1   2   4  553.43   13.09
  -1   2   4  566.66   13.08
   0  -2  -4  110.00    3.26
   0   2   4  113.22    2.72
   0   2   4  106.55    3.27
   0   2   4  113.37    3.14
   1   2   4  166.23    4.09
  -1  -2  -4  166.04    4.39
   1   2   4  168.56    4.47
  -1  -2  -4  167.56    4.32
   2   2   4  146.48    3.91
   2   2   4  147.89    3.94
  -2  -2  -4  146.01    4.00
  -2  -2  -4  150.00    3.94
  -3  -2  -4   88.57    2.90
   3   2   4   95.70    2.66
  -3  -2  -4   91.82    2.78
   3   2   4   92.29    2.92
   4   2   4   26.46    1.10
  -4  -2  -4   25.85    1.33
  -4  -2  -4   27.54    1.52
   4   2   4   27.23    1.50
  -5  -2  -4   85.99    2.94
   5   2   4   80.67    3.15
  -5  -2  -4   82.64    3.19
  -6  -2  -4   11.33    1.42
  -6  -2  -4   11.47    1.22
   6   2   4   14.96    1.51
  -7  -2  -4   44.07    2.35
  -7  -2  -4   47.08    2.74
   7   2   4   45.03    2.62
   8   2   4    1.38    0.82
  -8  -2  -4    2.55    1.06
   9   2   4   14.34    2.01
  -9  -2  -4   17.47    2.19
   7  -3  -4    1.05    0.86
  -7   3   4   -0.42    0.97
  -6   3   4    3.60    1.18
   6  -3  -4    4.88    1.15
  -5   3   4   15.61    1.77
   5  -3  -4   17.70    1.78
  -4   3   4    0.22    0.66
   4  -3  -4   -0.26    0.52
  -4   3   4    0.91    0.49
  -3   3   4    2.94    0.65
   3  -3  -4    2.32    0.71
  -3   3   4    3.03    0.83
  -2   3   4   24.75    1.52
  -2   3   4   25.12    1.43
   2  -3  -4   22.65    1.48
   1  -3  -4  159.29    4.60
  -1   3   4  163.96    4.67
  -1   3   4  166.22    4.64
   0   3   4  560.50   13.15
   0   3   4  571.55   12.26
   0  -3  -4  560.13   12.93
   0   3   4  551.27   13.11
  -1  -3  -4   66.71    2.34
  -1  -3  -4   66.49    2.24
   1   3   4   68.05    1.93
   1   3   4   75.15    2.42
  -2  -3  -4   15.45    0.90
   2   3   4   17.93    1.04
   2   3   4   16.44    0.90
  -2  -3  -4   15.53    1.04
   3   3   4  242.32    6.13
   3   3   4  242.59    6.05
  -3  -3  -4  233.33    5.79
  -3  -3  -4  234.26    6.33
  -4  -3  -4  191.66    5.43
   4   3   4  185.57    4.86
  -4  -3  -4  182.57    4.81
  -5  -3  -4   40.50    1.75
  -5  -3  -4   41.02    2.14
   5   3   4   38.12    1.56
   5   3   4   39.95    2.09
  -6  -3  -4    8.80    0.99
   6   3   4    9.10    1.29
  -6  -3  -4    9.20    1.33
  -7  -3  -4  214.64    6.93
   7   3   4  211.13    6.72
  -8  -3  -4    1.68    1.07
   8   3   4    3.48    1.14
   9   3   4   43.31    3.04
  -9  -3  -4   46.64    3.17
   7  -4  -4    3.35    1.29
  -7   4   4    2.69    1.30
   6  -4  -4    0.08    0.65
  -6   4   4    0.51    0.95
   5  -4  -4   16.36    1.82
  -5   4   4   17.79    1.96
  -4   4   4    6.24    0.96
  -4   4   4    6.77    1.29
   4  -4  -4    6.19    1.18
   3  -4  -4  130.89    4.43
  -3   4   4  123.55    4.40
  -3   4   4  124.70    3.99
   2  -4  -4  170.06    5.13
  -2   4   4  175.18    5.26
  -2   4   4  161.91    4.85
   1  -4  -4  178.07    5.07
  -1   4   4  178.34    5.25
  -1   4   4  179.22    5.07
   0   4   4 1519.35   33.70
   0   4   4 1520.67   33.46
   0  -4  -4 1474.93   33.03
   1   4   4  431.95    9.57
  -1  -4  -4  420.66    9.91
  -1  -4  -4  421.77   10.35
   1   4   4  425.10   10.32
  -2  -4  -4   69.39    2.58
   2   4   4   70.35    2.22
  -2  -4  -4   72.59    2.18
   2   4   4   66.03    2.49
   3   4   4   45.45    1.92
  -3  -4  -4   48.19    2.11
   3   4   4   45.68    1.86
  -3  -4  -4   46.67    1.55
   4   4   4  104.19    3.50
  -4  -4  -4  102.28    3.66
   4   4   4  108.67    3.34
  -4  -4  -4  106.16    2.92
   5   4   4   86.44    2.92
  -5  -4  -4   92.31    3.54
   5   4   4   89.19    3.40
  -6  -4  -4    3.98    1.01
   6   4   4    3.93    0.96
  -7  -4  -4    1.92    0.89
   7   4   4    0.98    0.76
  -8  -4  -4   26.12    2.37
   8   4   4   27.43    2.39
   9   4   4   10.60    1.86
  -9  -4  -4   10.61    2.01
  -6   5   4    5.42    1.47
   6  -5  -4    8.53    1.53
   5  -5  -4   41.33    2.65
  -5   5   4   32.01    2.43
  -4   5   4   30.20    2.24
   4  -5  -4   32.42    2.23
   3  -5  -4   28.84    1.96
  -3   5   4   28.80    1.73
  -3   5   4   23.79    1.90
  -2   5   4   79.84    3.00
   2  -5  -4   80.45    3.18
  -2   5   4   80.80    3.33
   1  -5  -4   37.25    1.90
  -1   5   4   39.97    1.97
  -1   5   4   32.16    2.02
   0   5   4  173.37    5.23
   0  -5  -4  182.24    4.95
   0   5   4  179.11    5.36
   1   5   4    2.80    0.67
  -1  -5  -4    1.92    0.58
  -1  -5  -4    2.29    0.51
   1   5   4    2.42    0.38
   2   5   4   32.05    1.43
  -2  -5  -4   33.63    1.80
   2   5   4   36.33    1.81
  -2  -5  -4   35.03    1.38
   3   5   4    7.95    1.00
   3   5   4    8.01    0.86
  -3  -5  -4    9.90    1.12
  -3  -5  -4   10.36    0.64
   4   5   4  237.97    6.53
  -4  -5  -4  240.76    6.87
   4   5   4  239.05    6.49
   5   5   4    0.58    0.50
  -5  -5  -4    0.53    0.68
   5   5   4    0.36    0.53
   6   5   4    1.12    0.74
  -6  -5  -4    1.31    0.78
   6   5   4    1.09    0.56
   7   5   4    4.71    1.17
  -7  -5  -4    5.46    1.27
  -8  -5  -4    1.38    0.99
   8   5   4    2.37    0.97
   9   5   4   19.05    2.37
  -9  -5  -4   20.05    2.45
   5  -6  -4   35.87    2.62
  -5   6   4   40.24    2.87
  -4   6   4   32.28    2.39
   4  -6  -4   28.08    2.16
   3  -6  -4    2.89    0.89
  -3   6   4    2.10    0.76
  -3   6   4    1.62    0.88
   2  -6  -4  173.96    5.42
  -2   6   4  166.49    5.31
  -2   6   4  163.43    5.63
  -1   6   4   83.36    3.26
  -1   6   4   88.09    3.51
   1  -6  -4   76.50    3.10
   0  -6  -4    4.97    0.80
   0   6   4    6.21    1.03
   1   6   4  137.52    4.50
  -1  -6  -4  137.61    4.52
  -1  -6  -4  134.19    3.90
  -2  -6  -4   95.10    3.54
   2   6   4   92.11    3.47
   2   6   4   94.87    2.97
  -3  -6  -4   67.16    2.96
   3   6   4   75.38    2.99
   3   6   4   76.33    2.69
   4   6   4   85.71    3.26
   4   6   4   93.80    3.45
  -4  -6  -4   98.74    3.70
   5   6   4    2.86    0.84
   5   6   4    2.71    0.81
  -5  -6  -4    3.08    0.95
  -6  -6  -4    7.34    1.36
   6   6   4    9.15    1.34
   6   6   4    9.44    1.24
   7   6   4    2.76    0.99
  -7  -6  -4    1.69    0.93
  -8  -6  -4   -0.50    0.87
   8   6   4    0.09    0.67
  -9  -6  -4    3.02    1.39
   9   6   4    4.18    1.29
   5  -7  -4   48.36    3.26
   4  -7  -4   10.38    1.67
  -4   7   4   10.06    1.66
   3  -7  -4   86.35    3.86
  -3   7   4   93.68    4.17
  -2   7   4    0.62    0.77
  -2   7   4    0.71    0.61
   2  -7  -4    0.49    0.64
  -1   7   4  130.00    4.52
   1  -7  -4  123.02    4.27
  -1   7   4  118.83    4.61
   0   7   4   34.05    2.10
   0  -7  -4   38.99    1.95
   0  -7  -4   37.49    2.27
   1   7   4    8.01    1.22
  -1  -7  -4    8.54    1.25
   2   7   4    2.04    0.55
  -2  -7  -4    1.56    0.78
   2   7   4    1.64    0.72
   3   7   4   70.51    2.70
  -3  -7  -4   68.10    3.10
   3   7   4   69.34    3.09
  -4  -7  -4   42.81    2.51
   4   7   4   42.39    2.36
   4   7   4   45.58    2.19
   5   7   4   10.83    1.31
  -5  -7  -4    6.22    1.31
   5   7   4    8.35    1.29
   6   7   4    8.51    1.31
   6   7   4    8.86    1.37
  -6  -7  -4    7.98    1.42
  -7  -7  -4    3.95    1.13
   7   7   4    3.44    1.06
  -8  -7  -4    4.88    1.31
   8   7   4    2.54    1.03
  -4   8   4    2.02    1.06
   4  -8  -4    0.29    0.94
  -3   8   4   13.57    1.90
   3  -8  -4   11.93    1.71
  -2   8   4   29.58    2.11
   2  -8  -4   27.50    2.10
  -2   8   4   30.32    2.27
  -1   8   4    1.39    0.90
   1  -8  -4    0.50    0.73
  -1   8   4    1.32    0.75
   0  -8  -4    4.31    1.09
   0   8   4    5.55    1.10
  -1  -8  -4    1.57    0.80
   1   8   4    1.59    0.80
   2   8   4  197.31    6.51
  -2  -8  -4  213.25    6.71
  -3  -8  -4    5.41    1.17
   3   8   4    7.16    1.04
   3   8   4    6.38    1.24
   4   8   4  211.24    6.20
  -4  -8  -4  202.17    6.75
   4   8   4  211.56    6.69
   5   8   4   24.67    1.82
   5   8   4   25.84    1.98
  -5  -8  -4   28.92    2.24
   6   8   4    1.25    0.86
  -6  -8  -4    0.53    0.79
   6   8   4    0.91    0.71
   7   8   4    4.19    1.12
  -7  -8  -4    4.27    1.22
   7   8   4    2.97    1.00
   8   8   4    0.66    0.88
  -8  -8  -4    0.70    1.15
  -3   9   4   -0.22    0.96
   3  -9  -4    1.28    1.15
  -2   9   4   33.37    2.51
  -1   9   4    5.33    1.25
   1  -9  -4    3.08    1.03
   0   9   4   14.22    1.76
   0  -9  -4   16.93    1.88
  -1  -9  -4    6.98    1.37
   1   9   4    6.04    1.25
  -2  -9  -4   30.19    2.25
   2   9   4   31.84    2.22
   3   9   4    6.92    1.34
  -3  -9  -4    6.72    1.33
   4   9   4    2.76    0.97
  -4  -9  -4    3.66    1.04
   5   9   4   28.27    2.25
   5   9   4   27.53    2.02
  -5  -9  -4   27.34    2.38
  -6  -9  -4    1.20    1.01
   6   9   4    2.65    0.93
   6   9   4    1.70    0.99
   7   9   4    0.04    0.87
   7   9   4    0.68    0.78
  -7  -9  -4    0.27    1.00
  -1  10   4   36.21    2.57
   1 -10  -4   33.43    2.65
   0  10   4    3.42    0.98
   0 -10  -4    3.07    1.10
  -1 -10  -4   29.83    2.38
   1  10   4   27.91    2.48
   2  10   4    6.80    1.37
  -2 -10  -4    9.19    1.59
  -3 -10  -4    1.02    0.77
   3  10   4    1.10    0.86
  -4 -10  -4    0.22    0.76
   4  10   4   -0.93    0.74
  -5 -10  -4    1.81    0.95
   5  10   4   -0.41    0.88
   6  10   4    5.67    1.31
   6  10   4    4.39    1.32
  -6 -10  -4    4.65    1.51
   7  10   4    9.30    1.68
   7  10   4    7.31    1.64
   0  11   4    3.15    1.39
  -1 -11  -4   14.07    2.03
   1  11   4    8.82    1.78
  -2 -11  -4    5.44    1.51
   2  11   4    5.00    1.47
  -3 -11  -4    0.22    0.94
   3  11   4    1.27    1.07
  -4 -11  -4    4.89    1.41
   4  11   4    4.52    1.37
  -5 -11  -4    1.70    1.22
  -3  -8   5   -0.73    0.84
   3   8  -5    0.32    1.01
  -2  -8   5    2.43    1.26
   2   8  -5    1.88    1.13
  -1  -8   5    5.18    1.41
   1   8  -5    3.28    1.10
   0  -8   5    5.41    1.28
   0   8  -5    4.23    1.21
  -1   8  -5   -0.41    0.75
   2  -8   5    8.07    1.67
   5   7  -5    1.57    1.01
  -5  -7   5    1.50    0.99
  -4  -7   5    3.41    1.04
   4   7  -5    1.09    0.95
  -3  -7   5    1.46    1.03
   3   7  -5    4.54    1.21
   2   7  -5    0.07    0.67
  -2  -7   5    0.21    0.74
   1   7  -5   22.96    2.22
  -1  -7   5   28.55    2.46
   0   7  -5   43.18    2.66
   0  -7   5   34.47    2.40
  -1   7  -5    0.93    0.87
   1  -7   5    2.25    0.90
   2  -7   5    3.90    1.12
  -2   7  -5    3.27    1.06
   3  -7   5    9.94    1.66
  -3   7  -5    8.89    1.55
   4  -7   5   10.30    1.82
  -4   7  -5    7.78    1.75
   6   6  -5    0.23    1.06
  -6  -6   5    1.74    0.93
  -5  -6   5    0.46    0.81
   5   6  -5   -0.66    0.90
   4   6  -5    1.25    0.87
  -4  -6   5    1.18    0.79
  -3  -6   5    0.85    0.82
   3   6  -5    1.81    0.87
  -2  -6   5    2.69    0.98
   2   6  -5    6.84    1.37
  -1  -6   5    0.31    0.70
   1   6  -5    1.19    0.89
   0   6  -5   16.52    1.78
   0  -6   5   15.65    1.75
   1  -6   5   60.57    2.98
  -1   6  -5   62.30    3.05
  -1   6  -5   61.24    3.17
  -2   6  -5    7.43    1.35
   2  -6   5    7.52    1.35
  -3   6  -5   20.83    2.05
   3  -6   5   18.18    1.95
   4  -6   5    0.08    0.76
  -4   6  -5    1.01    0.87
   5  -6   5   40.41    2.79
  -5   6  -5   47.93    3.21
  -7  -5   5    0.06    0.96
   7   5  -5    0.55    0.98
  -6  -5   5    1.88    0.90
   6   5  -5    0.73    0.92
   5   5  -5    0.59    0.74
  -5  -5   5    1.27    0.85
  -4  -5   5   -0.48    0.62
   4   5  -5    0.42    0.84
  -3  -5   5    8.02    1.41
   3   5  -5   10.95    1.57
  -2  -5   5    2.18    0.80
   2   5  -5    1.45    0.74
   1   5  -5    6.88    1.23
   1   5  -5    6.41    1.01
  -1  -5   5    6.52    1.21
   0  -5   5    2.31    0.84
   0   5  -5    2.55    0.82
   0   5  -5    0.14    0.55
  -1   5  -5   62.42    3.03
  -1   5  -5   65.24    2.94
   1  -5   5   66.14    2.94
  -2   5  -5   81.59    3.58
   2  -5   5   83.55    3.31
  -3   5  -5    2.00    0.83
   3  -5   5    0.58    0.74
  -4   5  -5   42.40    2.70
   4  -5   5   48.62    2.78
  -5   5  -5    0.21    0.70
   5  -5   5    0.55    0.81
  -6   5  -5   55.57    3.56
   6  -5   5   54.46    3.25
   7   4  -5    0.93    0.91
  -7  -4   5    0.20    0.83
  -6  -4   5   19.69    2.07
   6   4  -5   19.20    2.07
  -5  -4   5   27.64    2.12
   5   4  -5   30.24    2.26
   4   4  -5    0.65    0.69
  -4  -4   5    0.09    0.62
  -3  -4   5    0.88    0.61
   3   4  -5   -0.55    0.57
  -2  -4   5   24.31    1.82
   2   4  -5   27.48    1.55
   2   4  -5   25.28    1.83
   1   4  -5    5.14    0.84
   1   4  -5    4.56    0.95
  -1  -4   5    4.83    0.97
   0   4  -5   42.14    2.24
   0  -4   5   40.60    2.17
   0   4  -5   40.69    2.08
  -1   4  -5   28.87    1.86
   1  -4   5   23.31    1.59
  -1   4  -5   25.06    1.70
  -2   4  -5  264.58    7.68
   2  -4   5  275.23    7.32
   2  -4   5  267.84    7.69
  -3   4  -5   36.06    2.27
   3  -4   5   39.38    2.32
   4  -4   5   69.80    3.29
  -4   4  -5   77.61    3.57
  -5   4  -5    2.79    0.99
   5  -4   5    4.06    1.08
  -6   4  -5    6.35    1.29
   6  -4   5    5.14    1.27
  -7   4  -5    4.93    1.44
   7  -4   5    7.19    1.59
   7   3  -5    6.36    1.40
   6   3  -5    1.03    0.82
  -6  -3   5    0.36    0.66
  -5  -3   5   43.37    2.50
   5   3  -5   39.86    2.41
  -4  -3   5    0.95    0.72
   4   3  -5   -0.80    0.60
   3   3  -5    3.69    0.96
  -3  -3   5    6.34    1.11
   3   3  -5    6.84    0.93
  -2  -3   5    0.69    0.56
   2   3  -5    0.31    0.42
   2   3  -5   -0.81    0.37
  -1  -3   5   40.07    2.10
   1   3  -5   42.69    1.97
   1   3  -5   40.37    2.14
   0   3  -5   41.23    2.11
   0  -3   5   46.82    2.17
   0   3  -5   45.90    2.07
  -1   3  -5   23.99    1.55
  -1   3  -5   23.38    1.58
   1  -3   5   25.82    1.51
   2  -3   5    1.55    0.54
  -2   3  -5    1.15    0.62
   2  -3   5    0.50    0.53
   3  -3   5   21.81    1.64
  -3   3  -5   21.75    1.71
  -4   3  -5   11.10    1.17
  -4   3  -5    8.34    1.35
   4  -3   5    9.68    1.35
   5  -3   5  127.03    4.74
  -5   3  -5  135.53    5.08
  -5   3  -5  138.42    4.76
  -6   3  -5    0.19    0.74
   6  -3   5    0.97    0.78
  -6   3  -5    1.53    0.80
  -7   3  -5   22.50    2.39
  -7   3  -5   24.16    2.22
   7  -3   5   21.51    2.09
  -8   3  -5    5.99    1.61
   8  -3   5    5.65    1.44
  -6  -2   5    0.49    0.79
   6   2  -5    0.10    0.77
   5   2  -5   -0.01    0.61
   5   2  -5    0.83    0.72
  -5  -2   5    2.47    0.86
   4   2  -5   14.12    1.44
   4   2  -5   13.47    1.35
  -4  -2   5   14.73    1.53
   3   2  -5    0.13    0.53
  -3  -2   5    0.24    0.58
   3   2  -5    0.60    0.52
   2   2  -5  101.96    3.37
   2   2  -5   96.29    3.42
   1   2  -5  143.96    4.47
  -1  -2   5  151.27    4.57
   1   2  -5  145.11    4.34
   0   2  -5  126.07    3.97
   0   2  -5  125.74    3.89
   0  -2   5  121.63    3.91
  -1   2  -5  732.62   16.83
  -1   2  -5  716.21   16.77
   1  -2   5  707.94   16.60
  -2   2  -5   22.11    1.50
  -2   2  -5   24.30    1.07
   2  -2   5   21.60    1.45
   2  -2   5   24.24    1.29
   3  -2   5  304.86    7.61
  -3   2  -5  320.76    8.48
  -3   2  -5  309.54    7.83
   3  -2   5  319.38    8.41
  -4   2  -5    4.84    0.85
  -4   2  -5    4.02    0.96
   4  -2   5    4.32    0.89
  -5   2  -5  258.69    7.23
  -5   2  -5  247.85    7.58
   5  -2   5  245.98    7.33
   6  -2   5   29.79    2.10
  -6   2  -5   27.04    2.07
  -6   2  -5   27.67    2.02
  -7   2  -5    2.79    0.98
  -7   2  -5    0.89    0.87
   7  -2   5    3.00    0.97
  -8   2  -5   37.37    2.76
   8  -2   5   35.47    2.58
  -8   2  -5   37.74    2.84
   6   1  -5   -0.16    0.63
  -6  -1   5   -0.23    0.55
   5   1  -5    0.93    0.64
   5   1  -5    0.21    0.64
  -5  -1   5    0.55    0.61
   4   1  -5   11.21    1.25
  -4  -1   5   11.13    1.35
  -4  -1   5   11.39    1.21
   4   1  -5   11.26    1.19
  -3  -1   5   38.31    1.71
   3   1  -5   34.25    1.80
   3   1  -5   37.10    1.96
   2   1  -5   54.79    2.25
  -2  -1   5   55.51    1.87
   2   1  -5   55.54    2.32
  -2  -1   5   58.32    2.44
   1   1  -5   19.07    1.28
  -1  -1   5   18.35    0.69
  -1  -1   5   17.08    1.22
   1   1  -5   17.87    1.20
   0  -1   5  165.95    4.68
   0   1  -5  161.64    4.59
   0   1  -5  161.13    4.64
   1  -1   5   12.04    0.91
  -1   1  -5   10.54    1.03
  -1   1  -5    9.21    0.96
  -2   1  -5    2.52    0.39
   2  -1   5    3.46    0.65
   2  -1   5    3.60    0.58
  -2   1  -5    3.61    0.71
   3  -1   5    2.78    0.70
  -3   1  -5    2.19    0.68
   3  -1   5    3.89    0.53
  -3   1  -5    3.04    0.58
  -4   1  -5   63.55    2.78
   4  -1   5   62.80    2.67
  -4   1  -5   62.47    2.47
  -5   1  -5    7.85    1.12
  -5   1  -5    7.03    1.19
   5  -1   5    7.58    1.19
  -6   1  -5    3.00    0.92
  -6   1  -5    3.10    0.95
   6  -1   5    3.99    0.94
   7  -1   5    0.84    0.75
  -7   1  -5   -0.22    0.67
  -7   1  -5    0.05    0.74
  -8   1  -5   10.42    1.71
   8  -1   5   12.01    1.70
  -8   1  -5   13.35    1.83
   9  -1   5    1.86    1.09
   9  -1   5    2.08    1.16
  -9   1  -5    1.02    1.12
   7   0  -5    2.37    0.89
  -7   0   5    2.18    1.11
  -6   0   5    7.41    1.42
   6   0  -5    7.70    1.29
  -5   0   5   13.92    1.52
  -5   0   5   13.67    1.39
   5   0  -5   12.73    1.45
   4   0  -5    0.83    0.59
  -4   0   5    1.57    0.72
  -4   0   5    1.32    0.63
   4   0  -5    0.73    0.59
  -3   0   5   -0.03    0.45
   3   0  -5    0.67    0.57
  -3   0   5    0.02    0.42
   3   0  -5    0.44    0.42
  -2   0   5    0.02    0.34
   2   0  -5   -0.08    0.30
  -2   0   5   -0.13    0.40
   2   0  -5    0.42    0.45
  -1   0   5   10.82    1.05
   1   0  -5   11.31    0.91
  -1   0   5   11.29    0.67
   1   0  -5   14.25    1.10
   0   0  -5  625.42   14.45
   0   0   5  621.67   14.74
   0   0  -5  645.60   14.01
   0   0  -5  646.66   14.77
   1   0   5  174.87    4.71
  -1   0  -5  175.01    4.88
   1   0   5  175.85    4.73
  -1   0  -5  173.31    4.07
  -2   0  -5   18.92    1.27
  -2   0  -5   19.60    0.92
   2   0   5   19.97    1.19
   2   0   5   19.02    1.06
   3   0   5   66.36    2.09
   3   0   5   63.52    2.48
  -3   0  -5   66.73    2.59
  -3   0  -5   64.27    2.25
  -4   0  -5  255.15    7.06
  -4   0  -5  267.90    6.90
   4   0   5  252.26    7.00
  -5   0  -5   95.22    3.60
  -5   0  -5  105.83    3.85
   5   0   5  103.57    3.75
   6   0   5    9.85    1.36
  -6   0  -5    8.08    1.20
  -6   0  -5    6.86    1.19
   7   0   5    9.66    1.44
  -7   0  -5   11.67    1.59
  -7   0  -5   13.09    1.62
   8   0   5   16.43    1.92
  -8   0  -5   14.92    1.85
  -8   0  -5   16.86    1.97
   9   0   5   15.51    2.10
   9   0   5   16.81    1.95
  -9   0  -5   13.22    2.04
   7  -1  -5   18.38    1.98
  -7   1   5   17.86    2.14
   6  -1  -5    0.52    0.71
  -6   1   5    1.46    0.96
   5  -1  -5   12.46    1.51
  -5   1   5   19.84    1.53
  -5   1   5   17.20    1.69
  -4   1   5  101.85    3.81
   4  -1  -5  107.97    3.92
  -4   1   5  109.72    3.82
  -3   1   5   23.46    1.51
   3  -1  -5   26.22    1.28
   3  -1  -5   19.83    1.48
  -3   1   5   24.58    1.54
   2  -1  -5  104.34    3.58
   2  -1  -5  109.15    3.09
  -2   1   5  111.55    3.33
  -2   1   5  107.56    3.58
  -1   1   5   29.12    1.27
   1  -1  -5   30.85    1.25
   1  -1  -5   31.22    1.62
   0  -1  -5  910.06   21.00
   0  -1  -5  937.81   20.58
   0   1   5  955.54   21.12
   0  -1  -5  929.34   20.61
   1   1   5  209.13    5.53
   1   1   5  207.19    5.34
  -1  -1  -5  213.51    5.65
  -1  -1  -5  219.13    5.13
   2   1   5  244.89    6.16
  -2  -1  -5  236.40    5.88
  -2  -1  -5  245.65    6.32
   2   1   5  244.97    6.07
  -3  -1  -5  115.94    3.48
  -3  -1  -5  119.78    3.73
   3   1   5  124.42    3.34
   3   1   5  121.69    3.69
   4   1   5  193.19    4.65
  -4  -1  -5  182.05    5.35
  -4  -1  -5  189.95    5.29
   4   1   5  189.91    5.43
  -5  -1  -5  105.74    3.76
   5   1   5  111.75    3.88
  -5  -1  -5  107.01    3.74
   6   1   5    8.62    1.29
  -6  -1  -5    8.76    1.26
  -6  -1  -5    8.48    1.29
   7   1   5   27.62    2.05
  -7  -1  -5   30.12    2.05
  -7  -1  -5   26.55    2.13
  -8  -1  -5    9.39    1.54
   8   1   5    5.92    1.34
  -8  -1  -5    5.90    1.30
   9   1   5    3.12    1.25
  -9  -1  -5    2.14    1.10
   7  -2  -5    8.81    1.60
  -7   2   5   12.42    1.91
   6  -2  -5    1.81    0.80
  -6   2   5    0.35    0.83
  -5   2   5    6.46    1.27
   5  -2  -5    5.80    1.17
  -5   2   5    5.92    0.99
  -4   2   5    2.70    0.72
   4  -2  -5    3.90    0.97
  -4   2   5    3.87    0.96
  -3   2   5   11.69    1.21
  -3   2   5   12.12    1.18
   3  -2  -5   13.71    1.33
   2  -2  -5   27.91    1.10
  -2   2   5   28.10    1.52
   2  -2  -5   29.84    1.65
  -2   2   5   28.29    1.57
   1  -2  -5   48.87    2.10
   1  -2  -5   49.68    1.50
  -1   2   5   46.21    1.87
  -1   2   5   49.01    2.04
   0   2   5   31.86    1.13
   0  -2  -5   33.34    1.62
   0   2   5   31.96    1.37
   0   2   5   32.13    1.55
  -1  -2  -5   88.94    2.85
  -1  -2  -5   92.05    2.66
   1   2   5   82.12    2.82
   1   2   5   88.72    2.52
  -2  -2  -5   34.02    1.54
  -2  -2  -5   34.58    1.46
   2   2   5   32.21    1.42
   2   2   5   34.97    1.53
   3   2   5   38.11    1.69
   3   2   5   38.03    1.56
  -3  -2  -5   38.83    1.71
  -3  -2  -5   39.94    1.70
   4   2   5  157.59    4.74
  -4  -2  -5  160.72    4.60
  -4  -2  -5  164.24    4.73
   4   2   5  161.63    4.21
  -5  -2  -5   92.72    3.25
  -5  -2  -5   94.10    3.48
  -6  -2  -5  658.54   15.64
   6   2   5  675.40   15.57
  -6  -2  -5  549.68   14.90
  -7  -2  -5   76.17    3.61
  -7  -2  -5   85.88    3.44
   7   2   5   79.05    3.63
  -8  -2  -5   31.64    2.45
   8   2   5   36.10    2.48
  -9  -2  -5    2.52    1.12
   9   2   5    1.74    1.04
  -7   3   5   -0.64    1.06
   7  -3  -5    0.78    0.97
  -6   3   5    2.75    1.20
   6  -3  -5    3.89    1.10
  -5   3   5    0.54    0.82
   5  -3  -5    0.20    0.69
  -4   3   5   45.04    2.50
  -4   3   5   40.96    2.11
   4  -3  -5   41.76    2.35
   3  -3  -5   39.27    2.14
  -3   3   5   38.21    1.97
  -3   3   5   38.31    2.12
   2  -3  -5  212.24    6.17
  -2   3   5  220.35    6.11
  -2   3   5  219.30    6.17
  -1   3   5  567.97   13.59
   1  -3  -5  582.04   13.60
  -1   3   5  565.32   13.63
   0   3   5  167.80    3.83
   0  -3  -5  165.11    4.67
   0   3   5  160.63    4.73
   0   3   5  165.71    4.61
   1   3   5   76.71    2.11
  -1  -3  -5   71.56    2.52
   1   3   5   70.61    2.57
  -1  -3  -5   73.27    2.49
   2   3   5   36.77    1.47
  -2  -3  -5   36.25    1.60
  -2  -3  -5   39.79    1.70
   2   3   5   35.58    1.63
   3   3   5  845.39   18.90
  -3  -3  -5  839.51   18.76
   3   3   5  838.36   18.87
  -3  -3  -5  819.81   19.25
   4   3   5  156.63    4.74
   4   3   5  170.40    4.50
  -4  -3  -5  159.16    4.86
  -4  -3  -5  166.73    4.54
   5   3   5    5.84    1.00
  -5  -3  -5    7.91    0.90
  -5  -3  -5    8.02    1.11
  -6  -3  -5   62.18    2.95
   6   3   5   59.73    2.90
  -6  -3  -5   62.57    2.58
   7   3   5  124.93    4.78
  -7  -3  -5  125.44    4.87
   8   3   5    4.67    1.20
  -8  -3  -5    6.48    1.45
  -9  -3  -5   -0.74    0.68
   9   3   5    0.71    0.97
  -6   4   5    2.81    1.23
   6  -4  -5    3.97    1.14
  -5   4   5   15.41    1.91
   5  -4  -5   16.39    1.83
   4  -4  -5    0.02    0.60
  -4   4   5    0.30    0.71
  -4   4   5    0.37    0.54
  -3   4   5   62.06    2.97
   3  -4  -5   68.86    3.03
  -3   4   5   67.13    2.77
   2  -4  -5    7.40    1.09
  -2   4   5    5.79    1.04
  -2   4   5    7.67    1.03
  -1   4   5   94.07    3.34
  -1   4   5   86.02    3.20
   1  -4  -5   94.78    3.30
   0   4   5  146.02    4.51
   0  -4  -5  152.29    4.38
   0   4   5  145.95    4.47
  -1  -4  -5  652.06   15.69
  -1  -4  -5  681.85   15.43
   1   4   5  675.37   15.76
   1   4   5  675.02   14.78
  -2  -4  -5  211.07    5.37
   2   4   5  203.13    5.18
   2   4   5  209.00    5.68
  -2  -4  -5  204.98    5.72
  -3  -4  -5  356.48    8.44
   3   4   5  348.34    8.62
  -3  -4  -5  352.17    9.08
   3   4   5  358.69    8.88
  -4  -4  -5   20.23    1.49
   4   4   5   20.49    1.26
  -4  -4  -5   18.51    1.08
   4   4   5   18.36    1.27
   5   4   5   15.69    1.44
  -5  -4  -5   16.63    1.55
   5   4   5   13.70    1.04
  -6  -4  -5   43.42    2.51
   6   4   5   45.72    2.44
   7   4   5   15.90    1.81
  -7  -4  -5   14.45    1.78
   8   4   5   80.21    3.90
  -8  -4  -5   78.89    4.02
  -9  -4  -5   11.58    2.01
   9   4   5   16.41    2.22
   6  -5  -5   20.23    2.32
  -6   5   5   17.72    2.31
   5  -5  -5    4.75    1.26
  -5   5   5    9.14    1.69
   4  -5  -5   -0.15    0.77
  -4   5   5    1.78    0.86
  -3   5   5   45.72    2.59
  -3   5   5   45.99    2.31
   3  -5  -5   42.25    2.47
  -2   5   5   65.68    2.83
   2  -5  -5   68.65    2.96
  -2   5   5   68.88    3.08
  -1   5   5    1.07    0.56
  -1   5   5   -0.03    0.56
   1  -5  -5    1.20    0.61
   0   5   5  160.59    4.96
   0  -5  -5  163.24    4.77
   0   5   5  163.02    5.06
   1   5   5  318.25    8.66
  -1  -5  -5  330.91    8.23
  -1  -5  -5  337.99    8.70
   1   5   5  342.79    7.65
   2   5   5  491.23   11.46
   2   5   5  507.32   12.30
  -2  -5  -5  497.42   11.60
  -2  -5  -5  499.86   12.34
  -3  -5  -5  100.86    3.69
   3   5   5  109.27    3.65
  -3  -5  -5  108.01    3.06
   3   5   5  105.10    3.29
   4   5   5   20.54    1.35
   4   5   5   22.43    1.42
  -4  -5  -5   21.33    1.58
   5   5   5    2.80    0.81
  -5  -5  -5    4.21    1.00
   5   5   5    2.16    0.65
   6   5   5    2.36    0.86
  -6  -5  -5    3.89    1.07
   7   5   5   21.50    2.06
  -7  -5  -5   21.25    2.13
   8   5   5   13.63    1.89
  -8  -5  -5   14.71    1.97
   9   5   5    3.56    1.39
  -9  -5  -5    3.33    1.25
  -5   6   5   36.91    2.83
   5  -6  -5   32.11    2.54
   4  -6  -5   14.67    1.90
  -4   6   5   16.52    1.98
  -3   6   5   20.75    1.79
  -3   6   5   12.22    1.65
   3  -6  -5   20.80    1.94
   2  -6  -5   91.13    3.65
  -2   6   5   86.52    3.78
  -2   6   5   93.96    3.60
  -1   6   5   30.60    1.91
   1  -6  -5   28.62    1.78
  -1   6   5   27.02    1.91
   0  -6  -5    1.33    0.57
   0  -6  -5    0.07    0.58
   0   6   5    0.79    0.58
  -1  -6  -5    1.53    0.53
  -1  -6  -5   -0.83    0.36
   1   6   5    0.76    0.54
   2   6   5    6.82    1.07
  -2  -6  -5    6.16    0.81
   2   6   5    6.69    0.72
  -2  -6  -5   10.68    1.27
   3   6   5   88.33    2.92
   3   6   5   83.42    3.31
  -3  -6  -5   85.89    3.43
   4   6   5   76.69    3.06
   4   6   5   75.86    2.89
  -4  -6  -5   76.36    3.26
  -5  -6  -5   87.67    3.64
   5   6   5   78.32    3.20
   5   6   5   85.42    3.33
  -6  -6  -5   11.51    1.60
   6   6   5   11.49    1.32
   6   6   5    9.84    1.40
  -7  -6  -5    1.02    0.78
   7   6   5    2.06    0.90
  -8  -6  -5    3.76    1.13
   8   6   5    5.26    1.34
   9   6   5    3.74    1.39
  -9  -6  -5    1.69    1.17
   5  -7  -5   -0.62    1.04
   4  -7  -5    8.09    1.61
  -4   7   5    5.96    1.45
   3  -7  -5   44.99    2.71
  -3   7   5   42.67    2.51
  -3   7   5   39.46    2.65
  -2   7   5    0.30    0.76
  -2   7   5    0.59    0.68
   2  -7  -5    0.42    0.69
  -1   7   5   26.31    2.06
   1  -7  -5   26.22    1.83
  -1   7   5   28.69    1.96
   0  -7  -5   13.49    1.31
   0   7   5   15.95    1.65
   0  -7  -5   14.15    1.57
  -1  -7  -5  180.05    5.14
   1   7   5  177.91    5.82
  -1  -7  -5  185.25    5.90
   2   7   5   50.16    2.59
  -2  -7  -5   45.22    2.50
   3   7   5  328.63    8.29
   3   7   5  324.96    9.01
  -3  -7  -5  324.15    9.13
  -4  -7  -5   87.37    3.72
   4   7   5   86.38    3.53
   4   7   5   86.52    3.23
  -5  -7  -5   24.90    2.05
   5   7   5   29.36    1.99
   5   7   5   27.07    1.82
   6   7   5    8.28    1.30
  -6  -7  -5    9.52    1.54
   6   7   5    9.14    1.35
   7   7   5   12.18    1.63
  -7  -7  -5   10.43    1.67
  -8  -7  -5   14.59    2.09
   8   7   5   15.08    1.94
  -4   8   5    9.37    1.85
   4  -8  -5    8.51    1.79
   3  -8  -5   26.98    2.44
  -3   8   5   27.66    2.50
  -2   8   5    3.18    1.03
   2  -8  -5    4.40    1.17
  -2   8   5    3.18    1.09
   1  -8  -5    1.41    0.82
  -1   8   5    1.25    0.83
  -1   8   5    1.23    0.75
   0   8   5    7.12    1.32
   0  -8  -5    8.26    1.39
   1   8   5   71.21    3.33
  -1  -8  -5   73.25    3.45
  -2  -8  -5   69.14    3.30
   2   8   5   63.73    3.16
  -3  -8  -5   14.74    1.72
   3   8   5   15.32    1.74
   4   8   5   23.13    1.86
  -4  -8  -5   20.50    1.94
   4   8   5   24.18    1.66
   5   8   5    1.63    0.93
   5   8   5    0.45    0.61
  -5  -8  -5    0.22    0.80
   6   8   5   13.87    1.63
  -6  -8  -5   18.98    1.98
   6   8   5   14.63    1.79
   7   8   5    2.39    0.91
  -7  -8  -5    1.79    1.03
   8   8   5   10.32    1.77
  -8  -8  -5    9.66    1.83
   3  -9  -5    3.80    1.33
  -2   9   5   34.42    2.39
  -2   9   5   24.56    2.46
  -1   9   5    3.93    1.19
   1  -9  -5    3.55    1.07
   0  -9  -5   59.12    3.21
   0   9   5   66.13    3.32
   1   9   5    0.44    0.66
  -1  -9  -5    0.46    0.70
  -2  -9  -5    0.71    0.67
   2   9   5    0.49    0.61
  -3  -9  -5   -0.46    0.56
   3   9   5   -0.41    0.63
  -4  -9  -5   13.43    1.79
   4   9   5   12.05    1.73
   5   9   5   20.60    2.14
   5   9   5   17.41    1.71
  -5  -9  -5   20.99    2.17
   6   9   5    5.47    1.25
   6   9   5    5.99    1.26
  -6  -9  -5    6.35    1.46
   7   9   5    3.07    1.00
  -7  -9  -5    4.79    1.43
   7   9   5    6.21    1.44
   8   9   5    1.89    1.22
   1 -10  -5    3.62    1.20
  -1  10   5    5.22    1.25
   0  10   5   17.22    2.09
   0 -10  -5   15.13    2.00
   1  10   5   14.22    1.94
  -1 -10  -5   15.56    1.93
   2  10   5    0.60    0.75
  -2 -10  -5    0.28    0.75
   3  10   5   18.83    2.18
  -3 -10  -5   16.27    2.04
   4  10   5    4.24    1.22
  -4 -10  -5    3.11    1.09
  -5 -10  -5    3.58    1.17
   5  10   5    4.05    1.30
   6  10   5    0.25    0.84
  -6 -10  -5    0.13    1.04
   7  10   5    2.55    1.21
   7  10   5    3.33    1.36
   0  11   5    6.63    1.70
  -1 -11  -5   27.67    2.70
   1  11   5   26.66    2.75
   2  11   5   -1.70    0.90
  -2 -11  -5   -0.89    0.91
  -3 -11  -5    8.95    1.79
   3  11   5    6.95    1.70
   4  11   5    3.10    1.40
  -4 -11  -5    2.61    1.25
  -1  -8   6    1.99    1.20
   0   8  -6    1.28    1.28
   0  -8   6    0.81    1.09
   4   7  -6    0.27    1.05
  -3  -7   6    3.41    1.28
   3   7  -6    0.74    0.99
  -2  -7   6   -0.04    0.87
   2   7  -6    2.15    1.03
   1   7  -6   19.15    2.17
  -1  -7   6   19.58    2.24
   0  -7   6   22.19    2.28
   0   7  -6   24.07    2.43
  -1   7  -6    3.92    1.25
   2  -7   6   -0.25    0.76
   3  -7   6    0.31    0.99
  -3   7  -6    0.93    1.03
   5   6  -6   -0.98    0.87
  -5  -6   6    0.99    0.89
   4   6  -6    0.89    0.85
  -4  -6   6    2.01    0.89
  -3  -6   6    0.63    0.80
   3   6  -6    1.61    0.89
   2   6  -6    1.22    0.83
  -2  -6   6    1.79    0.91
   1   6  -6    5.55    1.23
  -1  -6   6    5.38    1.28
   0   6  -6    4.25    1.02
   0  -6   6    5.02    1.17
  -1   6  -6    2.83    1.00
  -1   6  -6    1.54    0.89
   1  -6   6    1.27    0.81
  -2   6  -6    1.98    0.92
   2  -6   6    2.08    0.92
   3  -6   6   12.43    1.78
  -3   6  -6   12.40    1.77
  -4   6  -6   28.08    2.53
   4  -6   6   24.76    2.44
   5  -6   6    8.87    1.77
   6   5  -6    0.27    0.96
  -6  -5   6    0.53    0.93
   5   5  -6    6.19    1.41
  -5  -5   6    4.44    1.19
   4   5  -6    5.96    1.33
  -4  -5   6    3.97    1.11
  -3  -5   6    3.46    1.02
   3   5  -6    2.17    0.95
  -2  -5   6    8.52    1.47
   2   5  -6    7.15    1.34
  -1  -5   6   22.61    1.82
   1   5  -6   22.49    2.02
   0  -5   6    0.06    0.63
   0   5  -6    0.93    0.65
   0   5  -6    0.04    0.58
  -1   5  -6   28.36    2.06
  -1   5  -6   27.20    1.95
   1  -5   6   25.62    1.83
   2  -5   6    5.11    1.12
  -2   5  -6    4.57    1.11
   3  -5   6   25.83    2.24
  -3   5  -6   27.01    2.32
  -4   5  -6   16.40    2.00
   4  -5   6   18.92    2.03
   5  -5   6    8.43    1.51
  -5   5  -6    3.68    1.23
   6  -5   6   23.05    2.48
  -7  -4   6    3.76    1.34
   7   4  -6    1.07    1.18
  -6  -4   6    3.83    1.20
   6   4  -6    5.40    1.25
   5   4  -6    5.48    1.28
  -5  -4   6    5.18    1.21
   4   4  -6    0.39    0.81
  -4  -4   6    1.73    0.82
   3   4  -6    0.45    0.76
  -3  -4   6    0.19    0.68
   2   4  -6    1.52    0.83
  -2  -4   6    1.27    0.71
   2   4  -6    3.36    0.74
  -1  -4   6   17.43    1.69
   1   4  -6   16.95    1.48
   1   4  -6   18.71    1.76
   0   4  -6   -0.55    0.52
   0  -4   6   -0.69    0.53
   0   4  -6    0.64    0.59
  -1   4  -6   10.60    1.38
   1  -4   6   11.58    1.33
  -1   4  -6   10.21    1.39
   2  -4   6    8.30    1.12
   2  -4   6    5.09    1.14
  -2   4  -6    7.73    1.25
   3  -4   6   27.53    2.07
  -3   4  -6   29.51    2.14
   4  -4   6    9.46    1.43
  -4   4  -6    6.93    1.39
   5  -4   6    0.81    0.80
  -5   4  -6    2.17    0.97
  -6   4  -6    5.68    1.36
   6  -4   6    5.61    1.31
   7  -4   6    0.18    0.89
   6   3  -6    2.58    1.05
  -6  -3   6    2.34    0.97
   5   3  -6    0.54    0.82
  -5  -3   6    1.98    0.88
  -4  -3   6    2.10    0.85
   4   3  -6   -0.51    0.72
   3   3  -6   15.08    1.58
  -3  -3   6   15.27    1.67
   3   3  -6   14.01    1.31
   2   3  -6    9.90    1.12
   2   3  -6   11.13    1.35
  -2  -3   6   10.84    1.40
  -1  -3   6   54.61    2.60
   1   3  -6   46.60    2.26
   1   3  -6   46.59    2.41
   0   3  -6  171.51    5.50
   0   3  -6  185.46    5.50
  -1   3  -6   21.99    1.58
  -1   3  -6   23.42    1.64
   1  -3   6   16.19    1.31
   2  -3   6  341.62    8.90
  -2   3  -6  353.07    9.44
   2  -3   6  346.61    9.36
   3  -3   6   17.06    1.69
  -3   3  -6   17.48    1.73
   4  -3   6  245.19    7.53
  -4   3  -6  259.00    7.83
   5  -3   6   32.15    2.25
  -5   3  -6   27.53    2.22
  -6   3  -6   31.33    2.39
   6  -3   6   36.95    2.44
   7  -3   6   19.93    2.13
  -7   3  -6   10.24    1.81
  -6  -2   6    0.41    0.72
   5   2  -6    1.33    0.84
  -5  -2   6    1.25    0.82
   4   2  -6   14.47    1.55
  -4  -2   6   15.46    1.66
   4   2  -6   15.85    1.49
   3   2  -6    6.20    1.13
  -3  -2   6    4.80    1.08
   3   2  -6    6.86    1.07
   2   2  -6   26.50    1.61
  -2  -2   6   22.69    1.65
   2   2  -6   22.16    1.55
   1   2  -6    7.84    0.99
  -1  -2   6    6.95    1.06
   1   2  -6    6.33    0.97
   0  -2   6   15.04    1.37
   0   2  -6   17.13    1.30
   0   2  -6   11.61    1.24
   1  -2   6   20.17    1.37
  -1   2  -6   21.02    1.50
  -1   2  -6   20.76    1.50
   2  -2   6  167.68    4.87
  -2   2  -6  168.37    5.30
   2  -2   6  168.89    5.25
  -3   2  -6   31.57    1.99
   3  -2   6   30.67    1.91
   4  -2   6    0.76    0.61
  -4   2  -6   -0.19    0.57
   5  -2   6    7.60    1.34
  -5   2  -6    6.57    1.28
   6  -2   6   12.23    1.68
  -6   2  -6   11.74    1.66
   7  -2   6   11.50    1.72
  -7   2  -6    9.26    1.57
  -7   2  -6    9.99    1.59
  -8   2  -6    0.14    0.99
   8  -2   6    0.92    1.05
   6   1  -6    0.28    0.74
  -6  -1   6    0.97    0.73
  -5  -1   6    0.08    0.62
   5   1  -6    1.24    0.76
  -4  -1   6   44.90    2.51
   4   1  -6   47.96    2.50
   4   1  -6   44.89    2.31
   3   1  -6   35.31    1.92
   3   1  -6   36.02    2.04
  -3  -1   6   34.89    2.14
   2   1  -6   19.65    1.34
  -2  -1   6   15.69    1.46
   2   1  -6   18.72    1.40
   1   1  -6  135.54    4.21
  -1  -1   6  127.36    4.21
   1   1  -6  127.34    4.03
   0  -1   6   27.11    1.58
   0   1  -6   30.73    1.63
   0   1  -6   26.50    1.56
   1  -1   6   76.19    2.80
  -1   1  -6   76.07    2.88
  -1   1  -6   81.59    3.01
   2  -1   6   23.53    1.35
  -2   1  -6   24.03    1.60
   2  -1   6   24.28    1.52
  -3   1  -6  117.70    3.39
   3  -1   6  112.54    3.94
   3  -1   6  112.37    3.40
  -3   1  -6  115.19    4.07
  -4   1  -6   24.58    1.50
   4  -1   6   30.84    1.90
  -4   1  -6   27.39    1.87
  -5   1  -6    7.04    1.26
   5  -1   6    6.91    1.19
  -5   1  -6    6.95    1.05
  -6   1  -6    0.51    0.68
   6  -1   6   -0.15    0.65
  -6   1  -6    0.41    0.73
  -7   1  -6   37.30    2.53
   7  -1   6   40.92    2.57
  -7   1  -6   43.16    2.72
  -8   1  -6    9.06    1.61
  -8   1  -6    7.39    1.52
   8  -1   6    8.12    1.52
   7   0  -6    1.79    0.93
   6   0  -6    6.58    1.30
   5   0  -6    6.61    1.20
  -5   0   6    5.62    1.09
  -4   0   6    2.00    0.78
   4   0  -6    3.05    0.92
  -3   0   6  118.04    4.21
   3   0  -6  116.89    3.80
   3   0  -6  123.74    4.25
   2   0  -6   26.39    1.68
  -2   0   6   30.88    1.81
   2   0  -6   27.99    1.48
  -1   0   6  488.42   11.96
   1   0  -6  482.90   11.50
   1   0  -6  483.89   11.84
   0   0  -6   10.04    1.08
   0   0  -6   12.58    1.05
   0   0   6   12.12    1.12
  -1   0  -6  102.40    2.46
   1   0   6   96.37    3.21
  -1   0  -6  106.20    3.47
   1   0   6   99.20    3.26
  -2   0  -6   21.64    1.41
  -2   0  -6   21.64    0.94
   2   0   6   20.22    1.28
   2   0   6   20.39    1.21
  -3   0  -6  113.82    3.90
  -3   0  -6  114.00    3.36
   3   0   6  116.57    3.40
  -4   0  -6  127.14    3.93
  -4   0  -6  126.48    4.32
   4   0   6  127.06    4.23
  -5   0  -6    2.12    0.66
   5   0   6    3.08    0.87
  -5   0  -6    1.60    0.75
  -6   0  -6   29.88    2.06
  -6   0  -6   26.27    1.84
   6   0   6   24.99    1.88
   7   0   6    8.21    1.38
  -7   0  -6   12.16    1.63
  -7   0  -6   12.39    1.58
   8   0   6   20.61    2.18
  -8   0  -6   28.47    2.43
  -8   0  -6   25.15    2.27
  -9   0  -6    1.20    1.11
  -9   0  -6    0.41    1.14
   9   0   6    1.20    1.07
   7  -1  -6    2.48    1.00
   6  -1  -6    5.00    1.12
   5  -1  -6    2.56    0.88
  -5   1   6    0.45    0.84
  -5   1   6    2.40    0.83
  -4   1   6    4.81    1.01
  -4   1   6    5.53    1.03
   4  -1  -6    5.59    1.08
   3  -1  -6   20.36    1.67
  -3   1   6   20.49    1.56
  -3   1   6   17.76    1.36
   2  -1  -6   42.76    2.21
  -2   1   6   40.42    2.13
  -2   1   6   49.68    1.93
   2  -1  -6   47.30    1.80
  -1   1   6   10.17    1.10
   1  -1  -6   10.34    1.12
  -1   1   6   10.44    0.79
   1  -1  -6   10.58    0.84
   0  -1  -6   19.23    1.09
   0  -1  -6   18.44    0.85
   0  -1  -6   16.56    1.25
   0   1   6   19.64    1.31
   1   1   6   16.37    1.17
  -1  -1  -6   18.56    1.27
   1   1   6   17.17    1.05
  -1  -1  -6   17.21    0.84
   2   1   6  152.64    4.27
  -2  -1  -6  145.02    3.85
   2   1   6  147.50    4.25
  -3  -1  -6   20.59    1.13
  -3  -1  -6   15.96    1.23
   3   1   6   18.49    1.26
   3   1   6   18.29    1.09
  -4  -1  -6  562.50   13.33
   4   1   6  538.15   13.52
   4   1   6  571.59   12.82
  -4  -1  -6  566.34   13.58
  -5  -1  -6  127.35    4.35
  -5  -1  -6  135.88    4.32
   5   1   6  127.45    4.40
  -6  -1  -6   43.33    2.39
  -6  -1  -6   47.43    2.48
   6   1   6   42.20    2.44
  -7  -1  -6   24.53    1.94
  -7  -1  -6   25.27    2.13
   7   1   6   23.89    1.90
   8   1   6    1.09    0.87
  -8  -1  -6    0.96    0.86
  -8  -1  -6    0.92    0.82
   9   1   6    1.12    1.09
  -9  -1  -6    2.29    1.12
  -7   2   6    1.57    1.19
   7  -2  -6    1.44    1.05
   6  -2  -6    1.00    0.77
  -6   2   6   -0.27    0.84
  -5   2   6    7.55    1.18
   5  -2  -6    6.51    1.30
  -5   2   6    6.54    1.31
  -4   2   6    0.21    0.56
   4  -2  -6   -0.07    0.56
  -4   2   6    0.38    0.69
  -3   2   6   57.60    2.60
   3  -2  -6   64.32    2.87
  -3   2   6   57.50    2.62
  -2   2   6   71.39    2.99
   2  -2  -6   81.45    3.18
  -2   2   6   84.81    2.93
   1  -2  -6    0.46    0.56
   1  -2  -6    0.16    0.29
  -1   2   6   -0.31    0.40
  -1   2   6   -0.04    0.46
   0  -2  -6  129.92    3.55
   0   2   6  128.74    3.36
   0   2   6  124.28    3.95
   0  -2  -6  120.05    3.97
  -1  -2  -6  307.43    7.37
   1   2   6  301.79    7.76
   1   2   6  306.48    7.29
  -1  -2  -6  296.50    7.78
   2   2   6  371.92    8.97
  -2  -2  -6  377.33    9.25
  -2  -2  -6  371.22    8.96
   2   2   6  374.40    9.16
  -3  -2  -6  579.60   13.77
   3   2   6  588.70   13.67
   3   2   6  598.32   13.87
  -3  -2  -6  595.47   13.92
   4   2   6  102.18    3.07
   4   2   6  101.51    3.51
  -4  -2  -6  103.79    3.48
  -4  -2  -6  101.32    3.39
  -5  -2  -6  174.52    5.09
   5   2   6  174.63    5.26
  -5  -2  -6  149.76    5.03
   6   2   6   58.00    2.83
  -6  -2  -6   58.47    2.79
  -6  -2  -6   55.94    2.66
  -7  -2  -6   22.74    1.79
   7   2   6   23.30    2.10
  -7  -2  -6   23.44    2.09
   8   2   6    7.56    1.47
  -8  -2  -6    5.70    1.31
   9   2   6   13.75    2.02
  -9  -2  -6   10.67    1.78
  -7   3   6    0.16    1.18
   6  -3  -6    2.23    0.90
  -6   3   6    1.21    1.05
   5  -3  -6    0.88    0.75
  -5   3   6   -0.47    0.85
  -4   3   6   31.69    2.15
  -4   3   6   30.93    1.91
   4  -3  -6   30.50    2.09
  -3   3   6   26.29    1.78
   3  -3  -6   22.17    1.75
  -3   3   6   21.51    1.58
   2  -3  -6    7.95    1.17
  -2   3   6   10.46    1.14
  -2   3   6    9.18    1.16
   1  -3  -6   17.97    1.42
  -1   3   6   17.80    1.31
  -1   3   6   16.49    1.22
   0   3   6    7.39    0.98
   0   3   6   10.35    0.58
   0  -3  -6    9.22    1.06
   1   3   6  243.88    5.83
   1   3   6  245.00    6.53
  -1  -3  -6  236.46    6.21
  -1  -3  -6  237.37    6.42
   2   3   6    8.93    0.78
  -2  -3  -6   10.83    0.94
  -2  -3  -6    9.35    0.97
   2   3   6   11.58    1.07
  -3  -3  -6  167.12    4.75
  -3  -3  -6  163.60    4.65
   3   3   6  156.53    4.55
   3   3   6  159.79    4.57
   4   3   6   50.93    2.05
  -4  -3  -6   54.65    2.34
   4   3   6   50.28    2.22
  -4  -3  -6   49.84    2.13
  -5  -3  -6    8.67    1.17
   5   3   6    5.69    1.01
  -5  -3  -6   10.30    1.06
  -6  -3  -6  253.81    7.13
  -6  -3  -6  260.52    7.61
   6   3   6  262.46    7.58
  -7  -3  -6   43.84    2.70
   7   3   6   41.23    2.58
   8   3   6    9.99    1.63
  -8  -3  -6   12.95    1.84
   9   3   6    0.42    1.01
  -9  -3  -6    0.03    1.03
  -6   4   6    1.20    1.01
   6  -4  -6    1.72    1.04
  -5   4   6    0.99    0.87
   5  -4  -6    2.43    0.89
  -4   4   6   16.01    1.54
   4  -4  -6   14.54    1.71
  -4   4   6   15.45    1.79
   3  -4  -6   10.02    1.40
  -3   4   6    8.60    1.31
  -3   4   6   10.96    1.28
   2  -4  -6    2.38    0.82
  -2   4   6    1.97    0.76
  -2   4   6    1.75    0.70
   1  -4  -6  239.66    6.75
  -1   4   6  229.32    6.66
  -1   4   6  244.42    6.78
   0   4   6  197.40    5.83
   0  -4  -6  202.24    5.72
  -1  -4  -6  530.08   12.70
  -1  -4  -6  523.94   12.55
   1   4   6  527.49   11.76
   1   4   6  522.79   12.82
   2   4   6  126.21    3.48
  -2  -4  -6  127.49    3.83
  -2  -4  -6  119.48    3.90
   2   4   6  125.50    4.01
   3   4   6   -0.11    0.34
  -3  -4  -6    0.10    0.39
  -3  -4  -6    0.47    0.47
   3   4   6    0.59    0.45
   4   4   6   26.54    1.55
   4   4   6   23.65    1.44
  -4  -4  -6   26.67    1.67
  -4  -4  -6   26.69    1.38
   5   4   6   20.70    1.54
  -5  -4  -6   21.86    1.63
  -5  -4  -6   22.09    1.34
   5   4   6   19.97    1.29
  -6  -4  -6  171.32    5.73
   6   4   6  173.31    5.69
   7   4   6    0.58    0.76
  -7  -4  -6    2.01    0.91
  -8  -4  -6   47.91    3.02
   8   4   6   52.91    3.08
   9   4   6    2.30    1.29
  -9  -4  -6    0.85    1.05
  -6   5   6   10.09    1.98
   5  -5  -6    0.88    0.92
  -5   5   6    1.52    1.07
  -4   5   6   18.43    1.68
  -4   5   6   21.97    2.10
   4  -5  -6   20.13    2.05
  -3   5   6   36.75    2.12
   3  -5  -6   39.09    2.40
  -3   5   6   40.85    2.47
   2  -5  -6   41.73    2.36
  -2   5   6   47.77    2.55
  -2   5   6   48.22    2.36
  -1   5   6    1.88    0.72
   1  -5  -6    0.33    0.62
  -1   5   6    1.85    0.67
   0  -5  -6   44.76    2.18
   0   5   6   44.88    2.26
   0  -5  -6   43.30    2.09
  -1  -5  -6   20.46    1.47
  -1  -5  -6   22.37    1.45
   1   5   6   19.46    1.50
   2   5   6  229.01    6.61
  -2  -5  -6  231.08    6.60
  -2  -5  -6  242.45    6.24
   2   5   6  235.84    5.85
  -3  -5  -6    4.04    0.67
  -3  -5  -6    3.65    0.85
   3   5   6    3.90    0.67
   3   5   6    3.82    0.84
   4   5   6   94.72    3.42
   4   5   6  102.34    3.42
  -4  -5  -6   95.65    3.65
  -5  -5  -6    5.78    1.15
   5   5   6    4.23    0.93
   5   5   6    4.58    0.84
   6   5   6    3.43    1.02
  -6  -5  -6    4.45    1.12
   7   5   6    0.22    0.82
  -7  -5  -6   -0.50    0.73
  -8  -5  -6   33.34    2.61
   8   5   6   37.83    2.69
   9   5   6   11.17    1.99
  -9  -5  -6   13.00    2.11
  -5   6   6    6.31    1.59
   5  -6  -6    5.50    1.45
  -4   6   6   26.02    2.43
   4  -6  -6   28.26    2.42
   3  -6  -6    0.86    0.82
  -3   6   6    3.05    1.01
  -3   6   6    3.47    0.94
  -2   6   6   25.68    1.87
   2  -6  -6   22.43    1.82
  -2   6   6   25.29    2.17
  -1   6   6   23.79    1.86
   1  -6  -6   22.26    1.70
  -1   6   6   25.40    1.82
   0  -6  -6   10.99    1.35
   0   6   6    9.53    1.32
   0  -6  -6   11.56    1.26
  -1  -6  -6   25.69    1.56
   1   6   6   27.85    1.83
  -1  -6  -6   23.67    1.74
  -2  -6  -6  571.69   14.27
   2   6   6  562.18   14.22
  -2  -6  -6  583.98   13.51
  -3  -6  -6  123.15    4.39
   3   6   6  127.88    3.77
   3   6   6  119.82    4.28
   4   6   6   87.99    3.46
   4   6   6   89.80    3.20
  -4  -6  -6   92.18    3.69
   5   6   6   38.55    2.09
   5   6   6   38.34    2.11
  -5  -6  -6   37.07    2.33
   6   6   6    1.24    0.74
  -6  -6  -6    3.14    1.06
   6   6   6    1.26    0.77
  -7  -6  -6   20.44    2.12
   7   6   6   23.05    2.13
   8   6   6    0.44    0.88
  -8  -6  -6    0.19    0.85
  -9  -6  -6    2.14    1.28
   9   6   6    1.04    1.16
  -4   7   6    2.32    1.15
   4  -7  -6    2.41    1.15
  -3   7   6    1.11    0.77
  -3   7   6   -0.34    0.78
   3  -7  -6   -0.12    0.72
  -2   7   6   -0.23    0.68
   2  -7  -6   -0.11    0.70
  -2   7   6   -0.27    0.66
  -1   7   6    2.17    0.90
   1  -7  -6    2.97    0.90
  -1   7   6    3.19    0.99
   0  -7  -6  113.97    4.40
   0   7   6  108.16    4.34
   0  -7  -6  116.60    4.04
   1   7   6  289.20    8.51
  -1  -7  -6  296.70    7.82
  -1  -7  -6  299.62    8.55
  -2  -7  -6   73.77    3.34
   2   7   6   71.16    3.25
   3   7   6  166.48    5.62
  -3  -7  -6  172.26    5.73
  -4  -7  -6   24.01    2.02
   4   7   6   22.77    1.52
   4   7   6   22.57    1.72
  -5  -7  -6   15.08    1.79
   5   7   6   17.23    1.68
   5   7   6   15.61    1.49
  -6  -7  -6    3.16    1.08
   6   7   6    1.61    0.84
   6   7   6    1.62    0.79
   7   7   6   23.03    2.11
  -7  -7  -6   18.59    2.10
  -8  -7  -6    4.97    1.49
   8   7   6    4.04    1.18
   4  -8  -6    0.56    1.04
  -3   8   6   28.67    2.66
   3  -8  -6   31.37    2.58
   2  -8  -6   -1.08    0.69
  -2   8   6    1.59    0.83
  -2   8   6    1.09    0.82
  -1   8   6   72.21    3.49
   1  -8  -6   66.80    3.20
   0  -8  -6    1.16    0.86
   0   8   6    1.41    0.82
   1   8   6    3.99    1.01
  -1  -8  -6    1.84    0.89
  -2  -8  -6    9.92    1.50
   2   8   6    9.34    1.44
  -3  -8  -6   37.21    2.41
   3   8   6   36.80    2.35
  -4  -8  -6   21.80    2.03
   4   8   6   21.12    1.98
   5   8   6   12.27    1.37
  -5  -8  -6    9.83    1.57
   5   8   6    8.67    1.46
   6   8   6   18.74    1.91
  -6  -8  -6   13.44    1.81
   6   8   6   16.92    1.75
   7   8   6    0.07    0.81
  -7  -8  -6    1.68    0.91
  -8  -8  -6    9.57    1.81
   8   8   6    8.00    1.64
   3  -9  -6   28.85    2.66
  -2   9   6    9.90    1.62
  -2   9   6    6.83    1.69
   2  -9  -6    5.73    1.50
   1  -9  -6   26.59    2.42
  -1   9   6   24.97    2.39
   0   9   6   26.50    2.11
   0  -9  -6   23.33    2.21
  -1  -9  -6    2.69    0.93
   1   9   6    2.75    0.97
   2   9   6   26.98    2.37
  -2  -9  -6   23.18    2.19
  -3  -9  -6    8.72    1.47
   3   9   6    6.57    1.47
   4   9   6   12.48    1.75
  -4  -9  -6    9.64    1.56
  -5  -9  -6    2.86    1.11
   5   9   6    6.16    1.30
  -6  -9  -6   14.89    2.00
   6   9   6   11.97    1.57
   6   9   6   14.38    1.87
  -7  -9  -6    4.15    1.39
   7   9   6    4.70    1.23
   8   9   6   -0.26    0.92
  -1  10   6   14.51    2.08
   1 -10  -6   12.42    1.92
   0  10   6   30.10    2.39
   0 -10  -6   30.38    2.67
  -1 -10  -6    4.00    1.15
   1  10   6    6.16    1.38
  -2 -10  -6   13.26    1.90
   2  10   6   11.92    1.83
  -3 -10  -6   12.45    1.80
   3  10   6   12.88    1.84
  -4 -10  -6    1.03    0.89
   4  10   6    1.99    1.04
  -5 -10  -6   32.83    2.57
   5  10   6   30.09    2.66
   6  10   6    0.22    0.97
  -6 -10  -6    0.71    0.95
   7  10   6    2.27    1.23
   1  11   6   10.42    2.04
   2  11   6    1.21    1.10
  -2 -11  -6    0.91    0.96
  -3 -11  -6   30.40    2.84
   3  11   6   32.51    3.03
  -4 -11  -6    0.71    1.13
   4  11   6    2.84    1.43
  -2  -7   7    2.30    1.29
   2   7  -7    2.81    1.30
   1   7  -7    1.25    1.05
  -1  -7   7    0.34    0.89
   0   7  -7   -0.03    1.02
   0  -7   7    1.13    0.94
  -1   7  -7    1.26    1.09
   2  -7   7    3.41    1.28
   4   6  -7    1.66    1.14
  -4  -6   7    0.07    0.93
  -3  -6   7    0.83    0.90
   3   6  -7    1.61    1.00
   2   6  -7    1.27    0.84
  -2  -6   7    2.25    0.94
  -1  -6   7    1.46    0.99
   1   6  -7    0.94    0.88
   0  -6   7    1.25    0.80
   0   6  -7    1.75    0.93
   1  -6   7    3.50    1.07
  -1   6  -7    4.34    1.05
  -1   6  -7    2.69    1.04
   2  -6   7   15.94    2.05
  -2   6  -7   19.07    2.09
   3  -6   7    0.58    0.94
  -3   6  -7    1.09    0.92
  -4   6  -7    3.76    1.43
   4  -6   7    1.49    1.19
  -5  -5   7    0.76    0.96
   5   5  -7    1.65    1.03
  -4  -5   7    0.14    0.76
   4   5  -7    1.57    0.93
  -3  -5   7    2.29    1.01
   3   5  -7    0.87    0.84
   2   5  -7    2.00    0.88
  -2  -5   7    5.12    1.25
   1   5  -7   -0.61    0.70
  -1  -5   7    0.78    0.71
   0   5  -7    1.13    0.74
   0  -5   7   -0.01    0.69
   0   5  -7    1.43    0.78
  -1   5  -7    2.13    0.85
  -1   5  -7    0.11    0.71
   1  -5   7    0.66    0.73
  -2   5  -7   14.78    1.80
   2  -5   7   11.11    1.63
   3  -5   7    6.18    1.31
  -3   5  -7    5.76    1.28
  -4   5  -7    3.15    1.04
   4  -5   7    2.15    1.02
   5  -5   7    1.76    1.06
  -5   5  -7    1.39    1.21
   6   4  -7    1.23    1.11
  -6  -4   7    1.02    0.96
  -5  -4   7    0.97    0.76
   5   4  -7    2.14    1.00
   4   4  -7   -0.09    0.80
  -4  -4   7    1.03    0.85
   3   4  -7   -0.31    0.74
  -3  -4   7    1.12    0.71
  -2  -4   7   18.84    1.95
   2   4  -7   16.37    1.80
   1   4  -7   11.03    1.34
  -1  -4   7   11.25    1.52
   1   4  -7   13.57    1.67
   0   4  -7    0.33    0.63
   0   4  -7    0.51    0.74
   0  -4   7   -0.48    0.59
  -1   4  -7   13.43    1.60
  -1   4  -7   13.24    1.70
   1  -4   7   15.30    1.56
   2  -4   7   15.12    1.50
  -2   4  -7   14.93    1.74
   2  -4   7   18.22    1.86
   3  -4   7   54.80    2.99
  -3   4  -7   50.97    2.97
  -4   4  -7   18.14    2.00
   4  -4   7   13.48    1.81
  -5   4  -7    5.71    1.36
   5  -4   7    6.13    1.37
   6  -4   7   15.79    2.13
  -6   4  -7   16.67    2.28
  -6  -3   7    0.13    0.81
   5   3  -7    0.29    0.95
  -5  -3   7    1.44    0.74
  -4  -3   7    2.15    1.00
   4   3  -7    3.75    1.10
  -3  -3   7   10.82    1.58
   3   3  -7   11.56    1.59
  -2  -3   7    0.96    0.72
   2   3  -7    1.07    0.65
   2   3  -7    1.45    0.78
   1   3  -7   48.78    2.62
  -1  -3   7   53.57    2.74
   1   3  -7   52.91    2.52
   0   3  -7    5.06    1.02
   0  -3   7    5.03    1.06
   0   3  -7    5.02    1.01
  -1   3  -7  110.01    4.22
   1  -3   7  105.19    3.97
  -1   3  -7  121.64    4.28
  -2   3  -7   50.87    2.67
   2  -3   7   43.78    2.27
   2  -3   7   46.97    2.60
  -3   3  -7    0.39    0.73
   3  -3   7    1.46    0.80
  -4   3  -7    7.17    1.42
   4  -3   7    8.30    1.43
   5  -3   7    0.16    0.70
  -5   3  -7    0.79    0.81
   6  -3   7   13.87    1.88
  -6   3  -7   14.30    1.95
  -7   3  -7    1.01    0.91
   7  -3   7    1.04    0.98
  -6  -2   7    1.09    0.95
  -5  -2   7    3.91    1.11
   4   2  -7    1.24    0.72
  -4  -2   7    2.00    0.90
   4   2  -7    0.19    0.71
   3   2  -7    8.54    1.26
  -3  -2   7   11.39    1.52
   3   2  -7    7.85    1.24
   2   2  -7    1.24    0.65
  -2  -2   7    0.50    0.59
   2   2  -7   -0.18    0.59
   1   2  -7    0.80    0.57
   1   2  -7   -0.82    0.47
  -1  -2   7    0.23    0.59
   0   2  -7   -0.11    0.54
   0   2  -7   -0.31    0.44
   0  -2   7   -0.55    0.51
  -1   2  -7   19.97    1.67
   1  -2   7   16.21    1.47
  -1   2  -7   18.13    1.63
   2  -2   7   26.39    1.64
  -2   2  -7   26.13    1.85
   2  -2   7   31.25    1.97
   3  -2   7  153.69    5.20
  -3   2  -7  151.77    5.28
   4  -2   7    0.64    0.69
  -4   2  -7    0.19    0.70
   5  -2   7    3.61    1.04
  -5   2  -7    3.30    1.03
  -6   2  -7   23.63    2.32
   6  -2   7   25.04    2.22
   7  -2   7   23.85    2.33
  -7   2  -7   23.81    2.44
   8  -2   7   -0.47    0.94
  -6  -1   7    4.33    1.16
  -5  -1   7    1.04    0.77
   5   1  -7    1.44    0.82
  -4  -1   7   47.96    2.74
   4   1  -7   46.36    2.52
   4   1  -7   50.27    2.67
   3   1  -7   72.45    3.15
   3   1  -7   73.88    3.05
  -3  -1   7   67.84    3.25
   2   1  -7   54.57    2.51
   2   1  -7   56.13    2.67
  -2  -1   7   54.35    2.75
  -1  -1   7    9.34    1.27
   1   1  -7   13.00    1.27
   0   1  -7   48.38    2.31
   0   1  -7   58.10    2.54
   1  -1   7    3.47    0.82
  -1   1  -7    1.42    0.70
  -1   1  -7    1.41    0.61
   2  -1   7   44.78    2.24
   2  -1   7   44.43    2.07
  -2   1  -7   46.04    2.34
   3  -1   7   64.05    2.85
  -3   1  -7   63.08    2.99
   3  -1   7   63.26    2.42
   4  -1   7    1.37    0.63
  -4   1  -7    0.83    0.76
  -5   1  -7   15.30    1.73
   5  -1   7   14.90    1.68
   6  -1   7    0.71    0.72
  -6   1  -7    0.33    0.73
   7  -1   7   20.92    2.11
  -7   1  -7   24.35    2.34
  -8   1  -7    0.41    0.93
   8  -1   7    0.43    0.93
   6   0  -7    4.82    1.25
   5   0  -7    6.71    1.34
  -5   0   7    4.52    1.12
   4   0  -7   25.31    1.93
  -4   0   7   25.99    1.94
   3   0  -7    1.42    0.77
  -3   0   7    1.50    0.72
   3   0  -7    1.09    0.57
   2   0  -7    2.74    0.70
   2   0  -7    3.13    0.90
  -2   0   7    3.30    0.89
   1   0  -7   13.60    1.39
  -1   0   7   12.72    1.36
   1   0  -7   13.43    1.16
   0   0   7    1.14    0.57
   0   0  -7    0.94    0.50
   0   0  -7    1.45    0.66
  -1   0  -7   58.89    2.68
   1   0   7   70.82    2.69
   1   0   7   70.31    2.64
   2   0   7   23.09    1.42
   2   0   7   25.11    1.54
  -2   0  -7   20.74    1.53
   3   0   7  249.29    6.52
  -3   0  -7  247.20    7.15
   3   0   7  246.40    6.92
   4   0   7   56.12    2.60
  -4   0  -7   55.57    2.74
  -5   0  -7    7.52    1.01
   5   0   7    7.51    1.19
  -5   0  -7    8.02    1.27
   6   0   7  103.59    4.24
  -6   0  -7  109.55    4.03
  -6   0  -7  106.46    4.37
  -7   0  -7    1.47    0.82
   7   0   7   -0.16    0.69
  -7   0  -7    0.07    0.70
  -8   0  -7    4.27    1.11
   8   0   7    0.20    0.86
  -8   0  -7    3.47    1.15
  -9   0  -7    5.04    1.60
  -9   0  -7    6.68    1.70
   7  -1  -7    0.79    1.04
   6  -1  -7    1.59    0.87
   5  -1  -7    0.48    0.77
  -5   1   7   -0.42    0.65
  -4   1   7   10.44    1.47
   4  -1  -7   11.10    1.57
   3  -1  -7   25.69    1.94
  -3   1   7   20.70    1.68
  -2   1   7    4.68    0.99
   2  -1  -7    4.19    0.71
   2  -1  -7    5.16    1.03
  -1   1   7    6.25    1.01
   1  -1  -7    5.93    1.04
   1  -1  -7    6.62    0.79
   0  -1  -7  261.67    6.68
   0  -1  -7  257.46    7.20
   1   1   7  153.23    4.64
  -1  -1  -7  153.42    4.75
   1   1   7  147.53    4.32
  -2  -1  -7  167.85    4.36
  -2  -1  -7  169.69    5.21
   2   1   7  170.97    4.94
   2   1   7  178.86    5.03
  -3  -1  -7  112.79    4.02
  -3  -1  -7  122.74    3.47
   3   1   7  123.39    3.94
   3   1   7  116.63    3.64
   4   1   7  168.33    5.20
  -4  -1  -7  163.60    5.28
  -4  -1  -7  167.96    4.80
   5   1   7    3.18    0.84
  -5  -1  -7    2.30    0.68
  -5  -1  -7    3.06    0.86
  -6  -1  -7  178.47    5.83
  -6  -1  -7  175.93    5.61
   6   1   7  170.58    5.80
  -7  -1  -7    2.59    0.96
   7   1   7    2.19    0.98
  -7  -1  -7    1.66    0.87
  -8  -1  -7   15.17    1.82
   8   1   7   12.75    1.82
  -8  -1  -7   15.66    1.86
  -9  -1  -7   17.80    2.23
   9   1   7   17.06    2.24
   6  -2  -7    1.81    0.84
   5  -2  -7    4.40    1.00
  -5   2   7    7.71    1.27
  -4   2   7    1.67    0.93
  -4   2   7    1.34    0.71
   4  -2  -7    0.38    0.72
   3  -2  -7   25.42    1.93
  -3   2   7   19.70    1.54
  -3   2   7   30.51    1.98
  -2   2   7   10.89    1.35
   2  -2  -7   14.52    1.58
  -2   2   7   14.93    1.25
  -1   2   7   73.19    3.06
  -1   2   7   75.41    2.62
   1  -2  -7   78.76    3.18
   0   2   7    1.02    0.54
   0  -2  -7    0.87    0.62
   0  -2  -7    1.12    0.40
   0   2   7    0.64    0.34
  -1  -2  -7    3.55    0.78
   1   2   7    5.52    0.67
   1   2   7    4.87    0.86
  -1  -2  -7    4.09    0.58
  -2  -2  -7  210.97    5.39
   2   2   7  200.47    5.50
  -2  -2  -7  205.19    5.84
   2   2   7  209.35    5.77
  -3  -2  -7  143.84    4.19
   3   2   7  151.52    4.41
  -3  -2  -7  147.55    4.63
   3   2   7  148.94    4.47
   4   2   7   48.34    2.26
   4   2   7   49.96    2.00
  -4  -2  -7   46.58    2.27
  -4  -2  -7   48.61    2.13
  -5  -2  -7  189.44    5.82
   5   2   7  197.63    5.97
  -5  -2  -7  192.06    5.74
   6   2   7   46.29    2.55
  -6  -2  -7   47.54    2.43
  -6  -2  -7   43.00    2.37
  -7  -2  -7   12.64    1.56
  -7  -2  -7   10.10    1.53
   7   2   7   10.54    1.55
   8   2   7    0.11    0.75
  -8  -2  -7    0.97    0.82
   9   2   7   13.17    2.06
  -9  -2  -7   13.95    2.06
   6  -3  -7    4.88    1.26
  -6   3   7    3.10    1.17
  -5   3   7    9.57    1.56
   5  -3  -7   12.98    1.73
  -4   3   7    0.93    0.83
   4  -3  -7    0.75    0.71
  -4   3   7    0.94    0.73
  -3   3   7    4.04    1.00
  -3   3   7    4.00    1.00
   3  -3  -7    4.00    1.00
  -2   3   7   84.20    3.26
   2  -3  -7   95.16    3.72
  -2   3   7   86.72    3.50
   1  -3  -7    0.65    0.64
  -1   3   7    0.31    0.54
  -1   3   7    0.70    0.55
   0  -3  -7   25.86    1.69
   0   3   7   23.13    1.56
   0  -3  -7   25.15    1.37
  -1  -3  -7  191.02    5.13
  -1  -3  -7  188.49    5.47
   1   3   7  180.03    5.46
   1   3   7  186.82    4.80
  -2  -3  -7    2.47    0.73
   2   3   7    3.21    0.60
  -2  -3  -7    2.53    0.64
   2   3   7    2.24    0.68
  -3  -3  -7    4.74    0.80
   3   3   7    6.34    0.90
   3   3   7    5.53    0.79
  -3  -3  -7    6.34    0.94
   4   3   7   23.60    1.41
   4   3   7   23.71    1.51
  -4  -3  -7   28.70    1.63
  -4  -3  -7   24.93    1.56
  -5  -3  -7  136.73    4.43
  -5  -3  -7  139.68    4.60
   5   3   7  138.72    4.63
  -6  -3  -7   45.86    2.51
  -6  -3  -7   44.58    2.33
   6   3   7   45.91    2.52
  -7  -3  -7  134.60    5.09
   7   3   7  135.81    5.08
  -8  -3  -7    9.78    1.65
   8   3   7    8.63    1.51
   9   3   7    3.46    1.31
  -9  -3  -7    5.22    1.52
  -6   4   7    0.31    1.18
   5  -4  -7   13.64    1.81
  -5   4   7   15.64    1.94
  -4   4   7   17.25    1.83
  -4   4   7   14.96    1.62
   4  -4  -7   13.43    1.71
   3  -4  -7   46.70    2.69
  -3   4   7   50.09    2.70
  -3   4   7   46.30    2.50
   2  -4  -7   48.32    2.57
  -2   4   7   42.70    2.34
  -2   4   7   45.96    2.41
  -1   4   7   85.76    3.42
  -1   4   7   86.35    3.28
   1  -4  -7   83.94    3.42
   0  -4  -7   91.50    3.49
   0  -4  -7   90.75    3.21
   0   4   7   89.55    3.42
   1   4   7  192.70    5.88
  -1  -4  -7  203.66    5.83
  -1  -4  -7  206.33    5.70
   2   4   7   19.23    1.06
  -2  -4  -7   17.12    1.33
  -2  -4  -7   18.44    1.30
   2   4   7   17.09    1.46
  -3  -4  -7  108.41    3.64
   3   4   7  105.18    3.34
  -3  -4  -7  104.29    3.45
   3   4   7   99.00    3.55
   4   4   7    3.43    0.70
  -4  -4  -7    3.66    0.86
  -4  -4  -7    2.65    0.70
   4   4   7    4.11    0.83
   5   4   7   19.93    1.36
  -5  -4  -7   18.11    1.37
  -5  -4  -7   19.92    1.69
   5   4   7   21.13    1.55
   6   4   7   -0.50    0.56
  -6  -4  -7   -0.16    0.62
  -7  -4  -7  118.46    4.74
   7   4   7  112.92    4.68
  -8  -4  -7    1.82    1.04
   8   4   7    1.90    0.92
   9   4   7    0.83    1.10
  -9  -4  -7    0.63    0.94
  -5   5   7    8.55    1.67
   5  -5  -7    4.75    1.38
   4  -5  -7    5.56    1.30
  -4   5   7    4.66    1.32
  -4   5   7    6.16    1.20
  -3   5   7    3.78    1.10
  -3   5   7    4.11    1.00
   3  -5  -7    5.61    1.23
  -2   5   7    2.04    0.73
   2  -5  -7    1.03    0.73
  -2   5   7    1.40    0.88
  -1   5   7    7.27    1.18
  -1   5   7    6.91    1.15
   1  -5  -7    8.89    1.28
   0   5   7   20.68    1.58
   0  -5  -7   18.32    1.42
   0  -5  -7   17.71    1.58
   1   5   7  323.23    8.51
  -1  -5  -7  327.61    8.32
  -1  -5  -7  286.30    8.28
  -2  -5  -7   63.92    2.57
  -2  -5  -7   58.50    2.62
   2   5   7   68.30    2.84
   3   5   7   42.38    2.17
  -3  -5  -7   46.39    2.27
  -3  -5  -7   40.69    1.94
   3   5   7   42.75    1.86
  -4  -5  -7  100.07    3.31
   4   5   7   93.11    3.56
  -4  -5  -7  104.46    3.81
   4   5   7  101.62    3.49
   5   5   7    1.42    0.76
  -5  -5  -7    0.90    0.70
   5   5   7    1.51    0.60
   6   5   7    5.69    1.11
  -6  -5  -7    4.78    1.16
  -7  -5  -7   41.37    2.72
   7   5   7   41.58    2.63
   8   5   7    7.32    1.46
  -8  -5  -7    7.09    1.50
   9   5   7   -0.94    1.00
  -9  -5  -7    2.09    1.23
  -5   6   7    0.74    1.06
  -4   6   7    3.36    1.23
   4  -6  -7    4.23    1.31
  -3   6   7   -0.07    0.80
  -3   6   7    1.10    0.68
   3  -6  -7    2.18    0.96
  -2   6   7    0.29    0.76
   2  -6  -7   -0.77    0.57
  -2   6   7    2.08    0.80
   1  -6  -7  216.67    6.65
  -1   6   7  212.66    6.71
  -1   6   7  210.54    6.65
   0  -6  -7  192.82    6.00
   0  -6  -7  185.69    5.81
   0   6   7  188.42    6.06
  -1  -6  -7  738.93   17.39
   1   6   7  702.37   17.30
  -1  -6  -7  693.41   16.86
   2   6   7   78.95    3.40
  -2  -6  -7   79.69    3.38
  -2  -6  -7   88.74    3.18
  -3  -6  -7   51.31    2.61
   3   6   7   55.68    2.70
  -4  -6  -7   24.15    1.85
   4   6   7   24.13    1.69
   4   6   7   22.34    1.48
  -5  -6  -7    0.30    0.72
   5   6   7    0.06    0.58
   5   6   7   -0.87    0.49
  -6  -6  -7   27.74    2.28
   6   6   7   24.24    1.86
  -7  -6  -7   26.29    2.40
   7   6   7   25.78    2.22
  -8  -6  -7    6.79    1.57
   8   6   7    4.26    1.27
   9   6   7    4.77    1.52
  -9  -6  -7    3.76    1.52
   4  -7  -7   15.22    2.14
  -4   7   7   12.89    2.01
   3  -7  -7    4.41    1.25
  -3   7   7    5.02    1.37
  -3   7   7    4.35    1.06
  -2   7   7   21.58    2.16
  -2   7   7   26.69    2.30
   2  -7  -7   25.32    2.00
  -1   7   7    0.11    0.67
   1  -7  -7    0.89    0.75
  -1   7   7    0.24    0.74
   0   7   7   32.26    2.23
   0  -7  -7   34.84    2.09
   0  -7  -7   31.12    2.20
  -1  -7  -7   14.33    1.64
   1   7   7   13.49    1.69
  -1  -7  -7   13.45    1.42
  -2  -7  -7   76.80    3.44
   2   7   7   71.88    3.39
  -3  -7  -7    0.01    0.67
   3   7   7    0.98    0.72
   4   7   7   22.81    1.79
  -4  -7  -7   23.18    2.01
   5   7   7   45.61    2.54
   5   7   7   52.39    2.50
  -5  -7  -7   48.42    2.80
  -6  -7  -7    6.41    1.36
   6   7   7    8.03    1.30
   6   7   7    7.06    1.29
   7   7   7   27.44    2.16
  -7  -7  -7   24.65    2.40
  -8  -7  -7    0.93    1.00
   8   7   7    1.57    0.99
  -3   8   7    6.03    1.54
   3  -8  -7    3.67    1.23
  -2   8   7   34.90    2.49
  -2   8   7   32.00    2.56
   2  -8  -7   34.22    2.42
   1  -8  -7   17.40    1.97
  -1   8   7   26.06    2.29
   1  -8  -7   15.96    1.83
   0  -8  -7   13.21    1.71
   0   8   7   11.05    1.64
   0  -8  -7   12.91    1.50
  -1  -8  -7    1.72    0.90
   1   8   7    2.77    0.99
  -2  -8  -7   12.94    1.71
   2   8   7   13.73    1.77
   3   8   7    0.00    0.64
  -3  -8  -7    0.63    0.71
   4   8   7   30.29    2.19
  -4  -8  -7   29.51    2.26
  -5  -8  -7   22.48    2.17
   5   8   7   20.49    1.99
   6   8   7   20.84    1.99
   6   8   7   14.36    1.65
  -6  -8  -7   18.37    2.03
  -7  -8  -7    0.17    0.94
   7   8   7    1.44    0.80
  -8  -8  -7    0.01    1.00
   8   8   7    1.91    1.10
  -2   9   7   12.06    2.02
   2  -9  -7   13.68    1.89
  -2   9   7   16.12    2.03
   1  -9  -7   27.59    2.50
  -1   9   7   19.67    2.20
   0   9   7    1.35    0.78
   0  -9  -7    1.22    0.82
  -1  -9  -7   24.78    2.33
   1   9   7   32.57    2.40
   2   9   7   27.67    2.20
  -2  -9  -7   23.63    2.29
   3   9   7   13.49    1.87
  -3  -9  -7   14.87    1.87
  -4  -9  -7   29.33    2.31
   4   9   7   26.48    2.39
  -5  -9  -7    0.27    0.72
   5   9   7    0.92    0.84
   6   9   7    4.77    1.25
  -6  -9  -7    3.69    1.26
  -7  -9  -7    3.31    1.30
   7   9   7    3.34    1.08
   8   9   7    1.20    1.20
  -1  10   7   55.35    3.48
   0  10   7    7.50    1.47
   0 -10  -7    5.27    1.41
   1  10   7   11.00    1.81
  -1 -10  -7   13.96    1.98
   2  10   7   44.50    2.94
  -2 -10  -7   47.65    3.14
   3  10   7    0.34    0.86
  -3 -10  -7    0.23    0.85
  -4 -10  -7   30.42    2.67
   4  10   7   28.98    2.71
   5  10   7    4.27    1.35
  -5 -10  -7    4.03    1.30
  -6 -10  -7    1.38    1.14
   6  10   7    0.57    0.99
  -3 -11  -7    0.88    1.06
   3  11   7    1.91    1.17
   0  -7   8    1.44    1.17
  -2  -6   8   -0.76    1.01
   2   6  -8    1.62    1.26
  -1  -6   8    0.38    0.92
   1   6  -8    0.71    1.03
   0  -6   8    0.48    0.89
   0   6  -8   -0.98    0.84
  -1   6  -8    2.90    1.15
  -2   6  -8    1.53    0.94
   2  -6   8    1.20    1.10
  -3   6  -8    0.67    1.18
  -4  -5   8   -0.31    0.96
   4   5  -8   -0.38    1.04
   3   5  -8    3.33    1.17
  -3  -5   8    1.69    1.01
   2   5  -8    2.41    0.98
  -2  -5   8    0.65    0.90
  -1  -5   8   -0.85    0.62
   1   5  -8    1.50    0.98
   0   5  -8    2.24    0.93
   0   5  -8    0.11    0.76
   0  -5   8    0.36    0.78
  -1   5  -8    4.67    1.18
  -1   5  -8    5.60    1.25
   1  -5   8    6.40    1.30
   2  -5   8   19.73    2.19
  -2   5  -8   28.22    2.25
   3  -5   8   -0.73    0.78
  -3   5  -8    1.29    0.87
  -4   5  -8    1.19    1.07
   4  -5   8    1.07    1.08
  -5  -4   8    0.57    1.00
   5   4  -8    0.79    1.16
   4   4  -8    1.85    0.95
  -4  -4   8    0.90    0.89
  -3  -4   8    0.41    0.75
   3   4  -8    1.53    0.95
   2   4  -8   12.94    1.77
  -2  -4   8   12.99    1.78
  -1  -4   8    0.36    0.76
   1   4  -8    0.15    0.78
   1   4  -8    0.01    0.62
   0   4  -8   -0.03    0.62
   0   4  -8    1.49    0.89
   0  -4   8    0.66    0.71
  -1   4  -8    4.39    1.17
   1  -4   8    4.94    1.14
  -1   4  -8    7.15    1.35
   2  -4   8   11.27    1.68
  -2   4  -8    9.38    1.53
   3  -4   8   20.23    2.15
  -3   4  -8   24.53    2.25
  -4   4  -8    1.21    0.81
   4  -4   8    1.94    0.99
  -5   4  -8   31.58    2.86
   5  -4   8   36.39    2.71
  -5  -3   8    3.05    1.10
   4   3  -8    0.30    0.68
  -4  -3   8    1.15    0.76
   3   3  -8    1.80    0.89
  -3  -3   8    1.54    0.86
  -2  -3   8    3.52    1.02
   2   3  -8    3.62    0.97
   2   3  -8    1.91    0.84
  -1  -3   8    5.23    1.19
   1   3  -8    3.42    0.96
   1   3  -8    3.85    1.01
   0   3  -8    1.20    0.81
   0  -3   8    0.61    0.68
   0   3  -8    0.70    0.65
   1  -3   8    4.77    1.06
  -1   3  -8    4.67    1.11
  -1   3  -8    3.95    1.01
  -2   3  -8   35.90    2.41
   2  -3   8   35.28    2.14
   2  -3   8   39.50    2.43
   3  -3   8    0.56    0.67
  -3   3  -8    0.45    0.68
  -4   3  -8    0.29    0.64
   4  -3   8    0.35    0.73
   5  -3   8    7.45    1.50
  -5   3  -8    7.22    1.57
  -6   3  -8   10.39    1.88
   6  -3   8   15.37    2.13
  -6  -2   8    0.85    0.93
  -5  -2   8   -0.21    0.73
  -4  -2   8    6.09    1.32
   4   2  -8    4.61    1.13
   4   2  -8    5.02    1.22
   3   2  -8    3.39    0.90
  -3  -2   8    3.52    1.06
   3   2  -8    1.86    0.91
   2   2  -8    0.83    0.71
  -2  -2   8    1.10    0.72
   2   2  -8    1.53    0.76
   1   2  -8    0.15    0.51
   1   2  -8    1.89    0.82
  -1  -2   8    1.76    0.86
   0  -2   8    2.77    0.89
   0   2  -8    6.08    1.08
   0   2  -8    5.85    1.17
  -1   2  -8    6.50    1.18
   1  -2   8    5.49    1.05
  -1   2  -8    4.36    1.01
   2  -2   8  123.58    4.57
   2  -2   8  118.80    4.25
  -2   2  -8  125.17    4.62
  -3   2  -8   20.93    1.99
   3  -2   8   20.61    1.96
  -4   2  -8   23.17    2.16
   4  -2   8   21.73    2.05
  -5   2  -8   19.50    2.08
   5  -2   8   21.54    2.13
   6  -2   8   23.18    2.35
  -6   2  -8   29.16    2.60
  -7   2  -8    1.14    0.96
   7  -2   8    0.79    1.03
  -6  -1   8    2.00    1.02
   5   1  -8    6.81    1.39
  -5  -1   8    3.99    1.24
   4   1  -8    1.46    0.82
  -4  -1   8    0.94    0.62
   3   1  -8   -0.62    0.56
   3   1  -8    0.02    0.66
  -3  -1   8    0.50    0.69
   2   1  -8    1.29    0.73
   2   1  -8    2.98    0.89
  -2  -1   8    3.47    0.98
  -1  -1   8    6.75    1.25
   1   1  -8    6.07    1.06
   1   1  -8    6.21    1.09
   0  -1   8    0.87    0.66
   0   1  -8    0.72    0.62
   0   1  -8    0.39    0.62
  -1   1  -8   41.51    2.26
  -1   1  -8   37.86    2.21
   1  -1   8   41.02    2.23
   2  -1   8   13.03    1.40
  -2   1  -8   10.68    1.42
   2  -1   8   12.84    1.32
   3  -1   8   61.37    2.97
  -3   1  -8   65.66    3.16
   4  -1   8    2.47    0.88
  -4   1  -8    4.69    1.14
   5  -1   8   75.26    3.57
  -5   1  -8   84.61    3.86
  -6   1  -8    0.80    0.77
   6  -1   8    0.58    0.70
   7  -1   8   16.35    2.05
  -7   1  -8   17.72    2.22
  -8   1  -8    0.16    1.04
   6   0  -8    3.85    1.19
  -6   0   8    1.21    0.81
   5   0  -8    1.42    0.86
  -5   0   8    0.40    0.79
  -4   0   8    1.76    0.87
   4   0  -8    2.66    1.01
   3   0  -8    1.42    0.77
  -3   0   8   -0.07    0.63
   2   0  -8    4.36    1.06
  -2   0   8    5.23    1.13
   2   0  -8    4.67    0.92
   1   0  -8   14.96    1.59
   1   0  -8   17.29    1.32
  -1   0   8   17.17    1.64
   0   0  -8   70.61    3.07
   0   0  -8   76.18    2.95
   0   0   8   73.89    3.13
   1   0   8   46.04    2.20
   1   0   8   43.79    2.28
   2   0   8   51.70    2.37
  -2   0  -8   50.48    2.61
   2   0   8   51.77    2.45
   3   0   8  521.08   12.84
   3   0   8  550.24   13.30
  -3   0  -8  518.21   13.48
   4   0   8   40.54    2.27
  -4   0  -8   37.13    2.41
  -5   0  -8  207.01    6.80
   5   0   8  219.99    6.80
   6   0   8   11.86    1.64
  -6   0  -8   13.04    1.71
   7   0   8   13.65    1.85
  -7   0  -8    9.45    1.58
   8   0   8    8.90    1.69
  -8   0  -8   10.37    1.80
   6  -1  -8    1.12    0.98
  -5   1   8    2.67    1.04
   5  -1  -8    1.05    0.98
   4  -1  -8   21.25    2.06
  -4   1   8   24.33    2.19
   3  -1  -8   12.60    1.60
  -3   1   8   12.02    1.60
  -2   1   8    4.22    1.02
   2  -1  -8    3.88    1.02
   1  -1  -8   11.00    1.10
  -1   1   8   10.38    1.40
   1  -1  -8   10.06    1.32
   0  -1  -8    6.81    0.92
   0  -1  -8    6.68    1.18
   0   1   8    8.88    1.25
   1   1   8   26.04    1.48
  -1  -1  -8   23.75    1.73
   1   1   8   23.52    1.66
   2   1   8    4.08    0.80
  -2  -1  -8    4.54    0.96
   2   1   8    3.12    0.81
   3   1   8   14.28    1.25
  -3  -1  -8   14.45    1.51
   3   1   8   13.35    1.31
   4   1   8   19.30    1.69
  -4  -1  -8   20.22    1.79
   5   1   8   64.56    3.07
  -5  -1  -8   72.13    3.29
   6   1   8   14.64    1.72
  -6  -1  -8   16.41    1.78
  -7  -1  -8    6.80    1.38
   7   1   8    5.87    1.28
  -7  -1  -8    4.06    1.12
   8   1   8   41.07    2.77
  -8  -1  -8   38.40    2.69
  -8  -1  -8   38.22    2.55
  -9  -1  -8    1.47    1.06
   6  -2  -8    3.46    1.35
   5  -2  -8    1.14    0.79
  -5   2   8    1.40    0.88
  -4   2   8   16.58    1.83
   4  -2  -8   18.43    1.97
  -3   2   8    1.17    0.74
   3  -2  -8    0.24    0.79
   2  -2  -8    8.59    1.41
  -2   2   8    9.08    1.36
   1  -2  -8    4.80    1.04
  -1   2   8    4.49    1.02
   0  -2  -8  171.24    5.57
   0   2   8  186.69    4.88
   0   2   8  180.95    5.65
   1   2   8   14.73    1.07
   1   2   8   15.86    1.47
  -1  -2  -8   18.16    1.54
  -2  -2  -8    1.35    0.64
   2   2   8   -0.07    0.50
   2   2   8    0.81    0.45
  -3  -2  -8   60.66    2.70
   3   2   8   50.52    2.36
   3   2   8   58.72    2.44
  -3  -2  -8   58.75    2.19
  -4  -2  -8    8.64    0.96
   4   2   8    7.98    1.00
   4   2   8    8.24    1.16
  -4  -2  -8    7.31    1.21
  -5  -2  -8  187.65    5.62
   5   2   8  192.56    6.00
  -5  -2  -8  191.05    5.99
  -6  -2  -8  107.65    4.21
   6   2   8  107.98    4.27
  -6  -2  -8  110.03    4.06
  -7  -2  -8   -0.27    0.67
   7   2   8    0.89    0.76
  -7  -2  -8    1.58    0.93
   8   2   8    3.51    1.13
  -8  -2  -8    3.06    1.06
  -8  -2  -8    3.60    1.16
  -9  -2  -8    4.10    1.42
   5  -3  -8    6.95    1.33
  -5   3   8    8.40    1.42
   4  -3  -8    4.69    1.15
  -4   3   8    3.17    0.95
  -3   3   8   23.99    1.88
   3  -3  -8   25.47    2.03
   2  -3  -8   26.55    2.08
  -2   3   8   28.01    1.90
  -2   3   8   22.60    1.66
  -1   3   8   30.39    1.96
  -1   3   8   28.23    1.68
   1  -3  -8   27.41    2.03
   0  -3  -8   87.51    2.96
   0   3   8   87.13    3.51
   0  -3  -8   90.73    3.58
  -1  -3  -8    3.24    0.66
   1   3   8    3.51    0.82
   1   3   8    3.66    0.62
  -1  -3  -8    3.05    0.86
   2   3   8   47.53    1.93
  -2  -3  -8   42.96    1.92
   2   3   8   40.40    2.15
  -2  -3  -8   45.63    2.24
   3   3   8   -0.12    0.44
  -3  -3  -8    0.22    0.51
   3   3   8    0.44    0.40
  -3  -3  -8   -0.66    0.42
   4   3   8   50.71    2.25
  -4  -3  -8   53.54    2.52
   4   3   8   50.01    2.37
  -4  -3  -8   55.20    2.35
   5   3   8   87.18    3.51
  -5  -3  -8   91.43    3.47
  -5  -3  -8   88.51    3.51
  -6  -3  -8    0.94    0.74
   6   3   8    1.17    0.80
  -6  -3  -8    0.00    0.66
  -7  -3  -8   22.66    2.08
   7   3   8   26.09    2.08
   8   3   8    6.61    1.46
  -8  -3  -8    5.88    1.31
  -9  -3  -8    8.51    1.76
   9   3   8    9.28    2.02
   5  -4  -8    0.41    0.81
   4  -4  -8    3.46    0.97
  -4   4   8    2.53    1.14
  -4   4   8   -0.22    0.65
   3  -4  -8    3.14    1.05
  -3   4   8    3.07    1.01
  -3   4   8    4.43    1.03
   2  -4  -8    4.18    1.12
  -2   4   8    4.76    1.05
  -2   4   8    6.37    1.22
  -1   4   8    8.24    1.30
  -1   4   8   11.11    1.26
   1  -4  -8   10.91    1.51
   0   4   8   91.50    3.64
   0  -4  -8   91.01    3.27
   0  -4  -8   94.24    3.71
  -1  -4  -8   58.76    2.71
  -1  -4  -8   64.70    2.52
   1   4   8   60.67    2.77
   2   4   8   79.44    2.61
  -2  -4  -8   77.46    2.91
   2   4   8   80.44    3.18
  -2  -4  -8   70.54    3.01
   3   4   8   31.92    1.60
   3   4   8   32.01    1.84
  -3  -4  -8   32.14    1.79
  -3  -4  -8   29.37    1.76
   4   4   8   20.42    1.47
   4   4   8   21.20    1.65
  -4  -4  -8   18.85    1.46
  -4  -4  -8   22.64    1.61
   5   4   8    9.25    1.27
  -5  -4  -8    9.01    1.17
  -5  -4  -8    7.83    1.21
  -6  -4  -8   94.02    3.91
   6   4   8   94.93    3.94
   7   4   8    7.85    1.38
  -7  -4  -8    8.16    1.52
   8   4   8    2.82    1.10
  -8  -4  -8    1.60    1.01
  -9  -4  -8    9.25    1.83
   9   4   8   12.16    2.03
   5  -5  -8    0.19    0.95
  -5   5   8    2.63    1.30
  -4   5   8    0.54    0.88
  -4   5   8    0.65    0.68
   4  -5  -8    1.00    0.88
  -3   5   8    3.87    1.01
   3  -5  -8    2.56    1.01
  -3   5   8    4.64    1.24
  -2   5   8  127.38    4.71
   2  -5  -8  129.14    4.87
  -2   5   8  118.44    4.63
  -1   5   8    1.50    0.70
  -1   5   8   -0.47    0.63
   1  -5  -8   -0.54    0.60
   0  -5  -8  425.71   11.10
   0   5   8  429.07   11.41
   0  -5  -8  440.47   11.35
   1   5   8   59.20    2.81
  -1  -5  -8   54.62    2.69
  -1  -5  -8   58.41    2.61
  -2  -5  -8   16.86    1.48
  -2  -5  -8   15.52    1.46
   2   5   8   18.78    1.47
  -3  -5  -8   61.71    2.73
   3   5   8   60.30    2.35
   3   5   8   56.99    2.73
  -3  -5  -8   60.53    2.59
   4   5   8   12.62    1.38
  -4  -5  -8   12.39    1.20
   4   5   8   15.25    1.36
  -4  -5  -8    9.23    1.30
  -5  -5  -8  105.71    4.05
   5   5   8  105.37    3.92
   5   5   8   93.26    3.64
   6   5   8   83.77    3.66
  -6  -5  -8   83.35    3.80
   7   5   8   78.46    3.72
  -7  -5  -8   71.74    3.70
   8   5   8    2.05    1.11
  -8  -5  -8    2.35    1.14
   9   5   8    8.06    1.81
  -9  -5  -8    6.36    1.74
  -4   6   8   -0.32    1.01
   4  -6  -8    0.26    1.02
  -3   6   8    7.61    1.29
   3  -6  -8   11.26    1.74
  -3   6   8   10.01    1.68
   2  -6  -8    8.71    1.49
  -2   6   8    8.78    1.41
  -2   6   8    9.65    1.55
  -1   6   8   46.66    2.58
   1  -6  -8   45.33    2.68
  -1   6   8   43.65    2.61
   0  -6  -8    8.50    1.27
   0  -6  -8    6.32    1.25
   0   6   8    4.63    1.07
  -1  -6  -8   21.70    1.84
   1   6   8   23.33    1.81
  -1  -6  -8   23.07    1.77
   2   6   8    6.96    1.20
  -2  -6  -8    6.45    1.18
  -2  -6  -8    6.53    1.07
   3   6   8   52.97    2.69
  -3  -6  -8   51.40    2.33
  -3  -6  -8   49.80    2.57
   4   6   8   31.48    1.79
  -4  -6  -8   29.34    2.07
   4   6   8   33.36    2.05
  -5  -6  -8   22.46    2.00
   5   6   8   21.59    1.67
   5   6   8   22.68    1.72
  -6  -6  -8   38.28    2.52
   6   6   8   40.67    2.48
   7   6   8    2.14    1.00
  -7  -6  -8    2.53    0.96
  -8  -6  -8    6.81    1.58
   8   6   8   10.23    1.74
  -4   7   8    0.64    1.29
  -3   7   8   23.94    2.42
  -3   7   8   31.37    2.28
   3  -7  -8   25.33    2.40
  -2   7   8    6.60    1.42
  -2   7   8    7.53    1.38
   2  -7  -8    7.08    1.43
   1  -7  -8    1.14    0.83
  -1   7   8    1.52    0.90
   0  -7  -8    1.82    0.82
   0  -7  -8    0.49    0.81
   0   7   8    1.36    0.81
   1   7   8    4.85    1.15
  -1  -7  -8    3.71    1.02
  -1  -7  -8    4.19    1.06
   2   7   8    2.13    0.94
  -2  -7  -8    1.11    0.78
   3   7   8   33.43    2.25
  -3  -7  -8   36.12    2.34
   4   7   8   71.19    3.34
  -4  -7  -8   72.91    3.48
   5   7   8   21.27    1.62
   5   7   8   22.07    1.96
  -5  -7  -8   20.73    2.05
   6   7   8   13.90    1.63
  -6  -7  -8   12.99    1.77
   7   7   8   15.36    1.80
  -7  -7  -8   12.55    1.87
   8   7   8    6.25    1.46
  -8  -7  -8    9.66    1.80
   3  -8  -8    4.59    1.39
  -3   8   8    4.01    1.43
   2  -8  -8   12.39    1.83
  -2   8   8   14.47    1.92
  -2   8   8   12.11    1.87
  -1   8   8    0.30    0.77
   1  -8  -8    1.07    0.86
   1  -8  -8    0.07    0.75
   0  -8  -8   44.84    2.70
   0   8   8   43.93    2.77
   0  -8  -8   42.03    2.59
   1   8   8    1.67    0.85
  -1  -8  -8    2.38    0.97
  -2  -8  -8   23.49    2.17
   2   8   8   18.35    2.07
  -3  -8  -8   16.66    1.92
   3   8   8   17.94    2.01
  -4  -8  -8    0.07    0.85
   4   8   8   -0.26    0.64
   5   8   8   17.48    1.92
  -5  -8  -8   19.00    2.05
   6   8   8    1.29    0.90
  -6  -8  -8    1.98    0.90
  -7  -8  -8    1.74    0.96
   7   8   8    2.04    0.95
  -8  -8  -8    1.24    1.24
   8   8   8    2.05    1.20
   2  -9  -8   47.01    3.09
  -2   9   8   39.58    2.89
  -1   9   8    1.74    0.91
   1  -9  -8    0.11    0.86
   0  -9  -8   27.91    2.53
   0   9   8   30.26    2.40
  -1  -9  -8   31.56    2.44
   1   9   8   26.54    2.52
   2   9   8    0.41    0.82
  -2  -9  -8    1.21    0.85
  -3  -9  -8   41.06    2.74
   3   9   8   42.54    2.80
   4   9   8   10.96    1.72
  -4  -9  -8   11.47    1.79
   5   9   8   17.00    2.05
  -5  -9  -8   17.11    2.09
  -6  -9  -8    0.88    1.02
   6   9   8    1.78    1.01
  -7  -9  -8    4.44    1.49
   0  10   8    3.71    1.29
   0 -10  -8    2.71    1.33
   1  10   8   38.75    2.90
  -1 -10  -8   34.07    2.75
  -2 -10  -8    2.10    1.17
   2  10   8    1.71    0.93
   3  10   8   35.50    2.69
  -3 -10  -8   33.20    2.65
  -4 -10  -8   21.85    2.40
   4  10   8   21.60    2.49
  -5 -10  -8   -0.27    1.03
   5  10   8    2.10    1.08
  -6 -10  -8    0.90    1.36
   6  10   8    3.54    1.34
   0  -6   9    0.37    1.00
   3   5  -9    1.98    1.13
   2   5  -9   -1.70    0.84
  -2  -5   9    0.26    1.07
  -1  -5   9    1.02    0.97
   1   5  -9    2.10    1.17
   0  -5   9    0.71    0.94
   0   5  -9    0.74    1.02
  -1   5  -9   18.66    2.30
   1  -5   9   23.74    2.30
  -1   5  -9   22.19    2.26
  -2   5  -9    1.93    0.94
   2  -5   9   -0.64    0.79
  -3   5  -9    0.48    1.09
   3  -5   9    0.35    0.99
   4   4  -9    2.89    1.17
  -3  -4   9   -0.24    0.97
   3   4  -9    0.94    0.98
   2   4  -9    2.34    0.98
  -2  -4   9    1.69    1.02
  -1  -4   9    1.82    1.04
   1   4  -9    2.12    1.00
   1   4  -9   -0.32    0.65
   0   4  -9    8.65    1.54
   0   4  -9    5.10    1.14
   0  -4   9    6.07    1.33
  -1   4  -9    0.69    0.77
  -1   4  -9    0.51    0.85
   1  -4   9    0.81    0.84
  -2   4  -9    6.69    1.36
   2  -4   9    3.56    1.01
  -3   4  -9    3.21    1.05
   3  -4   9    1.28    0.86
   4  -4   9   21.55    2.42
  -4   4  -9   18.60    2.34
   4   3  -9    5.01    1.33
  -4  -3   9    0.29    0.90
   3   3  -9    1.14    0.90
  -3  -3   9    1.59    0.94
  -2  -3   9    1.21    0.81
   2   3  -9    1.81    0.81
   2   3  -9    0.98    0.89
   1   3  -9    4.62    1.18
   1   3  -9    7.27    1.32
  -1  -3   9    3.21    1.08
   0  -3   9    7.72    1.42
   0   3  -9    5.67    1.24
   0   3  -9    7.40    1.39
   1  -3   9    8.15    1.40
  -1   3  -9    8.68    1.46
  -1   3  -9   10.87    1.58
   2  -3   9    1.75    0.84
  -2   3  -9    1.53    0.84
   3  -3   9    1.58    0.86
  -3   3  -9    2.43    0.88
  -4   3  -9    6.20    1.39
   4  -3   9    5.23    1.34
  -5   3  -9   15.10    2.15
   5  -3   9   18.99    2.29
  -5  -2   9    1.82    1.19
  -4  -2   9    1.52    0.85
   3   2  -9    1.96    0.84
  -3  -2   9    0.87    0.79
   3   2  -9    0.86    0.78
   2   2  -9    0.31    0.68
   2   2  -9    0.40    0.78
  -2  -2   9    1.14    0.75
   1   2  -9   -0.76    0.66
  -1  -2   9    0.89    0.80
   1   2  -9    0.04    0.63
   0   2  -9   14.79    1.66
   0  -2   9   16.08    1.83
   0   2  -9   17.02    1.74
  -1   2  -9   19.00    1.88
  -1   2  -9   16.88    1.82
   1  -2   9   17.79    1.81
   2  -2   9    4.76    1.09
  -2   2  -9    0.79    0.83
   2  -2   9    4.22    1.03
  -3   2  -9   14.19    1.85
   3  -2   9   12.82    1.71
   4  -2   9    5.22    1.24
  -4   2  -9    6.47    1.29
   5  -2   9    4.23    1.27
  -5   2  -9    4.86    1.27
  -6   2  -9    0.02    0.92
   6  -2   9   -0.84    0.79
  -5  -1   9    0.37    0.80
  -4  -1   9    4.35    1.05
   4   1  -9    3.45    1.03
   3   1  -9    3.38    1.00
  -3  -1   9    1.96    0.82
   2   1  -9    1.41    0.83
   2   1  -9    1.61    0.86
  -2  -1   9    1.87    0.88
  -1  -1   9   13.33    1.68
   1   1  -9   12.68    1.48
   1   1  -9   12.86    1.56
   0   1  -9    7.92    1.26
   0   1  -9    6.95    1.23
   0  -1   9    6.30    1.19
   1  -1   9   41.21    2.37
  -1   1  -9   37.34    2.31
   1  -1   9   36.96    2.24
   2  -1   9  276.20    7.80
  -2   1  -9  274.14    8.19
   2  -1   9  269.79    7.95
   3  -1   9   80.89    3.64
  -3   1  -9   82.63    3.78
  -4   1  -9   69.63    3.54
   4  -1   9   73.23    3.47
   5  -1   9    0.61    0.66
  -5   1  -9    0.06    0.76
   6  -1   9   21.51    2.25
  -6   1  -9   22.35    2.32
   7  -1   9    4.82    1.41
  -7   1  -9    6.10    1.49
   5   0  -9    2.39    0.96
  -5   0   9    0.26    0.79
   4   0  -9    3.09    1.05
  -4   0   9    3.02    0.99
  -3   0   9    0.51    0.69
   3   0  -9    0.70    0.82
   2   0  -9    1.60    0.89
  -2   0   9    2.21    0.90
   1   0  -9   13.50    1.56
   1   0  -9   10.90    1.32
  -1   0   9   11.65    1.63
   0   0   9   19.60    1.83
   0   0  -9   13.71    1.55
   0   0  -9   16.65    1.52
  -1   0  -9   14.20    1.58
   1   0   9   19.08    1.72
   1   0   9   14.21    1.44
   2   0   9   54.40    2.64
   2   0   9   56.82    2.67
  -2   0  -9   54.58    2.87
   3   0   9   85.26    3.34
   3   0   9   82.08    3.54
  -3   0  -9   89.43    3.82
  -4   0  -9   25.76    2.22
   4   0   9   23.03    1.81
   5   0   9    0.32    0.73
  -5   0  -9    3.28    1.03
  -6   0  -9    5.84    1.34
   6   0   9    7.48    1.38
  -7   0  -9   21.50    2.35
   7   0   9   22.19    2.31
  -8   0  -9    0.95    1.06
   5  -1  -9    5.17    1.25
  -5   1   9    1.89    0.96
  -4   1   9    3.72    1.09
   4  -1  -9    2.92    1.15
  -3   1   9   23.35    2.24
   3  -1  -9   26.56    2.33
  -2   1   9   21.39    2.06
   2  -1  -9   20.84    1.97
  -1   1   9   35.46    2.29
   1  -1  -9   36.02    2.30
   0   1   9    9.82    1.07
   0   1   9    9.42    1.37
   0  -1  -9    7.02    1.24
   1   1   9   -0.59    0.55
   1   1   9   -0.58    0.45
  -1  -1  -9    0.00    0.62
   2   1   9   47.49    2.30
   2   1   9   43.52    2.33
  -2  -1  -9   40.50    2.45
   3   1   9   38.83    2.10
  -3  -1  -9   42.51    2.44
   3   1   9   43.66    2.25
   4   1   9  140.42    4.84
  -4  -1  -9  137.98    5.02
  -5  -1  -9   66.90    3.36
   5   1   9   70.74    3.29
   6   1   9    1.69    0.81
  -6  -1  -9    0.20    0.74
   7   1   9   24.20    2.31
  -7  -1  -9   17.17    2.07
   8   1   9    6.89    1.62
  -8  -1  -9    7.51    1.61
   5  -2  -9    2.68    1.25
  -5   2   9    1.87    0.94
  -4   2   9    1.90    0.89
   4  -2  -9    4.38    1.16
   3  -2  -9   24.79    2.25
  -3   2   9   24.79    2.24
   2  -2  -9   21.45    2.11
  -2   2   9   22.60    2.12
   1  -2  -9   21.47    1.95
  -1   2   9   25.04    1.91
   0  -2  -9    2.54    0.96
   0   2   9    3.06    0.93
  -1  -2  -9   10.74    1.41
   1   2   9    8.39    1.27
   1   2   9    8.65    1.00
   2   2   9    1.88    0.58
   2   2   9    2.17    0.76
  -2  -2  -9    1.78    0.76
  -3  -2  -9  105.83    4.09
   3   2   9  106.84    3.84
   3   2   9  115.12    3.89
  -4  -2  -9   25.50    1.87
   4   2   9   27.31    1.83
  -5  -2  -9   52.88    2.85
   5   2   9   51.35    2.73
  -6  -2  -9    4.81    1.13
   6   2   9    3.52    1.05
   7   2   9    3.08    1.00
  -7  -2  -9    3.02    0.99
  -8  -2  -9    6.41    1.52
   8   2   9    8.69    1.60
  -5   3   9    4.46    1.11
   5  -3  -9    2.92    1.30
  -4   3   9    6.02    1.25
   4  -3  -9    7.31    1.39
   3  -3  -9    0.54    0.83
  -3   3   9    0.78    0.72
   2  -3  -9    0.63    0.84
  -2   3   9    0.36    0.65
   1  -3  -9   46.98    2.78
  -1   3   9   50.05    2.71
   0   3   9   28.48    1.97
   0  -3  -9   31.13    2.14
   1   3   9   92.83    3.66
  -1  -3  -9   87.10    3.63
   2   3   9   25.76    1.50
  -2  -3  -9   26.83    1.89
   2   3   9   25.37    1.75
   3   3   9    4.41    0.92
   3   3   9    5.10    0.88
  -3  -3  -9    5.67    1.09
   4   3   9   46.76    2.29
  -4  -3  -9   47.62    2.50
   4   3   9   49.54    2.41
  -5  -3  -9   22.38    1.81
   5   3   9   26.29    1.83
  -5  -3  -9   30.58    1.86
  -6  -3  -9    2.78    0.90
  -6  -3  -9    3.69    1.04
   6   3   9    2.98    0.94
  -7  -3  -9   -0.89    0.73
  -7  -3  -9    1.83    0.92
   7   3   9    1.98    0.78
  -8  -3  -9   26.94    2.39
   8   3   9   26.32    2.54
  -9  -3  -9    1.71    1.23
   4  -4  -9    4.02    1.17
  -4   4   9    6.46    1.31
  -3   4   9    7.89    1.39
   3  -4  -9    7.88    1.54
  -2   4   9   24.64    1.96
   2  -4  -9   22.42    2.19
  -1   4   9   95.52    3.99
   1  -4  -9   94.53    4.10
   0  -4  -9   70.92    3.33
   0  -4  -9   79.27    2.97
   0   4   9   75.18    3.41
  -1  -4  -9   29.17    1.69
  -1  -4  -9   28.36    1.98
   1   4   9   23.88    1.84
  -2  -4  -9   34.39    1.82
   2   4   9   31.38    1.97
  -2  -4  -9   32.09    2.01
  -3  -4  -9   40.35    2.04
  -3  -4  -9   35.78    2.07
   3   4   9   38.15    2.15
   3   4   9   38.86    1.89
   4   4   9  178.51    5.58
   4   4   9  182.09    5.53
  -4  -4  -9  190.48    5.60
  -4  -4  -9  180.87    5.72
  -5  -4  -9   31.10    2.05
  -5  -4  -9   27.70    1.99
   5   4   9   34.86    2.04
  -6  -4  -9   64.87    3.16
   6   4   9   64.15    3.15
   7   4   9    3.35    1.01
  -7  -4  -9    2.01    1.03
   8   4   9   10.10    1.73
  -8  -4  -9    9.04    1.61
  -9  -4  -9    9.72    1.97
   4  -5  -9    2.68    1.38
  -4   5   9    4.76    1.22
   3  -5  -9   12.46    1.87
  -3   5   9   14.33    1.77
  -2   5   9   37.58    2.45
  -2   5   9   36.05    2.42
   2  -5  -9   37.61    2.62
   1  -5  -9    6.37    1.42
   0   5   9   22.70    2.02
   0  -5  -9   30.34    1.88
   0  -5  -9   25.51    1.98
   1   5   9    3.68    0.96
  -1  -5  -9    2.16    0.92
  -1  -5  -9    2.75    0.83
  -2  -5  -9   52.38    2.63
  -2  -5  -9   54.33    2.51
   2   5   9   48.16    2.59
  -3  -5  -9   15.31    1.49
   3   5   9   12.22    1.46
  -3  -5  -9   13.83    1.43
  -4  -5  -9   86.24    3.54
  -4  -5  -9   87.83    3.43
   4   5   9   89.44    3.34
   4   5   9   86.36    3.50
   5   5   9   31.10    2.02
   5   5   9   32.25    2.05
  -5  -5  -9   32.40    2.16
  -6  -5  -9    1.74    0.97
   6   5   9    2.87    0.98
  -7  -5  -9    7.82    1.54
   7   5   9    7.02    1.41
  -8  -5  -9    1.45    0.94
   8   5   9    0.84    0.92
  -9  -5  -9    4.02    1.64
  -4   6   9   14.54    2.20
  -3   6   9    1.17    0.81
  -3   6   9   -0.01    0.86
   3  -6  -9    0.87    1.04
   2  -6  -9    4.94    1.30
  -2   6   9    4.81    1.08
  -2   6   9    3.08    1.15
   1  -6  -9    3.28    1.04
  -1   6   9    3.38    0.98
   1  -6  -9    3.02    1.05
   0  -6  -9   27.48    1.97
   0  -6  -9   27.27    2.13
   0   6   9   26.52    1.98
  -1  -6  -9    0.81    0.83
  -1  -6  -9   -0.16    0.54
   1   6   9    1.15    0.70
   2   6   9   26.23    1.96
  -2  -6  -9   30.05    1.95
  -2  -6  -9   29.92    2.00
  -3  -6  -9  117.85    4.36
   3   6   9  114.43    4.37
  -3  -6  -9  116.91    4.12
   4   6   9   12.62    1.58
  -4  -6  -9   13.24    1.56
   5   6   9   57.87    2.91
  -5  -6  -9   58.51    3.03
   5   6   9   58.69    2.78
   6   6   9   31.22    2.23
  -6  -6  -9   36.62    2.51
   7   6   9   47.23    2.88
  -7  -6  -9   48.70    3.00
  -8  -6  -9    8.82    1.79
   8   6   9    9.27    1.75
   3  -7  -9    7.78    1.65
  -3   7   9    7.32    1.53
  -3   7   9    6.48    1.59
  -2   7   9    3.00    0.89
  -2   7   9    1.10    0.96
   2  -7  -9    0.10    0.94
   1  -7  -9   24.97    2.27
   1  -7  -9   22.84    2.12
  -1   7   9   23.71    2.26
   0  -7  -9    0.45    0.79
   0   7   9    0.76    0.78
   0  -7  -9    2.17    0.99
  -1  -7  -9   15.76    1.76
  -1  -7  -9   17.77    1.79
   1   7   9   15.71    1.89
  -2  -7  -9    6.93    1.28
   2   7   9    6.78    1.33
  -2  -7  -9    6.79    1.22
  -3  -7  -9   10.79    1.55
   3   7   9   10.22    1.53
  -4  -7  -9   25.23    2.04
   4   7   9   25.07    2.17
  -5  -7  -9   -0.08    0.71
   5   7   9   -0.31    0.67
   6   7   9    0.75    0.85
  -6  -7  -9    2.97    1.09
   7   7   9   12.74    1.70
  -7  -7  -9   12.81    1.96
   8   7   9    2.45    1.19
  -8  -7  -9   -0.30    0.87
   2  -8  -9    1.07    1.10
  -2   8   9    0.62    0.95
   1  -8  -9   14.85    1.92
  -1   8   9   15.82    2.04
   1  -8  -9   13.66    1.87
   0   8   9   20.13    2.21
   0  -8  -9   19.17    2.06
   0  -8  -9   20.59    2.06
  -1  -8  -9    5.83    1.30
   1   8   9    5.94    1.36
   2   8   9  101.87    4.48
  -2  -8  -9  100.35    4.41
  -3  -8  -9    2.10    1.01
   3   8   9    2.87    0.98
   4   8   9   30.50    2.29
  -4  -8  -9   30.76    2.28
   5   8   9    4.84    1.22
  -5  -8  -9    3.88    1.14
   6   8   9   12.15    1.73
  -6  -8  -9   11.62    1.78
  -7  -8  -9    0.28    1.00
   8   8   9    4.64    1.42
  -1   9   9   -0.02    0.96
   1  -9  -9    1.24    0.96
   0  -9  -9   44.40    2.97
   0   9   9   38.50    2.77
   1   9   9    5.27    1.38
  -1  -9  -9    5.02    1.38
  -2  -9  -9   96.81    4.45
   2   9   9   84.73    4.28
  -3  -9  -9   15.76    2.03
   3   9   9   17.78    2.18
   4   9   9   12.62    1.92
  -4  -9  -9   11.83    1.83
   5   9   9    5.39    1.41
  -5  -9  -9    4.85    1.37
   6   9   9    2.61    1.16
  -6  -9  -9    2.98    1.17
   1  10   9    1.95    1.13
  -1 -10  -9    1.82    1.25
   2  10   9   10.23    1.82
  -2 -10  -9    7.35    1.69
  -3 -10  -9   11.88    1.97
   3  10   9   10.43    1.91
   4  10   9    2.90    1.26
  -4 -10  -9    2.15    1.16
   5  10   9    1.08    1.11
  -5 -10  -9    0.10    0.95
   6  10   9    3.27    1.28
   0  -5  10    1.47    1.12
  -1   5 -10    4.71    1.44
  -2   5 -10    2.26    1.24
   3   4 -10    2.95    1.23
   2   4 -10    0.08    1.00
  -2  -4  10   -0.64    0.99
  -1  -4  10    0.34    0.85
   1   4 -10    0.07    0.98
   0   4 -10    0.79    0.89
   0  -4  10    1.33    0.90
   0   4 -10    2.37    0.91
  -1   4 -10    4.12    1.08
   1  -4  10    3.57    1.16
   2  -4  10    2.22    1.05
  -2   4 -10    1.19    0.89
  -3   4 -10    4.81    1.40
   3  -4  10    6.43    1.56
   3   3 -10    0.95    1.07
  -3  -3  10   -1.16    1.03
  -2  -3  10    2.42    1.11
   2   3 -10    0.86    0.93
   2   3 -10    3.08    0.92
   1   3 -10    5.84    1.15
   1   3 -10    3.89    1.22
  -1  -3  10    2.63    1.05
   0  -3  10    4.90    1.20
   0   3 -10    4.08    1.15
   0   3 -10    4.94    1.23
   1  -3  10    1.40    0.94
  -1   3 -10    0.37    0.78
   1  -3  10    1.40    0.80
   2  -3  10    4.75    1.16
  -2   3 -10    4.12    1.14
   3  -3  10    2.52    0.96
  -3   3 -10    3.33    1.12
  -4   3 -10   10.13    1.82
   4  -3  10   10.78    1.76
   3   2 -10    2.90    0.93
  -3  -2  10    1.58    0.91
   2   2 -10    2.22    0.85
  -2  -2  10    1.53    0.96
   2   2 -10    2.43    0.97
   1   2 -10    1.13    0.74
  -1  -2  10    1.66    0.88
   1   2 -10    0.73    0.83
   0  -2  10   33.01    2.41
   0   2 -10   32.25    2.31
   0   2 -10   30.75    2.25
   1  -2  10    9.88    1.55
  -1   2 -10   10.96    1.53
   1  -2  10   11.00    1.56
  -2   2 -10    3.70    1.01
   2  -2  10    4.94    1.14
   2  -2  10    4.23    1.00
  -3   2 -10   14.13    1.90
   3  -2  10   15.25    1.89
   4  -2  10    3.37    1.04
  -4   2 -10    2.13    0.99
   5  -2  10    0.70    0.86
  -5   2 -10    2.56    1.11
   4   1 -10    1.45    1.00
  -4  -1  10   -1.62    0.70
  -3  -1  10    2.49    0.94
   3   1 -10    4.84    1.10
  -2  -1  10    0.50    0.80
   2   1 -10    3.89    1.03
  -1  -1  10   22.07    2.20
   1   1 -10   25.26    2.09
   1   1 -10   25.10    2.12
   0   1 -10    1.14    0.82
   0   1 -10    1.04    0.79
   0  -1  10    0.36    0.75
   1  -1  10   38.20    2.40
  -1   1 -10   34.68    2.37
   1  -1  10   36.12    2.38
   2  -1  10   31.32    2.24
   2  -1  10   30.70    2.13
  -2   1 -10   31.63    2.33
   3  -1  10   16.51    1.90
  -3   1 -10   18.66    1.99
   4  -1  10    2.52    0.91
  -4   1 -10    1.38    0.95
  -5   1 -10   20.82    2.32
   5  -1  10   18.47    2.09
  -6   1 -10   11.50    1.94
   6  -1  10   10.18    1.73
   5   0 -10    2.06    1.21
   4   0 -10    3.20    1.07
  -4   0  10    0.48    0.86
  -3   0  10    7.01    1.39
   3   0 -10    6.59    1.34
   2   0 -10    2.22    0.89
  -2   0  10    1.87    0.86
  -1   0  10    0.00    0.69
   1   0 -10    1.01    0.77
   0   0 -10    7.48    1.35
   0   0  10    5.22    1.20
  -1   0 -10    0.36    0.70
   1   0  10    0.20    0.78
   1   0  10   -0.64    0.58
   2   0  10  113.10    4.34
  -2   0 -10  113.27    4.60
   2   0  10  121.95    4.50
   3   0  10    4.23    1.11
  -3   0 -10    3.34    1.15
  -4   0 -10   38.46    2.62
   4   0  10   34.19    2.30
   5   0  10    7.98    1.37
  -5   0 -10    8.40    1.50
   6   0  10   29.51    2.34
  -6   0 -10   30.63    2.65
  -7   0 -10   15.41    2.19
   7   0  10   11.54    1.96
  -5   1  10    1.98    1.20
   4  -1 -10    5.74    1.43
  -4   1  10    6.07    1.40
   3  -1 -10    9.41    1.55
  -3   1  10    6.97    1.46
   2  -1 -10    3.92    1.12
  -2   1  10    4.85    1.24
   1  -1 -10    0.29    0.74
  -1   1  10    1.03    0.87
   0   1  10    3.50    1.02
   0  -1 -10    3.05    0.95
   1   1  10   23.24    1.65
  -1  -1 -10   20.45    1.89
   1   1  10   19.84    1.94
   2   1  10   58.73    2.78
  -2  -1 -10   61.09    3.14
   2   1  10   60.18    2.96
   3   1  10   16.36    1.59
  -3  -1 -10   12.99    1.67
   3   1  10   17.22    1.66
   4   1  10   72.74    3.30
  -4  -1 -10   64.30    3.40
  -5  -1 -10    0.39    0.74
   5   1  10   -0.39    0.60
  -6  -1 -10    3.40    1.09
   6   1  10    3.07    0.95
   7   1  10   -0.87    0.75
  -7  -1 -10    1.15    0.91
  -8  -1 -10    8.75    1.80
  -5   2  10    1.03    1.04
   4  -2 -10    5.13    1.40
  -4   2  10    4.77    1.27
  -3   2  10    3.22    1.08
   3  -2 -10    1.34    0.93
  -2   2  10   12.93    1.79
   2  -2 -10   15.44    1.92
   1  -2 -10    0.55    0.76
  -1   2  10    0.47    0.71
   0  -2 -10   14.69    1.76
   0   2  10   19.40    1.92
   1   2  10   13.87    1.64
  -1  -2 -10   14.41    1.65
  -2  -2 -10    1.16    0.84
   2   2  10    0.26    0.69
   2   2  10    2.27    0.67
  -3  -2 -10   13.99    1.65
   3   2  10   10.65    1.39
   3   2  10   13.59    1.44
  -4  -2 -10   67.43    3.27
   4   2  10   67.23    3.09
  -5  -2 -10    1.35    0.84
   5   2  10    0.17    0.62
   6   2  10    5.50    1.15
  -6  -2 -10    5.91    1.31
  -7  -2 -10   41.91    2.76
   7   2  10   42.60    2.79
  -8  -2 -10    0.12    0.96
   8   2  10    1.04    1.07
  -4   3  10    3.69    1.15
   4  -3 -10    1.54    1.03
   3  -3 -10    4.20    1.16
  -3   3  10    4.73    1.12
   2  -3 -10   40.78    2.69
  -2   3  10   36.49    2.48
   1  -3 -10   26.97    2.35
  -1   3  10   26.43    2.09
   0  -3 -10   23.66    2.09
   0   3  10   23.69    1.91
   1   3  10   24.70    1.87
  -1  -3 -10   22.21    1.96
  -2  -3 -10    0.27    0.67
   2   3  10    1.21    0.79
   3   3  10   56.10    2.51
   3   3  10   52.61    2.66
  -3  -3 -10   50.04    2.72
  -4  -3 -10    6.40    1.23
   4   3  10    5.81    1.10
   4   3  10    6.88    1.15
  -5  -3 -10    6.78    1.31
   5   3  10    4.79    1.04
   6   3  10    8.96    1.37
  -6  -3 -10   10.17    1.54
   7   3  10   16.32    2.00
  -7  -3 -10   19.99    2.00
   8   3  10   17.67    2.23
  -4   4  10    8.42    1.55
   4  -4 -10    7.81    1.75
   3  -4 -10   22.66    2.37
  -3   4  10   23.60    2.34
  -2   4  10   17.77    1.97
   2  -4 -10   19.58    2.19
  -1   4  10   24.67    2.22
   1  -4 -10   23.57    2.24
   0  -4 -10   17.58    1.89
   0   4  10   15.87    1.85
   1   4  10    6.49    1.30
  -1  -4 -10    5.64    1.20
   2   4  10    8.20    1.32
  -2  -4 -10    7.76    1.31
  -3  -4 -10   66.43    3.07
   3   4  10   67.47    3.11
   4   4  10   30.46    1.89
   4   4  10   28.35    1.89
  -4  -4 -10   29.97    2.09
  -5  -4 -10    2.28    0.95
   5   4  10    3.25    0.91
  -6  -4 -10   17.35    1.80
   6   4  10   17.01    1.84
   7   4  10    0.62    0.83
   8   4  10    6.51    1.53
  -4   5  10    2.07    1.11
  -3   5  10    0.11    0.77
   3  -5 -10   -0.54    1.00
   2  -5 -10   10.72    1.77
  -2   5  10    9.17    1.44
  -1   5  10   10.75    1.58
   1  -5 -10   11.38    1.74
   0  -5 -10    4.07    1.12
   0   5  10    2.32    1.00
   1   5  10   29.05    2.13
  -1  -5 -10   27.13    2.03
  -2  -5 -10   70.68    3.23
   2   5  10   69.34    3.27
  -3  -5 -10    1.74    0.84
   3   5  10    2.68    0.87
  -3  -5 -10    1.45    0.77
  -4  -5 -10   51.39    2.72
  -4  -5 -10   58.91    2.81
   4   5  10   56.94    2.83
  -5  -5 -10    7.58    1.30
   5   5  10   11.55    1.45
   6   5  10   37.33    2.44
  -6  -5 -10   40.65    2.56
  -7  -5 -10   15.56    1.95
   7   5  10   16.29    1.99
   8   5  10    1.71    1.19
  -8  -5 -10    0.04    0.99
   3  -6 -10   -2.25    0.89
  -3   6  10   -0.52    0.74
  -2   6  10    5.75    1.25
   2  -6 -10    1.30    1.03
  -1   6  10    1.00    0.71
   1  -6 -10    0.75    0.95
   1  -6 -10    2.16    0.97
   0   6  10    6.47    1.25
   0  -6 -10    5.63    1.17
   0  -6 -10    6.80    1.40
  -1  -6 -10    0.55    0.75
  -1  -6 -10   -0.44    0.58
   1   6  10    0.29    0.59
  -2  -6 -10   24.20    1.89
  -2  -6 -10   26.64    2.01
   2   6  10   22.31    2.06
  -3  -6 -10   49.24    2.55
   3   6  10   43.60    2.60
  -3  -6 -10   41.91    2.45
   4   6  10    7.13    1.33
  -4  -6 -10    7.31    1.30
   5   6  10    5.57    1.19
  -5  -6 -10    5.98    1.30
  -6  -6 -10   19.15    2.04
   6   6  10   20.71    1.97
   7   6  10    1.16    0.84
  -7  -6 -10    1.61    1.03
  -8  -6 -10   12.04    2.03
   8   6  10    9.61    1.86
  -3   7  10    0.69    1.08
   2  -7 -10    6.32    1.55
  -2   7  10    4.61    1.24
   1  -7 -10   13.52    1.98
   1  -7 -10   18.54    2.06
  -1   7  10   20.74    2.21
   0  -7 -10    1.48    0.83
   0   7  10    1.41    0.69
   0  -7 -10    0.36    0.82
  -1  -7 -10   56.07    3.00
   1   7  10   53.51    3.06
  -1  -7 -10   55.11    3.04
   2   7  10    0.88    0.71
  -2  -7 -10   -0.13    0.73
  -2  -7 -10    0.97    0.85
  -3  -7 -10   12.72    1.64
   3   7  10   11.22    1.69
   4   7  10    4.74    1.20
  -4  -7 -10    5.32    1.26
   5   7  10    3.82    1.05
  -5  -7 -10    4.06    1.19
  -6  -7 -10    2.75    1.04
   7   7  10    1.30    1.02
  -7  -7 -10    1.15    1.05
  -8  -7 -10   16.42    2.37
   8   7  10   14.79    2.16
   2  -8 -10    3.76    1.46
  -2   8  10    2.05    1.24
   2  -8 -10    0.93    1.22
   1  -8 -10   26.61    2.58
  -1   8  10   29.02    2.71
   1  -8 -10   29.98    2.43
   0   8  10    2.53    1.05
   0  -8 -10    2.17    1.00
   0  -8 -10    1.42    1.04
  -1  -8 -10  108.30    4.58
   1   8  10  108.40    4.80
  -2  -8 -10    1.95    0.96
   2   8  10    4.50    1.16
  -3  -8 -10   23.70    2.21
   3   8  10   24.85    2.42
   4   8  10    3.65    1.06
  -4  -8 -10    4.63    1.32
   5   8  10    9.23    1.61
  -5  -8 -10   12.80    1.84
  -6  -8 -10   12.54    1.84
  -7  -8 -10   -0.24    0.95
   0  -9 -10    1.47    1.11
   0   9  10    4.38    1.42
   1   9  10   21.06    2.50
  -1  -9 -10   19.13    2.24
   2   9  10   17.14    2.21
  -2  -9 -10   14.50    2.05
  -3  -9 -10    4.36    1.30
   3   9  10    6.15    1.50
  -4  -9 -10    3.01    1.19
   4   9  10    3.12    1.16
   5   9  10    0.97    0.94
  -5  -9 -10   -0.68    0.88
   6   9  10    5.95    1.44
  -6  -9 -10    5.82    1.61
  -2 -10 -10   16.94    2.36
   3  10  10    1.05    1.19
  -3 -10 -10    0.57    1.08
  -4 -10 -10    8.91    1.93
   4  10  10    9.36    1.80
   5  10  10    0.16    1.02
   0   4 -11   -0.03    0.93
   0  -4  11   -0.84    0.89
  -1   4 -11   -1.30    0.97
   2   3 -11    2.57    1.24
   1   3 -11    4.51    1.19
   1   3 -11    2.90    1.24
  -1  -3  11    4.92    1.51
   0  -3  11    4.20    1.32
   0   3 -11    2.50    0.99
   0   3 -11    3.35    1.24
   1  -3  11    1.00    0.89
  -1   3 -11    0.29    0.74
   1  -3  11    1.60    1.06
   2  -3  11   14.90    2.10
  -2   3 -11   14.58    2.07
   3  -3  11    0.23    1.02
  -3   3 -11    0.37    1.03
   2   2 -11    5.28    1.23
  -2  -2  11    4.58    1.46
  -1  -2  11    2.82    1.19
   1   2 -11    2.97    1.23
   1   2 -11    4.92    1.13
   0   2 -11    4.15    1.11
   0   2 -11    4.01    1.17
   0  -2  11    2.97    1.16
   1  -2  11    2.36    0.89
  -1   2 -11    0.53    0.74
   1  -2  11   -0.27    0.77
   2  -2  11   23.27    2.30
  -2   2 -11   18.62    2.16
  -3   2 -11    1.84    0.91
   3  -2  11    0.15    0.82
  -4   2 -11    2.32    1.29
   4  -2  11    3.11    1.21
  -3  -1  11    2.67    1.12
   3   1 -11    0.72    0.97
  -2  -1  11    0.19    0.94
   2   1 -11    2.36    0.96
  -1  -1  11    1.11    1.00
   1   1 -11    2.79    0.95
   0  -1  11   10.78    1.75
   0   1 -11   13.47    1.79
  -1   1 -11   16.99    1.93
   1  -1  11   13.77    1.82
   1  -1  11   13.46    1.74
   2  -1  11    3.01    1.03
   2  -1  11    6.94    1.35
  -2   1 -11    6.57    1.23
   3  -1  11   14.69    1.88
  -3   1 -11   12.49    1.82
  -4   1 -11    1.44    0.91
   4  -1  11    1.03    0.87
  -5   1 -11   16.51    2.33
   5  -1  11   16.73    2.15
   4   0 -11    0.94    1.13
   3   0 -11    4.75    1.25
  -3   0  11    3.94    1.24
  -2   0  11   -0.43    0.88
   2   0 -11    1.25    0.87
  -1   0  11    1.06    0.97
   1   0 -11    1.74    0.91
   0   0  11    4.48    1.07
   0   0  11    4.35    1.28
   0   0 -11    5.62    1.17
   1   0  11    2.44    0.91
  -1   0 -11    2.35    0.92
   1   0  11    3.00    1.10
  -2   0 -11    7.97    1.41
   2   0  11   10.14    1.58
   2   0  11    7.44    1.39
   3   0  11   32.99    2.32
  -3   0 -11   33.76    2.51
  -4   0 -11    5.46    1.28
   4   0  11    4.98    1.18
   5   0  11    6.57    1.33
  -5   0 -11    6.56    1.46
  -6   0 -11    2.35    1.30
   6   0  11    5.32    1.41
   3  -1 -11    0.71    0.88
  -3   1  11    1.41    0.81
  -2   1  11    0.53    0.82
   2  -1 -11    1.80    0.91
  -1   1  11    1.87    0.99
   1  -1 -11    3.75    1.04
   0   1  11    1.36    0.89
   0  -1 -11    1.81    0.87
   1   1  11    2.72    0.80
  -1  -1 -11    2.69    0.98
   1   1  11    3.05    1.07
   2   1  11    3.08    1.07
   2   1  11    2.48    0.91
  -2  -1 -11    3.05    0.96
   3   1  11   43.01    2.45
  -3  -1 -11   35.11    2.50
   3   1  11   38.28    2.40
   4   1  11    4.76    1.15
  -4  -1 -11    4.17    1.21
  -5  -1 -11    0.03    0.80
   5   1  11    1.65    0.79
   6   1  11   16.62    2.07
  -6  -1 -11   19.34    2.23
   7   1  11   -0.16    0.96
  -7  -1 -11    0.50    1.10
   3  -2 -11    7.47    1.53
  -3   2  11   11.88    1.89
  -2   2  11    3.23    1.02
   2  -2 -11    5.36    1.25
  -1   2  11    2.30    1.07
   1  -2 -11    6.16    1.25
   0  -2 -11   13.17    1.76
   0   2  11   16.73    1.93
   1   2  11    0.07    0.69
  -1  -2 -11    0.58    0.77
   2   2  11    1.41    0.70
  -2  -2 -11    0.90    0.82
   2   2  11    1.95    0.88
   3   2  11   68.90    3.08
   3   2  11   65.81    3.16
  -3  -2 -11   57.66    3.23
   4   2  11   16.47    1.74
  -4  -2 -11   20.43    2.06
   5   2  11    6.11    1.18
  -5  -2 -11    8.67    1.51
  -6  -2 -11   47.67    3.00
   6   2  11   48.43    2.88
  -7  -2 -11   24.68    2.42
   7   2  11   22.58    2.38
   3  -3 -11   21.46    2.49
  -3   3  11   16.82    2.16
   2  -3 -11    3.17    1.06
  -2   3  11    1.26    0.93
  -1   3  11    2.76    0.98
   1  -3 -11    2.35    1.10
   0   3  11    0.55    0.82
   0  -3 -11    1.12    0.87
   1   3  11   -0.24    0.75
  -1  -3 -11    2.20    0.96
   2   3  11   12.87    1.64
  -2  -3 -11   13.30    1.67
  -3  -3 -11   42.35    2.64
   3   3  11   40.43    2.47
  -4  -3 -11    5.82    1.25
   4   3  11    7.11    1.23
  -5  -3 -11   15.68    1.88
   5   3  11   16.66    1.79
   6   3  11    1.56    0.78
  -6  -3 -11    2.21    0.93
   7   3  11    8.24    1.56
  -7  -3 -11    7.51    1.47
   3  -4 -11    0.49    1.06
  -3   4  11    0.45    0.92
   2  -4 -11    8.16    1.65
  -2   4  11    5.65    1.30
  -1   4  11    3.02    0.91
   1  -4 -11    2.38    1.18
   0   4  11    9.24    1.55
   0  -4 -11    8.96    1.58
   1   4  11   26.56    2.08
  -1  -4 -11   24.30    2.21
  -2  -4 -11    9.89    1.54
   2   4  11   11.87    1.62
   3   4  11   44.14    2.53
  -3  -4 -11   37.80    2.42
   4   4  11    0.30    0.71
  -4  -4 -11    1.49    0.89
   5   4  11   27.89    2.02
  -5  -4 -11   28.38    2.17
  -6  -4 -11    8.90    1.51
   6   4  11   10.36    1.56
   7   4  11   14.59    1.94
   8   4  11    5.03    1.62
  -3   5  11    0.74    0.98
  -2   5  11    0.70    0.78
   2  -5 -11    0.20    0.95
  -1   5  11    1.31    0.68
   1  -5 -11    0.41    0.97
   0   5  11    0.60    0.77
   0  -5 -11    1.00    0.84
   1   5  11   23.02    2.20
  -1  -5 -11   20.65    2.04
   2   5  11   27.71    2.10
  -2  -5 -11   28.33    2.15
   3   5  11    9.35    1.45
  -3  -5 -11    7.87    1.34
   4   5  11    9.84    1.48
  -4  -5 -11   10.14    1.47
  -5  -5 -11    7.10    1.38
   6   5  11   27.13    2.14
   7   5  11   10.98    1.70
   8   5  11    2.11    1.41
   2  -6 -11    7.33    1.73
  -2   6  11    6.30    1.45
   1  -6 -11   -0.26    0.91
  -1   6  11    1.98    0.86
   0  -6 -11   12.81    1.84
   0   6  11   12.06    1.73
  -1  -6 -11    2.71    1.08
   1   6  11    3.20    1.03
  -2  -6 -11   11.67    1.64
   2   6  11   11.55    1.62
  -3  -6 -11    4.08    1.12
   3   6  11    3.66    0.97
   4   6  11    0.60    0.67
  -6  -6 -11    1.16    0.88
  -7  -6 -11   18.43    2.10
   7   6  11   17.78    2.09
   8   6  11   -1.15    1.11
  -8  -6 -11    0.09    1.10
   1  -7 -11    1.40    1.16
  -1   7  11    0.46    0.96
   0  -7 -11   36.49    2.71
   0   7  11   35.36    2.61
  -1  -7 -11    2.12    1.13
   1   7  11    1.92    0.93
  -2  -7 -11   21.32    2.04
  -2  -7 -11   21.97    2.08
   2   7  11   20.95    2.27
  -3  -7 -11    0.59    0.87
   3   7  11    0.96    0.81
   4   7  11   10.40    1.62
  -4  -7 -11    8.93    1.49
   5   7  11   29.04    2.28
  -5  -7 -11   26.21    2.35
  -6  -7 -11    1.28    1.00
  -7  -7 -11   35.65    2.85
   1  -8 -11    2.51    1.29
   1  -8 -11    0.22    1.28
   0  -8 -11   21.48    2.33
   0  -8 -11   20.53    2.30
   0   8  11   17.90    2.31
   1   8  11   16.06    2.18
  -1  -8 -11   20.70    2.20
  -2  -8 -11    3.05    1.19
   2   8  11    0.93    0.96
  -3  -8 -11   10.01    1.67
   3   8  11   11.87    1.82
   4   8  11    1.99    0.97
  -4  -8 -11    1.17    0.92
   5   8  11   17.48    2.11
  -5  -8 -11   15.43    1.97
  -6  -8 -11    2.84    1.18
  -7  -8 -11    1.54    1.19
   0  -9 -11    4.66    1.57
  -1  -9 -11    6.29    1.57
  -2  -9 -11    0.46    0.91
   2   9  11   -1.20    0.96
   3   9  11    5.10    1.50
  -3  -9 -11    2.08    1.18
  -4  -9 -11    0.29    1.00
   4   9  11   -0.22    1.02
  -5  -9 -11    1.85    1.21
   5   9  11    2.59    1.09
  -6  -9 -11    6.81    1.73
   1   2 -12    0.23    0.92
   0  -2  12    2.24    1.28
   0  -2  12    1.64    1.04
   0   2 -12    0.42    0.97
   1  -2  12    7.26    1.71
  -1   2 -12   10.89    1.82
   1  -2  12    8.91    1.68
   2  -2  12    0.81    1.08
  -2   2 -12    0.99    0.99
   3  -2  12    0.97    1.09
   2   1 -12    1.52    1.05
  -1  -1  12   -0.85    0.98
   1   1 -12    0.59    0.98
   0  -1  12    2.42    0.89
   0  -1  12    1.78    1.06
   0   1 -12    2.32    0.88
   1  -1  12    8.20    1.38
   1  -1  12    8.56    1.64
  -1   1 -12    8.16    1.50
   2  -1  12    6.57    1.42
   2  -1  12    8.57    1.67
  -2   1 -12    5.41    1.32
  -3   1 -12    3.33    1.20
   3  -1  12    1.51    1.09
  -4   1 -12    1.62    1.20
   4  -1  12    1.54    1.02
  -2   0  12    0.86    1.08
   2   0 -12    0.84    0.90
  -1   0  12    1.54    1.12
   1   0 -12    2.01    0.97
   0   0 -12    2.93    0.97
   0   0  12    4.08    1.32
   1   0  12    4.86    1.13
  -1   0 -12    4.75    1.13
   1   0  12    4.93    1.32
  -2   0 -12    0.23    0.78
   2   0  12   -0.15    0.89
   2   0  12    0.60    0.81
  -3   0 -12    0.85    0.95
   3   0  12    1.69    0.93
  -4   0 -12    3.24    1.24
   4   0  12    6.01    1.35
  -5   0 -12    4.36    1.50
   5   0  12    5.96    1.46
  -2   1  12    1.53    1.05
   2  -1 -12    2.87    1.16
   1  -1 -12    3.96    1.09
  -1   1  12    1.20    1.00
   0   1  12    1.87    1.15
   0  -1 -12    4.84    1.12
  -1  -1 -12    2.34    0.85
   1   1  12    2.15    1.00
  -2  -1 -12   36.32    2.58
   2   1  12   38.10    2.45
   2   1  12   40.99    2.66
  -3  -1 -12   11.30    1.81
   3   1  12   12.00    1.61
   4   1  12    1.02    0.82
  -4  -1 -12    0.32    0.98
  -5  -1 -12   28.75    2.79
   5   1  12   28.11    2.51
  -6  -1 -12   19.77    2.43
   6   1  12   16.03    2.25
   2  -2 -12   -0.39    0.89
  -2   2  12   -0.51    0.77
  -1   2  12    1.14    0.99
   1  -2 -12    2.34    0.95
   0  -2 -12    2.98    0.98
   0   2  12    2.64    1.07
  -1  -2 -12    8.10    1.46
   1   2  12    7.36    1.50
   2   2  12   32.40    2.32
  -2  -2 -12   30.45    2.35
  -3  -2 -12   29.83    2.41
   3   2  12   29.46    2.14
   3   2  12   31.06    2.26
  -4  -2 -12    0.74    0.84
   4   2  12    1.11    0.81
   5   2  12    3.35    1.05
  -5  -2 -12    4.01    1.16
  -6  -2 -12    3.74    1.32
   6   2  12    4.45    1.20
  -7  -2 -12    5.79    1.56
   2  -3 -12   -0.04    0.90
  -2   3  12   -0.18    0.69
   1  -3 -12    1.63    1.08
  -1   3  12    3.64    1.22
   0   3  12    3.74    1.23
   0  -3 -12    4.02    1.21
  -1  -3 -12    4.73    1.19
   1   3  12    4.11    1.18
   2   3  12   23.77    2.22
  -2  -3 -12   22.46    2.15
  -3  -3 -12    0.59    0.76
   3   3  12    1.53    0.87
  -4  -3 -12   15.68    1.90
   4   3  12   17.19    1.79
  -5  -3 -12    3.38    1.18
   5   3  12    2.49    0.91
  -6  -3 -12   11.98    1.86
   6   3  12   13.05    1.72
   7   3  12    2.39    1.33
  -7  -3 -12    2.52    1.20
  -2   4  12    0.86    0.98
   2  -4 -12    1.52    1.29
  -1   4  12    3.99    1.09
   1  -4 -12    3.09    1.23
   0   4  12   16.81    2.13
   0  -4 -12   15.04    2.05
  -1  -4 -12    5.93    1.33
   1   4  12    6.05    1.41
  -2  -4 -12    9.67    1.57
   2   4  12   11.64    1.68
  -3  -4 -12   12.92    1.74
   3   4  12    9.35    1.56
   4   4  12   20.32    1.96
  -4  -4 -12   16.54    1.96
  -5  -4 -12   31.32    2.33
  -6  -4 -12    1.40    0.97
   6   4  12    1.93    0.95
   7   4  12    2.67    1.25
   1  -5 -12    3.24    1.38
  -1   5  12    4.55    1.18
   0   5  12    1.49    0.97
   0  -5 -12    1.63    0.94
   1   5  12   13.18    1.81
  -1  -5 -12   11.46    1.79
   2   5  12    0.39    0.79
  -2  -5 -12    0.50    0.87
   3   5  12    0.34    0.81
  -3  -5 -12    1.44    0.89
  -4  -5 -12    1.24    0.83
   4   5  12    0.07    0.72
  -5  -5 -12    4.69    1.18
   7   5  12    5.02    1.45
  -1   6  12    7.38    1.64
   1  -6 -12   10.01    1.87
   0  -6 -12    2.97    1.18
   0   6  12    2.29    1.07
  -1  -6 -12   13.46    1.93
   1   6  12   11.93    1.78
  -2  -6 -12    0.66    0.91
   2   6  12    0.41    0.74
  -3  -6 -12    2.79    0.95
   3   6  12    3.88    1.05
   4   6  12   22.13    2.28
   0  -7 -12   13.35    2.11
   0   7  12   12.37    1.99
  -1  -7 -12    2.49    1.06
   1   7  12    1.10    0.96
  -2  -7 -12    9.79    1.64
   2   7  12    8.16    1.47
   3   7  12    1.69    0.93
   4   7  12   24.96    2.48
   5   7  12    2.82    1.14
   0  -8 -12    3.24    1.41
   1   8  12    0.17    1.02
   2   8  12   -1.01    0.76
   3   8  12    0.79    1.01
   4   8  12    2.35    1.15
   5   8  12   20.93    2.37
  -5  -8 -12   17.88    2.19
  -6  -8 -12    0.43    1.19
  -2  -9 -12    4.98    1.60
  -3  -9 -12   12.77    2.02
   4   9  12    3.80    1.45
  -4  -9 -12    2.46    1.33
   5   9  12    5.68    1.59
   1  -1  13    1.67    1.29
   1  -1  13    1.71    1.19
   2  -1  13   -0.49    1.14
   0   0  13    4.60    1.51
   1   0  13    3.34    1.40
  -1   0 -13    2.72    1.20
  -2   0 -13   -0.56    0.87
   2   0  13    2.06    1.02
   2   0  13    0.21    0.88
  -3   0 -13    1.10    1.15
   3   0  13   -0.73    0.94
   4   0  13   10.37    1.86
   0  -1 -13    3.30    1.31
   0   1  13    4.59    1.53
   1   1  13    3.89    1.34
  -1  -1 -13    2.73    1.19
  -2  -1 -13    3.33    1.25
   2   1  13    4.32    1.38
  -3  -1 -13   -0.05    0.95
   3   1  13    2.88    0.96
  -4  -1 -13    2.96    1.35
   4   1  13    2.53    1.06
   5   1  13    7.60    1.72
   0  -2 -13    5.08    1.37
   0   2  13    3.76    1.40
  -1  -2 -13    1.63    1.07
   1   2  13    3.40    1.28
   2   2  13    2.37    1.11
  -2  -2 -13    3.08    1.23
  -3  -2 -13    0.63    0.96
   3   2  13    0.72    0.93
  -4  -2 -13   -1.08    0.77
   4   2  13    2.47    0.95
  -5  -2 -13    1.71    1.03
   5   2  13    2.16    1.09
   0   3  13    1.17    1.13
   0  -3 -13    1.02    1.04
   1   3  13    9.63    1.76
  -1  -3 -13    8.75    1.66
  -2  -3 -13    5.25    1.32
   2   3  13    4.14    1.35
  -3  -3 -13   26.03    2.47
   3   3  13   27.01    2.45
  -4  -3 -13    8.99    1.69
  -5  -3 -13    2.71    1.28
   5   3  13    5.78    1.25
  -6  -3 -13    3.11    1.37
   6   3  13    3.14    1.30
   0   4  13    4.00    1.31
   0  -4 -13    5.43    1.54
   1   4  13    1.28    0.99
  -1  -4 -13    0.03    0.97
   2   4  13    4.34    1.21
  -2  -4 -13    3.86    1.21
   3   4  13    2.26    1.00
  -3  -4 -13    2.08    1.04
  -4  -4 -13    0.55    0.97
  -5  -4 -13   11.56    1.87
  -6  -4 -13    7.31    1.65
   0   5  13    3.99    1.37
   0  -5 -13    3.95    1.46
   1   5  13    2.37    1.19
  -1  -5 -13    1.70    1.12
  -2  -5 -13    1.85    1.08
   2   5  13    3.44    1.16
   3   5  13    1.49    1.00
  -3  -5 -13    1.41    0.96
  -4  -5 -13    1.50    0.97
   4   5  13   -0.17    0.86
  -5  -5 -13   13.00    1.85
   0  -6 -13    2.21    1.37
   1   6  13    1.51    1.04
  -1  -6 -13    1.17    1.16
  -2  -6 -13    2.30    1.13
   2   6  13    1.69    0.99
  -3  -6 -13   11.15    1.74
   3   6  13   12.34    1.85
   4   6  13    0.54    0.90
  -1  -7 -13    0.96    1.17
   2   7  13    0.43    1.00
  -2  -7 -13    1.30    1.05
   3   7  13    6.93    1.52
   4   7  13   12.47    1.87
   4   8  13   10.88    1.97
   2   1  14    0.93    1.16
   2   2  14    4.06    1.48
   2   3  14    3.75    1.36
  -3  -3 -14    1.14    1.02
   3   3  14    0.16    1.14
  -2  -4 -14   -0.13    1.06
   2   4  14    0.07    0.90
   3   4  14    2.20    1.23
  -3  -4 -14    2.98    1.32
  -4  -4 -14   12.34    2.02
  -5  -4 -14    1.45    1.25
  -2  -5 -14    2.08    1.19
   2   5  14    3.66    1.37
   3   5  14    0.46    1.09
  -3  -5 -14    0.49    1.09
  -4  -5 -14   10.64    1.90
  -2  -6 -14    2.69    1.30
  -3  -6 -14    0.43    1.10
   3   6  14    2.49    1.17
   4   6  14    2.96    1.21
   0   0   0    0.00    0.00
;
_shelx_hkl_checksum              95175
loop_
_space_group_symop_operation_xyz
'x, y, z'
'-x, -y, -z'
loop_
_atom_site_label
_atom_site_type_symbol
_atom_site_fract_x
_atom_site_fract_y
_atom_site_fract_z
_atom_site_U_iso_or_equiv
_atom_site_adp_type
_atom_site_occupancy
_atom_site_site_symmetry_order
_atom_site_calc_flag
_atom_site_refinement_flags_posn
_atom_site_refinement_flags_adp
C1 C 0.6104(2) 0.1723(2) 0.87470(18) 0.0452(4) Uani 1 1 d . .
C2 C 0.6690(3) -0.0293(3) 0.7707(2) 0.0646(6) Uani 1 1 d . .
H2 H 0.6453 -0.0664 0.7069 0.078 Uiso 1 1 calc R U
C3 C 0.7953(3) -0.1328(3) 0.8476(2) 0.0660(6) Uani 1 1 d . .
H3 H 0.8579 -0.2361 0.8350 0.079 Uiso 1 1 calc R U
C4 C 0.8273(3) -0.0803(2) 0.9440(2) 0.0626(5) Uani 1 1 d . .
H4 H 0.9111 -0.1486 0.9989 0.075 Uiso 1 1 calc R U
C5 C 0.7346(3) 0.0740(2) 0.9589(2) 0.0546(5) Uani 1 1 d . .
H5 H 0.7543 0.1118 1.0238 0.066 Uiso 1 1 calc R U
C6 C 0.3760(2) 0.4431(2) 0.83321(18) 0.0458(4) Uani 1 1 d . .
C7 C 0.1686(3) 0.5148(2) 0.67531(18) 0.0487(4) Uani 1 1 d . .
C8 C -0.0121(3) 0.4898(2) 0.7195(2) 0.0606(5) Uani 1 1 d . .
H8 H -0.0403 0.4044 0.7957 0.073 Uiso 1 1 calc R U
C9 C -0.1535(3) 0.5903(3) 0.6518(2) 0.0633(5) Uani 1 1 d . .
H9 H -0.2759 0.5721 0.6824 0.076 Uiso 1 1 calc R U
C10 C -0.1133(3) 0.7164(2) 0.53997(19) 0.0528(5) Uani 1 1 d . .
C11 C 0.0667(3) 0.7423(3) 0.4952(2) 0.0664(6) Uani 1 1 d . .
H11 H 0.0946 0.8282 0.4194 0.080 Uiso 1 1 calc R U
C12 C 0.2079(3) 0.6399(3) 0.5632(2) 0.0639(5) Uani 1 1 d . .
H12 H 0.3308 0.6569 0.5318 0.077 Uiso 1 1 calc R U
C13 C -0.2292(4) 0.9488(3) 0.3690(3) 0.0973(9) Uani 1 1 d . .
H13A H -0.1772 1.0208 0.3934 0.146 Uiso 1 1 calc R U
H13B H -0.3458 1.0088 0.3404 0.146 Uiso 1 1 calc R U
H13C H -0.1417 0.9103 0.2976 0.146 Uiso 1 1 calc R U
N1 N 0.5763(2) 0.12348(19) 0.78149(16) 0.0544(4) Uani 1 1 d . .
N2 N 0.5184(2) 0.32966(18) 0.88981(16) 0.0484(4) Uani 1 1 d . .
H1N H 0.550(3) 0.353(2) 0.948(2) 0.050(5) Uiso 1 1 d . .
N3 N 0.3163(2) 0.4077(2) 0.74345(17) 0.0540(4) Uani 1 1 d . .
H2N H 0.373(3) 0.317(3) 0.725(2) 0.066(6) Uiso 1 1 d . .
O1 O -0.2631(2) 0.81121(19) 0.48013(16) 0.0728(4) Uani 1 1 d . .
S1 S 0.28659(8) 0.61906(6) 0.87941(6) 0.0662(2) Uani 1 1 d . .
loop_
_atom_site_aniso_label
_atom_site_aniso_U_11
_atom_site_aniso_U_22
_atom_site_aniso_U_33
_atom_site_aniso_U_23
_atom_site_aniso_U_13
_atom_site_aniso_U_12
C1 0.0370(8) 0.0395(9) 0.0572(10) -0.0152(8) -0.0102(7) -0.0023(7)
C2 0.0567(12) 0.0600(12) 0.0857(15) -0.0407(11) -0.0210(11) 0.0065(9)
C3 0.0546(11) 0.0482(11) 0.0963(16) -0.0325(11) -0.0212(11) 0.0089(9)
C4 0.0509(11) 0.0485(11) 0.0848(15) -0.0177(10) -0.0269(10) 0.0073(8)
C5 0.0504(10) 0.0466(10) 0.0698(12) -0.0191(9) -0.0245(9) 0.0012(8)
C6 0.0438(9) 0.0393(9) 0.0535(10) -0.0147(7) -0.0155(8) 0.0003(7)
C7 0.0533(10) 0.0426(9) 0.0553(10) -0.0227(8) -0.0225(8) 0.0047(8)
C8 0.0594(12) 0.0504(11) 0.0656(12) -0.0064(9) -0.0200(10) -0.0058(9)
C9 0.0476(10) 0.0597(12) 0.0784(14) -0.0123(11) -0.0192(10) -0.0065(9)
C10 0.0549(11) 0.0488(10) 0.0608(11) -0.0217(9) -0.0274(9) 0.0030(8)
C11 0.0667(13) 0.0651(13) 0.0584(12) -0.0016(10) -0.0220(10) -0.0093(10)
C12 0.0497(11) 0.0691(13) 0.0685(13) -0.0118(11) -0.0195(10) -0.0066(9)
C13 0.107(2) 0.0773(17) 0.105(2) 0.0054(15) -0.0704(18) -0.0054(15)
N1 0.0500(9) 0.0479(8) 0.0674(10) -0.0257(8) -0.0190(7) 0.0058(7)
N2 0.0483(8) 0.0411(8) 0.0603(9) -0.0191(7) -0.0247(7) 0.0033(6)
N3 0.0571(9) 0.0441(8) 0.0657(10) -0.0251(8) -0.0294(8) 0.0106(7)
O1 0.0663(9) 0.0647(9) 0.0872(11) -0.0114(8) -0.0432(8) 0.0020(7)
S1 0.0717(4) 0.0519(3) 0.0866(4) -0.0374(3) -0.0453(3) 0.0202(2)
loop_
_atom_type_symbol
_atom_type_description
_atom_type_scat_dispersion_real
_atom_type_scat_dispersion_imag
_atom_type_scat_source
C C 0.0033 0.0016 'International Tables Vol C Tables 4.2.6.8 and 6.1.1.4'
H H 0.0000 0.0000 'International Tables Vol C Tables 4.2.6.8 and 6.1.1.4'
N N 0.0061 0.0033 'International Tables Vol C Tables 4.2.6.8 and 6.1.1.4'
S S 0.1246 0.1234 'International Tables Vol C Tables 4.2.6.8 and 6.1.1.4'
O O 0.0106 0.0060 'International Tables Vol C Tables 4.2.6.8 and 6.1.1.4'
loop_
_geom_angle_atom_site_label_1
_geom_angle_atom_site_label_2
_geom_angle_atom_site_label_3
_geom_angle
N1 C1 C5 123.08(16)
N1 C1 N2 119.01(15)
C5 C1 N2 117.92(16)
N1 C2 C3 124.07(19)
N1 C2 H2 118.0
C3 C2 H2 118.0
C2 C3 C4 118.18(18)
C2 C3 H3 120.9
C4 C3 H3 120.9
C3 C4 C5 119.53(18)
C3 C4 H4 120.2
C5 C4 H4 120.2
C4 C5 C1 118.38(18)
C4 C5 H5 120.8
C1 C5 H5 120.8
N3 C6 N2 117.60(15)
N3 C6 S1 123.54(13)
N2 C6 S1 118.86(13)
C12 C7 C8 119.06(17)
C12 C7 N3 120.37(18)
C8 C7 N3 120.54(18)
C7 C8 C9 120.54(19)
C7 C8 H8 119.7
C9 C8 H8 119.7
C10 C9 C8 120.05(19)
C10 C9 H9 120.0
C8 C9 H9 120.0
C11 C10 C9 119.80(18)
C11 C10 O1 124.20(19)
C9 C10 O1 116.00(18)
C10 C11 C12 119.7(2)
C10 C11 H11 120.1
C12 C11 H11 120.1
C7 C12 C11 120.8(2)
C7 C12 H12 119.6
C11 C12 H12 119.6
O1 C13 H13A 109.5
O1 C13 H13B 109.5
H13A C13 H13B 109.5
O1 C13 H13C 109.5
H13A C13 H13C 109.5
H13B C13 H13C 109.5
C1 N1 C2 116.74(16)
C6 N2 C1 130.57(16)
C6 N2 H1N 115.5(14)
C1 N2 H1N 113.6(14)
C6 N3 C7 123.94(15)
C6 N3 H2N 116.3(15)
C7 N3 H2N 119.8(15)
C10 O1 C13 117.57(18)
loop_
_geom_bond_atom_site_label_1
_geom_bond_atom_site_label_2
_geom_bond_distance
C1 N1 1.327(2)
C1 C5 1.391(2)
C1 N2 1.397(2)
C2 N1 1.349(2)
C2 C3 1.364(3)
C2 H2 0.9300
C3 C4 1.372(3)
C3 H3 0.9300
C4 C5 1.373(3)
C4 H4 0.9300
C5 H5 0.9300
C6 N3 1.328(2)
C6 N2 1.365(2)
C6 S1 1.6787(17)
C7 C12 1.362(3)
C7 C8 1.368(3)
C7 N3 1.435(2)
C8 C9 1.383(3)
C8 H8 0.9300
C9 C10 1.367(3)
C9 H9 0.9300
C10 C11 1.364(3)
C10 O1 1.376(2)
C11 C12 1.388(3)
C11 H11 0.9300
C12 H12 0.9300
C13 O1 1.414(3)
C13 H13A 0.9600
C13 H13B 0.9600
C13 H13C 0.9600
N2 H1N 0.83(2)
N3 H2N 0.84(2)
loop_
_geom_hbond_atom_site_label_D
_geom_hbond_atom_site_label_H
_geom_hbond_atom_site_label_A
_geom_hbond_distance_DH
_geom_hbond_distance_HA
_geom_hbond_distance_DA
_geom_hbond_angle_DHA
_geom_hbond_site_symmetry_A
N2 H1N S1 0.83(2) 2.61(2) 3.4253(17) 167.9(18) 2_667
N3 H2N N1 0.84(2) 1.99(2) 2.683(2) 139(2) .
loop_
_geom_torsion_atom_site_label_1
_geom_torsion_atom_site_label_2
_geom_torsion_atom_site_label_3
_geom_torsion_atom_site_label_4
_geom_torsion
N1 C2 C3 C4 1.6(4)
C2 C3 C4 C5 -0.9(3)
C3 C4 C5 C1 -0.1(3)
N1 C1 C5 C4 0.6(3)
N2 C1 C5 C4 -179.37(18)
C12 C7 C8 C9 -0.3(3)
N3 C7 C8 C9 -178.28(18)
C7 C8 C9 C10 -0.2(3)
C8 C9 C10 C11 0.2(3)
C8 C9 C10 O1 -179.23(18)
C9 C10 C11 C12 0.3(3)
O1 C10 C11 C12 179.70(19)
C8 C7 C12 C11 0.8(3)
N3 C7 C12 C11 178.81(19)
C10 C11 C12 C7 -0.8(3)
C5 C1 N1 C2 -0.1(3)
N2 C1 N1 C2 179.89(17)
C3 C2 N1 C1 -1.0(3)
N3 C6 N2 C1 -3.8(3)
S1 C6 N2 C1 176.49(15)
N1 C1 N2 C6 8.5(3)
C5 C1 N2 C6 -171.57(19)
N2 C6 N3 C7 -179.76(17)
S1 C6 N3 C7 0.0(3)
C12 C7 N3 C6 84.9(2)
C8 C7 N3 C6 -97.2(2)
C11 C10 O1 C13 -3.1(3)
C9 C10 O1 C13 176.3(2)
