#------------------------------------------------------------------------------
#$Date: 2017-11-07 02:45:33 +0200 (Tue, 07 Nov 2017) $
#$Revision: 202695 $
#$URL: file:///home/coder/svn-repositories/cod/cif/4/03/28/4032838.cif $
#------------------------------------------------------------------------------
#
# This file is available in the Crystallography Open Database (COD),
# http://www.crystallography.net/
#
# All data on this site have been placed in the public domain by the
# contributors.
#
data_4032838
loop_
_publ_author_name
'Sun, Ning'
'Chen, Haoyi'
'Li, Xiangdong'
'Xu, Murong'
'Gan, Yi'
'Zhang, Liangwei'
'Liu, Yuanhong'
_publ_section_title
;
 PBr3-Mediated Cyclization of 1,7-Diyn-3,6-bis(propargyl carbonate)s:
 Synthesis of 5-Bromotetracenes.
;
_journal_issue                   19
_journal_name_full               'The Journal of organic chemistry'
_journal_page_first              10051
_journal_page_last               10061
_journal_paper_doi               10.1021/acs.joc.7b01519
_journal_volume                  82
_journal_year                    2017
_chemical_formula_sum            'C24 H13 Br F2'
_chemical_formula_weight         419.25
_chemical_name_systematic
; 
 ? 
;
_space_group_crystal_system      triclinic
_space_group_IT_number           2
_space_group_name_Hall           '-P 1'
_space_group_name_H-M_alt        'P -1'
_symmetry_space_group_name_Hall  '-P 1'
_symmetry_space_group_name_H-M   'P -1'
_atom_sites_solution_hydrogens   geom
_audit_creation_method           SHELXL-2013
_cell_angle_alpha                95.510(4)
_cell_angle_beta                 114.285(4)
_cell_angle_gamma                101.901(4)
_cell_formula_units_Z            2
_cell_length_a                   9.3519(19)
_cell_length_b                   9.4398(19)
_cell_length_c                   11.185(2)
_cell_measurement_reflns_used    2003
_cell_measurement_temperature    293(2)
_cell_measurement_theta_max      55.939
_cell_measurement_theta_min      4.503
_cell_volume                     862.4(3)
_computing_cell_refinement       'Bruker SMART'
_computing_data_collection       'Bruker SMART'
_computing_data_reduction        'Bruker SHELXTL'
_computing_molecular_graphics    'Bruker SHELXTL'
_computing_publication_material  'Bruker SHELXTL'
_computing_structure_refinement  'SHELXL-2013 (Sheldrick, 2013)'
_computing_structure_solution    'Bruker SHELXTL'
_diffrn_ambient_temperature      293(2)
_diffrn_measured_fraction_theta_full 0.997
_diffrn_measured_fraction_theta_max 0.997
_diffrn_measurement_device_type  'CCD area detector'
_diffrn_measurement_method       'phi and omega scans'
_diffrn_radiation_type           MoK\a
_diffrn_radiation_wavelength     0.71073
_diffrn_reflns_av_R_equivalents  0.0190
_diffrn_reflns_av_unetI/netI     0.0386
_diffrn_reflns_Laue_measured_fraction_full 0.997
_diffrn_reflns_Laue_measured_fraction_max 0.997
_diffrn_reflns_limit_h_max       11
_diffrn_reflns_limit_h_min       -10
_diffrn_reflns_limit_k_max       10
_diffrn_reflns_limit_k_min       -11
_diffrn_reflns_limit_l_max       13
_diffrn_reflns_limit_l_min       -13
_diffrn_reflns_number            4990
_diffrn_reflns_point_group_measured_fraction_full 0.997
_diffrn_reflns_point_group_measured_fraction_max 0.997
_diffrn_reflns_theta_full        25.242
_diffrn_reflns_theta_max         25.497
_diffrn_reflns_theta_min         2.040
_exptl_absorpt_coefficient_mu    2.409
_exptl_absorpt_correction_T_max  0.7457
_exptl_absorpt_correction_T_min  0.6218
_exptl_absorpt_correction_type   multi-scan
_exptl_absorpt_process_details   sadabs
_exptl_crystal_colour            red
_exptl_crystal_density_diffrn    1.615
_exptl_crystal_description       prismatic
_exptl_crystal_F_000             420
_exptl_crystal_size_max          0.200
_exptl_crystal_size_mid          0.160
_exptl_crystal_size_min          0.120
_refine_diff_density_max         0.363
_refine_diff_density_min         -0.283
_refine_diff_density_rms         0.065
_refine_ls_extinction_method     none
_refine_ls_goodness_of_fit_ref   1.032
_refine_ls_hydrogen_treatment    constr
_refine_ls_matrix_type           full
_refine_ls_number_parameters     244
_refine_ls_number_reflns         3212
_refine_ls_number_restraints     0
_refine_ls_restrained_S_all      1.032
_refine_ls_R_factor_all          0.0447
_refine_ls_R_factor_gt           0.0347
_refine_ls_shift/su_max          0.001
_refine_ls_shift/su_mean         0.000
_refine_ls_structure_factor_coef Fsqd
_refine_ls_weighting_details
'w=1/[\s^2^(Fo^2^)+(0.0552P)^2^+0.0301P] where P=(Fo^2^+2Fc^2^)/3'
_refine_ls_weighting_scheme      calc
_refine_ls_wR_factor_gt          0.0891
_refine_ls_wR_factor_ref         0.0942
_reflns_Friedel_coverage         0.000
_reflns_number_gt                2632
_reflns_number_total             3212
_reflns_threshold_expression     'I > 2\s(I)'
_cod_data_source_file            jo7b01519_si_002.cif
_cod_data_source_block           cd17266
_cod_depositor_comments
'Adding full bibliography for 4032838--4032839.cif.'
_cod_database_code               4032838
_shelx_space_group_comment
; 
The symmetry employed for this shelxl refinement is uniquely defined 
by the following loop, which should always be used as a source of 
symmetry information in preference to the above space-group names. 
They are only intended as comments. 
;
_shelx_estimated_absorpt_t_min   0.644
_shelx_estimated_absorpt_t_max   0.761
_shelxl_version_number           2013-4
_shelx_res_file
; 
TITL cd17266 in P-1 
CELL 0.71073   9.3519   9.4398  11.1846  95.510 114.285 101.901 
ZERR    2.00   0.0019   0.0019   0.0022   0.004   0.004   0.004 
LATT 1 
SFAC C  H  F  Br 
UNIT 48 26 4 2 
OMIT  -3.00  51.00 
L.S. 10 
ACTA 
BOND  $H 
FMAP 2 
PLAN 20 
wpdb -1 
size 0.20 0.16 0.12 
mpla c9 > c18 
mpla c19 > c24 
mpla c1 > c10 
htab 
conf 
WGHT    0.055200    0.030100 
FVAR       0.17236 
MOLE 1 
BR1   4    0.217448    0.853570    1.088084    11.00000    0.07433    0.03347 = 
         0.04906   -0.00679    0.01874    0.01278 
F1    3   -0.420361    0.681098    0.488908    11.00000    0.06404    0.06649 = 
         0.06292    0.00927    0.00609    0.03492 
F2    3   -0.268539   -0.050554    0.314369    11.00000    0.09630    0.06003 = 
         0.05419   -0.02162    0.02084    0.01869 
C1    1    0.113239    0.680839    0.950434    11.00000    0.05073    0.02823 = 
         0.03648    0.00198    0.02240    0.00801 
C2    1   -0.024262    0.680881    0.837279    11.00000    0.05007    0.02990 = 
         0.04045    0.00495    0.02647    0.01037 
C3    1   -0.098020    0.800406    0.821906    11.00000    0.06436    0.03810 = 
         0.04586    0.00382    0.02817    0.02123 
AFIX  43 
H3    2   -0.054605    0.881820    0.892084    11.00000   -1.20000 
AFIX   0 
C4    1   -0.228506    0.798437    0.708746    11.00000    0.06614    0.04421 = 
         0.05640    0.00994    0.02893    0.02881 
AFIX  43 
H4    2   -0.275542    0.876906    0.700686    11.00000   -1.20000 
AFIX   0 
C5    1   -0.292165    0.675971    0.603315    11.00000    0.04732    0.05103 = 
         0.04755    0.01114    0.01827    0.02027 
C6    1   -0.233131    0.557697    0.609087    11.00000    0.04677    0.03910 = 
         0.04087    0.00346    0.01804    0.01282 
AFIX  43 
H6    2   -0.280927    0.478787    0.536253    11.00000   -1.20000 
AFIX   0 
C7    1   -0.095713    0.553820    0.728448    11.00000    0.04204    0.03190 = 
         0.03657    0.00528    0.02074    0.00928 
C8    1   -0.029795    0.432509    0.739729    11.00000    0.03981    0.03057 = 
         0.03122    0.00245    0.01620    0.00629 
C9    1    0.107183    0.433848    0.859367    11.00000    0.03950    0.02948 = 
         0.03306    0.00258    0.01805    0.00597 
C10   1    0.173885    0.312163    0.876550    11.00000    0.04729    0.03006 = 
         0.03457    0.00255    0.01869    0.00945 
AFIX  43 
H10   2    0.123328    0.227380    0.809368    11.00000   -1.20000 
AFIX   0 
C11   1    0.312581    0.314539    0.990421    11.00000    0.04305    0.03551 = 
         0.03700    0.00845    0.02081    0.01047 
C12   1    0.382535    0.192985    1.007040    11.00000    0.05931    0.04114 = 
         0.04391    0.00917    0.02167    0.02028 
AFIX  43 
H12   2    0.333202    0.107314    0.940872    11.00000   -1.20000 
AFIX   0 
C13   1    0.520225    0.200942    1.118283    11.00000    0.05915    0.05089 = 
         0.05444    0.01522    0.02507    0.02573 
AFIX  43 
H13   2    0.564396    0.120647    1.127553    11.00000   -1.20000 
AFIX   0 
C14   1    0.597308    0.329396    1.220098    11.00000    0.04839    0.06147 = 
         0.04677    0.01452    0.01386    0.01936 
AFIX  43 
H14   2    0.692268    0.333203    1.295383    11.00000   -1.20000 
AFIX   0 
C15   1    0.535156    0.446516    1.209657    11.00000    0.04863    0.04772 = 
         0.04105    0.00516    0.01188    0.00800 
AFIX  43 
H15   2    0.587220    0.530163    1.278062    11.00000   -1.20000 
AFIX   0 
C16   1    0.390246    0.443915    1.094831    11.00000    0.04222    0.03655 = 
         0.03676    0.00592    0.01890    0.00547 
C17   1    0.323651    0.562767    1.081082    11.00000    0.04691    0.03293 = 
         0.03540   -0.00001    0.01771    0.00453 
AFIX  43 
H17   2    0.373554    0.646066    1.149847    11.00000   -1.20000 
AFIX   0 
C18   1    0.183150    0.561877    0.966721    11.00000    0.04074    0.02962 = 
         0.03561    0.00332    0.02004    0.00500 
C19   1   -0.097555    0.304913    0.624690    11.00000    0.04066    0.03189 = 
         0.03141    0.00427    0.01439    0.01302 
C20   1   -0.247592    0.205318    0.583516    11.00000    0.04857    0.04027 = 
         0.04105    0.00169    0.02151    0.00827 
AFIX  43 
H20   2   -0.310926    0.218974    0.627282    11.00000   -1.20000 
AFIX   0 
C21   1   -0.305632    0.086235    0.479152    11.00000    0.05557    0.04089 = 
         0.04914   -0.00175    0.01948   -0.00043 
AFIX  43 
H21   2   -0.406802    0.019760    0.452468    11.00000   -1.20000 
AFIX   0 
C22   1   -0.211824    0.067982    0.415997    11.00000    0.06267    0.04073 = 
         0.03265   -0.00277    0.01088    0.01932 
C23   1   -0.065376    0.163490    0.450312    11.00000    0.05785    0.06542 = 
         0.04421   -0.00402    0.02540    0.02258 
AFIX  43 
H23   2   -0.004645    0.149416    0.404213    11.00000   -1.20000 
AFIX   0 
C24   1   -0.007941    0.282399    0.555308    11.00000    0.04346    0.05271 = 
         0.04586   -0.00212    0.02088    0.00802 
AFIX  43 
H24   2    0.092781    0.348708    0.580021    11.00000   -1.20000 
AFIX   0 
HKLF 4 
  
REM  cd17266 in P-1 
REM R1 =  0.0347 for    2632 Fo > 4sig(Fo)  and  0.0447 for all    3212 data 
REM    244 parameters refined using      0 restraints 
  
END 
  
WGHT      0.0543      0.0507 
  
REM Instructions for potential hydrogen bonds 
EQIV $1 -x, -y+2, -z+2 
HTAB C4 Br1_$1 
  
REM Highest difference peak  0.363,  deepest hole -0.283,  1-sigma level  0.065 
Q1    1   0.4173  0.7420  1.1806  11.00000  0.05    0.36 
Q2    1   0.1393  0.7645  1.0349  11.00000  0.05    0.28 
Q3    1   0.3138  0.9370  1.0994  11.00000  0.05    0.27 
Q4    1   0.1450  0.8701  1.0121  11.00000  0.05    0.27 
Q5    1   0.3415  0.8516  1.0983  11.00000  0.05    0.25 
Q6    1   0.6391  0.5681  1.2640  11.00000  0.05    0.25 
Q7    1   0.2414  0.8881  1.0247  11.00000  0.05    0.23 
Q8    1   0.2273  0.2997  0.9454  11.00000  0.05    0.23 
Q9    1  -0.2842  0.0992  0.4254  11.00000  0.05    0.22 
Q10   1  -0.1646  0.2403  0.6245  11.00000  0.05    0.22 
Q11   1  -0.0456  0.5050  0.7219  11.00000  0.05    0.20 
Q12   1  -0.2542  0.0294  0.4810  11.00000  0.05    0.20 
Q13   1   0.7646  0.4273  1.2448  11.00000  0.05    0.19 
Q14   1  -0.3266 -0.0203  0.2963  11.00000  0.05    0.19 
Q15   1  -0.1568  0.1822  0.6340  11.00000  0.05    0.19 
Q16   1   0.1502  0.3982  0.8599  11.00000  0.05    0.19 
Q17   1  -0.3450 -0.0316  0.3426  11.00000  0.05    0.19 
Q18   1   0.1092  0.4851  0.9335  11.00000  0.05    0.18 
Q19   1   0.0955  0.4071  0.5515  11.00000  0.05    0.18 
Q20   1   0.1168  0.8836  1.0935  11.00000  0.05    0.18 
;
_shelx_res_checksum              50904
_shelx_hkl_file
; 
   1   0   0   34.85    1.11 
   2   0   0  121.34    3.82 
   3   0   0    3.68    0.17 
   4   0   0   23.98    0.82 
   5   0   0   10.55    0.43 
   6   0   0    8.93    0.39 
   7   0   0    3.78    0.27 
   8   0   0    0.03    0.14 
   9   0   0    2.53    0.26 
  10   0   0    1.76    0.26 
  11  -1   0    0.33    0.23 
  10  -1   0    0.55    0.21 
   9  -1   0   -0.09    0.16 
   8  -1   0    3.71    0.26 
   7  -1   0    3.52    0.23 
   7  -1   0    2.58    0.17 
   6  -1   0   11.22    0.43 
   6  -1   0   10.99    0.45 
   5  -1   0    0.59    0.10 
   5  -1   0    0.50    0.07 
   4  -1   0   84.31    2.67 
   4  -1   0   83.05    2.75 
   3  -1   0    4.96    0.20 
   3  -1   0    4.92    0.19 
   2  -1   0  279.00    9.07 
   2  -1   0  279.90    8.76 
   1  -1   0   29.58    0.97 
   1  -1   0   29.30    0.94 
  -1  -1   0   20.85    0.70 
  -1  -1   0   20.93    0.69 
   1   1   0   20.28    0.67 
  -2  -1   0   21.72    0.74 
   2   1   0   21.80    0.72 
   3   1   0   40.69    1.33 
   4   1   0    5.48    0.25 
   5   1   0   15.77    0.59 
   6   1   0    2.18    0.19 
   7   1   0    3.06    0.24 
   8   1   0    2.70    0.26 
   9   1   0    0.14    0.18 
  10   1   0   -0.03    0.19 
  11  -2   0   -0.21    0.19 
  10  -2   0    1.01    0.22 
   9  -2   0    0.56    0.18 
   8  -2   0    1.27    0.14 
   8  -2   0    1.40    0.18 
   7  -2   0    0.13    0.11 
   7  -2   0    0.00    0.08 
   6  -2   0    5.09    0.24 
   6  -2   0    5.60    0.28 
   5  -2   0   26.09    0.92 
   5  -2   0   27.78    0.93 
   4  -2   0   19.73    0.68 
   4  -2   0   19.35    0.67 
   3  -2   0   56.11    1.85 
   3  -2   0   55.79    1.79 
   2  -2   0   27.43    0.92 
   2  -2   0   27.57    0.89 
   1  -2   0  222.66    7.24 
   1  -2   0  222.70    6.98 
   0  -2   0   46.19    1.56 
   0  -2   0   55.02    1.59 
   0   2   0   42.33    1.51 
  -1  -2   0   94.95    3.09 
  -1  -2   0   92.76    3.06 
   1   2   0   94.17    2.97 
  -2  -2   0    2.26    0.13 
  -2  -2   0    2.23    0.13 
   2   2   0    2.23    0.13 
  -3  -2   0   28.85    1.01 
   3   2   0   29.49    0.98 
   4   2   0   18.01    0.65 
   5   2   0    2.20    0.17 
   6   2   0    7.75    0.37 
   7   2   0   -0.06    0.13 
   8   2   0    2.38    0.25 
   9   2   0    0.33    0.19 
  10   2   0   -0.15    0.18 
  11  -3   0   -0.17    0.18 
  10  -3   0   -0.05    0.16 
   9  -3   0    0.10    0.15 
   8  -3   0    0.24    0.11 
   8  -3   0    0.30    0.14 
   7  -3   0    4.86    0.27 
   7  -3   0    4.90    0.25 
   6  -3   0    0.56    0.11 
   6  -3   0    0.52    0.09 
   5  -3   0    9.09    0.35 
   5  -3   0    8.57    0.35 
   4  -3   0    3.93    0.19 
   4  -3   0    3.63    0.18 
   3  -3   0   98.17    3.05 
   3  -3   0   93.98    3.16 
   2  -3   0   58.57    1.84 
   2  -3   0   56.78    1.91 
   1  -3   0   42.44    1.35 
   1  -3   0   42.09    1.42 
   0  -3   0   50.16    1.66 
   0  -3   0   50.88    1.62 
   0   3   0   47.19    1.57 
  -1  -3   0    6.61    0.26 
  -1  -3   0    4.95    0.23 
   1   3   0    6.54    0.23 
  -2  -3   0   28.33    1.02 
  -2  -3   0   30.38    1.01 
   2   3   0   30.12    0.99 
  -3  -3   0    4.98    0.24 
  -3  -3   0    5.16    0.24 
   3   3   0    4.95    0.24 
   4   3   0   29.87    1.04 
   5   3   0    5.57    0.30 
   6   3   0    7.33    0.38 
   7   3   0   26.86    1.01 
   8   3   0    0.24    0.18 
   9   3   0    0.54    0.21 
  11  -4   0    0.03    0.20 
  10  -4   0   -0.20    0.15 
   9  -4   0    0.29    0.16 
   8  -4   0    4.06    0.28 
   8  -4   0    3.81    0.25 
   7  -4   0   43.12    1.50 
   7  -4   0   43.46    1.47 
   6  -4   0    2.55    0.17 
   6  -4   0    2.28    0.16 
   5  -4   0    0.07    0.07 
   5  -4   0    0.05    0.07 
   4  -4   0   19.48    0.67 
   4  -4   0   19.30    0.70 
   3  -4   0   20.38    0.68 
   3  -4   0   19.91    0.72 
   2  -4   0   11.51    0.44 
   2  -4   0   11.61    0.41 
   1  -4   0    9.77    0.40 
   1  -4   0   10.49    0.37 
   0  -4   0   41.92    1.40 
   0  -4   0   42.98    1.44 
   0   4   0   41.59    1.36 
  -1  -4   0   27.51    0.97 
   1   4   0   27.66    0.92 
  -2  -4   0   42.05    1.43 
  -2  -4   0   42.95    1.46 
   2   4   0   42.40    1.40 
  -3  -4   0   50.56    1.70 
  -3  -4   0   48.94    1.72 
   3   4   0   50.77    1.66 
  -4  -4   0    0.14    0.10 
   4   4   0    0.14    0.10 
   5   4   0   15.15    0.61 
   6   4   0   -0.01    0.14 
   7   4   0    2.46    0.26 
   8   4   0    0.13    0.19 
   9   4   0    0.28    0.19 
  11  -5   0    0.00    0.20 
  10  -5   0   -0.02    0.17 
   9  -5   0    0.18    0.15 
   8  -5   0    1.68    0.18 
   8  -5   0    1.52    0.19 
   7  -5   0   30.44    1.10 
   7  -5   0   31.07    1.08 
   6  -5   0    5.43    0.28 
   6  -5   0    5.49    0.28 
   5  -5   0    2.86    0.17 
   5  -5   0    2.38    0.18 
   4  -5   0    5.95    0.26 
   4  -5   0    5.94    0.28 
   3  -5   0   25.88    0.85 
   3  -5   0   25.00    0.91 
   2  -5   0   24.60    0.82 
   2  -5   0   24.41    0.88 
   1  -5   0   40.31    1.32 
   1  -5   0   40.33    1.38 
   1  -5   0   38.93    1.30 
   0  -5   0    5.34    0.28 
   0  -5   0    5.75    0.23 
   0   5   0    5.48    0.23 
  -1  -5   0   37.73    1.44 
  -1  -5   0   46.90    1.50 
   1   5   0   44.96    1.41 
  -2  -5   0    8.47    0.35 
  -2  -5   0    8.31    0.38 
   2   5   0    8.27    0.35 
  -3  -5   0    3.05    0.22 
  -3  -5   0    2.70    0.19 
   3   5   0    2.73    0.19 
  -4  -5   0    3.62    0.26 
  -4  -5   0    4.44    0.27 
   4   5   0    4.58    0.27 
   5   5   0    3.08    0.25 
   6   5   0    4.78    0.32 
   7   5   0    1.87    0.25 
   8   5   0    2.87    0.30 
  11  -6   0   -0.21    0.20 
  10  -6   0    1.04    0.22 
   9  -6   0    0.00    0.15 
   9  -6   0    0.21    0.16 
   8  -6   0    3.33    0.25 
   8  -6   0    2.74    0.23 
   7  -6   0    1.15    0.15 
   7  -6   0    1.14    0.16 
   6  -6   0    0.04    0.09 
   6  -6   0   -0.04    0.10 
   5  -6   0   11.58    0.49 
   5  -6   0   11.86    0.45 
   4  -6   0    0.37    0.10 
   4  -6   0    0.15    0.07 
   3  -6   0   22.04    0.82 
   3  -6   0   21.96    0.75 
   2  -6   0    0.10    0.07 
   2  -6   0    0.03    0.09 
   1  -6   0   20.08    0.77 
   1  -6   0   20.28    0.70 
   0  -6   0   26.29    0.90 
   0  -6   0   24.95    0.96 
   0   6   0   26.72    0.88 
  -1  -6   0   10.16    0.46 
  -1  -6   0   10.98    0.41 
   1   6   0   10.15    0.41 
  -2  -6   0   12.93    0.56 
   2   6   0   13.16    0.51 
  -3  -6   0    0.16    0.13 
  -3  -6   0    0.13    0.11 
   3   6   0    0.08    0.11 
  -4  -6   0    3.23    0.26 
   4   6   0    3.68    0.25 
   5   6   0    0.32    0.15 
   6   6   0    2.48    0.26 
   7   6   0    0.76    0.21 
   8   6   0    0.56    0.23 
   9  -7   0    0.79    0.18 
   8  -7   0    0.42    0.15 
   8  -7   0    0.45    0.14 
   7  -7   0    3.35    0.23 
   7  -7   0    3.15    0.25 
   6  -7   0    0.13    0.10 
   6  -7   0    0.22    0.13 
   5  -7   0    9.36    0.43 
   5  -7   0    9.05    0.38 
   4  -7   0    4.64    0.29 
   4  -7   0    4.84    0.24 
   3  -7   0    4.51    0.23 
   3  -7   0    4.34    0.28 
   2  -7   0   16.67    0.68 
   2  -7   0   17.75    0.61 
   2  -7   0   16.68    0.62 
   1  -7   0   18.68    0.66 
   1  -7   0   18.36    0.74 
   0  -7   0   40.33    1.38 
   0  -7   0   41.10    1.46 
   0   7   0   40.72    1.35 
  -1  -7   0    2.72    0.23 
  -1  -7   0    2.28    0.17 
   1   7   0    2.33    0.17 
  -2  -7   0    0.60    0.11 
  -2  -7   0    1.10    0.18 
   2   7   0    1.01    0.13 
  -3  -7   0    2.29    0.19 
  -3  -7   0    2.02    0.23 
   3   7   0    2.27    0.20 
  -4  -7   0    0.24    0.16 
   4   7   0    0.13    0.14 
   5   7   0    3.19    0.28 
   6   7   0   -0.06    0.17 
   7   7   0    1.15    0.24 
   9  -8   0    0.17    0.17 
   8  -8   0    0.93    0.19 
   7  -8   0    0.30    0.16 
   6  -8   0    4.13    0.30 
   5  -8   0    0.20    0.13 
   4  -8   0   10.28    0.42 
   4  -8   0    9.69    0.48 
   3  -8   0    0.48    0.15 
   3  -8   0    0.87    0.12 
   2  -8   0   11.43    0.53 
  -2   8   0   11.50    0.44 
  -1   8   0    9.89    0.39 
   0  -8   0   31.92    1.19 
   0   8   0   31.68    1.09 
  -1  -8   0    6.99    0.41 
   1   8   0    6.61    0.33 
  -2  -8   0    0.63    0.18 
   2   8   0    0.49    0.13 
  -3  -8   0    3.35    0.30 
   3   8   0    4.00    0.28 
  -4  -8   0   -0.03    0.17 
   4   8   0    0.16    0.16 
   5   8   0    2.99    0.28 
   6   8   0    1.43    0.25 
   9  -9   0    0.42    0.20 
   8  -9   0    0.67    0.20 
   7  -9   0    1.45    0.23 
   6  -9   0    5.28    0.36 
   5  -9   0    4.66    0.33 
   4  -9   0    0.59    0.18 
   3  -9   0    6.50    0.39 
   2  -9   0    0.08    0.15 
   1  -9   0   13.09    0.61 
   0  -9   0    2.94    0.28 
  -1  -9   0    6.08    0.41 
   1   9   0    6.35    0.33 
  -2  -9   0    2.93    0.30 
   2   9   0    2.68    0.23 
  -3  -9   0    0.71    0.22 
   3   9   0    0.83    0.18 
  -4  -9   0    5.24    0.41 
   4   9   0    6.09    0.39 
   5   9   0    0.12    0.19 
   9 -10   0    1.24    0.25 
   8 -10   0    0.53    0.21 
   7 -10   0    2.77    0.30 
   6 -10   0    0.08    0.18 
   5 -10   0    3.58    0.32 
   4 -10   0    1.45    0.22 
   3 -10   0    3.20    0.29 
   2 -10   0    5.01    0.37 
   1 -10   0    0.25    0.18 
   0 -10   0    6.03    0.42 
  -1 -10   0   -0.30    0.18 
  -2 -10   0    4.07    0.36 
  -3 -10   0    0.64    0.25 
  -4 -10   0    1.21    0.28 
   7 -11   0    0.98    0.24 
   6 -11   0    3.68    0.34 
   5 -11   0    0.24    0.19 
   4 -11   0    4.38    0.36 
   3 -11   0    0.24    0.19 
   2 -11   0    5.10    0.39 
   1 -11   0    1.27    0.26 
   0 -11   0    3.65    0.36 
  -1 -11   0    5.56    0.44 
  -2 -11   0    1.36    0.29 
   6 -12   0    1.83    0.29 
   5 -12   0    0.66    0.22 
   4 -12   0    1.72    0.27 
   3 -12   0    0.19    0.18 
   2 -12   0    1.84    0.29 
   1 -12   0    3.99    0.39 
   0 -12   0    0.38    0.25 
   0 -12   1    1.40    0.30 
   1 -12   1    2.90    0.34 
   2 -12   1    0.44    0.23 
   3 -12   1    1.55    0.27 
   4 -12   1    0.35    0.21 
   5 -12   1    0.52    0.20 
  -3 -11   1    2.95    0.35 
  -2 -11   1    0.09    0.22 
  -1 -11   1    4.78    0.40 
   0 -11   1    0.90    0.24 
   1 -11   1    2.56    0.31 
   2 -11   1    2.63    0.30 
   3 -11   1    1.64    0.26 
   4 -11   1    2.10    0.27 
   5 -11   1    0.21    0.19 
   6 -11   1    0.25    0.20 
   7 -11   1    0.18    0.20 
  -4 -10   1    0.49    0.23 
  -3 -10   1    1.86    0.28 
  -2 -10   1    3.32    0.33 
  -1 -10   1    0.40    0.20 
   0 -10   1    7.01    0.44 
   1 -10   1    0.77    0.20 
   2 -10   1    7.53    0.45 
   3 -10   1    0.65    0.19 
   4 -10   1    1.94    0.24 
   5 -10   1    2.57    0.27 
   6 -10   1    1.22    0.23 
   7 -10   1    2.44    0.29 
   8 -10   1    0.34    0.21 
  -4  -9   1    1.94    0.27 
  -3  -9   1    0.12    0.19 
  -2  -9   1    9.12    0.50 
  -1  -9   1   12.60    0.60 
   0  -9   1    1.67    0.23 
   1  -9   1    8.87    0.47 
   2  -9   1    3.10    0.26 
   3  -9   1   13.07    0.59 
   4  -9   1    6.98    0.40 
   5  -9   1    7.41    0.42 
   6  -9   1    0.27    0.17 
   7  -9   1    2.51    0.27 
   8  -9   1   -0.15    0.17 
   9  -9   1    0.32    0.20 
   6   8  -1   -0.10    0.17 
   5   8  -1    0.34    0.17 
  -5  -8   1    0.33    0.19 
   4   8  -1    2.10    0.22 
  -4  -8   1    2.32    0.26 
   3   8  -1    7.98    0.39 
  -3  -8   1    8.44    0.40 
  -3  -8   1    8.10    0.45 
   2   8  -1    0.11    0.11 
  -2  -8   1   -0.07    0.14 
  -2  -8   1    0.02    0.05 
  -1  -8   1   10.48    0.44 
  -1  -8   1   10.40    0.50 
   0   8  -1    9.40    0.38 
   0  -8   1    9.20    0.46 
   0  -8   1    9.54    0.39 
   1  -8   1   18.42    0.74 
   1  -8   1   18.17    0.67 
   2  -8   1    1.03    0.18 
   2  -8   1    1.21    0.12 
   3  -8   1   18.24    0.74 
   4  -8   1   21.09    0.84 
   5  -8   1    0.26    0.14 
   6  -8   1    7.33    0.40 
   7  -8   1    0.08    0.15 
   8  -8   1    0.61    0.19 
   9  -8   1    0.13    0.18 
   7   7  -1    0.64    0.20 
   6   7  -1    0.35    0.18 
   5   7  -1    4.50    0.31 
  -5  -7   1    4.45    0.33 
  -5  -7   1    4.47    0.31 
   4   7  -1    0.11    0.13 
  -4  -7   1    0.22    0.13 
  -4  -7   1   -0.07    0.13 
   3   7  -1   11.83    0.47 
  -3  -7   1    9.51    0.46 
  -3  -7   1   11.74    0.52 
   2   7  -1   10.92    0.45 
  -2  -7   1   11.08    0.51 
  -2  -7   1   11.20    0.46 
  -1  -7   1   12.35    0.54 
   0   7  -1   40.70    1.35 
   0  -7   1   41.69    1.40 
   0  -7   1   41.50    1.47 
  -1   7  -1   12.17    0.44 
   1  -7   1   12.09    0.53 
   1  -7   1   12.25    0.46 
   2  -7   1   22.40    0.77 
   2  -7   1   22.32    0.85 
   3  -7   1    0.12    0.11 
   3  -7   1    0.16    0.07 
   4  -7   1   16.00    0.57 
   4  -7   1   15.45    0.63 
   5  -7   1    0.05    0.12 
   5  -7   1    0.22    0.08 
   6  -7   1    2.55    0.22 
   7  -7   1    2.18    0.22 
   8  -7   1    0.02    0.15 
   9  -7   1    1.10    0.21 
   8   6  -1   -0.06    0.18 
   7   6  -1    0.62    0.19 
   6   6  -1    0.57    0.18 
   5   6  -1    2.24    0.23 
  -5  -6   1    3.13    0.24 
  -5  -6   1    3.14    0.25 
   4   6  -1   12.49    0.53 
  -4  -6   1   12.29    0.55 
  -4  -6   1   12.51    0.53 
   3   6  -1    2.52    0.19 
  -3  -6   1    3.12    0.22 
  -3  -6   1    2.30    0.21 
   2   6  -1   16.73    0.61 
  -2  -6   1   17.17    0.63 
  -2  -6   1   15.90    0.66 
  -1  -6   1    0.48    0.09 
  -1  -6   1    0.49    0.11 
   0   6  -1   31.82    1.02 
   0  -6   1   29.18    1.10 
  -1   6  -1   25.94    0.80 
   1  -6   1   26.05    0.89 
   1  -6   1   20.54    0.82 
   2  -6   1   33.39    1.22 
   2  -6   1   35.58    1.14 
   3  -6   1   12.54    0.46 
   3  -6   1   13.81    0.53 
   4  -6   1    0.88    0.09 
   4  -6   1    0.81    0.13 
   5  -6   1   11.61    0.45 
   5  -6   1   12.27    0.51 
   6  -6   1    4.25    0.24 
   6  -6   1    4.86    0.30 
   7  -6   1   10.82    0.46 
   7  -6   1    9.76    0.46 
   8  -6   1    0.50    0.16 
   8  -6   1    0.20    0.14 
   9  -6   1    2.05    0.24 
   9  -6   1    1.76    0.21 
   9   5  -1    0.12    0.19 
   8   5  -1    0.41    0.19 
   7   5  -1    0.13    0.16 
   6   5  -1    2.15    0.23 
   5   5  -1    0.23    0.13 
  -5  -5   1   -0.01    0.12 
   4   5  -1    4.46    0.27 
  -4  -5   1    5.13    0.28 
  -4  -5   1    4.88    0.28 
   3   5  -1    1.21    0.13 
  -3  -5   1    1.17    0.13 
  -3  -5   1    1.03    0.14 
   2   5  -1    5.42    0.24 
  -2  -5   1    4.96    0.25 
  -2  -5   1    5.08    0.27 
  -1  -5   1   28.69    0.97 
  -1  -5   1   27.75    1.01 
   0   5  -1   13.54    0.46 
   0  -5   1   13.10    0.53 
   1  -5   1    1.01    0.08 
   1  -5   1    1.19    0.13 
   2  -5   1    0.09    0.04 
   2  -5   1    0.41    0.08 
   3  -5   1   34.93    1.13 
   3  -5   1   34.04    1.20 
   4  -5   1    9.86    0.37 
   4  -5   1    9.91    0.41 
   5  -5   1   14.64    0.55 
   5  -5   1   15.19    0.58 
   6  -5   1    0.34    0.11 
   6  -5   1   -0.05    0.09 
   7  -5   1    5.76    0.31 
   7  -5   1    5.73    0.31 
   8  -5   1    1.83    0.19 
   8  -5   1    1.40    0.19 
   9  -5   1    0.14    0.14 
   9  -5   1    0.12    0.15 
  10  -5   1    1.71    0.25 
   9   4  -1   -0.02    0.18 
   8   4  -1    0.69    0.20 
   7   4  -1    0.87    0.19 
   6   4  -1    0.88    0.16 
   5   4  -1    3.84    0.26 
  -5  -4   1    4.03    0.26 
   4   4  -1    1.01    0.13 
  -4  -4   1    1.07    0.14 
  -4  -4   1    0.97    0.13 
   3   4  -1  137.49    4.36 
  -3  -4   1  138.11    4.49 
  -3  -4   1  135.22    4.52 
   2   4  -1    0.17    0.06 
  -2  -4   1    0.15    0.07 
  -2  -4   1    0.19    0.08 
  -1  -4   1   56.17    1.88 
  -1  -4   1   55.31    1.85 
   0   4  -1   46.57    1.48 
   0  -4   1   44.98    1.54 
   0  -4   1   47.75    1.57 
   1  -4   1   38.00    1.23 
   1  -4   1   38.47    1.30 
   2  -4   1   78.15    2.56 
   2  -4   1   76.07    2.44 
   3  -4   1   24.55    0.86 
   3  -4   1   24.55    0.81 
   4  -4   1   33.43    1.15 
   4  -4   1   33.10    1.09 
   5  -4   1   -0.03    0.06 
   5  -4   1    0.00    0.08 
   6  -4   1   17.57    0.64 
   6  -4   1   15.49    0.61 
   7  -4   1   22.88    0.86 
   7  -4   1   24.00    0.85 
   8  -4   1    7.40    0.36 
   8  -4   1    7.26    0.38 
   9  -4   1    0.90    0.17 
   9  -4   1    0.87    0.19 
  10  -4   1    0.14    0.19 
  10   3  -1    0.48    0.21 
   9   3  -1    0.25    0.17 
   8   3  -1    0.19    0.15 
   7   3  -1    7.76    0.41 
   6   3  -1    0.14    0.11 
   5   3  -1    8.70    0.41 
  -5  -3   1   11.00    0.44 
   4   3  -1    2.53    0.17 
  -4  -3   1    2.54    0.18 
   3   3  -1    5.13    0.24 
  -3  -3   1    5.10    0.24 
  -3  -3   1    5.27    0.25 
   2   3  -1   27.28    0.89 
  -2  -3   1   26.61    0.92 
  -2  -3   1   26.38    0.93 
  -1  -3   1    5.47    0.23 
  -1  -3   1    5.87    0.24 
   0   3  -1  150.51    4.75 
   0  -3   1  151.91    4.95 
   1  -3   1   41.68    1.32 
   1  -3   1   41.36    1.39 
   2  -3   1   21.81    0.78 
   2  -3   1   23.22    0.74 
   3  -3   1    1.94    0.11 
   3  -3   1    1.72    0.12 
   4  -3   1   28.64    0.95 
   4  -3   1   28.25    0.98 
   5  -3   1   12.18    0.48 
   5  -3   1   12.55    0.47 
   6  -3   1    5.70    0.27 
   6  -3   1    5.04    0.27 
   7  -3   1   -0.01    0.11 
   7  -3   1    0.03    0.10 
   8  -3   1    0.02    0.11 
   8  -3   1   -0.13    0.11 
   9  -3   1    1.87    0.22 
  10  -3   1    0.04    0.18 
  10   2  -1   -0.04    0.17 
   9   2  -1    0.20    0.18 
   8   2  -1    0.31    0.15 
   7   2  -1    2.13    0.21 
   6   2  -1   15.13    0.60 
   5   2  -1    5.89    0.28 
  -5  -2   1    5.56    0.28 
   4   2  -1   44.36    1.44 
  -4  -2   1   42.44    1.48 
   3   2  -1    0.69    0.08 
  -3  -2   1    0.85    0.09 
  -3  -2   1    0.73    0.07 
   2   2  -1  141.38    4.52 
  -2  -2   1  146.12    4.67 
  -2  -2   1  142.82    4.68 
  -1  -2   1    0.97    0.07 
  -1  -2   1    0.94    0.07 
   0   2  -1   46.16    1.46 
   0  -2   1   46.11    1.52 
   1  -2   1   33.82    1.15 
   1  -2   1   35.25    1.10 
   2  -2   1   48.00    1.62 
   2  -2   1   49.48    1.55 
   3  -2   1   32.54    1.07 
   3  -2   1   33.07    1.11 
   4  -2   1    0.76    0.09 
   4  -2   1    0.64    0.08 
   5  -2   1    2.81    0.17 
   5  -2   1    2.95    0.18 
   6  -2   1    3.54    0.21 
   6  -2   1    3.29    0.22 
   7  -2   1    1.91    0.18 
   7  -2   1    1.92    0.16 
   8  -2   1    0.09    0.12 
   8  -2   1    0.10    0.13 
   9  -2   1    0.46    0.18 
  10  -2   1    0.56    0.21 
  11   1  -1   -0.33    0.20 
  10   1  -1    0.22    0.19 
   9   1  -1   -0.10    0.17 
   8   1  -1    1.54    0.19 
   7   1  -1    0.60    0.14 
   6   1  -1    0.34    0.11 
   5   1  -1    6.05    0.29 
   4   1  -1   79.12    2.52 
  -4  -1   1   77.86    2.60 
   3   1  -1   35.67    1.16 
  -3  -1   1   35.55    1.20 
   2   1  -1   42.88    1.39 
  -2  -1   1   44.48    1.43 
  -2  -1   1   42.64    1.44 
   1   1  -1    0.60    0.04 
  -1  -1   1    0.72    0.05 
  -1  -1   1    0.73    0.05 
   0  -1   1    3.26    0.13 
   1  -1   1   44.03    1.40 
   1  -1   1   44.16    1.45 
   2  -1   1    9.38    0.34 
   2  -1   1    9.74    0.33 
   3  -1   1   10.34    0.38 
   3  -1   1   10.33    0.38 
   4  -1   1  145.87    4.72 
   4  -1   1  142.28    4.56 
   5  -1   1    0.83    0.10 
   5  -1   1    0.75    0.10 
   6  -1   1    7.37    0.32 
   6  -1   1    7.02    0.34 
   7  -1   1   -0.03    0.11 
   7  -1   1   -0.02    0.09 
   8  -1   1    5.63    0.30 
   8  -1   1    5.40    0.33 
   9  -1   1    0.04    0.17 
  10  -1   1    0.42    0.21 
  11   0  -1    0.03    0.22 
  10   0  -1    2.68    0.30 
   9   0  -1    0.24    0.17 
   8   0  -1    1.30    0.19 
   7   0  -1   12.11    0.46 
   7   0  -1   12.24    0.51 
   6   0  -1   27.27    0.94 
   6   0  -1   26.07    0.91 
   5   0  -1   26.54    0.91 
   4   0  -1    0.02    0.05 
   3   0  -1  107.12    3.43 
  -3   0   1  109.62    3.54 
   2   0  -1    0.49    0.04 
  -2   0   1    0.57    0.05 
   1   0  -1   40.59    1.31 
  -1   0   1   41.75    1.35 
   0   0  -1   74.69    2.36 
   2   0   1   85.83    2.72 
   3   0   1    6.34    0.26 
   4   0   1    8.08    0.33 
   5   0   1    0.51    0.10 
   6   0   1    1.83    0.17 
   7   0   1    2.67    0.19 
   7   0   1    2.79    0.23 
   8   0   1    0.53    0.18 
   8   0   1    0.49    0.13 
   9   0   1    0.40    0.19 
  10   0   1   -0.16    0.21 
  11  -1  -1    0.19    0.21 
  10  -1  -1    0.62    0.21 
   9  -1  -1    2.09    0.23 
   8  -1  -1    0.53    0.14 
   7  -1  -1    2.71    0.20 
   7  -1  -1    2.57    0.16 
   6  -1  -1    4.67    0.25 
   6  -1  -1    4.89    0.22 
   5  -1  -1    2.66    0.17 
   5  -1  -1    2.66    0.14 
   4  -1  -1   47.14    1.52 
   4  -1  -1   46.68    1.55 
   3  -1  -1    0.19    0.03 
   3  -1  -1    0.05    0.04 
   2  -1  -1   23.95    0.84 
   2  -1  -1   27.03    0.83 
   1  -1  -1    4.19    0.17 
   1  -1  -1    4.65    0.16 
  -1   1   1    4.33    0.15 
   0  -1  -1    8.53    0.29 
   0  -1  -1    8.47    0.30 
   1   1   1   51.48    1.64 
   2   1   1   45.27    1.46 
   3   1   1   54.00    1.75 
   4   1   1    3.20    0.20 
   5   1   1   28.15    0.99 
   6   1   1    0.33    0.13 
   7   1   1    2.71    0.24 
   8   1   1   -0.06    0.16 
   9   1   1    0.62    0.21 
  10   1   1    0.02    0.21 
  11  -2  -1    0.00    0.19 
  10  -2  -1   -0.14    0.16 
   9  -2  -1   -0.10    0.14 
   8  -2  -1    5.51    0.31 
   7  -2  -1    1.17    0.11 
   7  -2  -1    1.24    0.15 
   6  -2  -1   15.52    0.57 
   6  -2  -1   16.61    0.60 
   5  -2  -1    0.65    0.09 
   4  -2  -1   31.48    1.04 
   3  -2  -1  132.85    4.12 
   3  -2  -1  128.36    4.26 
   2  -2  -1   63.07    2.10 
   2  -2  -1   64.57    2.03 
   1  -2  -1   81.30    2.72 
   1  -2  -1   84.13    2.62 
   0  -2  -1   11.70    0.39 
   0  -2  -1   11.72    0.42 
   0   2   1   11.04    0.39 
  -1  -2  -1   19.42    0.68 
   1   2   1   19.12    0.65 
   2   2   1   11.23    0.41 
   3   2   1   43.33    1.43 
   4   2   1    3.02    0.20 
   5   2   1   15.27    0.60 
   6   2   1    0.35    0.14 
   7   2   1    0.07    0.14 
   8   2   1    1.63    0.24 
   9   2   1    0.11    0.21 
  11  -3  -1    0.24    0.21 
  10  -3  -1    2.18    0.26 
   9  -3  -1   -0.06    0.14 
   8  -3  -1    1.58    0.13 
   8  -3  -1    2.51    0.21 
   7  -3  -1    7.51    0.35 
   6  -3  -1    5.67    0.25 
   6  -3  -1    5.56    0.28 
   5  -3  -1   44.78    1.48 
   5  -3  -1   45.65    1.52 
   4  -3  -1   18.87    0.66 
   4  -3  -1   18.58    0.65 
   3  -3  -1  188.25    6.16 
   3  -3  -1  189.48    5.94 
   2  -3  -1    4.29    0.20 
   2  -3  -1    4.48    0.18 
   1  -3  -1   81.26    2.81 
   1  -3  -1   87.49    2.77 
   1  -3  -1   85.81    2.70 
   0  -3  -1   60.32    1.94 
   0  -3  -1   58.55    1.99 
   0   3   1   59.52    1.90 
  -1  -3  -1  269.79    8.67 
   1   3   1  261.45    8.35 
  -2  -3  -1   28.91    1.01 
   2   3   1   28.52    0.97 
   3   3   1    5.56    0.27 
   4   3   1   12.24    0.49 
   5   3   1    2.15    0.20 
   6   3   1   11.73    0.53 
   7   3   1    0.49    0.18 
   8   3   1    0.40    0.19 
   9   3   1    0.57    0.22 
  11  -4  -1    0.64    0.22 
  10  -4  -1   -0.12    0.16 
   9  -4  -1    3.23    0.26 
   8  -4  -1    2.14    0.20 
   8  -4  -1    1.94    0.17 
   7  -4  -1   14.53    0.57 
   7  -4  -1   14.10    0.55 
   6  -4  -1    0.48    0.10 
   6  -4  -1    0.57    0.11 
   5  -4  -1   56.36    1.86 
   5  -4  -1   53.74    1.80 
   4  -4  -1   21.69    0.77 
   4  -4  -1   21.26    0.74 
   3  -4  -1   19.88    0.73 
   3  -4  -1   21.03    0.70 
   2  -4  -1   84.54    2.67 
   2  -4  -1   82.92    2.79 
   1  -4  -1    4.00    0.15 
   1  -4  -1    3.89    0.21 
   1  -4  -1    4.01    0.19 
   0  -4  -1   24.62    0.82 
   0  -4  -1   24.61    0.88 
   0   4   1   24.14    0.82 
  -1  -4  -1   17.29    0.61 
  -1  -4  -1   17.98    0.66 
   1   4   1   17.24    0.61 
  -2  -4  -1   10.03    0.44 
  -2  -4  -1   10.57    0.41 
   2   4   1   10.95    0.42 
  -3  -4  -1    7.22    0.34 
   3   4   1    6.91    0.33 
   4   4   1    8.46    0.39 
   5   4   1    8.47    0.41 
   6   4   1    0.04    0.15 
   7   4   1    0.42    0.19 
   8   4   1    0.06    0.18 
  11  -5  -1    0.39    0.21 
  10  -5  -1    2.43    0.26 
   9  -5  -1    2.27    0.23 
   8  -5  -1    0.75    0.15 
   8  -5  -1    1.24    0.18 
   7  -5  -1    0.86    0.13 
   7  -5  -1    0.89    0.15 
   6  -5  -1   13.12    0.50 
   6  -5  -1   11.39    0.48 
   5  -5  -1    0.56    0.09 
   5  -5  -1    0.59    0.10 
   4  -5  -1   58.41    1.96 
   4  -5  -1   57.28    1.88 
   3  -5  -1    6.36    0.27 
   3  -5  -1    6.33    0.30 
   2  -5  -1   42.50    1.39 
   2  -5  -1   42.07    1.46 
   1  -5  -1   29.11    1.06 
   1  -5  -1   29.50    1.00 
   1  -5  -1   30.48    0.99 
   0  -5  -1    0.46    0.11 
   0  -5  -1    0.47    0.06 
   0   5   1    0.34    0.07 
  -1  -5  -1   52.08    1.73 
  -1  -5  -1   51.93    1.80 
   1   5   1   52.20    1.71 
  -2  -5  -1    7.35    0.36 
   2   5   1    7.86    0.34 
  -3  -5  -1   36.43    1.33 
   3   5   1   37.64    1.27 
   4   5   1    1.41    0.18 
   5   5   1    6.32    0.37 
   6   5   1    0.76    0.19 
   7   5   1    4.76    0.37 
   8   5   1    0.46    0.21 
  11  -6  -1   -0.07    0.19 
  10  -6  -1    0.47    0.19 
   9  -6  -1    0.27    0.15 
   8  -6  -1    2.45    0.22 
   8  -6  -1    2.28    0.21 
   7  -6  -1    1.68    0.18 
   7  -6  -1    1.78    0.17 
   6  -6  -1    8.31    0.38 
   6  -6  -1    7.32    0.35 
   5  -6  -1   10.94    0.44 
   5  -6  -1   11.49    0.48 
   4  -6  -1    3.38    0.19 
   4  -6  -1    3.38    0.23 
   3  -6  -1   31.63    1.06 
   3  -6  -1   31.42    1.14 
   2  -6  -1    0.74    0.10 
   2  -6  -1    0.62    0.12 
   2  -6  -1    0.73    0.07 
   1  -6  -1   46.89    1.51 
   1  -6  -1   44.32    1.60 
  -1   6   1   45.75    1.50 
   0  -6  -1    3.39    0.25 
   0  -6  -1    3.94    0.18 
   0   6   1    3.80    0.20 
  -1  -6  -1   37.13    1.29 
  -1  -6  -1   38.41    1.36 
   1   6   1   38.31    1.28 
  -2  -6  -1   17.11    0.65 
  -2  -6  -1   17.95    0.72 
   2   6   1   17.63    0.66 
  -3  -6  -1   13.97    0.61 
   3   6   1   14.05    0.57 
   4   6   1   12.56    0.55 
   5   6   1    0.66    0.19 
   6   6   1    1.97    0.26 
   7   6   1    0.21    0.20 
  10  -7  -1   -0.05    0.17 
   9  -7  -1    0.85    0.18 
   9  -7  -1    1.23    0.20 
   8  -7  -1    1.85    0.21 
   8  -7  -1    1.76    0.20 
   7  -7  -1    2.06    0.19 
   7  -7  -1    2.62    0.22 
   6  -7  -1    5.52    0.32 
   6  -7  -1    5.13    0.28 
   5  -7  -1    9.55    0.40 
   5  -7  -1    9.78    0.45 
   4  -7  -1    8.59    0.42 
   4  -7  -1    9.22    0.38 
   3  -7  -1   14.24    0.60 
   3  -7  -1   14.54    0.55 
   2  -7  -1   52.36    1.82 
   2  -7  -1   51.68    1.72 
   1  -7  -1    6.31    0.35 
  -1   7   1    6.41    0.29 
   0  -7  -1   21.38    0.82 
   0   7   1   20.09    0.74 
  -1  -7  -1    1.78    0.21 
   1   7   1    1.71    0.16 
  -2  -7  -1   40.07    1.45 
   2   7   1   39.24    1.36 
  -3  -7  -1    1.40    0.21 
   3   7   1    1.83    0.19 
  -4  -7  -1    1.90    0.24 
   4   7   1    1.86    0.22 
   5   7   1    0.50    0.19 
   6   7   1    1.17    0.24 
   9  -8  -1    1.99    0.25 
   8  -8  -1    0.64    0.18 
   7  -8  -1    0.92    0.19 
   7  -8  -1    1.02    0.16 
   6  -8  -1   20.72    0.76 
   6  -8  -1   20.11    0.82 
   5  -8  -1    2.83    0.24 
   5  -8  -1    2.17    0.19 
   4  -8  -1   12.73    0.58 
   4  -8  -1   13.51    0.52 
   3  -8  -1   -0.05    0.11 
   3  -8  -1    0.06    0.09 
   2  -8  -1   19.91    0.79 
  -2   8   1   18.91    0.69 
   1  -8  -1    3.21    0.27 
  -1   8   1    2.88    0.20 
   0  -8  -1   18.32    0.77 
   0   8   1   17.77    0.67 
  -1  -8  -1    9.93    0.51 
   1   8   1    9.61    0.43 
  -2  -8  -1    4.40    0.34 
   2   8   1    4.88    0.29 
  -3  -8  -1    5.77    0.39 
   3   8   1    5.62    0.34 
  -4  -8  -1    5.22    0.39 
   4   8   1    5.16    0.34 
   5   8   1    2.80    0.29 
   6   8   1    0.00    0.18 
   9  -9  -1    0.71    0.21 
   8  -9  -1    2.32    0.26 
   7  -9  -1    0.37    0.18 
   6  -9  -1    1.93    0.24 
   5  -9  -1    0.04    0.14 
   4  -9  -1    8.42    0.46 
   3  -9  -1    3.55    0.29 
   2  -9  -1    2.75    0.27 
  -2   9   1    3.40    0.22 
   1  -9  -1    8.74    0.48 
  -1   9   1    8.58    0.38 
   0  -9  -1    4.57    0.35 
   0   9   1    4.22    0.27 
  -1  -9  -1   11.48    0.59 
   1   9   1   11.67    0.50 
  -2  -9  -1    0.83    0.23 
   2   9   1    0.70    0.17 
  -3  -9  -1    2.12    0.29 
   3   9   1    2.41    0.25 
  -4  -9  -1    1.59    0.28 
   4   9   1    1.64    0.24 
   9 -10  -1   -0.06    0.19 
   8 -10  -1    0.55    0.22 
   7 -10  -1    0.11    0.18 
   6 -10  -1    0.22    0.18 
   5 -10  -1    3.79    0.32 
   4 -10  -1    0.19    0.17 
   3 -10  -1    3.97    0.33 
   2 -10  -1    2.15    0.27 
   1 -10  -1    5.62    0.41 
   0 -10  -1    3.24    0.33 
  -1 -10  -1    4.27    0.37 
  -2 -10  -1    2.93    0.33 
  -3 -10  -1    0.18    0.23 
   8 -11  -1    0.01    0.19 
   7 -11  -1    0.44    0.21 
   6 -11  -1    0.02    0.18 
   5 -11  -1    1.83    0.26 
   4 -11  -1    4.46    0.36 
   3 -11  -1    0.46    0.20 
   2 -11  -1    4.89    0.39 
   1 -11  -1    0.15    0.21 
   0 -11  -1    6.52    0.48 
  -1 -11  -1    3.51    0.37 
  -2 -11  -1    1.54    0.31 
   6 -12  -1    1.86    0.28 
   5 -12  -1    0.22    0.20 
   4 -12  -1    1.16    0.26 
   3 -12  -1   -0.04    0.18 
   2 -12  -1    1.25    0.28 
   1 -12  -1    1.78    0.31 
  -1 -12   2    0.13    0.23 
   0 -12   2    2.46    0.33 
   1 -12   2    0.19    0.23 
   2 -12   2    2.13    0.29 
   3 -12   2    2.47    0.32 
   4 -12   2    0.23    0.20 
   5 -12   2    0.87    0.23 
  -3 -11   2    1.55    0.29 
  -2 -11   2    1.32    0.28 
  -1 -11   2    1.44    0.27 
   0 -11   2    1.76    0.27 
   1 -11   2    4.17    0.36 
   2 -11   2    0.25    0.20 
   3 -11   2    2.86    0.31 
   4 -11   2    0.71    0.22 
   5 -11   2    0.66    0.21 
   6 -11   2    1.31    0.25 
   7 -11   2    0.23    0.20 
  -4 -10   2    0.00    0.20 
  -3 -10   2    4.42    0.37 
  -2 -10   2    4.15    0.35 
  -1 -10   2    6.95    0.43 
   0 -10   2    0.68    0.21 
   1 -10   2    5.00    0.35 
   2 -10   2    4.14    0.32 
   3 -10   2    0.02    0.18 
   4 -10   2    5.27    0.37 
   5 -10   2    0.22    0.18 
   6 -10   2    1.19    0.23 
   7 -10   2    1.60    0.25 
   8 -10   2    0.28    0.20 
  -4  -9   2    1.44    0.24 
  -3  -9   2    2.23    0.27 
  -2  -9   2    1.84    0.24 
  -1  -9   2    7.88    0.44 
   0  -9   2   13.03    0.60 
   1  -9   2    0.24    0.15 
   2  -9   2    4.38    0.31 
   3  -9   2    0.44    0.16 
   4  -9   2    4.11    0.30 
   5  -9   2    0.84    0.19 
   6  -9   2    0.29    0.17 
   7  -9   2    1.65    0.24 
   8  -9   2    2.60    0.28 
   9  -9   2    0.50    0.22 
   7   8  -2   -0.04    0.18 
   6   8  -2    0.33    0.18 
  -6  -8   2    0.68    0.20 
   5   8  -2   -0.06    0.14 
  -5  -8   2   -0.11    0.16 
  -5  -8   2   -0.06    0.16 
   4   8  -2    4.00    0.28 
  -4  -8   2    3.83    0.31 
  -4  -8   2    4.04    0.28 
   3   8  -2    0.10    0.12 
  -3  -8   2   -0.13    0.14 
  -3  -8   2    0.16    0.13 
  -2  -8   2   15.73    0.68 
  -2  -8   2   16.53    0.64 
  -1  -8   2   19.77    0.78 
  -1  -8   2   18.73    0.72 
   0  -8   2    5.47    0.26 
   1  -8   2    6.78    0.37 
   2  -8   2   -0.07    0.13 
   3  -8   2    8.89    0.44 
   4  -8   2    6.24    0.36 
   5  -8   2    7.66    0.41 
   6  -8   2    0.29    0.16 
   7  -8   2    1.19    0.21 
   8  -8   2    1.45    0.23 
   9  -8   2    0.16    0.18 
   8   7  -2    0.20    0.20 
   7   7  -2    0.23    0.18 
   6   7  -2    1.30    0.21 
  -6  -7   2    1.73    0.23 
   5   7  -2    2.74    0.25 
  -5  -7   2    3.78    0.28 
  -5  -7   2    4.09    0.29 
   4   7  -2    1.55    0.18 
  -4  -7   2    1.41    0.20 
  -4  -7   2    1.54    0.19 
   3   7  -2   12.72    0.52 
  -3  -7   2   13.41    0.58 
  -3  -7   2   13.76    0.55 
   2   7  -2    1.75    0.14 
  -2  -7   2    2.35    0.18 
  -2  -7   2    2.38    0.21 
   1   7  -2   10.58    0.41 
  -1  -7   2   10.63    0.48 
  -1  -7   2   11.11    0.44 
   0   7  -2    6.35    0.27 
   0  -7   2    7.23    0.30 
   0  -7   2    6.71    0.36 
  -1   7  -2    8.56    0.31 
   1  -7   2    8.48    0.41 
   2  -7   2   10.14    0.46 
   3  -7   2   10.44    0.46 
   4  -7   2    2.79    0.22 
   5  -7   2    0.34    0.13 
   6  -7   2    8.62    0.44 
   7  -7   2    0.15    0.15 
   8  -7   2    3.04    0.27 
   9  -7   2    0.03    0.16 
   8   6  -2    0.30    0.19 
   7   6  -2    1.47    0.22 
   6   6  -2    0.25    0.15 
  -6  -6   2    0.05    0.16 
   5   6  -2    5.18    0.31 
  -5  -6   2    4.44    0.31 
  -5  -6   2    5.25    0.31 
   4   6  -2    1.39    0.16 
  -4  -6   2    1.60    0.17 
  -4  -6   2    1.49    0.18 
   3   6  -2   12.95    0.49 
  -3  -6   2   11.40    0.52 
  -3  -6   2   12.75    0.52 
  -2  -6   2   13.83    0.58 
  -2  -6   2   14.87    0.56 
   1   6  -2    4.45    0.21 
  -1  -6   2    4.45    0.23 
  -1  -6   2    4.38    0.25 
   0   6  -2   55.55    1.80 
   0  -6   2   56.25    1.93 
   0  -6   2   57.15    1.88 
  -1   6  -2    0.62    0.06 
   1  -6   2    0.62    0.12 
   2  -6   2   30.27    1.08 
   2  -6   2   30.57    0.99 
   3  -6   2    2.41    0.18 
   3  -6   2    2.37    0.14 
   4  -6   2   17.48    0.67 
   4  -6   2   17.21    0.60 
   5  -6   2    4.65    0.28 
   5  -6   2    4.53    0.23 
   6  -6   2    6.29    0.31 
   6  -6   2    6.81    0.35 
   7  -6   2    1.94    0.19 
   7  -6   2    2.02    0.21 
   8  -6   2    0.04    0.14 
   9  -6   2    0.25    0.16 
   9   5  -2    2.57    0.29 
   8   5  -2    0.11    0.17 
   7   5  -2    2.02    0.23 
   6   5  -2    5.06    0.31 
  -6  -5   2    4.39    0.31 
   5   5  -2    1.15    0.16 
  -5  -5   2    1.24    0.17 
  -5  -5   2    1.26    0.16 
   4   5  -2   18.74    0.68 
  -4  -5   2   17.40    0.69 
  -4  -5   2   18.91    0.71 
   3   5  -2    0.20    0.08 
  -3  -5   2    0.34    0.11 
  -3  -5   2    0.27    0.10 
  -2  -5   2   28.91    1.02 
  -2  -5   2   29.64    1.04 
   1   5  -2    1.09    0.09 
  -1  -5   2    1.03    0.10 
  -1  -5   2    1.12    0.13 
   0   5  -2    5.63    0.21 
   0  -5   2    5.70    0.25 
   0  -5   2    5.67    0.28 
  -1   5  -2    3.63    0.14 
   1  -5   2    4.03    0.22 
   2  -5   2    6.86    0.25 
   2  -5   2    6.56    0.31 
   3  -5   2   29.02    0.95 
   3  -5   2   29.17    1.03 
   4  -5   2    0.10    0.06 
   4  -5   2    0.13    0.09 
   5  -5   2   41.84    1.43 
   5  -5   2   39.89    1.35 
   6  -5   2    4.62    0.26 
   6  -5   2    5.18    0.29 
   7  -5   2    1.56    0.17 
   7  -5   2    1.46    0.18 
   8  -5   2    0.99    0.17 
   8  -5   2    0.74    0.16 
   9  -5   2    0.29    0.17 
   9  -5   2   -0.05    0.15 
  10   4  -2   -0.06    0.19 
   9   4  -2    2.61    0.28 
   8   4  -2    5.29    0.36 
   7   4  -2    0.23    0.14 
   6   4  -2    7.48    0.38 
  -6  -4   2    7.32    0.39 
   5   4  -2    2.33    0.19 
  -5  -4   2    2.51    0.20 
  -5  -4   2    2.58    0.19 
   4   4  -2   11.63    0.45 
  -4  -4   2   11.12    0.44 
  -4  -4   2   10.25    0.45 
   3   4  -2   34.30    1.17 
  -3  -4   2   35.10    1.21 
  -3  -4   2   35.59    1.22 
  -2  -4   2    4.80    0.23 
  -2  -4   2    4.50    0.23 
   1   4  -2   27.27    0.89 
  -1  -4   2   27.52    0.94 
  -1  -4   2   26.92    0.95 
   0   4  -2    0.04    0.03 
   0  -4   2    0.05    0.06 
   1  -4   2  222.77    7.11 
   1  -4   2  212.91    6.84 
   2  -4   2   24.03    0.77 
   2  -4   2   23.85    0.84 
   3  -4   2    2.02    0.11 
   3  -4   2    1.89    0.14 
   4  -4   2   18.06    0.66 
   4  -4   2   17.46    0.61 
   5  -4   2    8.07    0.33 
   5  -4   2    7.83    0.36 
   6  -4   2    2.17    0.17 
   6  -4   2    2.11    0.18 
   7  -4   2    0.39    0.13 
   7  -4   2    0.13    0.12 
   8  -4   2    0.76    0.16 
   8  -4   2    0.99    0.17 
   9  -4   2    0.15    0.17 
   9  -4   2    0.00    0.14 
  10  -4   2    0.17    0.19 
  10   3  -2    0.04    0.19 
   9   3  -2    0.67    0.20 
   8   3  -2   -0.01    0.14 
   7   3  -2    7.30    0.38 
   6   3  -2    1.04    0.14 
  -6  -3   2    1.09    0.17 
   5   3  -2   10.77    0.44 
  -5  -3   2   10.45    0.45 
   4   3  -2    1.37    0.12 
  -4  -3   2    1.28    0.13 
  -4  -3   2    1.74    0.12 
   3   3  -2    1.47    0.11 
  -3  -3   2    1.61    0.11 
  -3  -3   2    1.51    0.13 
   2   3  -2    1.89    0.11 
  -2  -3   2    2.88    0.15 
  -2  -3   2    2.38    0.13 
   1   3  -2   33.52    1.07 
  -1  -3   2   33.12    1.13 
  -1  -3   2   33.29    1.12 
   0  -3   2   78.46    2.58 
   1  -3   2    1.42    0.06 
   1  -3   2    1.48    0.11 
   2  -3   2  125.77    3.93 
   2  -3   2  124.01    4.10 
   3  -3   2    2.23    0.12 
   3  -3   2    1.97    0.14 
   4  -3   2   21.08    0.73 
   4  -3   2   21.59    0.77 
   5  -3   2    2.00    0.15 
   5  -3   2    2.01    0.16 
   6  -3   2    7.58    0.35 
   6  -3   2    7.25    0.35 
   7  -3   2    5.78    0.32 
   7  -3   2    5.77    0.32 
   8  -3   2    1.73    0.20 
   8  -3   2    1.46    0.18 
   9  -3   2    0.60    0.18 
   9  -3   2    0.46    0.16 
  10  -3   2    0.33    0.21 
  10   2  -2    0.00    0.17 
   9   2  -2    1.97    0.25 
   8   2  -2   -0.07    0.13 
   7   2  -2    3.97    0.27 
   6   2  -2    2.28    0.19 
  -6  -2   2    2.48    0.20 
   5   2  -2    4.59    0.24 
  -5  -2   2    4.60    0.26 
   4   2  -2   16.59    0.59 
  -4  -2   2   15.93    0.60 
   3   2  -2    4.10    0.19 
  -3  -2   2    4.22    0.20 
  -3  -2   2    4.24    0.18 
   2   2  -2   38.40    1.21 
  -2  -2   2   37.33    1.25 
  -2  -2   2   36.85    1.26 
   1   2  -2   67.61    2.12 
  -1  -2   2   67.46    2.20 
  -1  -2   2   66.17    2.20 
   0  -2   2  196.01    6.38 
   1  -2   2  249.04    8.05 
   1  -2   2  246.33    7.77 
   2  -2   2   27.19    0.96 
   2  -2   2   29.30    0.92 
   3  -2   2   25.19    0.87 
   3  -2   2   25.07    0.83 
   4  -2   2    4.77    0.22 
   4  -2   2    4.53    0.23 
   5  -2   2   48.11    1.58 
   5  -2   2   47.68    1.63 
   6  -2   2    2.68    0.20 
   6  -2   2    2.73    0.20 
   7  -2   2    2.19    0.20 
   7  -2   2    2.12    0.19 
   8  -2   2    0.24    0.13 
   8  -2   2    0.19    0.15 
   9  -2   2    0.76    0.20 
  10  -2   2    0.08    0.19 
  11   1  -2    0.42    0.20 
  10   1  -2    0.12    0.18 
   9   1  -2    0.14    0.15 
   8   1  -2    2.88    0.24 
   7   1  -2    0.06    0.10 
   6   1  -2    1.98    0.16 
   5   1  -2    3.14    0.19 
  -5  -1   2    2.95    0.20 
   4   1  -2   11.64    0.43 
  -4  -1   2   11.37    0.44 
   3   1  -2   46.68    1.52 
  -3  -1   2   47.90    1.58 
   2   1  -2  991.66   31.09 
  -2  -1   2 1000.00   32.10 
  -2  -1   2  991.91   32.36 
  -1  -1   2  332.78   10.58 
  -1  -1   2  321.58   10.62 
   0   1  -2    1.17    0.06 
   0  -1   2    1.12    0.07 
   1  -1   2  202.47    6.35 
   1  -1   2  202.58    6.59 
   2  -1   2    4.76    0.19 
   3  -1   2  117.93    3.74 
   4  -1   2    0.03    0.07 
   5  -1   2   26.86    0.93 
   5  -1   2   26.78    0.95 
   6  -1   2    4.15    0.24 
   6  -1   2    3.97    0.26 
   7  -1   2    1.96    0.20 
   7  -1   2    1.95    0.18 
   8  -1   2   11.14    0.49 
   8  -1   2   10.66    0.50 
   9  -1   2    0.01    0.16 
  10  -1   2    0.23    0.21 
  11   0  -2   -0.05    0.20 
  10   0  -2    2.03    0.25 
   9   0  -2    0.00    0.15 
   8   0  -2    3.17    0.24 
   7   0  -2    0.31    0.07 
   7   0  -2    0.20    0.11 
   6   0  -2   34.21    1.13 
   6   0  -2   33.33    1.16 
   5   0  -2   23.00    0.77 
   5   0  -2   22.83    0.80 
  -5   0   2   23.32    0.83 
   4   0  -2    4.63    0.21 
   4   0  -2    4.46    0.17 
  -4   0   2    4.49    0.21 
   3   0  -2   22.33    0.74 
  -3   0   2   22.34    0.77 
   2   0  -2   98.28    3.12 
  -2   0   2   99.43    3.22 
   1   0  -2    7.30    0.25 
   0   0  -2  111.09    3.50 
   1   0   2   52.31    1.67 
   2   0   2   22.84    0.76 
   3   0   2   18.27    0.64 
   4   0   2    4.03    0.21 
   5   0   2    0.35    0.11 
   6   0   2   11.53    0.49 
   7   0   2    0.39    0.15 
   8   0   2   -0.07    0.12 
   8   0   2   -0.17    0.15 
   9   0   2    0.68    0.21 
  10   0   2    0.04    0.21 
  11  -1  -2    0.20    0.20 
  10  -1  -2    0.02    0.17 
   9  -1  -2    0.08    0.14 
   8  -1  -2    1.13    0.16 
   7  -1  -2   14.91    0.58 
   7  -1  -2   15.03    0.54 
   6  -1  -2    0.51    0.10 
   6  -1  -2    0.46    0.06 
   5  -1  -2   32.22    1.10 
   5  -1  -2   33.30    1.09 
   4  -1  -2    0.61    0.05 
   4  -1  -2    0.60    0.07 
  -4   1   2    0.51    0.07 
   3  -1  -2   13.32    0.45 
   3  -1  -2   13.32    0.46 
  -3   1   2   13.15    0.47 
   2  -1  -2  176.98    5.50 
   2  -1  -2  170.35    5.69 
  -2   1   2  177.22    5.67 
   1  -1  -2   88.08    2.84 
   1  -1  -2   85.56    2.74 
   0  -1  -2   56.11    1.80 
   1   1   2    8.81    0.33 
   2   1   2   35.94    1.18 
   3   1   2   11.17    0.43 
   4   1   2   26.37    0.92 
   5   1   2    3.31    0.22 
   6   1   2    0.44    0.14 
   7   1   2    3.51    0.27 
   8   1   2    0.24    0.17 
   9   1   2    0.89    0.24 
  11  -2  -2    0.52    0.21 
  10  -2  -2    0.41    0.17 
   9  -2  -2    1.51    0.19 
   8  -2  -2    0.32    0.13 
   7  -2  -2   11.25    0.46 
   7  -2  -2   10.88    0.42 
   6  -2  -2    9.92    0.41 
   6  -2  -2   10.06    0.38 
   5  -2  -2    3.91    0.20 
   5  -2  -2    3.86    0.17 
   4  -2  -2   25.17    0.85 
   4  -2  -2   25.09    0.85 
   3  -2  -2    6.48    0.25 
   2  -2  -2   50.00    1.69 
   2  -2  -2   52.02    1.64 
   1  -2  -2    6.36    0.26 
   1  -2  -2    6.46    0.25 
   0  -2  -2    2.77    0.15 
   0   2   2    2.91    0.14 
  -1  -2  -2   67.47    2.26 
   1   2   2   67.93    2.17 
   2   2   2   13.49    0.50 
   3   2   2   24.13    0.84 
   4   2   2    0.36    0.11 
   5   2   2   46.07    1.57 
   6   2   2    1.43    0.19 
   7   2   2    2.45    0.26 
   8   2   2    0.61    0.21 
   9   2   2    0.08    0.21 
  11  -3  -2    0.20    0.20 
  10  -3  -2    0.22    0.16 
   9  -3  -2   29.26    1.07 
   8  -3  -2    3.79    0.25 
   7  -3  -2    1.24    0.14 
   7  -3  -2    1.08    0.11 
   6  -3  -2    8.56    0.34 
   6  -3  -2    8.04    0.36 
   5  -3  -2    5.32    0.25 
   4  -3  -2    3.16    0.17 
   4  -3  -2    2.94    0.16 
   3  -3  -2    9.76    0.37 
   3  -3  -2   10.34    0.39 
   2  -3  -2    1.54    0.12 
   2  -3  -2    1.48    0.11 
   1  -3  -2   95.46    3.25 
   1  -3  -2  101.19    3.13 
   0  -3  -2   25.03    0.88 
   0   3   2   24.68    0.83 
  -1  -3  -2  185.01    6.16 
   1   3   2  190.77    5.93 
   2   3   2   16.57    0.61 
   3   3   2   14.18    0.54 
   4   3   2    4.22    0.25 
   5   3   2    5.53    0.33 
   6   3   2    0.92    0.19 
   7   3   2   -0.04    0.17 
   8   3   2    0.84    0.24 
   9   3   2    0.17    0.23 
  11  -4  -2    0.23    0.20 
  10  -4  -2    0.65    0.19 
   9  -4  -2   20.95    0.82 
   8  -4  -2    0.72    0.15 
   8  -4  -2    0.75    0.12 
   6  -4  -2    0.18    0.09 
   6  -4  -2    0.03    0.08 
   5  -4  -2   11.48    0.44 
   5  -4  -2   11.53    0.45 
   4  -4  -2    1.59    0.13 
   4  -4  -2    1.87    0.13 
   3  -4  -2   36.18    1.30 
   3  -4  -2   39.29    1.25 
   2  -4  -2   10.21    0.41 
   2  -4  -2   10.28    0.39 
   1  -4  -2   68.60    2.19 
   1  -4  -2   66.92    2.28 
   0  -4  -2   75.71    2.53 
   0   4   2   74.85    2.42 
  -1  -4  -2    4.35    0.25 
   1   4   2    4.33    0.22 
  -2  -4  -2   31.04    1.11 
   2   4   2   30.36    1.05 
   3   4   2    1.63    0.16 
   4   4   2    7.56    0.38 
   5   4   2    0.95    0.17 
   6   4   2    6.37    0.38 
   7   4   2    1.76    0.25 
   8   4   2   -0.12    0.17 
  11  -5  -2    0.25    0.20 
  10  -5  -2    0.34    0.18 
   9  -5  -2    1.04    0.19 
   8  -5  -2    0.15    0.12 
   8  -5  -2    0.17    0.11 
   7  -5  -2    1.95    0.17 
   7  -5  -2    1.84    0.18 
   6  -5  -2    3.30    0.21 
   6  -5  -2    3.31    0.21 
   5  -5  -2    9.10    0.40 
   5  -5  -2    9.41    0.38 
   4  -5  -2   22.78    0.78 
   4  -5  -2   22.03    0.82 
   3  -5  -2   12.38    0.46 
   3  -5  -2   12.14    0.49 
   2  -5  -2   91.90    2.91 
   2  -5  -2   89.02    3.03 
   1  -5  -2    1.68    0.14 
   1  -5  -2    1.57    0.15 
   0  -5  -2   78.57    2.64 
   0   5   2   77.22    2.51 
  -1  -5  -2    0.24    0.10 
   1   5   2    0.23    0.09 
  -2  -5  -2    6.98    0.36 
   2   5   2    6.32    0.32 
   3   5   2    0.98    0.14 
   4   5   2    4.74    0.29 
   5   5   2    2.63    0.24 
   6   5   2    0.25    0.17 
   7   5   2    0.32    0.19 
  11  -6  -2    0.47    0.21 
  10  -6  -2    0.55    0.19 
   9  -6  -2    0.28    0.15 
   8  -6  -2    4.26    0.28 
   8  -6  -2    4.04    0.28 
   7  -6  -2    0.88    0.14 
   7  -6  -2    0.68    0.14 
   6  -6  -2   11.54    0.49 
   6  -6  -2   10.38    0.45 
   5  -6  -2    0.79    0.13 
   5  -6  -2    0.72    0.11 
   4  -6  -2   25.45    0.88 
   4  -6  -2   24.83    0.93 
   3  -6  -2    0.11    0.08 
   3  -6  -2    0.22    0.10 
   2  -6  -2   93.25    2.98 
   2  -6  -2   91.64    3.12 
   1  -6  -2   10.05    0.36 
   1  -6  -2   10.35    0.47 
  -1   6   2   10.78    0.41 
   0  -6  -2    2.62    0.21 
   0   6   2    2.61    0.18 
  -1  -6  -2    6.47    0.35 
   1   6   2    5.58    0.29 
  -2  -6  -2    0.54    0.15 
   2   6   2    0.47    0.12 
  -3  -6  -2    5.17    0.34 
   3   6   2    5.09    0.30 
   4   6   2    0.15    0.15 
   5   6   2    0.49    0.19 
   6   6   2    3.09    0.30 
   7   6   2    0.62    0.22 
  11  -7  -2    0.32    0.20 
  10  -7  -2    0.47    0.19 
   9  -7  -2    0.32    0.16 
   8  -7  -2    1.22    0.19 
   8  -7  -2    1.24    0.18 
   7  -7  -2    0.90    0.17 
   7  -7  -2    0.82    0.15 
   6  -7  -2    6.52    0.36 
   6  -7  -2    6.43    0.32 
   5  -7  -2   14.05    0.60 
   5  -7  -2   14.59    0.56 
   4  -7  -2    2.42    0.22 
   3  -7  -2   22.71    0.86 
   3  -7  -2   21.75    0.80 
   2  -7  -2   62.59    2.09 
   2  -7  -2   64.30    2.20 
   1  -7  -2   14.75    0.62 
  -1   7   2   13.73    0.54 
   0  -7  -2    4.61    0.31 
   0   7   2    4.98    0.26 
  -1  -7  -2    3.06    0.26 
   1   7   2    3.61    0.23 
  -2  -7  -2    1.36    0.21 
   2   7   2    1.80    0.18 
  -3  -7  -2    0.52    0.19 
   3   7   2    0.75    0.16 
   4   7   2    5.47    0.36 
   5   7   2    0.64    0.20 
   6   7   2    0.75    0.23 
   9  -8  -2    1.70    0.23 
   8  -8  -2    0.16    0.16 
   8  -8  -2    0.20    0.14 
   7  -8  -2    9.47    0.48 
   7  -8  -2    9.16    0.44 
   6  -8  -2    5.17    0.30 
   6  -8  -2    5.71    0.35 
   5  -8  -2    4.97    0.33 
   5  -8  -2    5.10    0.28 
   4  -8  -2    7.29    0.36 
   4  -8  -2    7.87    0.41 
   3  -8  -2   10.96    0.49 
   3  -8  -2    8.77    0.42 
   2  -8  -2    0.26    0.14 
  -2   8   2    0.44    0.11 
   1  -8  -2    8.24    0.45 
  -1   8   2    8.14    0.37 
   0  -8  -2   13.01    0.59 
   0   8   2   12.08    0.51 
  -1  -8  -2    0.26    0.16 
   1   8   2    0.35    0.13 
  -2  -8  -2    7.78    0.46 
   2   8   2    8.39    0.41 
  -3  -8  -2    2.54    0.29 
   3   8   2    1.85    0.22 
   4   8   2    2.60    0.27 
   5   8   2    0.91    0.23 
   9  -9  -2    1.07    0.23 
   8  -9  -2    1.14    0.22 
   7  -9  -2    0.12    0.16 
   6  -9  -2    5.54    0.37 
   5  -9  -2    0.74    0.18 
   5  -9  -2    0.74    0.15 
   4  -9  -2    9.88    0.51 
   4  -9  -2   10.21    0.46 
   3  -9  -2    1.18    0.21 
   2  -9  -2   10.28    0.52 
  -2   9   2   10.13    0.44 
   1  -9  -2   12.14    0.59 
  -1   9   2   11.94    0.50 
   0  -9  -2    4.89    0.37 
   0   9   2    4.99    0.30 
  -1  -9  -2    7.53    0.47 
   1   9   2    9.36    0.44 
  -2  -9  -2    0.52    0.22 
   2   9   2    0.56    0.17 
  -3  -9  -2    3.89    0.38 
   3   9   2    4.83    0.34 
   4   9   2    0.18    0.18 
   9 -10  -2    0.01    0.19 
   8 -10  -2    2.23    0.27 
   7 -10  -2    2.69    0.29 
   6 -10  -2    2.04    0.26 
   5 -10  -2    4.74    0.35 
   4 -10  -2    2.13    0.26 
   3 -10  -2   10.58    0.55 
   2 -10  -2    0.90    0.22 
   1 -10  -2   14.31    0.70 
   0 -10  -2   -0.05    0.18 
   0  10   2   -0.02    0.14 
  -1 -10  -2    5.09    0.41 
   1  10   2    4.41    0.31 
  -2 -10  -2    1.49    0.30 
   2  10   2    2.22    0.25 
  -3 -10  -2    0.29    0.26 
   3  10   2    0.55    0.20 
   8 -11  -2   -0.03    0.20 
   7 -11  -2    2.48    0.30 
   6 -11  -2   -0.06    0.19 
   5 -11  -2    2.34    0.29 
   4 -11  -2    0.19    0.17 
   3 -11  -2    7.43    0.48 
   2 -11  -2    2.71    0.33 
   1 -11  -2    1.33    0.28 
   0 -11  -2    8.21    0.54 
  -1 -11  -2    0.63    0.27 
   5 -12  -2    1.86    0.29 
   4 -12  -2    3.55    0.35 
   3 -12  -2    0.13    0.19 
   2 -12  -2    3.42    0.38 
  -1 -12   3    0.06    0.22 
   0 -12   3    1.35    0.28 
   1 -12   3    0.26    0.23 
   2 -12   3    1.02    0.26 
   3 -12   3    0.41    0.23 
   4 -12   3    0.47    0.22 
  -3 -11   3    0.03    0.22 
  -2 -11   3    0.86    0.25 
  -1 -11   3    1.60    0.27 
   0 -11   3    0.29    0.21 
   1 -11   3    1.24    0.25 
   2 -11   3    0.01    0.19 
   3 -11   3    3.85    0.35 
   4 -11   3    0.00    0.18 
   5 -11   3    3.46    0.34 
   6 -11   3    0.49    0.21 
  -4 -10   3    1.31    0.27 
  -3 -10   3    5.62    0.41 
  -2 -10   3    1.97    0.26 
  -1 -10   3    3.52    0.32 
   0 -10   3    0.55    0.19 
   1 -10   3    3.46    0.31 
   2 -10   3    0.07    0.17 
   3 -10   3    3.59    0.31 
   4 -10   3    2.95    0.29 
   5 -10   3    0.13    0.18 
   6 -10   3    0.91    0.21 
   7 -10   3    0.12    0.19 
  -4  -9   3    0.26    0.18 
  -4  -9   3    0.34    0.17 
  -3  -9   3    0.44    0.18 
  -3  -9   3    0.54    0.17 
  -2  -9   3    4.32    0.29 
  -2  -9   3    4.59    0.33 
  -1  -9   3    0.74    0.19 
  -1  -9   3    0.27    0.14 
   0  -9   3    6.70    0.33 
   0  -9   3    6.25    0.39 
   1  -9   3    1.23    0.15 
   1  -9   3    1.37    0.21 
   2  -9   3   18.52    0.78 
   3  -9   3    3.43    0.28 
   4  -9   3    4.20    0.31 
   5  -9   3    1.04    0.20 
   6  -9   3    0.56    0.19 
   7  -9   3    0.19    0.18 
   8  -9   3    0.18    0.19 
  -7  -8   3    1.20    0.24 
  -6  -8   3    0.04    0.19 
  -5  -8   3    1.01    0.20 
  -4  -8   3    3.95    0.30 
  -4  -8   3    4.08    0.29 
  -3  -8   3    0.22    0.14 
  -3  -8   3    0.34    0.16 
  -2  -8   3   32.64    1.21 
  -2  -8   3   32.45    1.16 
  -1  -8   3    0.96    0.14 
  -1  -8   3    0.84    0.17 
   0  -8   3   10.39    0.50 
   0  -8   3   10.80    0.45 
   1  -8   3    5.93    0.29 
   1  -8   3    5.68    0.34 
   2  -8   3    5.19    0.32 
   3  -8   3    3.80    0.28 
   4  -8   3    0.25    0.14 
   5  -8   3    2.40    0.24 
   6  -8   3    0.81    0.19 
   7  -8   3    0.68    0.20 
   8  -8   3    0.46    0.21 
   9  -8   3    0.12    0.20 
   8   7  -3    1.08    0.22 
   7   7  -3   -0.20    0.15 
  -7  -7   3    0.07    0.17 
   6   7  -3    2.49    0.24 
  -6  -7   3    2.53    0.26 
   5   7  -3   -0.10    0.11 
  -5  -7   3   -0.11    0.13 
  -5  -7   3   -0.18    0.15 
   4   7  -3    5.97    0.31 
  -4  -7   3    5.54    0.33 
  -4  -7   3    5.42    0.33 
   3   7  -3    1.86    0.16 
  -3  -7   3    1.92    0.19 
  -3  -7   3    1.75    0.19 
   2   7  -3    4.23    0.22 
  -2  -7   3    3.84    0.27 
  -2  -7   3    4.66    0.26 
  -1  -7   3   16.15    0.62 
  -1  -7   3   16.55    0.66 
   0  -7   3    1.06    0.13 
   0  -7   3    1.05    0.16 
   1  -7   3   16.45    0.66 
   2  -7   3    1.58    0.17 
   3  -7   3    6.65    0.35 
   4  -7   3    9.52    0.45 
   5  -7   3    5.35    0.31 
   6  -7   3    1.51    0.20 
   7  -7   3    0.14    0.15 
   8  -7   3    1.28    0.21 
   9  -7   3    0.03    0.17 
   9   6  -3    0.29    0.20 
   8   6  -3    1.14    0.22 
   7   6  -3    0.36    0.16 
  -7  -6   3    0.04    0.18 
   6   6  -3    1.36    0.19 
  -6  -6   3    1.56    0.21 
   5   6  -3    0.21    0.12 
  -5  -6   3    0.23    0.12 
  -5  -6   3    0.08    0.14 
   4   6  -3    0.21    0.10 
  -4  -6   3    0.32    0.12 
  -4  -6   3    0.40    0.14 
  -3  -6   3   14.72    0.60 
  -3  -6   3   15.47    0.61 
   2   6  -3    0.62    0.08 
  -2  -6   3    0.56    0.11 
  -2  -6   3    0.68    0.13 
   1   6  -3    6.88    0.26 
  -1  -6   3    6.32    0.30 
  -1  -6   3    6.76    0.33 
   0   6  -3   10.22    0.36 
   0  -6   3   10.50    0.45 
   0  -6   3   11.22    0.43 
   1  -6   3    5.72    0.30 
   2  -6   3   13.85    0.55 
   3  -6   3    3.45    0.23 
   4  -6   3    1.82    0.18 
   5  -6   3    5.40    0.32 
   6  -6   3    0.45    0.14 
   7  -6   3    1.17    0.19 
   8  -6   3    0.78    0.19 
   9  -6   3    2.29    0.26 
   9   5  -3    0.25    0.20 
   8   5  -3   -0.18    0.14 
   7   5  -3    1.73    0.21 
  -7  -5   3    2.08    0.24 
   6   5  -3    0.16    0.12 
  -6  -5   3    0.09    0.13 
   5   5  -3   29.18    1.02 
  -5  -5   3   29.06    1.06 
  -5  -5   3   28.66    1.04 
   4   5  -3   10.44    0.41 
  -4  -5   3   10.46    0.43 
  -4  -5   3    9.11    0.44 
  -3  -5   3    8.06    0.37 
  -3  -5   3    8.28    0.37 
   2   5  -3   40.64    1.35 
  -2  -5   3   42.06    1.42 
  -2  -5   3   41.71    1.43 
   1   5  -3    0.49    0.05 
  -1  -5   3    0.53    0.09 
  -1  -5   3    0.54    0.10 
   0  -5   3   63.29    2.13 
   1  -5   3    0.98    0.11 
   2  -5   3   38.38    1.33 
   2  -5   3   38.78    1.23 
   3  -5   3    2.06    0.17 
   3  -5   3    2.40    0.13 
   4  -5   3   15.04    0.58 
   4  -5   3   14.41    0.52 
   5  -5   3  102.13    3.25 
   5  -5   3  101.21    3.40 
   6  -5   3    1.73    0.19 
   6  -5   3    2.12    0.17 
   7  -5   3    1.57    0.18 
   7  -5   3    1.65    0.20 
   8  -5   3   -0.14    0.14 
   8  -5   3   -0.06    0.14 
   9  -5   3    0.33    0.18 
  10   4  -3    0.13    0.20 
   9   4  -3    3.63    0.32 
   8   4  -3    0.14    0.14 
   7   4  -3    1.21    0.18 
  -7  -4   3    1.02    0.20 
   6   4  -3    5.31    0.30 
  -6  -4   3    5.52    0.32 
   5   4  -3    1.30    0.14 
  -5  -4   3    1.35    0.13 
  -5  -4   3    1.07    0.15 
   4   4  -3    7.97    0.34 
  -4  -4   3    8.36    0.35 
  -4  -4   3    8.15    0.37 
   3   4  -3   17.94    0.63 
  -3  -4   3   18.00    0.66 
  -3  -4   3   18.09    0.67 
   2   4  -3   79.58    2.57 
  -2  -4   3   81.96    2.68 
  -2  -4   3   80.96    2.68 
   1   4  -3   24.37    0.78 
  -1  -4   3   23.46    0.84 
  -1  -4   3   24.50    0.84 
   0  -4   3   25.82    0.90 
   1  -4   3   34.26    1.17 
   2  -4   3   31.46    1.11 
   2  -4   3   32.74    1.03 
   3  -4   3   60.50    1.95 
   3  -4   3   61.43    2.05 
   4  -4   3    2.02    0.16 
   4  -4   3    2.36    0.15 
   5  -4   3    0.48    0.12 
   5  -4   3    0.45    0.10 
   6  -4   3    0.18    0.12 
   6  -4   3    0.03    0.09 
   7  -4   3    1.02    0.17 
   7  -4   3    1.38    0.17 
   8  -4   3    0.79    0.17 
   8  -4   3    1.14    0.19 
   9  -4   3    0.03    0.15 
   9  -4   3    0.23    0.18 
  10  -4   3   -0.07    0.20 
  10   3  -3    0.17    0.18 
   9   3  -3   -0.11    0.16 
   8   3  -3    3.16    0.26 
   7   3  -3    0.76    0.14 
  -7  -3   3    0.86    0.17 
   6   3  -3    4.03    0.25 
  -6  -3   3    3.70    0.26 
   5   3  -3   16.25    0.59 
  -5  -3   3   15.74    0.57 
  -5  -3   3   14.74    0.61 
   4   3  -3   27.17    0.94 
  -4  -3   3   26.99    0.94 
  -4  -3   3   28.61    0.98 
   3   3  -3   60.16    1.94 
  -3  -3   3   59.77    2.00 
  -3  -3   3   60.98    2.02 
   2   3  -3    9.35    0.33 
  -2  -3   3    9.42    0.35 
  -2  -3   3    8.96    0.36 
   1   3  -3   36.02    1.15 
  -1  -3   3   36.23    1.22 
   0  -3   3    2.99    0.15 
   1  -3   3  148.24    4.93 
   1  -3   3  153.56    4.74 
   2  -3   3    0.19    0.04 
   2  -3   3    0.13    0.06 
   3  -3   3   18.65    0.64 
   3  -3   3   18.97    0.69 
   4  -3   3    8.34    0.37 
   4  -3   3    8.01    0.33 
   5  -3   3    0.18    0.10 
   5  -3   3    0.21    0.09 
   6  -3   3    2.62    0.19 
   6  -3   3    2.54    0.21 
   7  -3   3   -0.10    0.12 
   7  -3   3    0.10    0.13 
   8  -3   3    1.22    0.19 
   8  -3   3    1.19    0.19 
   9  -3   3    0.02    0.15 
   9  -3   3   -0.01    0.17 
  10  -3   3    0.37    0.22 
  11   2  -3    0.16    0.20 
  10   2  -3    0.34    0.19 
   9   2  -3    0.46    0.18 
   8   2  -3    0.53    0.16 
   7   2  -3    6.57    0.34 
  -7  -2   3    6.33    0.34 
   6   2  -3    0.12    0.09 
  -6  -2   3    0.21    0.11 
   5   2  -3   19.04    0.67 
  -5  -2   3   17.79    0.69 
   4   2  -3    6.45    0.29 
  -4  -2   3    7.45    0.27 
  -4  -2   3    7.17    0.32 
   3   2  -3    7.03    0.27 
  -3  -2   3    6.74    0.29 
  -3  -2   3    6.85    0.26 
  -2  -2   3   49.56    1.63 
  -2  -2   3   49.17    1.65 
   1   2  -3   58.02    1.81 
  -1  -2   3   56.69    1.89 
   0  -2   3    4.44    0.16 
   0  -2   3    4.51    0.19 
   1  -2   3   40.09    1.29 
   1  -2   3   41.20    1.36 
   2  -2   3  190.61    6.11 
   2  -2   3  183.46    5.88 
   3  -2   3    2.97    0.17 
   3  -2   3    3.03    0.16 
   4  -2   3   10.85    0.42 
   4  -2   3   10.75    0.44 
   5  -2   3    0.59    0.11 
   5  -2   3    0.58    0.11 
   6  -2   3    4.38    0.27 
   6  -2   3    4.07    0.26 
   7  -2   3    1.55    0.19 
   7  -2   3    1.76    0.19 
   8  -2   3    0.04    0.13 
   8  -2   3    0.34    0.16 
   9  -2   3    1.12    0.19 
   9  -2   3    1.03    0.22 
  10  -2   3    0.11    0.21 
  11   1  -3    0.03    0.18 
  10   1  -3   -0.03    0.17 
   9   1  -3    3.09    0.27 
   8   1  -3    0.13    0.12 
   7   1  -3    3.15    0.22 
  -7  -1   3    3.35    0.24 
   6   1  -3    3.56    0.22 
  -6  -1   3    3.55    0.23 
   5   1  -3    8.12    0.34 
  -5  -1   3    7.97    0.35 
   4   1  -3   26.10    0.88 
  -4  -1   3   25.91    0.91 
   3   1  -3   35.83    1.15 
  -3  -1   3   35.01    1.19 
  -3  -1   3   34.75    1.16 
   2   1  -3  537.72   16.60 
  -2  -1   3  512.92   17.21 
  -2  -1   3  540.45   17.14 
   1   1  -3   15.79    0.58 
  -1  -1   3   19.54    0.60 
   0  -1   3   71.28    2.25 
   1  -1   3   23.13    0.76 
   2  -1   3   10.16    0.37 
   3  -1   3    2.53    0.15 
   4  -1   3    0.05    0.08 
   5  -1   3    6.80    0.34 
   5  -1   3    7.68    0.34 
   6  -1   3    0.00    0.12 
   6  -1   3   -0.08    0.10 
   7  -1   3    4.41    0.28 
   7  -1   3    4.41    0.30 
   8  -1   3    0.23    0.13 
   8  -1   3    0.10    0.16 
   9  -1   3    0.70    0.22 
  11   0  -3    0.13    0.21 
  10   0  -3    0.53    0.17 
   9   0  -3    0.08    0.12 
   8   0  -3    1.02    0.15 
   7   0  -3    4.07    0.25 
   6   0  -3    9.72    0.40 
   6   0  -3   10.02    0.34 
  -6   0   3    9.27    0.41 
   5   0  -3    2.25    0.15 
  -5   0   3    2.26    0.16 
   4   0  -3   11.41    0.43 
  -4   0   3   12.20    0.45 
   3   0  -3   71.38    2.29 
  -3   0   3   72.19    2.36 
   2   0  -3  268.23    8.36 
  -2   0   3  264.88    8.63 
   1   0  -3  116.61    3.68 
   0   0   3    8.91    0.32 
   1   0   3   74.76    2.38 
   2   0   3    9.17    0.35 
   3   0   3   54.11    1.76 
   4   0   3    9.39    0.39 
   5   0   3    8.89    0.40 
   6   0   3    3.97    0.28 
   7   0   3    0.50    0.17 
   8   0   3    1.00    0.21 
   8   0   3    0.93    0.17 
   9   0   3    0.12    0.21 
  11  -1  -3    0.16    0.20 
  10  -1  -3    0.41    0.19 
   9  -1  -3    2.85    0.25 
   8  -1  -3    0.02    0.12 
   7  -1  -3    1.28    0.14 
   6  -1  -3    0.11    0.04 
   6  -1  -3    0.07    0.07 
   5  -1  -3   57.06    1.94 
   5  -1  -3   61.56    1.96 
  -5   1   3   60.36    2.00 
   4  -1  -3    7.54    0.27 
   4  -1  -3    7.31    0.30 
  -4   1   3    7.44    0.30 
   3  -1  -3  125.80    4.01 
   3  -1  -3  125.22    4.14 
  -3   1   3  129.70    4.13 
   2  -1  -3   19.27    0.66 
  -2   1   3   20.02    0.66 
   1  -1  -3   15.85    0.54 
   0   1   3  105.03    3.32 
   1   1   3   18.46    0.63 
   2   1   3   44.13    1.45 
   3   1   3    6.65    0.30 
   4   1   3    6.68    0.32 
   5   1   3    3.63    0.25 
   6   1   3    6.36    0.35 
   7   1   3    0.50    0.18 
   8   1   3    0.97    0.23 
   9   1   3    0.30    0.24 
  12  -2  -3    0.31    0.23 
  11  -2  -3    0.35    0.19 
  10  -2  -3    0.16    0.16 
   9  -2  -3    1.27    0.18 
   8  -2  -3    0.89    0.15 
   7  -2  -3    2.51    0.15 
   7  -2  -3    3.23    0.22 
   6  -2  -3    5.66    0.24 
   6  -2  -3    5.83    0.28 
   5  -2  -3   69.48    2.34 
   5  -2  -3   72.72    2.30 
   4  -2  -3   47.07    1.50 
   4  -2  -3   44.15    1.52 
  -4   2   3   46.20    1.52 
   3  -2  -3    4.39    0.20 
  -3   2   3    4.25    0.17 
   2  -2  -3  129.24    4.26 
   2  -2  -3  131.45    4.12 
  -2   2   3  129.48    4.22 
   1  -2  -3   58.71    1.84 
   1  -2  -3   54.69    1.89 
   0  -2  -3   62.33    2.13 
   0   2   3   65.18    2.05 
   1   2   3    0.97    0.10 
   2   2   3   25.41    0.88 
   3   2   3   21.42    0.77 
   4   2   3   22.07    0.81 
   5   2   3   20.22    0.78 
   6   2   3    0.28    0.16 
   7   2   3    1.45    0.23 
   8   2   3   -0.18    0.18 
  12  -3  -3    0.08    0.22 
  11  -3  -3    0.07    0.18 
  10  -3  -3    0.38    0.18 
   9  -3  -3    1.30    0.19 
   8  -3  -3    1.42    0.17 
   7  -3  -3    3.64    0.23 
   7  -3  -3    2.91    0.18 
   6  -3  -3   29.76    1.03 
   6  -3  -3   29.88    1.03 
   5  -3  -3   79.07    2.51 
   5  -3  -3   76.31    2.57 
   4  -3  -3   51.66    1.69 
   3  -3  -3    9.72    0.37 
   3  -3  -3    9.01    0.37 
   2  -3  -3   23.28    0.83 
   2  -3  -3   23.34    0.80 
   1  -3  -3   27.81    0.96 
   1  -3  -3   28.61    0.99 
   0  -3  -3    0.40    0.09 
   0   3   3    0.44    0.07 
  -1  -3  -3   22.32    0.80 
   1   3   3   21.34    0.76 
   2   3   3    0.06    0.08 
   3   3   3   27.76    0.98 
   4   3   3   16.03    0.63 
   5   3   3    9.11    0.44 
   6   3   3    3.05    0.28 
   7   3   3    0.96    0.24 
   8   3   3    1.23    0.27 
  12  -4  -3    0.20    0.23 
  11  -4  -3    0.28    0.20 
  10  -4  -3    1.00    0.21 
   9  -4  -3    4.72    0.33 
   8  -4  -3    4.92    0.31 
   7  -4  -3    3.34    0.22 
   7  -4  -3    2.83    0.20 
   6  -4  -3   15.73    0.59 
   5  -4  -3    1.66    0.14 
   5  -4  -3    1.99    0.15 
   4  -4  -3   24.70    0.90 
   4  -4  -3   25.44    0.86 
   3  -4  -3   16.48    0.58 
   3  -4  -3   15.72    0.61 
   2  -4  -3   15.80    0.60 
   2  -4  -3   15.59    0.57 
   1  -4  -3   24.36    0.85 
   1  -4  -3   24.24    0.88 
   0  -4  -3    4.32    0.25 
   0   4   3    4.63    0.23 
  -1  -4  -3    9.41    0.43 
   1   4   3    9.93    0.40 
   2   4   3   31.93    1.10 
   3   4   3   -0.01    0.10 
   4   4   3   21.33    0.81 
   5   4   3    5.18    0.33 
   6   4   3    4.62    0.35 
   7   4   3    0.05    0.19 
  12  -5  -3    0.52    0.24 
  11  -5  -3   -0.09    0.18 
  10  -5  -3    0.40    0.17 
   9  -5  -3    0.48    0.16 
   8  -5  -3    0.09    0.12 
   8  -5  -3    0.02    0.09 
   7  -5  -3   11.46    0.49 
   7  -5  -3   12.07    0.49 
   6  -5  -3    0.24    0.09 
   6  -5  -3    0.30    0.10 
   5  -5  -3    8.06    0.35 
   5  -5  -3    7.98    0.36 
   4  -5  -3   13.96    0.54 
   4  -5  -3   13.01    0.51 
   3  -5  -3   13.85    0.55 
   3  -5  -3   13.73    0.52 
   2  -5  -3   30.56    1.11 
   2  -5  -3   31.06    1.06 
   1  -5  -3    0.98    0.13 
   1  -5  -3    0.96    0.12 
  -1   5   3    0.70    0.10 
   0  -5  -3   29.43    1.09 
   0   5   3   29.99    1.02 
  -1  -5  -3    2.25    0.20 
   1   5   3    2.33    0.18 
  -2  -5  -3   33.17    1.23 
   2   5   3   33.48    1.16 
   3   5   3   10.89    0.48 
   4   5   3    2.70    0.24 
   5   5   3    3.31    0.29 
   6   5   3    2.63    0.30 
   7   5   3    1.67    0.28 
  11  -6  -3    0.71    0.21 
  10  -6  -3   -0.02    0.15 
   9  -6  -3    1.37    0.19 
   8  -6  -3    0.16    0.12 
   8  -6  -3    0.30    0.14 
   7  -6  -3    0.95    0.15 
   7  -6  -3    1.36    0.17 
   6  -6  -3   11.05    0.48 
   6  -6  -3   10.41    0.45 
   5  -6  -3    1.80    0.16 
   5  -6  -3    2.09    0.19 
   4  -6  -3   39.05    1.41 
   4  -6  -3   45.21    1.49 
   3  -6  -3    0.04    0.10 
   3  -6  -3    0.11    0.09 
   2  -6  -3   11.68    0.47 
   2  -6  -3   10.36    0.49 
   1  -6  -3   18.66    0.78 
  -1   6   3   21.03    0.73 
   0  -6  -3   24.72    0.94 
   0   6   3   24.04    0.86 
  -1  -6  -3   27.25    1.03 
   1   6   3   26.33    0.95 
  -2  -6  -3    0.09    0.13 
   2   6   3    0.13    0.12 
   3   6   3   12.33    0.53 
   4   6   3    0.11    0.16 
   5   6   3    4.07    0.32 
   6   6   3    1.42    0.25 
  11  -7  -3    0.57    0.21 
  10  -7  -3    1.30    0.23 
   9  -7  -3    0.40    0.16 
   8  -7  -3   14.18    0.62 
   8  -7  -3   14.79    0.61 
   7  -7  -3    0.55    0.16 
   7  -7  -3    0.44    0.14 
   6  -7  -3    9.77    0.44 
   6  -7  -3   10.18    0.47 
   5  -7  -3    2.90    0.21 
   5  -7  -3    2.84    0.23 
   4  -7  -3   16.02    0.65 
   4  -7  -3   14.84    0.60 
   3  -7  -3   42.57    1.56 
   3  -7  -3   50.45    1.66 
   2  -7  -3    0.35    0.12 
   2  -7  -3    0.49    0.14 
   1  -7  -3   29.87    1.15 
  -1   7   3   30.61    1.05 
   0  -7  -3    0.04    0.13 
   0   7   3    0.10    0.10 
  -1  -7  -3   17.83    0.75 
   1   7   3   16.55    0.66 
  -2  -7  -3    0.13    0.17 
   2   7   3    0.26    0.14 
   3   7   3    6.62    0.38 
   4   7   3    1.99    0.25 
   5   7   3    1.18    0.23 
  11  -8  -3   -0.01    0.21 
  10  -8  -3    2.00    0.26 
   9  -8  -3    0.82    0.19 
   8  -8  -3    1.36    0.19 
   8  -8  -3    1.38    0.21 
   7  -8  -3    0.84    0.18 
   7  -8  -3    0.51    0.15 
   6  -8  -3    4.27    0.29 
   6  -8  -3    4.60    0.32 
   5  -8  -3   14.62    0.65 
   5  -8  -3   15.05    0.60 
   4  -8  -3   -0.10    0.13 
   4  -8  -3   -0.14    0.10 
   3  -8  -3    9.47    0.44 
   3  -8  -3    9.84    0.49 
   2  -8  -3    5.21    0.35 
  -2   8   3    4.95    0.28 
   1  -8  -3    6.61    0.42 
  -1   8   3    7.71    0.36 
   0  -8  -3    7.80    0.45 
   0   8   3    7.47    0.38 
  -1  -8  -3    1.29    0.23 
   1   8   3    1.08    0.17 
  -2  -8  -3   10.52    0.57 
   2   8   3   10.62    0.50 
   3   8   3    0.19    0.16 
   4   8   3    2.86    0.29 
   8  -9  -3    0.05    0.16 
   8  -9  -3    0.07    0.14 
   7  -9  -3    5.68    0.35 
   7  -9  -3    6.50    0.41 
   6  -9  -3    0.26    0.17 
   6  -9  -3   -0.01    0.13 
   5  -9  -3    4.65    0.31 
   5  -9  -3    5.02    0.35 
   4  -9  -3    8.18    0.44 
   4  -9  -3    7.10    0.39 
   3  -9  -3   -0.05    0.15 
  -3   9   3    0.10    0.12 
   2  -9  -3    9.67    0.53 
  -2   9   3   10.95    0.46 
   1  -9  -3   -0.04    0.17 
  -1   9   3    0.23    0.13 
   0  -9  -3    5.63    0.41 
   0   9   3    6.33    0.35 
  -1  -9  -3    1.27    0.26 
   1   9   3    1.26    0.20 
  -2  -9  -3    3.03    0.33 
   2   9   3    2.77    0.26 
   3   9   3    2.55    0.28 
   8 -10  -3    0.96    0.23 
   7 -10  -3    1.96    0.26 
   6 -10  -3    7.42    0.46 
   5 -10  -3    0.59    0.19 
   4 -10  -3    4.84    0.36 
   4 -10  -3    4.24    0.31 
   3 -10  -3    1.45    0.25 
  -3  10   3    1.60    0.19 
   2 -10  -3    2.97    0.31 
  -2  10   3    3.52    0.25 
   1 -10  -3   15.47    0.75 
  -1  10   3   15.39    0.64 
   0 -10  -3    0.37    0.23 
   0  10   3    0.49    0.16 
  -1 -10  -3    5.12    0.42 
   1  10   3    3.77    0.31 
  -2 -10  -3    0.13    0.24 
   2  10   3    0.23    0.17 
   8 -11  -3    1.14    0.26 
   7 -11  -3    1.20    0.24 
   6 -11  -3    0.67    0.22 
   5 -11  -3    0.02    0.18 
   4 -11  -3   -0.03    0.18 
   3 -11  -3    4.13    0.36 
   2 -11  -3   -0.36    0.15 
   1 -11  -3    1.58    0.30 
   0 -11  -3    0.43    0.24 
   5 -12  -3    4.96    0.41 
   4 -12  -3    2.94    0.33 
   3 -12  -3    1.67    0.29 
  -1 -12   4    1.33    0.29 
   0 -12   4    2.33    0.32 
   1 -12   4    0.88    0.26 
   2 -12   4    1.69    0.29 
   3 -12   4   -0.10    0.22 
   4 -12   4    1.21    0.27 
  -3 -11   4    0.19    0.23 
  -2 -11   4    2.12    0.30 
  -1 -11   4   -0.07    0.19 
   0 -11   4    4.85    0.39 
   1 -11   4    1.21    0.25 
   2 -11   4    2.34    0.30 
   3 -11   4    0.78    0.23 
   4 -11   4    0.83    0.22 
   5 -11   4    2.25    0.29 
   6 -11   4    0.09    0.19 
  -3 -10   4    0.41    0.20 
  -2 -10   4    2.85    0.30 
  -1 -10   4    3.87    0.33 
   0 -10   4    0.50    0.20 
   1 -10   4    1.85    0.24 
   2 -10   4    1.59    0.25 
   3 -10   4    1.16    0.23 
   4 -10   4    0.35    0.18 
   5 -10   4    1.48    0.24 
   6 -10   4    0.19    0.19 
   7 -10   4    0.50    0.22 
  -6  -9   4    0.13    0.19 
  -5  -9   4    1.29    0.22 
  -4  -9   4    0.30    0.19 
  -4  -9   4    0.37    0.17 
  -3  -9   4    6.37    0.41 
  -3  -9   4    7.16    0.38 
  -2  -9   4    0.85    0.19 
  -2  -9   4    0.74    0.16 
  -1  -9   4    4.42    0.29 
  -1  -9   4    4.60    0.33 
   0  -9   4    1.85    0.23 
   0  -9   4    1.41    0.17 
   1  -9   4    3.99    0.31 
   1  -9   4    3.53    0.25 
   2  -9   4   17.07    0.73 
   3  -9   4    1.97    0.23 
   4  -9   4    3.54    0.28 
   5  -9   4   -0.05    0.15 
   6  -9   4    3.00    0.29 
   7  -9   4    1.20    0.23 
   8  -9   4    0.74    0.23 
  -7  -8   4    0.34    0.21 
  -6  -8   4    0.13    0.18 
  -5  -8   4    2.03    0.24 
  -4  -8   4    1.19    0.20 
  -4  -8   4    0.87    0.18 
  -3  -8   4    0.95    0.17 
  -3  -8   4    1.09    0.18 
  -2  -8   4   12.00    0.52 
  -2  -8   4   12.54    0.56 
  -1  -8   4    0.12    0.12 
  -1  -8   4    0.32    0.15 
   0  -8   4    9.68    0.42 
   0  -8   4    9.11    0.46 
   1  -8   4    0.21    0.13 
   2  -8   4    2.64    0.23 
   3  -8   4    1.32    0.19 
   4  -8   4    2.41    0.24 
   5  -8   4    4.62    0.34 
   6  -8   4    2.15    0.25 
   7  -8   4    0.84    0.21 
   8  -8   4   -0.22    0.17 
   8   7  -4   -0.09    0.17 
  -8  -7   4    0.16    0.20 
   7   7  -4    0.36    0.17 
  -7  -7   4    0.18    0.19 
   6   7  -4    1.78    0.21 
  -6  -7   4    1.78    0.24 
   5   7  -4    0.05    0.12 
  -5  -7   4   -0.07    0.14 
  -4  -7   4    3.82    0.27 
  -4  -7   4    4.05    0.28 
  -3  -7   4    0.61    0.14 
  -3  -7   4    0.75    0.15 
  -2  -7   4   15.86    0.63 
  -2  -7   4   15.93    0.64 
  -1  -7   4    5.81    0.32 
  -1  -7   4    5.77    0.30 
   0  -7   4   11.93    0.49 
   0  -7   4   12.11    0.52 
   1  -7   4   10.14    0.46 
   2  -7   4    1.75    0.19 
   3  -7   4    2.95    0.24 
   4  -7   4    0.09    0.13 
   5  -7   4    4.17    0.30 
   6  -7   4   -0.01    0.13 
   7  -7   4    0.63    0.19 
   8  -7   4    0.03    0.17 
   9  -7   4    0.44    0.20 
   9   6  -4   -0.08    0.18 
   8   6  -4    0.65    0.20 
  -8  -6   4    0.41    0.20 
   7   6  -4    0.64    0.16 
  -7  -6   4    0.65    0.20 
   6   6  -4    0.53    0.15 
  -6  -6   4    0.59    0.17 
   5   6  -4    2.01    0.18 
  -5  -6   4    1.96    0.21 
  -5  -6   4    1.88    0.19 
  -4  -6   4    2.26    0.19 
  -4  -6   4    2.74    0.21 
   3   6  -4    5.48    0.26 
  -3  -6   4    5.99    0.31 
  -3  -6   4    5.71    0.30 
   2   6  -4    0.02    0.05 
  -2  -6   4    0.07    0.10 
  -2  -6   4    0.12    0.10 
  -1  -6   4    1.19    0.14 
  -1  -6   4    1.34    0.14 
   0  -6   4    0.28    0.10 
   1  -6   4   22.51    0.83 
   2  -6   4    5.13    0.29 
   3  -6   4    5.28    0.30 
   4  -6   4    4.49    0.29 
   5  -6   4    0.04    0.12 
   6  -6   4    5.77    0.36 
   7  -6   4    0.12    0.16 
   8  -6   4    0.80    0.20 
   9  -6   4    1.15    0.23 
   9   5  -4   -0.18    0.16 
   8   5  -4    0.06    0.15 
  -8  -5   4    0.03    0.18 
   7   5  -4    1.49    0.19 
  -7  -5   4    2.01    0.23 
   6   5  -4    0.40    0.12 
  -6  -5   4    0.55    0.16 
   5   5  -4   22.55    0.83 
  -5  -5   4   23.08    0.88 
  -5  -5   4   23.32    0.84 
   4   5  -4    0.03    0.07 
  -4  -5   4    0.08    0.08 
  -4  -5   4    0.08    0.12 
   3   5  -4    8.20    0.32 
  -3  -5   4    8.01    0.36 
  -3  -5   4    8.28    0.37 
   2   5  -4    3.05    0.15 
  -2  -5   4    3.10    0.20 
  -2  -5   4    3.32    0.21 
   1   5  -4   78.64    2.37 
  -1  -5   4   71.99    2.50 
  -1  -5   4   74.69    2.51 
   0  -5   4   17.12    0.64 
   1  -5   4    1.99    0.15 
   2  -5   4    9.61    0.41 
   3  -5   4    0.94    0.08 
   3  -5   4    0.76    0.12 
   4  -5   4    4.03    0.20 
   4  -5   4    4.22    0.26 
   5  -5   4    4.48    0.28 
   5  -5   4    4.17    0.23 
   6  -5   4    2.48    0.23 
   7  -5   4    3.26    0.27 
   8  -5   4    0.38    0.18 
   9  -5   4    0.28    0.18 
  10   4  -4    0.25    0.19 
   9   4  -4    2.66    0.27 
   8   4  -4    0.42    0.16 
  -8  -4   4    0.30    0.18 
   7   4  -4    1.47    0.19 
  -7  -4   4    1.85    0.22 
   6   4  -4    1.87    0.18 
  -6  -4   4    1.77    0.19 
   5   4  -4    0.11    0.08 
  -5  -4   4    0.15    0.11 
  -5  -4   4    0.16    0.07 
   4   4  -4    6.76    0.29 
  -4  -4   4    6.80    0.32 
  -4  -4   4    6.53    0.29 
   3   4  -4    6.10    0.25 
  -3  -4   4    5.94    0.29 
  -3  -4   4    6.14    0.27 
   2   4  -4    9.25    0.32 
  -2  -4   4    9.12    0.37 
  -2  -4   4    8.71    0.36 
   1   4  -4    0.51    0.04 
  -1  -4   4    0.56    0.09 
   0  -4   4    7.62    0.31 
   1  -4   4   31.10    1.08 
   2  -4   4    0.52    0.10 
   2  -4   4    0.41    0.05 
   3  -4   4    5.76    0.29 
   3  -4   4    5.97    0.24 
   4  -4   4    0.16    0.10 
   4  -4   4    0.10    0.07 
   5  -4   4    9.50    0.43 
   5  -4   4    9.29    0.39 
   6  -4   4    0.50    0.13 
   6  -4   4    0.61    0.15 
   7  -4   4    3.06    0.26 
   7  -4   4    2.83    0.24 
   8  -4   4    0.37    0.17 
   8  -4   4    0.30    0.17 
   9  -4   4    0.43    0.20 
  10   3  -4    0.15    0.18 
   9   3  -4   -0.22    0.15 
   8   3  -4    1.80    0.21 
  -8  -3   4    1.62    0.23 
   7   3  -4    0.78    0.14 
  -7  -3   4    0.72    0.17 
   6   3  -4    9.38    0.41 
  -6  -3   4    9.47    0.43 
   5   3  -4    0.28    0.09 
  -5  -3   4    0.36    0.12 
  -5  -3   4    0.44    0.07 
   4   3  -4    1.52    0.11 
  -4  -3   4    1.23    0.10 
  -4  -3   4    1.09    0.13 
  -3  -3   4    7.36    0.33 
  -3  -3   4    8.57    0.32 
   2   3  -4    8.34    0.30 
  -2  -3   4    8.44    0.34 
  -2  -3   4    8.46    0.32 
   1   3  -4   64.36    1.99 
  -1  -3   4   61.62    2.09 
   0  -3   4    4.00    0.19 
   0  -3   4    3.89    0.14 
   1  -3   4    6.79    0.30 
   1  -3   4    7.08    0.24 
   2  -3   4   22.52    0.75 
   2  -3   4   22.57    0.81 
   3  -3   4   32.67    1.15 
   3  -3   4   33.05    1.09 
   4  -3   4    6.69    0.31 
   4  -3   4    6.12    0.28 
   5  -3   4    3.23    0.21 
   5  -3   4    3.68    0.24 
   6  -3   4    0.60    0.14 
   6  -3   4    0.41    0.14 
   7  -3   4   -0.12    0.13 
   7  -3   4   -0.10    0.12 
   8  -3   4    1.40    0.21 
   8  -3   4    1.36    0.21 
   9  -3   4   -0.05    0.18 
   9  -3   4   -0.18    0.17 
  11   2  -4    0.01    0.16 
  10   2  -4    0.40    0.18 
   9   2  -4    1.09    0.20 
   8   2  -4    0.08    0.13 
  -8  -2   4   -0.08    0.14 
   7   2  -4    3.69    0.26 
  -7  -2   4    4.56    0.28 
   6   2  -4    3.99    0.23 
  -6  -2   4    4.63    0.27 
   5   2  -4   29.33    0.99 
  -5  -2   4   28.29    1.03 
   4   2  -4   72.92    2.35 
  -4  -2   4   73.21    2.44 
  -4  -2   4   73.70    2.40 
   3   2  -4   82.91    2.66 
  -3  -2   4   84.41    2.74 
  -3  -2   4   83.87    2.77 
   2   2  -4    7.44    0.27 
  -2  -2   4    7.62    0.31 
  -2  -2   4    7.46    0.28 
   1   2  -4   69.70    2.22 
  -1  -2   4   70.33    2.31 
   0  -2   4   43.84    1.50 
   0  -2   4   45.96    1.43 
   1  -2   4   36.60    1.27 
   1  -2   4   38.25    1.21 
   2  -2   4   48.66    1.56 
   2  -2   4   48.14    1.64 
   3  -2   4   17.41    0.65 
   3  -2   4   16.98    0.61 
   4  -2   4   13.55    0.56 
   4  -2   4   15.02    0.54 
   5  -2   4    0.69    0.12 
   5  -2   4    0.67    0.13 
   6  -2   4   20.52    0.81 
   6  -2   4   21.07    0.78 
   7  -2   4    0.49    0.16 
   7  -2   4    0.56    0.16 
   8  -2   4    0.29    0.16 
   8  -2   4    0.27    0.17 
   9  -2   4    0.11    0.19 
   9  -2   4    0.11    0.17 
  11   1  -4    0.40    0.20 
  10   1  -4    0.09    0.15 
   9   1  -4    0.60    0.17 
   8   1  -4    7.73    0.39 
  -8  -1   4    8.40    0.42 
   7   1  -4   16.27    0.63 
  -7  -1   4   16.46    0.66 
   6   1  -4    6.10    0.28 
  -6  -1   4    5.31    0.29 
   5   1  -4   17.38    0.64 
  -5  -1   4   18.31    0.67 
   4   1  -4   32.51    1.07 
  -4  -1   4   32.02    1.11 
   3   1  -4    0.46    0.06 
  -3  -1   4    0.56    0.04 
  -3  -1   4    0.42    0.07 
   2   1  -4   97.28    3.04 
  -2  -1   4   95.77    3.14 
  -2  -1   4   94.86    3.13 
   0  -1   4   80.22    2.54 
   1  -1   4    0.07    0.05 
   2  -1   4    1.67    0.11 
   3  -1   4   21.36    0.74 
   4  -1   4    9.64    0.40 
   5  -1   4    3.01    0.22 
   5  -1   4    3.30    0.23 
   6  -1   4    0.18    0.13 
   6  -1   4    0.15    0.14 
   7  -1   4    0.49    0.16 
   7  -1   4    0.63    0.17 
   8  -1   4   -0.19    0.17 
   8  -1   4   -0.02    0.13 
   9  -1   4   -0.03    0.19 
  11   0  -4   -0.10    0.16 
  10   0  -4    0.34    0.17 
   9   0  -4    2.43    0.22 
   8   0  -4    9.30    0.43 
   7   0  -4    5.25    0.29 
  -7   0   4    6.03    0.32 
   6   0  -4   20.33    0.74 
  -6   0   4   20.61    0.76 
   5   0  -4    0.48    0.08 
  -5   0   4    0.55    0.10 
   4   0  -4   87.91    2.79 
  -4   0   4   86.80    2.88 
   3   0  -4   24.39    0.83 
  -3   0   4   25.22    0.85 
   2   0  -4   43.01    1.40 
  -2   0   4   43.53    1.44 
   1   0  -4    3.63    0.17 
   0   0   4   20.14    0.68 
   1   0   4   74.07    2.37 
   2   0   4   26.20    0.89 
   3   0   4   18.26    0.66 
   4   0   4    0.42    0.11 
   5   0   4    2.71    0.22 
   6   0   4    2.58    0.24 
   7   0   4    1.33    0.22 
   8   0   4    0.42    0.17 
   8   0   4    0.42    0.21 
   9   0   4    0.31    0.23 
  12  -1  -4    0.37    0.24 
  11  -1  -4    0.11    0.18 
  10  -1  -4    1.30    0.22 
   9  -1  -4    0.74    0.16 
   8  -1  -4   14.10    0.57 
   7  -1  -4    2.36    0.18 
  -7   1   4    2.54    0.19 
   6  -1  -4   15.07    0.58 
  -6   1   4   16.02    0.59 
   5  -1  -4    2.44    0.10 
   5  -1  -4    2.52    0.16 
  -5   1   4    2.66    0.16 
   4  -1  -4   45.44    1.48 
   4  -1  -4   45.12    1.49 
  -4   1   4   45.34    1.51 
   3  -1  -4   16.76    0.59 
  -3   1   4   16.71    0.58 
   2  -1  -4    4.59    0.21 
  -2   1   4    5.20    0.20 
   1  -1  -4   66.44    2.14 
   0   1   4    5.35    0.23 
   1   1   4   40.42    1.33 
   2   1   4   26.70    0.92 
   3   1   4   22.87    0.81 
   4   1   4   11.72    0.49 
   5   1   4    3.89    0.27 
   6   1   4    4.91    0.32 
   7   1   4    0.00    0.18 
   8   1   4    0.97    0.25 
  12  -2  -4   -0.09    0.21 
  11  -2  -4    3.05    0.30 
  10  -2  -4    1.76    0.23 
   9  -2  -4    4.71    0.31 
   8  -2  -4    1.83    0.18 
   7  -2  -4    8.35    0.38 
   6  -2  -4    2.16    0.16 
   6  -2  -4    1.76    0.12 
  -6   2   4    2.10    0.15 
   5  -2  -4    4.72    0.20 
   5  -2  -4    4.89    0.24 
  -5   2   4    5.10    0.23 
   4  -2  -4    1.56    0.12 
   4  -2  -4    1.26    0.09 
  -4   2   4    1.45    0.10 
   3  -2  -4   49.12    1.59 
  -3   2   4   48.20    1.60 
   2  -2  -4    4.67    0.21 
   2  -2  -4    4.60    0.21 
  -2   2   4    4.63    0.18 
   1  -2  -4  182.08    5.76 
   0   2   4  103.17    3.29 
   1   2   4    0.73    0.10 
   2   2   4   38.65    1.30 
   3   2   4   10.14    0.44 
   4   2   4   12.82    0.54 
   5   2   4    0.26    0.15 
   6   2   4    2.47    0.26 
   7   2   4    1.33    0.25 
   8   2   4    0.36    0.24 
  12  -3  -4    0.28    0.23 
  11  -3  -4    5.91    0.41 
  10  -3  -4    0.77    0.20 
   9  -3  -4    3.74    0.27 
   8  -3  -4    1.55    0.17 
   7  -3  -4    3.60    0.23 
   7  -3  -4    3.16    0.19 
   6  -3  -4   11.61    0.46 
   6  -3  -4   12.62    0.49 
   5  -3  -4    0.35    0.07 
   5  -3  -4    0.22    0.08 
   4  -3  -4   52.14    1.70 
  -4   3   4   51.24    1.70 
   3  -3  -4    0.07    0.06 
   3  -3  -4    0.13    0.06 
  -3   3   4    0.06    0.03 
   2  -3  -4   81.68    2.74 
   2  -3  -4   83.52    2.65 
  -2   3   4   81.49    2.67 
   1  -3  -4  160.83    5.07 
   1  -3  -4  157.86    5.24 
   0   3   4   82.85    2.67 
   1   3   4   18.47    0.67 
   2   3   4   16.43    0.62 
   3   3   4    4.94    0.30 
   4   3   4   11.85    0.53 
   5   3   4    9.07    0.46 
   6   3   4   -0.02    0.19 
   7   3   4    0.66    0.23 
  12  -4  -4    0.00    0.22 
  11  -4  -4   -0.11    0.18 
  10  -4  -4    0.14    0.17 
   9  -4  -4    0.23    0.15 
   8  -4  -4    4.14    0.28 
   7  -4  -4    0.00    0.08 
   7  -4  -4    0.14    0.10 
   6  -4  -4   13.78    0.57 
   6  -4  -4   16.41    0.58 
   5  -4  -4    0.08    0.08 
   5  -4  -4    0.10    0.07 
   4  -4  -4   26.30    0.96 
   4  -4  -4   27.69    0.94 
   3  -4  -4   44.14    1.51 
   3  -4  -4   47.08    1.58 
   2  -4  -4   45.51    1.57 
   2  -4  -4   49.07    1.64 
   1  -4  -4   55.50    1.82 
   1  -4  -4   54.20    1.88 
   0  -4  -4    4.73    0.27 
   0   4   4    4.71    0.25 
   1   4   4   31.55    1.09 
   2   4   4    2.19    0.19 
   3   4   4   17.27    0.68 
   4   4   4    0.78    0.17 
   5   4   4    2.64    0.26 
   6   4   4    0.70    0.23 
   7   4   4   -0.08    0.22 
  12  -5  -4   -0.06    0.20 
  11  -5  -4    0.14    0.20 
  10  -5  -4    1.51    0.23 
   9  -5  -4    0.57    0.16 
   8  -5  -4    3.64    0.25 
   6  -5  -4    1.80    0.16 
   6  -5  -4    1.79    0.17 
   5  -5  -4   22.42    0.82 
   5  -5  -4   21.51    0.79 
   4  -5  -4    9.87    0.41 
   4  -5  -4   10.13    0.44 
   3  -5  -4   26.72    0.93 
   3  -5  -4   25.84    0.97 
   2  -5  -4    1.49    0.16 
   2  -5  -4    1.44    0.15 
   1  -5  -4   21.72    0.85 
  -1   5   4   22.65    0.79 
   0  -5  -4   11.73    0.53 
   0   5   4   12.75    0.49 
  -1  -5  -4   12.96    0.57 
   1   5   4   12.78    0.52 
   2   5   4    5.12    0.30 
   3   5   4    0.99    0.17 
   4   5   4    7.20    0.40 
   5   5   4    0.06    0.17 
   6   5   4    2.32    0.30 
  11  -6  -4    0.14    0.19 
  10  -6  -4   -0.07    0.15 
   9  -6  -4   -0.12    0.14 
   8  -6  -4    1.06    0.18 
   7  -6  -4    9.12    0.42 
   7  -6  -4    8.73    0.42 
   6  -6  -4    3.42    0.23 
   6  -6  -4    3.16    0.24 
   5  -6  -4    2.76    0.21 
   5  -6  -4    2.49    0.19 
   4  -6  -4   64.12    2.36 
   4  -6  -4   74.04    2.28 
   3  -6  -4    1.19    0.17 
   3  -6  -4    1.08    0.15 
   2  -6  -4   23.03    0.85 
   2  -6  -4   23.00    0.89 
   1  -6  -4    0.04    0.12 
  -1   6   4   -0.05    0.09 
   0  -6  -4   13.75    0.61 
   0   6   4   13.79    0.55 
  -1  -6  -4    3.38    0.28 
   1   6   4    3.71    0.26 
   2   6   4    8.76    0.43 
   3   6   4    5.16    0.34 
   4   6   4    1.16    0.22 
   5   6   4    2.73    0.29 
   6   6   4    1.35    0.27 
  11  -7  -4    0.50    0.22 
  10  -7  -4    0.18    0.17 
   9  -7  -4    3.07    0.27 
   8  -7  -4    9.83    0.47 
   8  -7  -4   10.03    0.49 
   7  -7  -4    0.07    0.12 
   7  -7  -4    0.08    0.13 
   6  -7  -4    5.24    0.31 
   6  -7  -4    5.34    0.33 
   5  -7  -4    0.25    0.11 
   5  -7  -4    0.27    0.13 
   4  -7  -4    0.49    0.13 
   4  -7  -4    0.25    0.13 
   3  -7  -4    0.14    0.13 
   3  -7  -4    0.00    0.11 
   2  -7  -4   10.89    0.53 
  -2   7   4   11.32    0.47 
   1  -7  -4   19.00    0.78 
  -1   7   4   17.90    0.69 
   0  -7  -4    2.09    0.23 
   0   7   4    1.51    0.18 
  -1  -7  -4   13.20    0.62 
   1   7   4   12.39    0.54 
   2   7   4    2.22    0.23 
   3   7   4    4.15    0.31 
   4   7   4    0.39    0.20 
   5   7   4    1.19    0.25 
  11  -8  -4    0.10    0.21 
  10  -8  -4    0.35    0.19 
   9  -8  -4    0.01    0.16 
   8  -8  -4    0.57    0.17 
   8  -8  -4    0.58    0.17 
   7  -8  -4    4.53    0.30 
   7  -8  -4    4.63    0.33 
   6  -8  -4    0.17    0.13 
   6  -8  -4    0.16    0.15 
   5  -8  -4    3.05    0.26 
   5  -8  -4    2.55    0.22 
   4  -8  -4   -0.09    0.14 
   4  -8  -4    0.05    0.12 
   3  -8  -4   32.73    1.17 
   3  -8  -4   31.38    1.22 
   2  -8  -4    0.46    0.18 
  -2   8   4    0.51    0.14 
   1  -8  -4   20.94    0.85 
  -1   8   4   19.29    0.76 
   0  -8  -4    3.46    0.32 
   0   8   4    3.09    0.24 
  -1  -8  -4    5.35    0.39 
   1   8   4    4.51    0.30 
   2   8   4    8.81    0.46 
   3   8   4    0.58    0.20 
   4   8   4    1.84    0.27 
  10  -9  -4    0.52    0.21 
   9  -9  -4    1.49    0.23 
   8  -9  -4   -0.04    0.17 
   8  -9  -4    0.15    0.16 
   7  -9  -4    3.12    0.29 
   7  -9  -4    2.59    0.25 
   6  -9  -4    1.26    0.22 
   6  -9  -4    0.95    0.18 
   5  -9  -4    7.42    0.44 
   5  -9  -4    8.39    0.43 
   4  -9  -4    3.38    0.28 
   4  -9  -4    4.30    0.33 
   3  -9  -4   10.30    0.55 
  -3   9   4   10.92    0.48 
   2  -9  -4    7.40    0.45 
  -2   9   4    6.74    0.37 
   1  -9  -4    1.49    0.25 
  -1   9   4    1.71    0.20 
   0  -9  -4    6.84    0.48 
   0   9   4    7.94    0.41 
  -1  -9  -4    0.38    0.23 
   1   9   4    0.06    0.17 
   2   9   4    2.62    0.27 
   3   9   4    1.69    0.25 
   8 -10  -4    0.89    0.23 
   7 -10  -4    0.36    0.20 
   6 -10  -4    3.08    0.27 
   6 -10  -4    2.84    0.30 
   5 -10  -4    2.55    0.26 
   5 -10  -4    2.40    0.29 
   4 -10  -4    8.29    0.50 
  -4  10   4    8.57    0.43 
   3 -10  -4    0.33    0.20 
  -3  10   4    0.34    0.16 
   2 -10  -4   14.34    0.72 
  -2  10   4   14.95    0.62 
   1 -10  -4    7.01    0.49 
  -1  10   4    7.74    0.41 
   0 -10  -4    2.15    0.32 
   0  10   4    1.77    0.22 
  -1 -10  -4    1.80    0.31 
   1  10   4    1.74    0.24 
   7 -11  -4    0.33    0.20 
   6 -11  -4    2.11    0.29 
   5 -11  -4    0.80    0.24 
   4 -11  -4    1.66    0.28 
   3 -11  -4    3.42    0.35 
   2 -11  -4    0.22    0.21 
   1 -11  -4    0.38    0.25 
   0 -12   5    0.02    0.23 
   1 -12   5    0.42    0.24 
   2 -12   5    0.43    0.25 
   3 -12   5    0.61    0.25 
  -3 -11   5    0.85    0.25 
  -2 -11   5    0.51    0.23 
  -1 -11   5    0.52    0.23 
   0 -11   5    0.63    0.23 
   1 -11   5    0.58    0.23 
   2 -11   5    1.97    0.28 
   3 -11   5    0.48    0.23 
   4 -11   5    0.26    0.22 
   5 -11   5    1.14    0.24 
  -4 -10   5    1.94    0.27 
  -3 -10   5    0.15    0.19 
  -3 -10   5    0.18    0.17 
  -2 -10   5    2.85    0.29 
  -2 -10   5    2.40    0.24 
  -1 -10   5    0.49    0.20 
  -1 -10   5   -0.02    0.15 
   0 -10   5    3.85    0.33 
   0 -10   5    3.47    0.26 
   1 -10   5    3.95    0.28 
   1 -10   5    3.19    0.31 
   2 -10   5    0.33    0.20 
   3 -10   5    1.69    0.25 
   4 -10   5   -0.12    0.18 
   5 -10   5    0.22    0.19 
   6 -10   5    0.68    0.21 
  -6  -9   5    0.84    0.22 
  -5  -9   5    0.41    0.20 
  -4  -9   5   11.50    0.55 
  -3  -9   5    4.83    0.32 
  -3  -9   5    5.07    0.36 
  -2  -9   5    1.73    0.23 
  -2  -9   5    1.65    0.20 
  -1  -9   5    5.03    0.35 
  -1  -9   5    5.29    0.32 
   0  -9   5   -0.15    0.12 
   0  -9   5    0.06    0.16 
   1  -9   5    4.40    0.31 
   2  -9   5    1.38    0.21 
   3  -9   5    1.54    0.22 
   4  -9   5    1.18    0.20 
   5  -9   5    0.51    0.19 
   6  -9   5    1.90    0.26 
   7  -9   5   -0.15    0.18 
  -7  -8   5    0.63    0.22 
  -6  -8   5    0.69    0.20 
  -5  -8   5    2.82    0.28 
  -4  -8   5    0.16    0.16 
  -4  -8   5   -0.01    0.13 
  -3  -8   5    2.83    0.25 
  -3  -8   5    2.93    0.24 
  -2  -8   5    2.85    0.23 
  -2  -8   5    3.44    0.27 
  -1  -8   5    3.39    0.26 
  -1  -8   5    4.64    0.30 
   0  -8   5    6.57    0.37 
   0  -8   5    6.50    0.34 
   1  -8   5    0.67    0.17 
   2  -8   5    7.12    0.39 
   3  -8   5    0.35    0.16 
   4  -8   5    6.42    0.39 
   5  -8   5    0.55    0.18 
   6  -8   5    1.72    0.24 
   7  -8   5   -0.04    0.16 
   8  -8   5    0.06    0.20 
  -8  -7   5    0.08    0.21 
  -7  -7   5    0.14    0.19 
  -6  -7   5    0.38    0.18 
  -5  -7   5    3.58    0.29 
  -4  -7   5    4.39    0.30 
  -4  -7   5    4.46    0.30 
  -3  -7   5    0.54    0.15 
  -3  -7   5    0.76    0.15 
  -2  -7   5   10.61    0.47 
  -2  -7   5   10.74    0.48 
  -1  -7   5    0.89    0.14 
  -1  -7   5    1.01    0.15 
   0  -7   5    8.04    0.39 
   1  -7   5    2.84    0.22 
   2  -7   5    2.91    0.23 
   3  -7   5    0.91    0.16 
   4  -7   5    0.07    0.14 
   5  -7   5    5.46    0.36 
   6  -7   5    0.24    0.17 
   7  -7   5    1.19    0.23 
   8  -7   5    0.27    0.20 
   9   6  -5    0.10    0.18 
  -9  -6   5    0.46    0.23 
   8   6  -5    0.21    0.17 
  -8  -6   5    0.45    0.20 
   7   6  -5    2.37    0.23 
  -7  -6   5    2.46    0.27 
   6   6  -5    6.09    0.33 
  -6  -6   5    5.49    0.36 
   5   6  -5    0.15    0.09 
  -5  -6   5    0.15    0.15 
   4   6  -5    5.88    0.28 
  -4  -6   5    5.56    0.32 
  -4  -6   5    5.77    0.31 
  -3  -6   5    7.36    0.35 
  -3  -6   5    6.95    0.35 
  -2  -6   5    2.34    0.19 
  -2  -6   5    2.31    0.19 
  -1  -6   5    6.34    0.32 
  -1  -6   5    6.50    0.31 
   0  -6   5    1.20    0.15 
   1  -6   5   17.17    0.67 
   2  -6   5    0.28    0.13 
   3  -6   5  153.89    5.10 
   4  -6   5    2.91    0.23 
   5  -6   5    2.98    0.26 
   6  -6   5    0.78    0.19 
   7  -6   5    0.20    0.18 
   8  -6   5    0.72    0.21 
  10   5  -5   -0.11    0.17 
   9   5  -5    0.07    0.17 
  -9  -5   5   -0.36    0.19 
   8   5  -5    1.29    0.21 
  -8  -5   5    1.77    0.26 
   7   5  -5    1.83    0.20 
  -7  -5   5    1.60    0.21 
   6   5  -5    0.03    0.10 
  -6  -5   5    0.11    0.14 
   5   5  -5    9.41    0.40 
  -5  -5   5    9.34    0.44 
   4   5  -5    1.17    0.12 
  -4  -5   5    1.06    0.16 
  -4  -5   5    1.25    0.13 
   3   5  -5   19.16    0.63 
  -3  -5   5   18.25    0.68 
  -3  -5   5   16.68    0.69 
   2   5  -5    1.95    0.11 
  -2  -5   5    1.89    0.16 
  -2  -5   5    2.04    0.16 
  -1  -5   5   43.63    1.50 
   0  -5   5    6.06    0.29 
   1  -5   5   40.94    1.42 
   2  -5   5   13.76    0.55 
   3  -5   5    0.07    0.11 
   4  -5   5    0.82    0.14 
   5  -5   5    0.03    0.12 
   6  -5   5    2.35    0.24 
   7  -5   5   -0.13    0.15 
   8  -5   5    0.53    0.20 
  10   4  -5    0.10    0.17 
   9   4  -5    1.02    0.20 
  -9  -4   5    0.99    0.23 
   8   4  -5   -0.04    0.14 
  -8  -4   5   -0.08    0.16 
   7   4  -5    3.48    0.25 
  -7  -4   5    3.65    0.28 
   6   4  -5    0.05    0.10 
  -6  -4   5    0.02    0.12 
   5   4  -5    4.09    0.23 
  -5  -4   5    4.73    0.22 
  -5  -4   5    4.49    0.27 
  -4  -4   5    1.91    0.14 
  -4  -4   5    1.70    0.16 
   3   4  -5    4.49    0.20 
  -3  -4   5    4.52    0.24 
  -3  -4   5    4.56    0.22 
   2   4  -5   33.77    1.04 
  -2  -4   5   31.43    1.10 
  -2  -4   5   30.82    1.12 
  -1  -4   5    7.63    0.32 
   0  -4   5   37.58    1.29 
   1  -4   5    3.06    0.19 
   1  -4   5    3.18    0.13 
   2  -4   5   27.12    0.98 
   2  -4   5   27.77    0.90 
   3  -4   5   11.65    0.48 
   3  -4   5   11.13    0.42 
   4  -4   5   10.67    0.49 
   4  -4   5   11.83    0.44 
   5  -4   5    0.43    0.15 
   5  -4   5    0.74    0.12 
   6  -4   5    2.52    0.20 
   6  -4   5    2.69    0.25 
   7  -4   5    0.80    0.19 
   8  -4   5   -0.21    0.16 
   9  -4   5    0.71    0.21 
  11   3  -5   -0.17    0.18 
  10   3  -5    0.19    0.18 
   9   3  -5    0.85    0.19 
  -9  -3   5    0.86    0.21 
   8   3  -5    0.83    0.16 
  -8  -3   5    0.55    0.17 
   7   3  -5    0.26    0.12 
  -7  -3   5    0.44    0.15 
   6   3  -5    3.15    0.21 
  -6  -3   5    3.45    0.24 
   5   3  -5    1.29    0.12 
  -5  -3   5    1.35    0.16 
  -5  -3   5    1.65    0.11 
   4   3  -5   10.06    0.39 
  -4  -3   5   10.04    0.38 
  -4  -3   5   10.45    0.43 
   3   3  -5    2.80    0.14 
  -3  -3   5    2.63    0.18 
  -3  -3   5    2.38    0.14 
   2   3  -5   22.24    0.71 
  -2  -3   5   20.26    0.76 
  -2  -3   5   21.30    0.74 
   1   3  -5    8.55    0.29 
  -1  -3   5    8.20    0.33 
   0  -3   5   59.63    1.86 
   0  -3   5   57.82    1.97 
   1  -3   5   39.43    1.25 
   1  -3   5   38.34    1.34 
   2  -3   5    7.04    0.32 
   2  -3   5    7.21    0.28 
   3  -3   5   10.28    0.39 
   3  -3   5    9.91    0.43 
   4  -3   5    0.71    0.14 
   4  -3   5    0.97    0.12 
   5  -3   5    2.21    0.18 
   5  -3   5    1.64    0.19 
   6  -3   5    0.73    0.17 
   6  -3   5    0.82    0.16 
   7  -3   5    2.59    0.24 
   7  -3   5    2.47    0.25 
   8  -3   5    0.27    0.18 
   8  -3   5    0.12    0.17 
  11   2  -5    0.04    0.17 
  10   2  -5    0.19    0.17 
   9   2  -5    0.11    0.13 
  -9  -2   5   -0.02    0.19 
   8   2  -5    0.21    0.13 
  -8  -2   5    0.19    0.16 
   7   2  -5   -0.03    0.09 
  -7  -2   5   -0.08    0.12 
   6   2  -5    3.00    0.20 
  -6  -2   5    2.64    0.21 
   5   2  -5    4.48    0.22 
  -5  -2   5    4.17    0.25 
   4   2  -5  210.41    6.50 
  -4  -2   5  210.69    6.71 
  -4  -2   5  196.99    6.72 
   3   2  -5    2.44    0.14 
  -3  -2   5    3.56    0.15 
  -3  -2   5    3.36    0.19 
   2   2  -5    1.83    0.11 
  -2  -2   5    1.92    0.11 
   1   2  -5   30.75    1.02 
  -1  -2   5   32.10    1.07 
   0  -2   5   14.84    0.49 
   0  -2   5   14.02    0.53 
   1  -2   5    7.81    0.34 
   1  -2   5    8.12    0.30 
   2  -2   5    3.04    0.17 
   2  -2   5    3.29    0.20 
   3  -2   5    3.05    0.21 
   3  -2   5    3.68    0.20 
   4  -2   5    8.67    0.37 
   4  -2   5    8.80    0.41 
   5  -2   5    4.61    0.29 
   5  -2   5    4.88    0.28 
   6  -2   5    6.58    0.37 
   6  -2   5    7.04    0.36 
   7  -2   5    0.03    0.15 
   7  -2   5    0.04    0.15 
   8  -2   5    1.35    0.22 
   8  -2   5    1.36    0.24 
  11   1  -5   -0.06    0.18 
  10   1  -5    0.37    0.17 
   9   1  -5    0.91    0.18 
  -9  -1   5    0.88    0.20 
   8   1  -5    1.02    0.16 
  -8  -1   5    1.23    0.19 
   7   1  -5    0.06    0.10 
  -7  -1   5    0.21    0.14 
   6   1  -5    1.48    0.14 
  -6  -1   5    1.09    0.14 
   5   1  -5    7.40    0.33 
  -5  -1   5    8.33    0.36 
   4   1  -5  226.49    7.01 
  -4  -1   5  223.96    7.24 
  -4  -1   5  216.97    7.24 
   3   1  -5    4.76    0.21 
  -3  -1   5    4.38    0.22 
  -3  -1   5    4.83    0.18 
   2   1  -5   14.63    0.52 
  -2  -1   5   15.37    0.53 
   1   1  -5    4.06    0.18 
   0  -1   5   36.51    1.19 
   1  -1   5    5.34    0.23 
   2  -1   5   27.88    0.94 
   3  -1   5    0.68    0.11 
   4  -1   5    9.92    0.42 
   5  -1   5    2.60    0.22 
   5  -1   5    2.51    0.21 
   6  -1   5    0.22    0.15 
   6  -1   5    0.06    0.13 
   7  -1   5    1.15    0.21 
   7  -1   5    1.49    0.21 
   8  -1   5    0.45    0.18 
   8  -1   5    0.41    0.21 
  12   0  -5    0.11    0.20 
  11   0  -5    0.03    0.17 
  10   0  -5    0.13    0.15 
   9   0  -5    0.03    0.13 
   8   0  -5   -0.09    0.10 
  -8   0   5    0.08    0.13 
   7   0  -5    3.41    0.23 
  -7   0   5    3.15    0.23 
   6   0  -5    3.65    0.21 
  -6   0   5    3.99    0.24 
   5   0  -5    6.66    0.29 
  -5   0   5    6.45    0.30 
   4   0  -5   21.71    0.73 
  -4   0   5   20.44    0.75 
   3   0  -5    1.06    0.09 
  -3   0   5    1.21    0.10 
   2   0  -5   41.64    1.36 
   1   0  -5    4.75    0.22 
   0   0   5   40.99    1.34 
   1   0   5    1.17    0.11 
   2   0   5   12.35    0.47 
   3   0   5   16.53    0.62 
   4   0   5    0.98    0.15 
   5   0   5    4.76    0.31 
   6   0   5   -0.07    0.15 
   7   0   5    0.61    0.21 
   7   0   5    1.01    0.19 
   8   0   5   -0.06    0.16 
   8   0   5   -0.15    0.19 
  12  -1  -5    0.09    0.19 
  11  -1  -5    0.41    0.19 
  10  -1  -5    0.42    0.16 
   9  -1  -5   -0.09    0.12 
   8  -1  -5    0.72    0.14 
  -8   1   5    0.77    0.15 
   7  -1  -5    5.10    0.28 
  -7   1   5    4.98    0.27 
   6  -1  -5   15.38    0.58 
  -6   1   5   15.31    0.58 
   5  -1  -5    8.96    0.37 
  -5   1   5    9.21    0.37 
   4  -1  -5   14.39    0.53 
  -4   1   5   14.70    0.53 
   3  -1  -5   10.03    0.38 
  -3   1   5    9.81    0.37 
   2  -1  -5   38.63    1.28 
   1  -1  -5   25.41    0.88 
   0   1   5   12.84    0.47 
   1   1   5   21.66    0.76 
   2   1   5    8.73    0.38 
   3   1   5   43.00    1.46 
   4   1   5    1.11    0.17 
   5   1   5    0.03    0.14 
   6   1   5    0.31    0.18 
   7   1   5    0.05    0.20 
   8   1   5    0.35    0.17 
   8   1   5    0.35    0.24 
  12  -2  -5    0.16    0.21 
  11  -2  -5    1.13    0.24 
  10  -2  -5    0.27    0.16 
   9  -2  -5    0.00    0.13 
   8  -2  -5    3.20    0.23 
   7  -2  -5   29.59    1.02 
  -7   2   5   27.49    1.01 
   6  -2  -5    1.08    0.13 
   6  -2  -5    1.14    0.08 
  -6   2   5    1.23    0.12 
   5  -2  -5   24.46    0.85 
   5  -2  -5   24.94    0.84 
  -5   2   5   23.81    0.85 
   4  -2  -5    1.82    0.12 
   4  -2  -5    1.64    0.13 
  -4   2   5    1.99    0.13 
   3  -2  -5   34.18    1.17 
   3  -2  -5   33.60    1.14 
  -3   2   5   34.30    1.14 
   2  -2  -5    0.07    0.06 
   1  -2  -5   26.22    0.91 
   0   2   5    0.60    0.10 
   1   2   5   20.18    0.73 
   2   2   5   15.58    0.60 
   3   2   5   62.73    2.09 
   4   2   5    3.58    0.26 
   5   2   5    0.72    0.19 
   6   2   5    1.55    0.25 
   7   2   5   -0.10    0.19 
  12  -3  -5    0.52    0.24 
  11  -3  -5    6.89    0.43 
  10  -3  -5    0.83    0.20 
   9  -3  -5    1.98    0.22 
   8  -3  -5    0.25    0.12 
   7  -3  -5    3.72    0.25 
   6  -3  -5    0.91    0.10 
   6  -3  -5    0.94    0.13 
   5  -3  -5    7.83    0.32 
   5  -3  -5    7.34    0.33 
  -5   3   5    7.43    0.30 
   4  -3  -5   14.98    0.56 
   4  -3  -5   15.02    0.56 
  -4   3   5   15.00    0.52 
   3  -3  -5   20.82    0.75 
   3  -3  -5   21.46    0.76 
  -3   3   5   20.68    0.70 
   2  -3  -5   22.97    0.84 
   2  -3  -5   24.70    0.87 
  -2   3   5   23.92    0.80 
   1  -3  -5    0.36    0.09 
   0   3   5   14.88    0.57 
   1   3   5    5.19    0.28 
   2   3   5   13.13    0.53 
   3   3   5    1.00    0.16 
   4   3   5    1.97    0.22 
   5   3   5    1.79    0.24 
   6   3   5    0.58    0.23 
   7   3   5    1.95    0.31 
  12  -4  -5   -0.01    0.21 
  11  -4  -5    0.07    0.18 
  10  -4  -5    0.30    0.16 
   9  -4  -5    2.44    0.24 
   8  -4  -5    2.00    0.20 
   7  -4  -5    0.19    0.12 
   7  -4  -5    0.28    0.09 
   6  -4  -5   15.82    0.59 
   6  -4  -5   15.26    0.60 
   5  -4  -5    2.01    0.16 
   5  -4  -5    2.00    0.16 
   4  -4  -5   47.40    1.60 
   4  -4  -5   48.60    1.65 
   3  -4  -5    1.76    0.15 
   3  -4  -5    1.42    0.14 
   2  -4  -5   10.18    0.43 
   2  -4  -5   10.29    0.44 
   1  -4  -5   10.77    0.48 
  -1   4   5   11.00    0.44 
   0   4   5    6.68    0.32 
   1   4   5   24.84    0.90 
   2   4   5    0.17    0.11 
   3   4   5    6.88    0.37 
   4   4   5    0.79    0.19 
   5   4   5    2.93    0.29 
   6   4   5    0.87    0.26 
  12  -5  -5    0.63    0.24 
  11  -5  -5    0.40    0.20 
  10  -5  -5    0.48    0.18 
   9  -5  -5    0.00    0.14 
   8  -5  -5    4.71    0.31 
   7  -5  -5    1.21    0.15 
   7  -5  -5    1.21    0.17 
   6  -5  -5   11.49    0.48 
   6  -5  -5   10.86    0.47 
   5  -5  -5    3.20    0.23 
   5  -5  -5    3.26    0.22 
   4  -5  -5    4.57    0.27 
   4  -5  -5    4.32    0.25 
   3  -5  -5   48.62    1.69 
   3  -5  -5   47.59    1.63 
   2  -5  -5    0.10    0.10 
   2  -5  -5    0.23    0.11 
   1  -5  -5   29.88    1.12 
  -1   5   5   30.56    1.06 
   0  -5  -5    2.79    0.24 
   0   5   5    2.59    0.19 
   1   5   5   13.96    0.58 
   2   5   5    7.51    0.39 
   3   5   5    3.03    0.26 
   4   5   5    5.51    0.37 
   5   5   5    0.87    0.22 
   6   5   5    1.33    0.27 
  11  -6  -5    0.85    0.23 
  10  -6  -5    1.61    0.24 
   9  -6  -5    3.64    0.29 
   8  -6  -5    0.63    0.16 
   7  -6  -5    7.67    0.38 
   7  -6  -5    6.82    0.37 
   6  -6  -5    0.92    0.15 
   6  -6  -5    1.10    0.16 
   5  -6  -5   89.15    3.09 
   5  -6  -5   93.04    2.98 
   4  -6  -5   55.69    1.94 
   4  -6  -5   54.92    1.86 
   3  -6  -5   33.55    1.27 
   3  -6  -5   36.07    1.24 
   2  -6  -5    9.45    0.45 
   2  -6  -5    9.65    0.47 
   1  -6  -5   11.57    0.53 
  -1   6   5   10.83    0.47 
   0  -6  -5    7.80    0.44 
   0   6   5    7.94    0.38 
   1   6   5    3.79    0.27 
   2   6   5   10.73    0.51 
   3   6   5   -0.10    0.15 
   4   6   5    2.25    0.27 
   5   6   5    1.62    0.27 
  11  -7  -5    0.94    0.24 
  10  -7  -5   -0.15    0.16 
   9  -7  -5    0.82    0.19 
   8  -7  -5    0.91    0.18 
   7  -7  -5   10.76    0.50 
   7  -7  -5   10.23    0.48 
   6  -7  -5   10.32    0.48 
   6  -7  -5   10.96    0.51 
   5  -7  -5    7.00    0.39 
   5  -7  -5    6.45    0.35 
   4  -7  -5    1.00    0.18 
   4  -7  -5    1.18    0.17 
   3  -7  -5    2.05    0.21 
   3  -7  -5    1.84    0.22 
   2  -7  -5   18.01    0.77 
  -2   7   5   18.44    0.70 
   1  -7  -5    0.02    0.14 
  -1   7   5    0.08    0.12 
   0  -7  -5   16.76    0.75 
   0   7   5   16.79    0.67 
   1   7   5    5.54    0.34 
   2   7   5    2.66    0.26 
   3   7   5    4.36    0.32 
   4   7   5   -0.05    0.18 
  11  -8  -5    0.26    0.21 
  10  -8  -5    0.96    0.23 
   9  -8  -5    0.57    0.19 
   8  -8  -5    2.63    0.25 
   8  -8  -5    2.68    0.26 
   7  -8  -5    0.08    0.14 
   7  -8  -5    0.07    0.14 
   6  -8  -5   16.85    0.71 
   6  -8  -5   15.30    0.66 
   5  -8  -5    4.36    0.31 
   5  -8  -5    4.78    0.34 
   4  -8  -5   16.97    0.74 
   4  -8  -5   17.08    0.71 
   3  -8  -5    3.99    0.32 
   3  -8  -5    4.40    0.31 
   2  -8  -5    5.58    0.38 
  -2   8   5    5.28    0.32 
   1  -8  -5    7.11    0.45 
  -1   8   5    8.05    0.40 
   0  -8  -5    0.26    0.20 
   0   8   5    0.48    0.16 
   1   8   5    8.39    0.44 
   2   8   5    0.53    0.20 
   3   8   5    2.59    0.28 
  10  -9  -5    0.70    0.22 
   9  -9  -5    0.06    0.17 
   8  -9  -5    2.88    0.28 
   8  -9  -5    3.37    0.31 
   7  -9  -5    4.56    0.34 
   7  -9  -5    3.39    0.29 
   6  -9  -5    1.52    0.22 
   6  -9  -5    2.15    0.26 
   5  -9  -5    5.38    0.39 
   5  -9  -5    6.09    0.38 
   4  -9  -5    0.14    0.18 
   4  -9  -5    0.17    0.16 
   3  -9  -5   14.96    0.71 
  -3   9   5   14.91    0.63 
   2  -9  -5    1.53    0.25 
  -2   9   5    1.71    0.21 
   1  -9  -5    5.23    0.40 
  -1   9   5    4.99    0.33 
   0  -9  -5    4.62    0.40 
   0   9   5    5.34    0.35 
   1   9   5    1.03    0.22 
   2   9   5    9.12    0.49 
   8 -10  -5    0.16    0.19 
   8 -10  -5    0.18    0.20 
   7 -10  -5    0.14    0.17 
   7 -10  -5   -0.32    0.16 
   6 -10  -5    0.80    0.20 
   6 -10  -5    0.71    0.22 
   5 -10  -5    3.28    0.32 
   5 -10  -5    2.84    0.28 
   4 -10  -5    2.33    0.30 
  -4  10   5    2.68    0.25 
   3 -10  -5    0.68    0.22 
  -3  10   5    0.27    0.16 
   2 -10  -5    8.15    0.51 
  -2  10   5    7.58    0.42 
   1 -10  -5   -0.39    0.17 
  -1  10   5    0.00    0.16 
   0 -10  -5    5.65    0.48 
   0  10   5    7.00    0.40 
   7 -11  -5    2.00    0.29 
   6 -11  -5    5.63    0.43 
   5 -11  -5   -0.10    0.19 
   4 -11  -5    3.76    0.37 
   3 -11  -5    1.11    0.25 
  -3  11   5    1.36    0.22 
   2 -11  -5    2.75    0.34 
  -2  11   5    2.69    0.27 
  -2 -11   6    0.22    0.22 
  -1 -11   6    0.51    0.23 
   0 -11   6    0.11    0.22 
   1 -11   6    0.42    0.23 
   2 -11   6    0.90    0.25 
   3 -11   6    0.10    0.22 
   4 -11   6    0.02    0.21 
  -5 -10   6    0.42    0.21 
  -4 -10   6    0.34    0.19 
  -3 -10   6    0.07    0.16 
  -3 -10   6    0.12    0.19 
  -2 -10   6    1.14    0.20 
  -2 -10   6    1.21    0.23 
  -1 -10   6    0.00    0.16 
  -1 -10   6   -0.05    0.18 
   0 -10   6   10.29    0.49 
   0 -10   6   10.40    0.55 
   1 -10   6    0.39    0.20 
   1 -10   6    0.41    0.16 
   2 -10   6    2.02    0.26 
   3 -10   6    1.34    0.24 
   4 -10   6    0.84    0.23 
   5 -10   6    1.05    0.23 
  -6  -9   6    0.22    0.19 
  -5  -9   6    0.22    0.20 
  -4  -9   6    4.68    0.34 
  -3  -9   6    0.39    0.17 
  -3  -9   6   -0.03    0.15 
  -2  -9   6    1.34    0.22 
  -2  -9   6    1.38    0.20 
  -1  -9   6    0.88    0.18 
  -1  -9   6    0.84    0.20 
   0  -9   6    0.28    0.15 
   0  -9   6    0.00    0.17 
   1  -9   6    1.40    0.22 
   2  -9   6    0.03    0.16 
   3  -9   6    3.16    0.29 
   4  -9   6    0.10    0.18 
   5  -9   6    0.51    0.19 
   6  -9   6    0.14    0.20 
  -7  -8   6    0.03    0.18 
  -6  -8   6    0.56    0.21 
  -5  -8   6    0.53    0.19 
  -4  -8   6    0.91    0.19 
  -3  -8   6    5.30    0.32 
  -3  -8   6    4.24    0.30 
  -2  -8   6    0.43    0.16 
  -2  -8   6    0.59    0.16 
  -1  -8   6    4.94    0.30 
  -1  -8   6    6.21    0.35 
   0  -8   6    0.10    0.14 
   1  -8   6    5.37    0.34 
   2  -8   6    1.04    0.20 
   3  -8   6    1.59    0.22 
   4  -8   6   -0.12    0.14 
   5  -8   6    0.13    0.17 
   6  -8   6    0.85    0.22 
   7  -8   6   -0.10    0.18 
  -8  -7   6    0.10    0.20 
  -7  -7   6    0.24    0.20 
  -6  -7   6   -0.16    0.17 
  -5  -7   6    2.34    0.24 
  -4  -7   6    0.86    0.17 
  -4  -7   6    1.24    0.17 
  -3  -7   6    0.24    0.14 
  -3  -7   6    0.18    0.14 
  -2  -7   6    3.05    0.23 
  -2  -7   6    2.59    0.22 
  -1  -7   6    8.18    0.40 
  -1  -7   6    8.49    0.40 
   0  -7   6    6.53    0.35 
   1  -7   6    0.31    0.13 
   2  -7   6    0.54    0.15 
   3  -7   6   -0.03    0.15 
   4  -7   6    1.95    0.23 
   5  -7   6    0.09    0.17 
   6  -7   6    0.29    0.19 
   7  -7   6    3.28    0.32 
  -9  -6   6    0.40    0.23 
   8   6  -6    0.22    0.16 
  -8  -6   6   -0.13    0.18 
  -7  -6   6    4.99    0.36 
  -6  -6   6    0.90    0.21 
  -5  -6   6    0.67    0.17 
  -4  -6   6    7.80    0.39 
  -4  -6   6    8.03    0.37 
  -3  -6   6    8.02    0.39 
  -3  -6   6    7.90    0.37 
  -2  -6   6   15.35    0.61 
  -2  -6   6   15.48    0.62 
  -1  -6   6    0.21    0.11 
   0  -6   6    7.27    0.35 
   1  -6   6    1.21    0.16 
   2  -6   6    4.12    0.27 
   3  -6   6   11.85    0.53 
   4  -6   6    1.66    0.21 
   5  -6   6    1.89    0.22 
   6  -6   6    0.52    0.20 
   7  -6   6    0.33    0.20 
   8  -6   6   -0.17    0.18 
  10   5  -6    0.02    0.18 
 -10  -5   6    0.31    0.23 
   9   5  -6    0.11    0.16 
  -9  -5   6    0.03    0.20 
   8   5  -6    0.72    0.17 
  -8  -5   6    0.55    0.20 
   7   5  -6    1.72    0.19 
  -7  -5   6    2.16    0.24 
   6   5  -6    3.16    0.22 
  -6  -5   6    3.30    0.28 
  -5  -5   6    1.64    0.20 
   4   5  -6    5.41    0.25 
  -4  -5   6    5.21    0.27 
  -4  -5   6    5.21    0.30 
   3   5  -6    3.41    0.17 
  -3  -5   6    3.37    0.24 
  -3  -5   6    3.68    0.21 
  -2  -5   6    1.16    0.13 
  -2  -5   6    1.13    0.14 
  -1  -5   6   18.57    0.69 
   0  -5   6    0.19    0.09 
   1  -5   6    2.57    0.19 
   2  -5   6    0.30    0.12 
   3  -5   6    0.28    0.13 
   4  -5   6    3.56    0.26 
   5  -5   6    1.45    0.21 
   6  -5   6    1.26    0.22 
   7  -5   6    0.12    0.18 
   8  -5   6    0.93    0.23 
  10   4  -6    0.10    0.18 
 -10  -4   6    0.26    0.21 
   9   4  -6    0.00    0.14 
  -9  -4   6    0.07    0.20 
   8   4  -6    0.82    0.17 
  -8  -4   6    0.66    0.21 
   7   4  -6    1.36    0.17 
  -7  -4   6    1.42    0.20 
   6   4  -6    0.12    0.10 
  -6  -4   6    0.03    0.13 
   5   4  -6    6.57    0.29 
  -5  -4   6    5.78    0.34 
   4   4  -6    1.07    0.10 
  -4  -4   6    1.01    0.11 
  -4  -4   6    1.05    0.14 
   3   4  -6   15.41    0.54 
  -3  -4   6   15.60    0.61 
  -3  -4   6   15.81    0.58 
   2   4  -6    2.57    0.13 
  -2  -4   6    2.76    0.17 
  -2  -4   6    3.05    0.20 
  -1  -4   6    7.92    0.34 
   0  -4   6   18.17    0.67 
   1  -4   6    2.92    0.13 
   1  -4   6    2.96    0.21 
   2  -4   6   14.33    0.58 
   2  -4   6   14.47    0.50 
   3  -4   6    0.23    0.12 
   3  -4   6    0.23    0.08 
   4  -4   6    1.59    0.20 
   5  -4   6    1.74    0.21 
   6  -4   6    1.16    0.20 
   7  -4   6    0.22    0.19 
   8  -4   6    0.39    0.21 
  11   3  -6    0.31    0.20 
  10   3  -6    1.11    0.22 
 -10  -3   6    1.09    0.26 
   9   3  -6    0.67    0.18 
  -9  -3   6    0.48    0.21 
   8   3  -6    0.02    0.12 
  -8  -3   6   -0.14    0.16 
   7   3  -6    6.05    0.32 
  -7  -3   6    6.16    0.37 
   6   3  -6    2.06    0.17 
  -6  -3   6    2.26    0.23 
   5   3  -6    5.21    0.25 
  -5  -3   6    5.22    0.29 
  -4  -3   6   20.73    0.77 
  -4  -3   6   20.66    0.72 
   3   3  -6    7.70    0.31 
  -3  -3   6    8.25    0.32 
  -3  -3   6    8.36    0.37 
   2   3  -6   31.40    1.03 
  -2  -3   6   31.68    1.08 
   1   3  -6    1.29    0.09 
  -1  -3   6    1.25    0.11 
   0  -3   6   72.71    2.35 
   0  -3   6   75.64    2.48 
   1  -3   6    0.33    0.06 
   1  -3   6    0.18    0.09 
   2  -3   6    9.96    0.43 
   2  -3   6    9.22    0.36 
   3  -3   6    7.81    0.33 
   3  -3   6    7.40    0.38 
   4  -3   6   10.94    0.50 
   4  -3   6   11.28    0.45 
   5  -3   6    3.12    0.25 
   5  -3   6    2.87    0.22 
   6  -3   6    0.24    0.14 
   6  -3   6    0.11    0.16 
   7  -3   6    0.54    0.19 
   7  -3   6    0.88    0.19 
   8  -3   6    0.03    0.20 
  11   2  -6   -0.08    0.16 
  10   2  -6    0.87    0.20 
 -10  -2   6    0.87    0.24 
   9   2  -6    1.09    0.18 
  -9  -2   6    0.82    0.20 
   8   2  -6    5.77    0.33 
  -8  -2   6    5.42    0.34 
   7   2  -6   -0.04    0.10 
  -7  -2   6    0.02    0.13 
   6   2  -6   12.53    0.50 
  -6  -2   6   12.62    0.54 
   5   2  -6    3.72    0.21 
  -5  -2   6    3.70    0.25 
   4   2  -6   50.03    1.67 
  -4  -2   6   50.72    1.74 
  -4  -2   6   52.55    1.69 
  -3  -2   6    2.65    0.19 
  -3  -2   6    3.08    0.14 
   2   2  -6   60.62    1.92 
  -2  -2   6   59.19    1.99 
   1   2  -6   24.91    0.84 
  -1  -2   6   25.14    0.88 
   0  -2   6   18.05    0.67 
   0  -2   6   18.42    0.62 
   1  -2   6   36.99    1.28 
   1  -2   6   36.32    1.20 
   2  -2   6    0.08    0.10 
   2  -2   6    0.04    0.07 
   3  -2   6    8.73    0.40 
   3  -2   6    8.07    0.36 
   4  -2   6    1.35    0.18 
   4  -2   6    1.68    0.16 
   5  -2   6    0.99    0.16 
   5  -2   6    1.16    0.18 
   6  -2   6    1.27    0.19 
   6  -2   6    1.13    0.19 
   7  -2   6    0.51    0.18 
   7  -2   6    0.37    0.18 
   8  -2   6    0.58    0.22 
   8  -2   6    0.40    0.19 
  11   1  -6    0.11    0.17 
  10   1  -6    1.65    0.22 
 -10  -1   6    1.40    0.24 
   9   1  -6    1.06    0.18 
  -9  -1   6    1.09    0.21 
   8   1  -6    5.64    0.31 
  -8  -1   6    5.21    0.32 
   7   1  -6   13.64    0.55 
  -7  -1   6   14.12    0.58 
   6   1  -6    7.37    0.33 
  -6  -1   6    6.32    0.34 
   5   1  -6    9.28    0.38 
  -5  -1   6    9.13    0.40 
   4   1  -6   -0.02    0.06 
  -4  -1   6    0.06    0.04 
  -4  -1   6   -0.02    0.08 
   3   1  -6   50.44    1.59 
  -3  -1   6   47.10    1.65 
  -3  -1   6   48.90    1.62 
   2   1  -6    0.36    0.07 
   1   1  -6   54.17    1.76 
   0  -1   6    0.93    0.10 
   1  -1   6   24.88    0.85 
   2  -1   6    8.13    0.35 
   3  -1   6   -0.02    0.09 
   4  -1   6    9.38    0.42 
   5  -1   6    0.84    0.15 
   5  -1   6    0.68    0.17 
   6  -1   6    3.51    0.29 
   6  -1   6    4.02    0.30 
   7  -1   6   -0.04    0.18 
   7  -1   6    0.02    0.16 
   8  -1   6    0.05    0.22 
   8  -1   6    0.09    0.18 
  12   0  -6    0.02    0.19 
  11   0  -6    0.05    0.17 
  10   0  -6    0.48    0.17 
   9   0  -6    2.62    0.24 
  -9   0   6    2.52    0.24 
   8   0  -6    0.15    0.11 
  -8   0   6    0.07    0.14 
   7   0  -6   10.00    0.44 
  -7   0   6   10.79    0.46 
   6   0  -6    0.35    0.09 
  -6   0   6    0.51    0.12 
   5   0  -6   18.51    0.67 
  -5   0   6   18.93    0.69 
   4   0  -6    6.78    0.29 
  -4   0   6    6.33    0.28 
   3   0  -6   14.24    0.53 
  -3   0   6   15.17    0.54 
   2   0  -6   35.61    1.19 
   1   0  -6    3.12    0.18 
   0   0   6   38.79    1.29 
   1   0   6    5.59    0.26 
   2   0   6   18.82    0.69 
   3   0   6    3.32    0.23 
   4   0   6   14.10    0.58 
   5   0   6    4.17    0.29 
   6   0   6    1.34    0.22 
   7   0   6    2.04    0.24 
   7   0   6    1.68    0.27 
  12  -1  -6    0.02    0.19 
  11  -1  -6    0.24    0.18 
  10  -1  -6    0.08    0.16 
   9  -1  -6    1.23    0.18 
  -9   1   6    1.30    0.19 
   8  -1  -6    0.52    0.14 
  -8   1   6    0.59    0.15 
   7  -1  -6    0.82    0.13 
  -7   1   6    0.94    0.14 
   6  -1  -6    5.79    0.29 
  -6   1   6    5.89    0.29 
   5  -1  -6    5.19    0.26 
  -5   1   6    4.94    0.25 
   4  -1  -6   14.63    0.54 
  -4   1   6   14.65    0.54 
   3  -1  -6   25.58    0.89 
  -3   1   6   26.30    0.90 
   2  -1  -6   17.13    0.62 
   1  -1  -6   43.07    1.44 
   0   1   6   11.01    0.44 
   1   1   6   58.17    1.91 
   2   1   6    5.76    0.31 
   3   1   6   10.64    0.47 
   4   1   6    0.09    0.14 
   5   1   6   12.40    0.56 
   6   1   6    0.82    0.22 
   7   1   6    0.14    0.23 
  12  -2  -6    0.35    0.23 
  11  -2  -6    0.18    0.19 
  10  -2  -6    0.53    0.18 
   9  -2  -6    0.21    0.13 
   8  -2  -6    6.54    0.35 
  -8   2   6    6.70    0.34 
   7  -2  -6    9.14    0.40 
  -7   2   6    8.50    0.38 
   6  -2  -6   18.93    0.71 
  -6   2   6   19.43    0.70 
   5  -2  -6    7.65    0.34 
  -5   2   6    7.47    0.32 
   4  -2  -6    2.27    0.16 
  -4   2   6    1.84    0.13 
   3  -2  -6  141.45    4.46 
  -3   2   6  138.40    4.55 
   2  -2  -6    0.78    0.11 
   1  -2  -6   57.43    1.91 
   0   2   6    5.71    0.29 
   1   2   6   26.11    0.93 
   2   2   6    8.79    0.41 
   3   2   6   10.73    0.49 
   4   2   6    8.31    0.44 
   5   2   6    1.32    0.23 
   6   2   6    1.48    0.27 
   7   2   6    1.43    0.28 
  12  -3  -6    0.50    0.23 
  11  -3  -6    0.56    0.20 
  10  -3  -6    0.50    0.19 
   9  -3  -6    0.61    0.16 
   8  -3  -6    2.14    0.20 
   7  -3  -6    0.40    0.12 
  -7   3   6    0.18    0.09 
   6  -3  -6    0.31    0.11 
   6  -3  -6    0.51    0.08 
  -6   3   6    0.45    0.10 
   5  -3  -6   28.69    1.00 
   5  -3  -6   28.16    1.00 
  -5   3   6   28.79    0.98 
   4  -3  -6    0.45    0.09 
   4  -3  -6    0.39    0.09 
  -4   3   6    0.46    0.07 
   3  -3  -6   26.37    0.96 
   3  -3  -6   26.72    0.94 
  -3   3   6   26.60    0.89 
   2  -3  -6    3.07    0.22 
  -1   3   6   19.05    0.70 
   0   3   6   21.23    0.77 
   1   3   6    5.49    0.31 
   2   3   6   13.85    0.57 
   3   3   6    5.73    0.34 
   4   3   6    6.04    0.38 
   5   3   6    0.66    0.22 
   6   3   6    0.44    0.24 
  12  -4  -6    0.30    0.23 
  11  -4  -6    0.00    0.18 
  10  -4  -6    0.21    0.16 
   9  -4  -6    3.33    0.27 
   8  -4  -6    0.30    0.14 
   7  -4  -6   13.03    0.55 
   6  -4  -6    1.61    0.17 
   6  -4  -6    1.81    0.15 
   5  -4  -6    5.22    0.28 
   5  -4  -6    5.30    0.27 
   4  -4  -6    2.26    0.18 
   4  -4  -6    2.43    0.19 
   3  -4  -6    3.66    0.24 
   3  -4  -6    4.26    0.26 
   2  -4  -6   34.36    1.25 
   2  -4  -6   35.30    1.22 
  -1   4   6    0.14    0.10 
   0   4   6   11.75    0.49 
   1   4   6    3.68    0.26 
   2   4   6    4.12    0.28 
   3   4   6    5.53    0.37 
   4   4   6    2.32    0.27 
   5   4   6    1.00    0.26 
   6   4   6    0.43    0.25 
  12  -5  -6    0.14    0.22 
  11  -5  -6    0.02    0.19 
  10  -5  -6    0.54    0.19 
   9  -5  -6    2.10    0.24 
   8  -5  -6    4.43    0.31 
   7  -5  -6    0.25    0.12 
   7  -5  -6    0.04    0.10 
   6  -5  -6   22.13    0.85 
   6  -5  -6   23.11    0.85 
   5  -5  -6    0.43    0.13 
   5  -5  -6    0.45    0.12 
   4  -5  -6    5.59    0.32 
   4  -5  -6    5.95    0.32 
   3  -5  -6    2.16    0.20 
   3  -5  -6    2.24    0.20 
   2  -5  -6    6.10    0.36 
   2  -5  -6    6.96    0.35 
  -1   5   6   17.41    0.67 
   0   5   6    0.14    0.12 
   1   5   6   13.31    0.57 
   2   5   6   -0.03    0.14 
   3   5   6    4.56    0.33 
   4   5   6    6.17    0.42 
   5   5   6    0.66    0.25 
  11  -6  -6    0.43    0.21 
  10  -6  -6    7.76    0.46 
   9  -6  -6    0.17    0.16 
   8  -6  -6    2.32    0.24 
   7  -6  -6    1.16    0.18 
   7  -6  -6    0.87    0.16 
   6  -6  -6    0.30    0.13 
   6  -6  -6    0.34    0.14 
   5  -6  -6    0.13    0.12 
   5  -6  -6    0.23    0.13 
   4  -6  -6    1.48    0.19 
   4  -6  -6    1.28    0.18 
   3  -6  -6   14.01    0.63 
   3  -6  -6   14.57    0.61 
   2  -6  -6    6.62    0.38 
  -2   6   6    5.55    0.31 
   1  -6  -6    7.07    0.40 
  -1   6   6    6.45    0.34 
   0   6   6    0.39    0.14 
   1   6   6    1.59    0.20 
   2   6   6    4.99    0.35 
   3   6   6    0.32    0.17 
   4   6   6   -0.15    0.19 
  11  -7  -6   -0.05    0.19 
  10  -7  -6   -0.06    0.17 
   9  -7  -6    1.50    0.23 
   8  -7  -6    0.01    0.14 
   7  -7  -6    0.19    0.14 
   7  -7  -6    0.23    0.15 
   6  -7  -6    1.12    0.18 
   6  -7  -6    1.21    0.19 
   5  -7  -6    5.37    0.33 
   5  -7  -6    5.31    0.35 
   4  -7  -6    2.20    0.24 
   4  -7  -6    1.90    0.22 
   3  -7  -6    3.68    0.30 
   3  -7  -6    3.15    0.27 
   2  -7  -6   14.37    0.67 
  -2   7   6   15.49    0.62 
   1  -7  -6    0.03    0.15 
  -1   7   6    0.04    0.13 
   0   7   6   23.07    0.89 
   1   7   6    0.99    0.19 
   2   7   6    4.46    0.34 
   3   7   6    0.12    0.18 
  10  -8  -6    0.26    0.19 
   9  -8  -6    1.51    0.23 
   8  -8  -6    1.38    0.21 
   7  -8  -6    0.92    0.20 
   7  -8  -6    0.94    0.18 
   6  -8  -6    5.53    0.37 
   6  -8  -6    4.73    0.33 
   5  -8  -6    0.34    0.16 
   5  -8  -6    0.29    0.17 
   4  -8  -6   11.95    0.57 
   4  -8  -6   12.37    0.60 
   3  -8  -6    1.67    0.25 
  -3   8   6    2.04    0.21 
   2  -8  -6    6.77    0.44 
  -2   8   6    6.84    0.38 
   1  -8  -6    2.95    0.32 
  -1   8   6    3.51    0.27 
   0   8   6    2.68    0.27 
   1   8   6    3.95    0.32 
   2   8   6    0.45    0.20 
  10  -9  -6    0.65    0.22 
   9  -9  -6   -0.05    0.17 
   8  -9  -6    3.34    0.30 
   7  -9  -6    0.04    0.16 
   7  -9  -6    0.04    0.15 
   6  -9  -6    3.73    0.31 
   6  -9  -6    3.42    0.32 
   5  -9  -6    4.69    0.35 
   5  -9  -6    5.60    0.40 
   4  -9  -6    6.17    0.42 
   4  -9  -6    5.33    0.38 
   3  -9  -6   20.78    0.93 
  -3   9   6   22.10    0.85 
   2  -9  -6    0.29    0.21 
  -2   9   6    0.57    0.18 
   1  -9  -6    5.67    0.44 
  -1   9   6    6.13    0.38 
   0   9   6   -0.04    0.17 
   1   9   6    0.37    0.21 
   8 -10  -6   -0.01    0.18 
   7 -10  -6    1.52    0.24 
   7 -10  -6    1.18    0.25 
   6 -10  -6   -0.13    0.18 
   6 -10  -6    0.19    0.18 
   5 -10  -6    4.72    0.36 
   5 -10  -6    4.54    0.39 
   4 -10  -6    0.80    0.23 
  -4  10   6    0.73    0.20 
   3 -10  -6   -0.08    0.19 
  -3  10   6   -0.10    0.15 
   2 -10  -6    1.15    0.27 
  -2  10   6    1.33    0.22 
   1 -10  -6    1.54    0.30 
  -1  10   6    1.66    0.25 
   5 -11  -6    0.06    0.21 
  -5  11   6    0.36    0.19 
  -3 -11   7    0.49    0.20 
  -2 -11   7    0.04    0.18 
  -2 -11   7   -0.01    0.21 
  -1 -11   7    1.29    0.22 
  -1 -11   7    1.16    0.27 
   0 -11   7   -0.07    0.21 
   0 -11   7    0.03    0.18 
   1 -11   7    0.18    0.19 
   1 -11   7    0.20    0.23 
   2 -11   7    0.12    0.22 
   3 -11   7   -0.18    0.20 
  -5 -10   7    1.92    0.28 
  -4 -10   7    0.04    0.18 
  -3 -10   7    0.96    0.21 
  -2 -10   7    0.64    0.20 
  -2 -10   7    0.65    0.22 
  -1 -10   7    0.78    0.22 
  -1 -10   7    0.46    0.18 
   0 -10   7    3.71    0.33 
   0 -10   7    3.49    0.29 
   1 -10   7   -0.18    0.18 
   2 -10   7    0.66    0.22 
   3 -10   7    0.23    0.21 
   4 -10   7    2.99    0.32 
   5 -10   7    0.56    0.22 
  -6  -9   7    1.06    0.25 
  -5  -9   7   -0.34    0.17 
  -4  -9   7    3.38    0.30 
  -3  -9   7    0.25    0.18 
  -3  -9   7   -0.05    0.16 
  -2  -9   7    2.14    0.24 
  -2  -9   7    2.15    0.26 
  -1  -9   7    0.15    0.16 
  -1  -9   7    0.60    0.19 
   0  -9   7    0.19    0.17 
   0  -9   7    0.48    0.17 
   1  -9   7    0.66    0.20 
   2  -9   7    1.62    0.24 
   3  -9   7    1.80    0.26 
   4  -9   7    0.21    0.21 
   5  -9   7    0.72    0.23 
  -7  -8   7    0.28    0.21 
  -6  -8   7    1.11    0.24 
  -5  -8   7   -0.02    0.18 
  -4  -8   7    1.61    0.22 
  -3  -8   7    1.21    0.20 
  -3  -8   7    1.70    0.21 
  -2  -8   7    0.55    0.17 
  -2  -8   7    0.61    0.17 
  -1  -8   7    2.60    0.24 
  -1  -8   7    2.68    0.23 
   0  -8   7    0.12    0.16 
   1  -8   7    0.37    0.17 
   2  -8   7    1.28    0.21 
   3  -8   7    3.26    0.29 
   4  -8   7    2.49    0.28 
   5  -8   7    0.40    0.20 
   6  -8   7    0.05    0.20 
  -8  -7   7    0.90    0.25 
  -7  -7   7    1.01    0.24 
  -6  -7   7    0.26    0.18 
  -5  -7   7    1.29    0.21 
  -4  -7   7    0.60    0.16 
  -3  -7   7    0.22    0.14 
  -3  -7   7    0.22    0.15 
  -2  -7   7    1.15    0.17 
  -2  -7   7    0.92    0.16 
  -1  -7   7    2.40    0.22 
  -1  -7   7    2.63    0.23 
   0  -7   7    3.80    0.27 
   1  -7   7   32.25    1.18 
   2  -7   7   13.59    0.60 
   3  -7   7    0.11    0.15 
   4  -7   7    2.83    0.27 
   5  -7   7   -0.17    0.17 
   6  -7   7    1.72    0.26 
   7  -7   7    0.34    0.22 
  -9  -6   7    0.32    0.23 
  -8  -6   7   -0.16    0.19 
  -7  -6   7    2.84    0.29 
  -6  -6   7   -0.06    0.15 
  -5  -6   7    1.83    0.22 
  -4  -6   7    0.75    0.14 
  -4  -6   7    0.77    0.16 
  -3  -6   7   10.04    0.44 
  -3  -6   7   10.74    0.47 
  -2  -6   7    5.99    0.33 
  -2  -6   7    5.66    0.31 
  -1  -6   7    0.04    0.11 
   0  -6   7    8.76    0.41 
   1  -6   7    7.16    0.37 
   2  -6   7    0.46    0.15 
   3  -6   7    5.11    0.34 
   4  -6   7    0.86    0.19 
   5  -6   7    1.33    0.22 
   6  -6   7    0.46    0.21 
   7  -6   7   -0.17    0.18 
  10   5  -7    0.22    0.19 
 -10  -5   7   -0.12    0.21 
   9   5  -7    0.58    0.19 
  -9  -5   7    0.38    0.22 
   8   5  -7    0.36    0.15 
  -8  -5   7    0.18    0.20 
   7   5  -7   -0.01    0.11 
  -7  -5   7    0.20    0.19 
   6   5  -7    0.58    0.13 
  -6  -5   7    0.91    0.19 
   5   5  -7    0.87    0.12 
  -5  -5   7    1.41    0.20 
  -4  -5   7    8.07    0.39 
  -4  -5   7    7.09    0.34 
  -3  -5   7    1.36    0.16 
  -3  -5   7    1.43    0.14 
  -2  -5   7    6.27    0.30 
  -2  -5   7    6.20    0.33 
  -1  -5   7    2.28    0.18 
   0  -5   7    1.41    0.16 
   1  -5   7   17.36    0.68 
   2  -5   7    1.64    0.19 
   3  -5   7    3.35    0.26 
   4  -5   7    0.13    0.16 
   5  -5   7    1.30    0.22 
   6  -5   7    1.02    0.23 
   7  -5   7    1.08    0.24 
  10   4  -7    0.51    0.19 
 -10  -4   7    0.66    0.24 
   9   4  -7   -0.06    0.14 
  -9  -4   7    0.22    0.20 
   8   4  -7    0.66    0.16 
  -8  -4   7    1.08    0.21 
   7   4  -7    0.64    0.14 
  -7  -4   7    0.97    0.20 
   6   4  -7    0.96    0.13 
  -6  -4   7    0.71    0.18 
  -5  -4   7    2.30    0.22 
   4   4  -7    6.27    0.28 
  -4  -4   7    6.75    0.29 
  -4  -4   7    6.01    0.33 
   3   4  -7   10.08    0.39 
  -3  -4   7   10.76    0.46 
  -3  -4   7   11.04    0.42 
   2   4  -7    0.52    0.07 
  -2  -4   7    0.58    0.11 
  -1  -4   7   12.38    0.49 
   0  -4   7    0.41    0.11 
   1  -4   7   10.33    0.45 
   2  -4   7    1.05    0.15 
   3  -4   7    0.18    0.14 
   4  -4   7    3.26    0.27 
   5  -4   7    0.55    0.19 
   6  -4   7    1.50    0.25 
   7  -4   7   -0.07    0.19 
  11   3  -7    0.21    0.19 
 -11  -3   7   -0.09    0.25 
  10   3  -7    0.06    0.16 
 -10  -3   7    0.09    0.22 
   9   3  -7    0.97    0.19 
  -9  -3   7    0.69    0.22 
   8   3  -7    0.56    0.14 
  -8  -3   7    0.92    0.22 
   7   3  -7    0.11    0.11 
  -7  -3   7    0.33    0.17 
   6   3  -7   57.78    1.90 
  -6  -3   7   56.66    1.99 
   5   3  -7    7.55    0.33 
  -5  -3   7    7.77    0.39 
   4   3  -7    1.70    0.13 
  -4  -3   7    2.75    0.16 
  -4  -3   7    2.69    0.21 
   3   3  -7    4.71    0.22 
  -3  -3   7    4.88    0.22 
  -3  -3   7    4.90    0.26 
   2   3  -7    3.73    0.18 
  -2  -3   7    4.13    0.21 
  -1  -3   7    2.46    0.17 
   0  -3   7    3.23    0.16 
   0  -3   7    3.52    0.22 
   1  -3   7    0.03    0.10 
   1  -3   7    0.02    0.06 
   2  -3   7   12.59    0.48 
   2  -3   7   13.65    0.55 
   3  -3   7    0.47    0.15 
   3  -3   7    0.80    0.12 
   4  -3   7   13.74    0.55 
   4  -3   7   14.35    0.62 
   5  -3   7    0.74    0.19 
   6  -3   7    0.20    0.17 
   7  -3   7    0.21    0.19 
  11   2  -7    0.22    0.19 
  10   2  -7    0.43    0.18 
 -10  -2   7    0.50    0.22 
   9   2  -7    0.21    0.14 
  -9  -2   7    0.23    0.20 
   8   2  -7    0.19    0.12 
  -8  -2   7    0.10    0.16 
   7   2  -7    3.92    0.26 
  -7  -2   7    4.47    0.32 
   6   2  -7   48.51    1.65 
  -6  -2   7   50.12    1.72 
   5   2  -7    0.04    0.07 
  -5  -2   7    0.12    0.11 
   4   2  -7    7.10    0.31 
  -4  -2   7    7.63    0.36 
  -4  -2   7    7.55    0.29 
  -3  -2   7    0.32    0.11 
  -3  -2   7    0.48    0.08 
   2   2  -7    7.37    0.31 
  -2  -2   7    7.70    0.32 
   1   2  -7    4.00    0.20 
  -1  -2   7    3.38    0.20 
   0  -2   7    7.15    0.30 
   0  -2   7    7.46    0.33 
   1  -2   7    7.04    0.33 
   1  -2   7    6.51    0.28 
   2  -2   7    8.08    0.39 
   2  -2   7    8.73    0.36 
   3  -2   7    7.92    0.38 
   3  -2   7    7.25    0.35 
   4  -2   7    1.90    0.19 
   4  -2   7    1.55    0.20 
   5  -2   7    2.23    0.22 
   5  -2   7    1.87    0.22 
   6  -2   7    0.06    0.16 
   6  -2   7    0.15    0.17 
   7  -2   7    0.23    0.18 
   7  -2   7    0.34    0.20 
  11   1  -7    0.22    0.18 
  10   1  -7    0.97    0.20 
 -10  -1   7    1.46    0.25 
   9   1  -7    0.45    0.16 
  -9  -1   7    0.58    0.20 
   8   1  -7    1.21    0.17 
  -8  -1   7    1.74    0.22 
   7   1  -7    0.78    0.14 
  -7  -1   7    0.79    0.17 
   6   1  -7    5.39    0.27 
  -6  -1   7    4.77    0.29 
   5   1  -7    0.09    0.08 
  -5  -1   7    0.01    0.10 
   4   1  -7    0.14    0.07 
  -4  -1   7    0.18    0.06 
  -4  -1   7    0.14    0.10 
   3   1  -7    9.44    0.36 
  -3  -1   7    8.35    0.37 
  -3  -1   7    8.59    0.34 
   2   1  -7    4.67    0.23 
   1   1  -7   22.45    0.79 
   0  -1   7    6.02    0.27 
   1  -1   7   23.75    0.83 
   2  -1   7    0.56    0.12 
   3  -1   7   10.52    0.45 
   4  -1   7    0.68    0.15 
   5  -1   7    0.32    0.16 
   5  -1   7    0.44    0.17 
   6  -1   7    0.16    0.18 
   6  -1   7   -0.05    0.16 
   7  -1   7    0.46    0.22 
   7  -1   7    0.16    0.18 
  12   0  -7   -0.07    0.19 
  11   0  -7    0.15    0.18 
  10   0  -7    0.58    0.17 
 -10   0   7    0.62    0.20 
   9   0  -7   -0.01    0.13 
  -9   0   7   -0.06    0.16 
   8   0  -7    2.91    0.24 
  -8   0   7    3.68    0.26 
   7   0  -7    3.33    0.23 
  -7   0   7    3.35    0.23 
   6   0  -7    0.10    0.09 
  -6   0   7    0.14    0.11 
   5   0  -7   16.07    0.61 
  -5   0   7   16.31    0.62 
  -5   0   7   16.64    0.56 
   4   0  -7    0.04    0.07 
  -4   0   7    0.03    0.08 
   3   0  -7   32.57    1.10 
  -3   0   7   32.16    1.12 
   2   0  -7    1.75    0.14 
   1   0  -7   21.04    0.76 
   0   0   7    1.84    0.15 
   1   0   7   59.66    1.97 
   2   0   7    5.27    0.29 
   3   0   7    0.08    0.12 
   4   0   7    0.21    0.15 
   5   0   7    0.07    0.16 
   6   0   7    0.90    0.23 
   7   0   7   -0.16    0.21 
   7   0   7    0.00    0.16 
  12  -1  -7   -0.13    0.17 
  11  -1  -7    0.66    0.20 
  10  -1  -7   -0.02    0.14 
   9  -1  -7    5.45    0.35 
  -9   1   7    6.01    0.35 
   8  -1  -7    0.65    0.15 
  -8   1   7    0.79    0.16 
   7  -1  -7    5.59    0.29 
  -7   1   7    4.60    0.28 
   6  -1  -7    2.68    0.20 
  -6   1   7    2.65    0.19 
   5  -1  -7    7.11    0.33 
  -5   1   7    7.20    0.32 
   4  -1  -7    2.42    0.17 
  -4   1   7    2.17    0.15 
   3  -1  -7   17.47    0.64 
  -3   1   7   17.13    0.63 
   2  -1  -7   28.75    1.01 
   1  -1  -7    4.70    0.26 
   0   1   7   18.02    0.67 
   1   1   7   56.25    1.87 
   2   1   7    3.29    0.24 
   3   1   7    1.50    0.19 
   4   1   7    0.21    0.17 
   5   1   7    0.02    0.18 
   6   1   7   -0.39    0.19 
  12  -2  -7    0.35    0.21 
  11  -2  -7    0.34    0.18 
  10  -2  -7    0.66    0.19 
   9  -2  -7    0.53    0.15 
  -9   2   7    0.37    0.15 
   8  -2  -7    1.05    0.16 
  -8   2   7    0.87    0.15 
   7  -2  -7   -0.02    0.10 
  -7   2   7    0.08    0.11 
   6  -2  -7    9.69    0.42 
  -6   2   7    9.64    0.40 
   5  -2  -7    0.08    0.09 
  -5   2   7    0.25    0.09 
   4  -2  -7   37.47    1.27 
  -4   2   7   36.72    1.26 
   3  -2  -7   38.20    1.30 
  -3   2   7   37.93    1.28 
   2  -2  -7    9.54    0.42 
  -1   2   7    9.52    0.40 
   0   2   7    6.42    0.32 
   1   2   7    0.13    0.13 
   2   2   7    2.75    0.23 
   3   2   7    2.94    0.25 
   4   2   7    0.10    0.18 
   5   2   7    1.18    0.24 
   6   2   7    0.60    0.26 
  12  -3  -7    0.08    0.20 
  11  -3  -7    0.12    0.19 
  10  -3  -7    0.86    0.20 
   9  -3  -7    0.55    0.17 
   8  -3  -7    2.38    0.22 
  -8   3   7    2.09    0.19 
   7  -3  -7    0.29    0.12 
  -7   3   7    0.32    0.11 
   6  -3  -7    9.08    0.41 
  -6   3   7    9.33    0.38 
   5  -3  -7   11.24    0.48 
  -5   3   7   11.28    0.43 
   4  -3  -7    0.05    0.09 
  -4   3   7    0.09    0.07 
   3  -3  -7   15.65    0.59 
  -3   3   7   14.31    0.53 
   2  -3  -7    3.47    0.24 
  -1   3   7   21.88    0.80 
   0   3   7    2.58    0.20 
   1   3   7    6.87    0.37 
   2   3   7   12.37    0.54 
   3   3   7    1.08    0.20 
   4   3   7    3.63    0.31 
   5   3   7    0.18    0.22 
  12  -4  -7    0.03    0.21 
  11  -4  -7    0.23    0.19 
  10  -4  -7    0.14    0.18 
   9  -4  -7    0.77    0.18 
   8  -4  -7    0.07    0.13 
   7  -4  -7    0.73    0.15 
   6  -4  -7    0.76    0.12 
   6  -4  -7    0.77    0.15 
   5  -4  -7   19.05    0.73 
   5  -4  -7   19.52    0.74 
   4  -4  -7   28.99    1.06 
   4  -4  -7   30.56    1.09 
   3  -4  -7    3.57    0.25 
   2  -4  -7   18.89    0.74 
  -1   4   7    2.73    0.22 
   0   4   7   28.83    1.04 
   1   4   7   -0.06    0.13 
   2   4   7   12.47    0.56 
   3   4   7    0.17    0.19 
   4   4   7    1.85    0.28 
   5   4   7    1.34    0.28 
  12  -5  -7    0.15    0.22 
  11  -5  -7    0.49    0.20 
  10  -5  -7    0.23    0.18 
   9  -5  -7    0.51    0.17 
   8  -5  -7    1.10    0.19 
   7  -5  -7   15.06    0.63 
   6  -5  -7   91.39    3.14 
   6  -5  -7   94.87    3.06 
   5  -5  -7    0.37    0.12 
   5  -5  -7    0.20    0.12 
   4  -5  -7   26.93    0.99 
   4  -5  -7   25.07    0.96 
   3  -5  -7    1.65    0.20 
   3  -5  -7    1.29    0.18 
   2  -5  -7   20.89    0.82 
  -1   5   7    2.01    0.19 
   0   5   7   18.28    0.72 
   1   5   7    5.62    0.36 
   2   5   7    1.21    0.23 
   3   5   7    7.79    0.45 
   4   5   7    0.82    0.26 
  11  -6  -7    0.40    0.22 
  10  -6  -7    1.86    0.25 
   9  -6  -7   -0.09    0.16 
   8  -6  -7    4.03    0.31 
   7  -6  -7    0.34    0.16 
   7  -6  -7    0.62    0.15 
   6  -6  -7    2.57    0.24 
   6  -6  -7    2.40    0.23 
   5  -6  -7    5.83    0.34 
   5  -6  -7    6.22    0.36 
   4  -6  -7    7.68    0.42 
   4  -6  -7    7.54    0.41 
   3  -6  -7   10.10    0.50 
   3  -6  -7    9.23    0.47 
   2  -6  -7    7.70    0.43 
  -2   6   7    7.27    0.38 
  -1   6   7   15.93    0.65 
   0   6   7   -0.03    0.14 
   1   6   7    6.11    0.38 
   2   6   7    1.99    0.26 
   3   6   7    0.86    0.22 
  11  -7  -7    0.32    0.21 
  10  -7  -7   -0.10    0.19 
   9  -7  -7    1.30    0.23 
   8  -7  -7    1.81    0.24 
   7  -7  -7    8.28    0.45 
   7  -7  -7    8.49    0.45 
   6  -7  -7    2.24    0.24 
   6  -7  -7    2.56    0.25 
   5  -7  -7   18.34    0.76 
   5  -7  -7   16.94    0.73 
   4  -7  -7   -0.02    0.14 
   4  -7  -7    0.12    0.14 
   3  -7  -7   10.22    0.52 
   3  -7  -7   10.99    0.55 
   2  -7  -7    2.39    0.27 
  -2   7   7    2.22    0.22 
  -1   7   7    4.67    0.32 
   0   7   7    7.17    0.40 
   1   7   7    0.17    0.15 
   2   7   7    4.01    0.34 
  10  -8  -7    0.02    0.19 
   9  -8  -7    1.18    0.22 
   8  -8  -7    0.23    0.17 
   7  -8  -7    3.90    0.32 
   7  -8  -7    4.12    0.33 
   6  -8  -7    0.97    0.21 
   6  -8  -7    1.21    0.22 
   5  -8  -7    2.81    0.28 
   5  -8  -7    2.88    0.29 
   4  -8  -7    5.62    0.40 
   4  -8  -7    6.04    0.38 
   3  -8  -7    0.04    0.18 
  -3   8   7    0.35    0.16 
   2  -8  -7    8.79    0.52 
  -2   8   7    8.48    0.45 
  -1   8   7    0.69    0.19 
   0   8   7    7.53    0.44 
   1   8   7    6.25    0.41 
   9  -9  -7    0.20    0.20 
   8  -9  -7    0.64    0.21 
   7  -9  -7    0.08    0.18 
   7  -9  -7    0.30    0.19 
   6  -9  -7    3.09    0.31 
   6  -9  -7    3.47    0.33 
   5  -9  -7    0.36    0.19 
   5  -9  -7    0.54    0.21 
   4  -9  -7    9.69    0.56 
  -4   9   7    9.41    0.49 
   3  -9  -7    5.54    0.43 
  -3   9   7    5.14    0.36 
   2  -9  -7    1.65    0.28 
  -2   9   7    1.75    0.24 
  -1   9   7    5.03    0.36 
   0   9   7    0.10    0.17 
   7 -10  -7    0.53    0.22 
   7 -10  -7    0.95    0.24 
   6 -10  -7    1.36    0.26 
   6 -10  -7    1.66    0.27 
   5 -10  -7    4.48    0.37 
   5 -10  -7    5.26    0.42 
   4 -10  -7    0.01    0.20 
  -4  10   7    0.36    0.18 
   3 -10  -7    2.51    0.33 
  -3  10   7    1.95    0.26 
  -2 -11   8    2.46    0.32 
  -2 -11   8    2.48    0.29 
  -1 -11   8    0.94    0.22 
  -1 -11   8    1.02    0.26 
   0 -11   8    0.37    0.19 
   0 -11   8    0.25    0.24 
   1 -11   8    1.24    0.28 
   1 -11   8    1.14    0.23 
  -4 -10   8    0.19    0.19 
  -3 -10   8    0.81    0.21 
  -2 -10   8    0.26    0.21 
  -2 -10   8    0.20    0.19 
  -1 -10   8    0.47    0.22 
  -1 -10   8    0.47    0.19 
   0 -10   8    0.64    0.21 
   0 -10   8    1.31    0.25 
   1 -10   8    1.43    0.26 
   2 -10   8    0.31    0.20 
   3 -10   8    0.06    0.22 
  -6  -9   8    0.07    0.21 
  -5  -9   8    0.61    0.20 
  -4  -9   8    0.38    0.20 
  -3  -9   8    0.60    0.20 
  -2  -9   8    1.61    0.23 
  -2  -9   8    1.58    0.24 
  -1  -9   8    1.19    0.21 
  -1  -9   8    1.11    0.22 
   0  -9   8    2.82    0.28 
   1  -9   8    0.26    0.18 
   2  -9   8    0.37    0.20 
   3  -9   8    0.08    0.20 
   4  -9   8    1.04    0.25 
   5  -9   8    0.00    0.20 
  -7  -8   8    0.29    0.23 
  -6  -8   8    0.57    0.21 
  -5  -8   8    0.01    0.18 
  -4  -8   8    1.51    0.23 
  -3  -8   8    0.10    0.15 
  -3  -8   8    0.08    0.16 
  -2  -8   8    2.42    0.25 
  -2  -8   8    2.50    0.25 
  -1  -8   8    1.26    0.20 
  -1  -8   8    1.57    0.21 
   0  -8   8    0.03    0.16 
   1  -8   8    0.44    0.18 
   2  -8   8    0.17    0.18 
   3  -8   8    0.78    0.21 
   4  -8   8    0.11    0.20 
   5  -8   8    2.99    0.32 
  -8  -7   8    0.32    0.22 
  -7  -7   8    0.26    0.23 
  -6  -7   8    1.16    0.22 
  -5  -7   8    0.07    0.17 
  -4  -7   8    0.92    0.20 
  -3  -7   8    1.65    0.21 
  -3  -7   8    1.66    0.20 
  -2  -7   8    0.41    0.15 
  -2  -7   8    0.23    0.15 
  -1  -7   8    4.00    0.28 
   0  -7   8    1.72    0.20 
   1  -7   8   26.68    1.02 
   2  -7   8    0.35    0.16 
   3  -7   8    1.04    0.21 
   4  -7   8    0.71    0.22 
   5  -7   8    0.16    0.20 
   6  -7   8   -0.12    0.20 
  -9  -6   8    1.19    0.27 
  -8  -6   8    0.18    0.21 
  -7  -6   8    1.04    0.25 
  -6  -6   8   -0.24    0.16 
  -5  -6   8    1.56    0.22 
  -4  -6   8    1.65    0.22 
  -3  -6   8    5.17    0.32 
  -3  -6   8    4.83    0.28 
  -2  -6   8    1.35    0.18 
  -2  -6   8    1.48    0.18 
  -1  -6   8    2.40    0.20 
   0  -6   8    3.08    0.24 
   1  -6   8    6.76    0.37 
   2  -6   8    3.50    0.28 
   3  -6   8   -0.11    0.16 
   4  -6   8    1.28    0.22 
   5  -6   8   -0.08    0.18 
   6  -6   8    0.48    0.22 
 -10  -5   8    0.21    0.21 
  -9  -5   8    0.09    0.21 
  -8  -5   8    0.00    0.20 
  -7  -5   8    0.04    0.17 
  -6  -5   8    1.86    0.23 
  -5  -5   8    0.11    0.15 
  -4  -5   8    1.81    0.16 
  -4  -5   8    2.07    0.21 
  -3  -5   8    0.00    0.11 
  -3  -5   8   -0.14    0.10 
  -2  -5   8   10.21    0.44 
  -1  -5   8    1.58    0.16 
   0  -5   8   10.08    0.45 
   1  -5   8    1.49    0.18 
   2  -5   8    1.48    0.19 
   3  -5   8    2.54    0.25 
   4  -5   8    0.12    0.16 
   5  -5   8    0.86    0.22 
   6  -5   8    0.11    0.20 
  10   4  -8   -0.18    0.16 
 -10  -4   8    0.19    0.26 
   9   4  -8    0.15    0.15 
  -9  -4   8    0.16    0.22 
   8   4  -8    1.40    0.19 
  -8  -4   8    1.15    0.25 
   7   4  -8    0.92    0.15 
  -7  -4   8    0.98    0.23 
   6   4  -8    1.45    0.16 
  -6  -4   8    1.51    0.21 
   5   4  -8    0.98    0.12 
  -5  -4   8    1.20    0.18 
   4   4  -8    2.01    0.14 
  -4  -4   8    1.94    0.15 
  -4  -4   8    2.01    0.21 
  -3  -4   8    5.06    0.26 
  -3  -4   8    5.38    0.32 
  -2  -4   8   16.83    0.64 
  -1  -4   8    9.56    0.41 
   0  -4   8    0.35    0.12 
   1  -4   8    7.18    0.37 
   2  -4   8    0.27    0.14 
   3  -4   8    3.21    0.27 
   4  -4   8    0.58    0.18 
   5  -4   8    0.98    0.23 
   6  -4   8    0.30    0.21 
  11   3  -8    0.01    0.17 
 -11  -3   8    0.18    0.26 
  10   3  -8    0.10    0.16 
 -10  -3   8    0.05    0.21 
   9   3  -8    0.06    0.15 
  -9  -3   8    0.20    0.22 
   8   3  -8   -0.03    0.13 
  -8  -3   8    0.27    0.20 
   7   3  -8    0.14    0.12 
  -7  -3   8    0.52    0.18 
   6   3  -8    3.57    0.23 
  -6  -3   8    3.49    0.28 
   5   3  -8    1.89    0.16 
  -5  -3   8    2.19    0.22 
   4   3  -8    0.48    0.09 
  -4  -3   8    0.47    0.14 
  -4  -3   8    0.55    0.09 
   3   3  -8   21.07    0.73 
  -3  -3   8   20.58    0.79 
  -3  -3   8   21.17    0.75 
   2   3  -8   31.94    1.11 
  -2  -3   8   34.73    1.17 
  -1  -3   8    9.74    0.36 
  -1  -3   8    9.16    0.40 
   0  -3   8    6.62    0.33 
   0  -3   8    6.57    0.28 
   1  -3   8    2.27    0.16 
   1  -3   8    2.62    0.22 
   2  -3   8    4.88    0.31 
   3  -3   8   -0.04    0.14 
   4  -3   8    2.59    0.25 
   5  -3   8   -0.21    0.15 
   6  -3   8    1.66    0.25 
  11   2  -8   -0.13    0.17 
 -11  -2   8   -0.06    0.24 
  10   2  -8    0.44    0.18 
 -10  -2   8    0.35    0.22 
   9   2  -8    0.91    0.18 
  -9  -2   8    1.01    0.22 
   8   2  -8    0.27    0.14 
  -8  -2   8    0.09    0.17 
   7   2  -8    2.47    0.21 
  -7  -2   8    2.22    0.23 
   6   2  -8   17.64    0.70 
  -6  -2   8   20.63    0.76 
   5   2  -8    8.76    0.39 
  -5  -2   8    9.29    0.43 
   4   2  -8    6.13    0.29 
  -4  -2   8    6.12    0.33 
  -4  -2   8    6.18    0.26 
  -3  -2   8    6.61    0.29 
  -3  -2   8    6.39    0.32 
   2   2  -8    3.21    0.19 
  -2  -2   8    3.49    0.21 
  -1  -2   8    6.01    0.29 
  -1  -2   8    5.87    0.27 
   0  -2   8    5.96    0.27 
   0  -2   8    5.39    0.30 
   1  -2   8    2.64    0.18 
   1  -2   8    3.00    0.22 
   2  -2   8    2.66    0.18 
   2  -2   8    2.30    0.22 
   3  -2   8    1.01    0.18 
   3  -2   8    1.09    0.16 
   4  -2   8    0.82    0.17 
   4  -2   8    0.83    0.19 
   5  -2   8    2.50    0.26 
   5  -2   8    3.07    0.26 
   6  -2   8    0.03    0.17 
  11   1  -8   -0.11    0.15 
 -11  -1   8   -0.01    0.22 
  10   1  -8    0.29    0.17 
 -10  -1   8    0.32    0.22 
   9   1  -8    1.25    0.19 
  -9  -1   8    0.97    0.22 
   8   1  -8    0.57    0.15 
  -8  -1   8    0.63    0.17 
   7   1  -8    0.58    0.13 
  -7  -1   8    0.94    0.18 
   6   1  -8    1.47    0.16 
  -6  -1   8    1.45    0.17 
   5   1  -8   -0.03    0.07 
  -5  -1   8   -0.01    0.11 
   4   1  -8   20.28    0.73 
  -4  -1   8   20.52    0.77 
  -4  -1   8   20.37    0.72 
   3   1  -8    0.97    0.12 
  -3  -1   8    1.01    0.14 
  -3  -1   8    1.27    0.11 
   2   1  -8    6.89    0.32 
  -1  -1   8   11.91    0.46 
   0  -1   8    1.19    0.14 
   1  -1   8   11.63    0.47 
   2  -1   8    0.58    0.13 
   3  -1   8    4.50    0.29 
   4  -1   8    0.44    0.17 
   4  -1   8    0.70    0.16 
   5  -1   8    2.77    0.28 
   5  -1   8    3.35    0.29 
   6  -1   8    1.20    0.24 
   6  -1   8    0.81    0.22 
  12   0  -8   -0.08    0.19 
  11   0  -8    0.05    0.16 
 -11   0   8    0.16    0.21 
  10   0  -8    0.31    0.17 
 -10   0   8   -0.08    0.17 
   9   0  -8    0.13    0.13 
  -9   0   8    0.12    0.17 
   8   0  -8    1.74    0.19 
  -8   0   8    1.61    0.20 
   7   0  -8    0.15    0.11 
  -7   0   8    0.24    0.15 
   6   0  -8    2.82    0.21 
  -6   0   8    3.00    0.22 
   5   0  -8    0.21    0.09 
  -5   0   8    0.23    0.11 
   4   0  -8    0.91    0.12 
  -4   0   8    1.33    0.15 
   3   0  -8   14.42    0.57 
  -3   0   8   15.45    0.58 
   2   0  -8    0.30    0.10 
  -1   0   8   19.03    0.69 
   0   0   8    0.05    0.10 
   1   0   8    2.31    0.20 
   2   0   8    6.15    0.33 
   3   0   8    3.40    0.26 
   4   0   8    5.85    0.36 
   5   0   8    0.88    0.22 
   6   0   8    0.47    0.19 
   6   0   8    1.19    0.26 
  12  -1  -8    0.05    0.19 
  11  -1  -8    0.07    0.17 
  10  -1  -8    1.67    0.23 
 -10   1   8    1.96    0.24 
   9  -1  -8    6.24    0.36 
  -9   1   8    6.07    0.36 
   8  -1  -8    1.54    0.18 
  -8   1   8    1.68    0.19 
   7  -1  -8    5.02    0.29 
  -7   1   8    4.63    0.28 
   6  -1  -8    0.97    0.14 
  -6   1   8    1.02    0.14 
   5  -1  -8   34.55    1.19 
  -5   1   8   34.23    1.20 
   4  -1  -8    4.69    0.26 
  -4   1   8    4.76    0.25 
   3  -1  -8   15.83    0.59 
  -3   1   8   13.92    0.56 
   2  -1  -8   10.81    0.46 
  -1   1   8    6.59    0.32 
   0   1   8   39.84    1.36 
   1   1   8    6.59    0.34 
   2   1   8   16.81    0.68 
   3   1   8    0.40    0.17 
   4   1   8    2.73    0.28 
   5   1   8    0.06    0.19 
  12  -2  -8    0.11    0.19 
  11  -2  -8   -0.15    0.16 
  10  -2  -8   -0.01    0.13 
   9  -2  -8    0.06    0.14 
  -9   2   8    0.24    0.14 
   8  -2  -8    0.24    0.13 
  -8   2   8    0.33    0.14 
   7  -2  -8    4.99    0.30 
  -7   2   8    5.06    0.27 
   6  -2  -8    7.98    0.39 
  -6   2   8    8.60    0.37 
   5  -2  -8    3.76    0.25 
  -5   2   8    3.71    0.21 
   4  -2  -8    4.38    0.26 
  -4   2   8    3.99    0.21 
   3  -2  -8    2.57    0.20 
  -3   2   8    2.63    0.18 
   2  -2  -8   32.69    1.16 
  -1   2   8    1.61    0.17 
   0   2   8    9.56    0.44 
   1   2   8    5.35    0.33 
   2   2   8    1.78    0.22 
   3   2   8    3.70    0.29 
   4   2   8    0.17    0.19 
   5   2   8    2.41    0.31 
  12  -3  -8    0.28    0.19 
  11  -3  -8    0.68    0.21 
  10  -3  -8    1.01    0.20 
   9  -3  -8    2.23    0.24 
   8  -3  -8    8.66    0.42 
  -8   3   8    7.58    0.37 
   7  -3  -8    0.14    0.12 
  -7   3   8    0.16    0.10 
   6  -3  -8    4.98    0.30 
   5  -3  -8    0.04    0.10 
   4  -3  -8   27.01    0.98 
   3  -3  -8    1.86    0.19 
   2  -3  -8    8.32    0.42 
  -1   3   8    9.80    0.44 
   0   3   8    0.10    0.13 
   1   3   8    9.04    0.45 
   2   3   8   -0.05    0.16 
   3   3   8    2.46    0.27 
   4   3   8    0.36    0.23 
   5   3   8    0.42    0.25 
  12  -4  -8   -0.02    0.21 
  11  -4  -8    0.00    0.20 
  10  -4  -8    1.79    0.25 
   9  -4  -8    0.62    0.19 
   8  -4  -8    4.81    0.31 
   7  -4  -8    3.98    0.28 
   6  -4  -8    1.50    0.18 
   5  -4  -8    5.01    0.30 
   4  -4  -8    7.18    0.37 
   3  -4  -8   16.62    0.68 
   2  -4  -8    3.43    0.26 
  -1   4   8    5.67    0.33 
   0   4   8    2.46    0.24 
   1   4   8    1.82    0.23 
   2   4   8   10.78    0.54 
   3   4   8   -0.40    0.19 
   4   4   8    2.14    0.31 
  11  -5  -8    0.27    0.20 
  10  -5  -8    0.26    0.19 
   9  -5  -8    2.75    0.27 
   8  -5  -8    0.11    0.15 
   7  -5  -8    5.92    0.35 
   6  -5  -8    0.10    0.12 
   6  -5  -8    0.03    0.12 
   5  -5  -8   10.49    0.48 
   5  -5  -8    9.81    0.48 
   4  -5  -8    6.74    0.38 
   3  -5  -8    0.94    0.18 
  -2   5   8    0.80    0.17 
  -1   5   8    0.09    0.15 
   0   5   8    5.40    0.35 
   1   5   8    0.67    0.21 
   2   5   8    1.14    0.24 
   3   5   8    0.66    0.23 
  11  -6  -8    0.08    0.19 
  10  -6  -8    0.38    0.19 
   9  -6  -8    0.44    0.19 
   8  -6  -8    3.06    0.27 
   7  -6  -8    0.04    0.14 
   6  -6  -8    0.29    0.15 
   6  -6  -8    0.23    0.16 
   5  -6  -8   -0.25    0.12 
   5  -6  -8    0.16    0.15 
   4  -6  -8    8.64    0.47 
   4  -6  -8    8.94    0.47 
   3  -6  -8    5.18    0.36 
  -2   6   8   12.01    0.54 
  -1   6   8   10.27    0.50 
   0   6   8    2.22    0.25 
   1   6   8    4.24    0.33 
   2   6   8    0.25    0.21 
  11  -7  -8    0.45    0.24 
  10  -7  -8    1.50    0.25 
   9  -7  -8    0.23    0.18 
   8  -7  -8    3.20    0.30 
   7  -7  -8    1.45    0.22 
   6  -7  -8    6.25    0.38 
   6  -7  -8    5.75    0.37 
   5  -7  -8    4.94    0.37 
   5  -7  -8    6.04    0.39 
   4  -7  -8    0.11    0.17 
   4  -7  -8    0.26    0.17 
  -3   7   8    8.41    0.45 
  -2   7   8   -0.01    0.16 
  -1   7   8    6.87    0.41 
   0   7   8    0.92    0.22 
   1   7   8    2.32    0.26 
  10  -8  -8    1.15    0.23 
   9  -8  -8    1.37    0.25 
   8  -8  -8    0.04    0.17 
   7  -8  -8    3.86    0.33 
   6  -8  -8    0.03    0.17 
   6  -8  -8   -0.15    0.17 
   5  -8  -8   14.41    0.67 
   5  -8  -8   15.08    0.72 
   4  -8  -8    1.46    0.25 
   4  -8  -8    1.51    0.24 
   3  -8  -8    3.91    0.37 
  -3   8   8    4.55    0.34 
  -2   8   8    3.66    0.30 
  -1   8   8    0.25    0.18 
   0   8   8    6.13    0.41 
   8  -9  -8    1.68    0.26 
   7  -9  -8    0.92    0.24 
   7  -9  -8    1.27    0.25 
   6  -9  -8    2.60    0.30 
   6  -9  -8    2.63    0.31 
   5  -9  -8    2.50    0.30 
   5  -9  -8    1.93    0.29 
   4  -9  -8    2.19    0.31 
  -4   9   8    2.77    0.28 
   3  -9  -8    0.00    0.20 
  -3   9   8    0.23    0.19 
  -2   9   8    5.84    0.40 
  -4 -10   9   -0.03    0.19 
  -3 -10   9    0.44    0.21 
  -2 -10   9    0.06    0.20 
  -2 -10   9    0.26    0.23 
  -1 -10   9    0.36    0.20 
  -1 -10   9    0.37    0.23 
   0 -10   9    0.12    0.19 
   0 -10   9   -0.02    0.21 
   1 -10   9    0.78    0.25 
   2 -10   9   -0.01    0.22 
  -5  -9   9    0.35    0.21 
  -4  -9   9    0.03    0.19 
  -3  -9   9    0.85    0.22 
  -2  -9   9    0.02    0.18 
  -2  -9   9   -0.03    0.19 
  -1  -9   9   -0.02    0.18 
  -1  -9   9    0.00    0.18 
   0  -9   9    0.37    0.21 
   1  -9   9    0.29    0.21 
   2  -9   9    1.24    0.26 
   3  -9   9    0.40    0.22 
  -7  -8   9    0.67    0.26 
  -6  -8   9    0.36    0.20 
  -5  -8   9    0.03    0.17 
  -4  -8   9    0.84    0.22 
  -3  -8   9    0.87    0.21 
  -2  -8   9    1.85    0.23 
  -2  -8   9    1.41    0.22 
  -1  -8   9    3.16    0.28 
  -1  -8   9    2.82    0.28 
   0  -8   9    3.21    0.30 
   1  -8   9    1.01    0.22 
   2  -8   9    0.75    0.21 
   3  -8   9    0.18    0.21 
   4  -8   9    0.14    0.22 
  -8  -7   9   -0.04    0.22 
  -7  -7   9   -0.25    0.18 
  -6  -7   9    0.22    0.19 
  -5  -7   9    2.70    0.28 
  -4  -7   9    3.48    0.29 
  -3  -7   9    0.91    0.21 
  -3  -7   9    0.91    0.17 
  -2  -7   9    1.23    0.21 
  -2  -7   9    1.55    0.20 
  -1  -7   9    2.66    0.24 
   0  -7   9    0.06    0.15 
   1  -7   9    3.66    0.30 
   2  -7   9    0.01    0.18 
   3  -7   9    1.38    0.25 
   4  -7   9    0.07    0.20 
   5  -7   9    0.25    0.21 
  -9  -6   9    0.78    0.26 
  -8  -6   9    0.17    0.23 
  -7  -6   9    0.13    0.20 
  -6  -6   9    1.24    0.24 
  -5  -6   9    4.05    0.31 
  -4  -6   9    0.25    0.16 
  -3  -6   9    4.41    0.31 
  -3  -6   9    4.42    0.29 
  -2  -6   9    0.15    0.15 
  -2  -6   9    0.08    0.13 
  -1  -6   9    5.29    0.32 
   0  -6   9   -0.11    0.14 
   1  -6   9    0.50    0.17 
   2  -6   9    1.30    0.22 
   3  -6   9    0.36    0.20 
   4  -6   9    1.38    0.25 
   5  -6   9    0.35    0.20 
  -9  -5   9    0.78    0.26 
  -8  -5   9    0.15    0.23 
  -7  -5   9    1.61    0.27 
  -6  -5   9   -0.21    0.16 
  -5  -5   9    8.30    0.45 
  -4  -5   9    1.75    0.23 
  -3  -5   9    2.52    0.23 
  -3  -5   9    2.29    0.19 
  -2  -5   9    2.15    0.20 
  -1  -5   9    3.25    0.24 
   0  -5   9    3.20    0.24 
   1  -5   9    0.25    0.15 
   2  -5   9    2.54    0.25 
   3  -5   9    0.37    0.19 
   4  -5   9    1.06    0.23 
   5  -5   9    0.73    0.22 
  10   4  -9   -0.03    0.16 
 -10  -4   9   -0.15    0.24 
   9   4  -9    0.07    0.15 
  -9  -4   9    0.12    0.23 
   8   4  -9    2.44    0.24 
  -8  -4   9    3.41    0.34 
   7   4  -9    3.75    0.26 
  -7  -4   9    3.51    0.31 
  -6  -4   9    5.42    0.37 
  -5  -4   9    0.73    0.19 
  -4  -4   9    3.56    0.27 
  -3  -4   9    0.54    0.12 
  -3  -4   9    0.62    0.17 
  -2  -4   9    2.73    0.20 
  -1  -4   9    0.42    0.13 
   0  -4   9    4.97    0.30 
   1  -4   9    0.76    0.17 
   2  -4   9   10.38    0.51 
   3  -4   9    2.67    0.26 
   4  -4   9    0.25    0.18 
   5  -4   9    0.97    0.24 
  11   3  -9   -0.13    0.16 
 -11  -3   9    0.09    0.25 
  10   3  -9    0.29    0.17 
 -10  -3   9    0.30    0.24 
   9   3  -9   -0.01    0.14 
  -9  -3   9    0.04    0.20 
   8   3  -9   10.65    0.51 
  -8  -3   9   12.06    0.59 
   7   3  -9    1.31    0.17 
  -7  -3   9    1.72    0.24 
   6   3  -9    5.81    0.31 
  -6  -3   9    5.46    0.36 
  -5  -3   9    1.50    0.19 
   4   3  -9    2.45    0.17 
  -4  -3   9    2.33    0.23 
  -4  -3   9    2.35    0.17 
   3   3  -9    5.47    0.26 
  -3  -3   9    4.81    0.26 
  -3  -3   9    5.43    0.32 
  -2  -3   9    0.40    0.11 
  -1  -3   9   14.57    0.59 
   0  -3   9    0.02    0.12 
   1  -3   9    7.25    0.38 
   2  -3   9   10.45    0.52 
   3  -3   9    2.42    0.26 
   4  -3   9    0.55    0.19 
   5  -3   9    0.27    0.19 
  11   2  -9    0.30    0.18 
 -11  -2   9    0.23    0.26 
  10   2  -9    0.51    0.18 
 -10  -2   9    0.26    0.23 
   9   2  -9    0.41    0.16 
  -9  -2   9    0.21    0.21 
   8   2  -9    0.46    0.15 
  -8  -2   9    0.49    0.20 
   7   2  -9    0.04    0.11 
  -7  -2   9    0.35    0.17 
   6   2  -9    1.19    0.15 
  -6  -2   9    1.33    0.20 
   5   2  -9    4.57    0.26 
  -5  -2   9    4.63    0.30 
   4   2  -9    0.11    0.08 
  -4  -2   9   -0.07    0.11 
  -4  -2   9    0.21    0.09 
  -3  -2   9    9.66    0.44 
  -3  -2   9    8.92    0.39 
   2   2  -9    0.01    0.07 
  -2  -2   9    0.06    0.10 
  -1  -2   9    3.84    0.25 
  -1  -2   9    3.80    0.22 
   0  -2   9   11.57    0.46 
   0  -2   9   11.64    0.51 
   1  -2   9    2.90    0.20 
   1  -2   9    2.88    0.24 
   2  -2   9    7.50    0.41 
   2  -2   9    7.59    0.36 
   3  -2   9    0.39    0.18 
   4  -2   9    0.97    0.21 
   5  -2   9    0.04    0.16 
  11   1  -9    0.13    0.17 
 -11  -1   9    0.15    0.24 
  10   1  -9    0.09    0.16 
 -10  -1   9    0.09    0.21 
   9   1  -9    0.61    0.17 
  -9  -1   9    0.77    0.22 
   8   1  -9    0.42    0.14 
  -8  -1   9    0.78    0.20 
   7   1  -9    3.95    0.27 
  -7  -1   9    4.33    0.31 
   6   1  -9    2.06    0.19 
  -6  -1   9    2.01    0.21 
   5   1  -9    3.32    0.23 
  -5  -1   9    3.96    0.26 
   4   1  -9    7.41    0.34 
  -4  -1   9    6.58    0.35 
  -4  -1   9    7.39    0.31 
   3   1  -9    0.14    0.09 
  -3  -1   9    0.18    0.09 
   2   1  -9   13.83    0.55 
  -1  -1   9    2.68    0.19 
   0  -1   9    9.26    0.40 
   1  -1   9    0.64    0.13 
   2  -1   9    2.43    0.21 
   3  -1   9    1.36    0.21 
   3  -1   9    0.92    0.18 
   4  -1   9    1.43    0.22 
   4  -1   9    1.50    0.23 
   5  -1   9    0.13    0.20 
   5  -1   9    0.10    0.17 
  11   0  -9    0.06    0.16 
 -11   0   9   -0.01    0.22 
  10   0  -9    0.52    0.17 
 -10   0   9    0.61    0.22 
   9   0  -9    0.06    0.14 
  -9   0   9    0.20    0.17 
   8   0  -9    1.50    0.19 
  -8   0   9    1.56    0.21 
   7   0  -9    0.11    0.11 
  -7   0   9    0.08    0.14 
   6   0  -9    0.29    0.11 
  -6   0   9    0.37    0.14 
   5   0  -9    1.65    0.17 
  -5   0   9    1.65    0.17 
   4   0  -9    8.02    0.38 
  -4   0   9    9.11    0.39 
   3   0  -9    6.24    0.32 
   2   0  -9    1.85    0.18 
  -1   0   9   41.73    1.42 
   0   0   9    0.08    0.12 
   1   0   9    6.01    0.33 
   2   0   9    0.08    0.14 
   3   0   9    2.24    0.24 
   4   0   9    0.02    0.18 
   5   0   9    0.58    0.23 
   5   0   9    0.50    0.19 
  12  -1  -9    0.10    0.19 
  11  -1  -9    0.02    0.17 
 -11   1   9    0.16    0.20 
  10  -1  -9    0.19    0.16 
 -10   1   9    0.56    0.20 
   9  -1  -9    0.71    0.18 
  -9   1   9    0.83    0.19 
   8  -1  -9    1.30    0.19 
  -8   1   9    1.46    0.19 
   7  -1  -9    0.54    0.14 
  -7   1   9    0.52    0.15 
   6  -1  -9    5.98    0.32 
  -6   1   9    5.73    0.31 
   5  -1  -9   34.18    1.17 
  -5   1   9   32.70    1.17 
   4  -1  -9    0.08    0.10 
  -4   1   9    0.16    0.11 
   3  -1  -9    4.47    0.28 
   2  -1  -9    1.18    0.16 
  -1   1   9    0.12    0.12 
   0   1   9    0.29    0.14 
   1   1   9    2.75    0.24 
   2   1   9    4.00    0.30 
   3   1   9   -0.03    0.17 
   4   1   9    1.52    0.26 
   5   1   9    0.66    0.25 
  12  -2  -9   -0.06    0.17 
  11  -2  -9    0.23    0.19 
  10  -2  -9    0.02    0.15 
 -10   2   9    0.17    0.18 
   9  -2  -9    0.11    0.14 
  -9   2   9   -0.01    0.15 
   8  -2  -9    0.08    0.13 
  -8   2   9    0.51    0.15 
   7  -2  -9    2.14    0.21 
  -7   2   9    1.77    0.18 
   6  -2  -9    0.38    0.13 
  -6   2   9    0.30    0.12 
   5  -2  -9    0.27    0.13 
  -5   2   9    0.39    0.11 
   4  -2  -9   10.65    0.48 
  -4   2   9   10.86    0.44 
   3  -2  -9    0.26    0.13 
  -3   2   9    0.14    0.10 
   2  -2  -9    3.99    0.28 
  -1   2   9    0.11    0.13 
   0   2   9   18.47    0.73 
   1   2   9    0.59    0.17 
   2   2   9    4.81    0.34 
   3   2   9    0.94    0.22 
   4   2   9    0.25    0.22 
  12  -3  -9    0.06    0.19 
  11  -3  -9    0.42    0.19 
  10  -3  -9    0.05    0.17 
   9  -3  -9    0.15    0.14 
   8  -3  -9   -0.03    0.12 
   7  -3  -9    0.52    0.15 
   6  -3  -9    8.56    0.42 
   5  -3  -9    4.22    0.28 
   4  -3  -9    4.62    0.30 
   3  -3  -9    4.84    0.32 
  -2   3   9    8.87    0.43 
  -1   3   9    9.58    0.45 
   0   3   9    4.19    0.30 
   1   3   9    5.14    0.35 
   2   3   9    0.21    0.19 
   3   3   9    2.85    0.31 
   4   3   9    0.44    0.25 
  11  -4  -9    0.04    0.16 
  10  -4  -9    0.51    0.18 
   9  -4  -9    0.53    0.18 
   8  -4  -9   19.97    0.81 
   7  -4  -9    1.60    0.21 
   6  -4  -9    2.16    0.23 
   5  -4  -9    9.29    0.46 
   4  -4  -9    0.21    0.14 
   3  -4  -9   12.13    0.56 
  -2   4   9    1.84    0.22 
  -1   4   9   13.78    0.60 
   0   4   9    1.28    0.22 
   1   4   9    9.82    0.51 
   2   4   9    7.10    0.44 
   3   4   9    0.55    0.25 
  11  -5  -9    0.27    0.20 
  10  -5  -9    0.29    0.21 
   9  -5  -9    0.68    0.21 
   8  -5  -9    5.25    0.36 
   7  -5  -9    1.72    0.23 
   6  -5  -9    0.11    0.14 
   5  -5  -9    6.27    0.37 
   4  -5  -9    0.93    0.19 
   3  -5  -9    6.13    0.38 
  -2   5   9    2.41    0.26 
  -1   5   9    1.70    0.22 
   0   5   9    4.94    0.35 
   1   5   9   -0.06    0.18 
   2   5   9    0.30    0.22 
  11  -6  -9    1.06    0.27 
  10  -6  -9    0.28    0.20 
   9  -6  -9    1.44    0.24 
   8  -6  -9    0.24    0.18 
   7  -6  -9    8.12    0.44 
   6  -6  -9    1.09    0.21 
   5  -6  -9    2.20    0.26 
   4  -6  -9    6.03    0.39 
  -3   6   9    0.13    0.15 
  -2   6   9   12.95    0.59 
  -1   6   9    0.64    0.21 
   0   6   9    2.09    0.28 
   1   6   9    1.69    0.26 
  10  -7  -9   -0.10    0.19 
   9  -7  -9    1.03    0.24 
   8  -7  -9    1.01    0.23 
   7  -7  -9   -0.11    0.16 
   6  -7  -9    4.95    0.36 
   6  -7  -9    5.00    0.37 
   5  -7  -9    1.42    0.24 
   4  -7  -9    4.41    0.36 
  -3   7   9    3.74    0.31 
  -2   7   9    0.61    0.19 
  -1   7   9    6.38    0.41 
   0   7   9    0.30    0.20 
   9  -8  -9    0.24    0.20 
   8  -8  -9    1.15    0.24 
   7  -8  -9    1.39    0.25 
   6  -8  -9    3.36    0.33 
   6  -8  -9    3.66    0.33 
   5  -8  -9   10.60    0.57 
   5  -8  -9    9.46    0.56 
  -4   8   9    0.11    0.18 
  -3   8   9    4.43    0.34 
  -2   8   9    1.08    0.22 
  -1   8   9    0.11    0.19 
   7  -9  -9    2.99    0.33 
   6  -9  -9    3.06    0.34 
   6  -9  -9    3.29    0.34 
   5  -9  -9    0.22    0.21 
   5  -9  -9    0.23    0.22 
  -4   9   9    2.99    0.31 
  -2 -10  10    0.10    0.20 
  -1 -10  10    0.05    0.22 
  -1 -10  10    0.11    0.20 
   0 -10  10    0.21    0.20 
   0 -10  10    0.28    0.24 
  -5  -9  10   -0.13    0.20 
  -4  -9  10    0.34    0.20 
  -3  -9  10    0.51    0.22 
  -2  -9  10    0.37    0.21 
  -2  -9  10    0.36    0.22 
  -1  -9  10    0.05    0.18 
  -1  -9  10    0.18    0.20 
   0  -9  10    0.38    0.22 
   1  -9  10    0.89    0.25 
   2  -9  10    0.56    0.24 
  -6  -8  10    0.10    0.21 
  -5  -8  10   -0.16    0.18 
  -4  -8  10    0.07    0.18 
  -3  -8  10    0.24    0.19 
  -2  -8  10    0.11    0.18 
  -2  -8  10    0.04    0.19 
  -1  -8  10   12.12    0.62 
  -1  -8  10   13.38    0.62 
   0  -8  10    0.32    0.19 
   1  -8  10   -0.01    0.19 
   2  -8  10    1.02    0.25 
   3  -8  10    0.25    0.23 
  -7  -7  10    0.29    0.23 
  -6  -7  10   -0.06    0.20 
  -5  -7  10    0.33    0.19 
  -4  -7  10    0.13    0.19 
  -3  -7  10   -0.08    0.16 
  -2  -7  10    1.28    0.23 
  -2  -7  10    1.07    0.21 
  -1  -7  10   10.53    0.51 
   0  -7  10    0.16    0.17 
   1  -7  10    1.01    0.22 
   2  -7  10    0.08    0.20 
   3  -7  10    0.29    0.22 
   4  -7  10   -0.26    0.21 
  -8  -6  10    0.22    0.22 
  -7  -6  10    0.00    0.21 
  -6  -6  10    0.14    0.18 
  -5  -6  10    0.05    0.17 
  -4  -6  10    0.49    0.18 
  -3  -6  10    0.88    0.20 
  -3  -6  10    0.94    0.17 
  -2  -6  10    0.32    0.19 
  -2  -6  10    0.56    0.16 
  -1  -6  10    1.69    0.21 
   0  -6  10    0.03    0.15 
   1  -6  10    0.49    0.19 
   2  -6  10    0.18    0.18 
   3  -6  10    0.46    0.21 
   4  -6  10    0.33    0.23 
  -9  -5  10    0.33    0.25 
  -8  -5  10    0.39    0.26 
  -7  -5  10    0.30    0.23 
  -6  -5  10    0.24    0.21 
  -5  -5  10    0.30    0.18 
  -4  -5  10    1.02    0.22 
  -3  -5  10    2.70    0.22 
  -3  -5  10    2.93    0.27 
  -2  -5  10    1.40    0.18 
  -1  -5  10    0.49    0.16 
   0  -5  10    0.95    0.18 
   1  -5  10    0.47    0.17 
   2  -5  10    0.78    0.20 
   3  -5  10    0.26    0.20 
   4  -5  10    0.28    0.22 
 -10  -4  10   -0.01    0.24 
  -9  -4  10    0.01    0.24 
  -8  -4  10    2.60    0.32 
  -7  -4  10    0.18    0.20 
  -6  -4  10    0.20    0.18 
  -5  -4  10    1.52    0.23 
  -4  -4  10   11.37    0.54 
  -3  -4  10    0.01    0.15 
  -3  -4  10    0.02    0.11 
  -2  -4  10    3.50    0.25 
  -1  -4  10    0.09    0.13 
   0  -4  10    3.30    0.26 
   1  -4  10   -0.07    0.15 
   2  -4  10    1.28    0.22 
   3  -4  10    0.26    0.20 
   4  -4  10    0.44    0.24 
   5  -4  10    0.72    0.24 
  10   3 -10    0.00    0.16 
 -10  -3  10    0.10    0.25 
   9   3 -10    1.07    0.20 
  -9  -3  10    1.19    0.27 
   8   3 -10   11.49    0.52 
  -8  -3  10   10.31    0.57 
   7   3 -10    0.23    0.13 
  -7  -3  10    0.11    0.18 
   6   3 -10    1.52    0.17 
  -6  -3  10    1.65    0.23 
  -5  -3  10    0.00    0.15 
  -4  -3  10    1.28    0.19 
  -3  -3  10    0.07    0.11 
  -3  -3  10   -0.09    0.13 
  -2  -3  10    1.38    0.17 
  -1  -3  10    2.93    0.23 
   0  -3  10    0.58    0.16 
   1  -3  10    2.45    0.25 
   2  -3  10    0.16    0.18 
   3  -3  10    0.98    0.23 
   4  -3  10    0.38    0.21 
   5  -3  10    0.13    0.20 
  11   2 -10    0.18    0.18 
 -11  -2  10    0.06    0.25 
  10   2 -10    0.48    0.18 
 -10  -2  10    0.57    0.25 
   9   2 -10   -0.01    0.13 
  -9  -2  10   -0.10    0.20 
   8   2 -10   -0.03    0.12 
  -8  -2  10    0.26    0.20 
   7   2 -10    0.22    0.14 
  -7  -2  10    0.33    0.18 
   6   2 -10    1.30    0.16 
  -6  -2  10    1.10    0.20 
   5   2 -10    2.56    0.20 
  -5  -2  10    2.80    0.24 
   4   2 -10   -0.02    0.08 
  -4  -2  10    0.15    0.09 
  -4  -2  10    0.19    0.14 
  -2  -2  10    0.17    0.11 
  -1  -2  10    8.57    0.41 
  -1  -2  10    8.55    0.38 
   0  -2  10    0.33    0.15 
   1  -2  10    1.07    0.19 
   2  -2  10    0.66    0.19 
   3  -2  10    0.00    0.18 
   4  -2  10    1.41    0.23 
  11   1 -10    0.05    0.17 
 -11  -1  10    0.29    0.25 
  10   1 -10    0.47    0.18 
 -10  -1  10    0.60    0.24 
   9   1 -10    0.85    0.18 
  -9  -1  10    0.99    0.22 
   8   1 -10    0.14    0.14 
  -8  -1  10    0.22    0.18 
   7   1 -10    1.42    0.18 
  -7  -1  10    0.87    0.19 
   6   1 -10    0.14    0.11 
  -6  -1  10   -0.01    0.15 
   5   1 -10    3.31    0.23 
  -5  -1  10    3.57    0.26 
   4   1 -10    1.25    0.16 
  -4  -1  10    1.20    0.14 
  -4  -1  10    1.09    0.17 
   3   1 -10    3.51    0.24 
  -3  -1  10    3.15    0.21 
   2   1 -10    0.89    0.15 
  -1  -1  10    1.72    0.17 
   0  -1  10    5.42    0.30 
   1  -1  10   -0.02    0.12 
   2  -1  10    1.82    0.21 
   2  -1  10    1.63    0.21 
   3  -1  10    0.95    0.22 
   3  -1  10    0.87    0.20 
   4  -1  10    0.33    0.19 
  11   0 -10    2.20    0.27 
 -11   0  10    2.09    0.29 
  10   0 -10   -0.20    0.15 
 -10   0  10    0.06    0.20 
   9   0 -10    0.73    0.18 
  -9   0  10    0.77    0.21 
   8   0 -10    1.72    0.21 
  -8   0  10    1.85    0.24 
   7   0 -10    2.26    0.21 
  -7   0  10    2.35    0.23 
   6   0 -10    4.98    0.30 
  -6   0  10    5.10    0.31 
   5   0 -10    0.50    0.13 
  -5   0  10    0.22    0.13 
   4   0 -10    8.12    0.40 
  -4   0  10    8.83    0.40 
   3   0 -10    0.50    0.14 
  -1   0  10   35.62    1.24 
   0   0  10    7.31    0.38 
   1   0  10    1.67    0.20 
   2   0  10    1.13    0.20 
   3   0  10    0.36    0.19 
   4   0  10   -0.12    0.19 
  11  -1 -10    0.33    0.19 
 -11   1  10    0.11    0.21 
  10  -1 -10    0.05    0.15 
 -10   1  10   -0.01    0.19 
   9  -1 -10   -0.14    0.14 
  -9   1  10    0.14    0.17 
   8  -1 -10    3.43    0.27 
  -8   1  10    3.85    0.27 
   7  -1 -10    0.96    0.17 
  -7   1  10    0.72    0.16 
   6  -1 -10    2.80    0.23 
  -6   1  10    2.80    0.22 
   5  -1 -10    4.85    0.29 
  -5   1  10    3.53    0.25 
   4  -1 -10   13.54    0.58 
  -4   1  10   13.86    0.56 
   3  -1 -10   13.93    0.59 
  -2   1  10    3.09    0.24 
  -1   1  10    2.11    0.21 
   0   1  10    0.26    0.15 
   1   1  10    4.14    0.30 
   2   1  10    0.08    0.18 
   3   1  10    2.91    0.30 
   4   1  10    0.65    0.25 
  11  -2 -10    0.00    0.17 
  10  -2 -10    1.36    0.22 
   9  -2 -10    0.11    0.15 
   8  -2 -10    0.28    0.15 
   7  -2 -10    4.33    0.30 
   6  -2 -10    0.93    0.17 
   5  -2 -10    7.17    0.38 
   4  -2 -10    0.37    0.15 
   3  -2 -10   18.68    0.75 
  -2   2  10    5.12    0.32 
  -1   2  10    9.14    0.45 
   0   2  10    2.40    0.25 
   1   2  10    1.70    0.23 
   2   2  10    1.72    0.26 
   3   2  10   -0.04    0.20 
  11  -3 -10    0.10    0.18 
  10  -3 -10   -0.13    0.15 
   9  -3 -10    1.48    0.22 
   8  -3 -10    1.63    0.22 
   7  -3 -10    3.15    0.26 
   6  -3 -10    0.64    0.16 
   5  -3 -10    7.89    0.41 
   4  -3 -10   12.20    0.57 
   3  -3 -10    1.07    0.20 
  -2   3  10    5.86    0.34 
  -1   3  10    0.27    0.16 
   0   3  10    5.43    0.37 
   1   3  10    0.21    0.19 
   2   3  10    0.97    0.25 
   3   3  10    1.11    0.26 
  11  -4 -10    0.28    0.18 
  10  -4 -10    0.01    0.17 
   9  -4 -10    3.25    0.30 
   8  -4 -10    5.60    0.37 
   7  -4 -10    0.24    0.16 
   6  -4 -10    4.73    0.33 
   5  -4 -10   -0.05    0.14 
   4  -4 -10    1.12    0.20 
   3  -4 -10    1.33    0.22 
  -2   4  10    1.79    0.22 
  -1   4  10    2.78    0.27 
   0   4  10   -0.07    0.18 
   1   4  10    4.53    0.35 
   2   4  10    0.19    0.23 
  11  -5 -10    0.06    0.22 
  10  -5 -10    1.54    0.26 
   9  -5 -10    1.88    0.25 
   8  -5 -10    3.78    0.32 
   7  -5 -10    1.54    0.23 
   6  -5 -10    0.69    0.19 
   5  -5 -10    4.93    0.35 
   4  -5 -10    1.39    0.23 
  -3   5  10   10.50    0.53 
  -2   5  10    0.06    0.18 
  -1   5  10    4.43    0.34 
   0   5  10    1.88    0.28 
   1   5  10    1.04    0.25 
  10  -6 -10    0.00    0.20 
   9  -6 -10    1.68    0.27 
   8  -6 -10    0.59    0.21 
   7  -6 -10    2.40    0.28 
   6  -6 -10    1.15    0.23 
   5  -6 -10    3.45    0.33 
   4  -6 -10    2.31    0.27 
  -3   6  10    1.86    0.26 
  -2   6  10    4.64    0.36 
  -1   6  10    0.15    0.20 
   0   6  10    4.24    0.37 
   9  -7 -10    0.17    0.20 
   8  -7 -10    0.79    0.22 
   7  -7 -10    1.68    0.26 
   6  -7 -10    3.32    0.34 
   5  -7 -10    0.24    0.20 
  -4   7  10    4.02    0.34 
  -3   7  10    0.07    0.18 
  -2   7  10    5.32    0.38 
  -1   7  10    1.74    0.26 
   8  -8 -10    1.16    0.27 
   7  -8 -10    1.93    0.30 
   6  -8 -10    0.96    0.26 
   5  -8 -10    0.55    0.23 
  -4   8  10    1.45    0.26 
  -3   8  10    2.99    0.30 
  -3  -9  11    0.33    0.21 
  -2  -9  11    0.22    0.20 
  -1  -9  11    0.59    0.24 
  -1  -9  11    0.64    0.24 
   0  -9  11    0.29    0.24 
  -6  -8  11    0.18    0.21 
  -5  -8  11    1.09    0.24 
  -4  -8  11   -0.05    0.20 
  -3  -8  11    0.67    0.23 
  -2  -8  11   -0.04    0.20 
  -1  -8  11    3.36    0.33 
   0  -8  11    0.10    0.20 
   1  -8  11    0.41    0.22 
   2  -8  11    0.31    0.23 
  -7  -7  11    0.36    0.24 
  -6  -7  11    0.31    0.21 
  -5  -7  11    0.79    0.23 
  -4  -7  11    1.17    0.25 
  -3  -7  11    0.42    0.19 
  -2  -7  11    0.64    0.21 
  -2  -7  11    0.84    0.19 
  -1  -7  11    0.61    0.19 
   0  -7  11    1.75    0.25 
   1  -7  11   -0.11    0.19 
   2  -7  11    1.02    0.25 
  -8  -6  11    0.51    0.26 
  -7  -6  11   -0.24    0.23 
  -6  -6  11    1.16    0.27 
  -5  -6  11    0.17    0.22 
  -4  -6  11    1.77    0.25 
  -3  -6  11    0.09    0.19 
  -2  -6  11    1.94    0.23 
  -1  -6  11    0.50    0.18 
   0  -6  11    0.46    0.19 
   1  -6  11    1.91    0.26 
   2  -6  11    0.05    0.20 
   3  -6  11    0.89    0.25 
  -9  -5  11    0.09    0.28 
  -8  -5  11   -0.09    0.24 
  -7  -5  11    0.64    0.25 
  -6  -5  11    0.38    0.23 
  -5  -5  11    0.36    0.22 
  -4  -5  11    0.31    0.20 
  -3  -5  11    1.18    0.23 
  -2  -5  11   -0.03    0.15 
  -1  -5  11    1.39    0.20 
   0  -5  11    0.99    0.20 
   1  -5  11    1.15    0.23 
   2  -5  11    1.17    0.24 
   3  -5  11    0.14    0.22 
  -9  -4  11    0.50    0.29 
  -8  -4  11    0.28    0.24 
  -7  -4  11    0.31    0.21 
  -6  -4  11   -0.01    0.19 
  -5  -4  11    2.40    0.26 
  -4  -4  11    3.73    0.31 
  -3  -4  11    4.00    0.32 
  -3  -4  11    4.33    0.28 
  -2  -4  11    1.13    0.17 
  -1  -4  11    0.45    0.16 
   0  -4  11    8.67    0.45 
   1  -4  11    0.09    0.18 
   2  -4  11    1.59    0.25 
   3  -4  11    0.21    0.22 
 -10  -3  11    0.08    0.24 
  -9  -3  11    0.06    0.25 
  -8  -3  11    1.89    0.27 
  -7  -3  11    0.35    0.20 
  -6  -3  11    0.27    0.19 
  -5  -3  11    0.41    0.19 
  -4  -3  11    0.12    0.15 
  -3  -3  11    0.11    0.13 
  -3  -3  11   -0.01    0.17 
  -2  -3  11    3.37    0.25 
  -1  -3  11    0.59    0.16 
   0  -3  11    2.13    0.24 
   1  -3  11    0.13    0.17 
   2  -3  11    0.15    0.19 
   3  -3  11    0.72    0.23 
  10   2 -11   -0.03    0.17 
 -10  -2  11    0.15    0.24 
   9   2 -11    0.24    0.17 
  -9  -2  11    0.15    0.23 
   8   2 -11    0.07    0.13 
  -8  -2  11    0.13    0.19 
   7   2 -11   -0.09    0.12 
  -7  -2  11   -0.01    0.18 
   6   2 -11    2.09    0.20 
  -6  -2  11    2.38    0.25 
   5   2 -11    0.16    0.12 
  -5  -2  11    0.28    0.17 
   4   2 -11    4.66    0.29 
  -4  -2  11    4.62    0.32 
  -3  -2  11    1.19    0.17 
  -2  -2  11    0.78    0.15 
  -1  -2  11    0.81    0.17 
   0  -2  11    0.08    0.15 
   1  -2  11    2.91    0.28 
   2  -2  11   -0.03    0.16 
   3  -2  11    0.60    0.22 
  11   1 -11    0.01    0.16 
 -11  -1  11   -0.06    0.24 
  10   1 -11    0.21    0.17 
 -10  -1  11   -0.01    0.23 
   9   1 -11   -0.05    0.14 
  -9  -1  11    0.02    0.20 
   8   1 -11    0.16    0.15 
  -8  -1  11   -0.02    0.17 
   7   1 -11    0.36    0.14 
  -7  -1  11    0.48    0.18 
   6   1 -11    0.96    0.17 
  -6  -1  11    1.40    0.20 
   5   1 -11    4.36    0.29 
  -5  -1  11    4.60    0.31 
   4   1 -11    0.00    0.11 
  -4  -1  11   -0.06    0.13 
  -4  -1  11   -0.06    0.11 
   3   1 -11    6.61    0.35 
  -3  -1  11    6.25    0.34 
  -2  -1  11    0.20    0.14 
  -2  -1  11    0.18    0.13 
  -1  -1  11    0.55    0.16 
  -1  -1  11    0.62    0.15 
   0  -1  11    1.37    0.20 
   0  -1  11    1.20    0.18 
   1  -1  11    1.32    0.21 
   2  -1  11    1.68    0.25 
   3  -1  11    0.09    0.19 
  11   0 -11    0.45    0.19 
 -11   0  11    0.27    0.24 
  10   0 -11    0.23    0.17 
 -10   0  11    0.28    0.21 
   9   0 -11    0.51    0.16 
  -9   0  11    0.25    0.20 
   8   0 -11    0.78    0.18 
  -8   0  11    0.71    0.20 
   7   0 -11   12.42    0.55 
  -7   0  11   12.01    0.55 
   6   0 -11    0.32    0.14 
  -6   0  11    0.04    0.15 
   5   0 -11    1.19    0.18 
  -5   0  11    0.83    0.17 
   4   0 -11    0.76    0.16 
  -4   0  11    0.68    0.16 
   3   0 -11    0.43    0.15 
  -2   0  11   -0.05    0.13 
  -1   0  11    0.03    0.13 
   0   0  11    3.24    0.27 
   1   0  11    1.00    0.21 
   2   0  11    0.39    0.19 
   3   0  11    0.36    0.23 
  11  -1 -11    0.15    0.18 
  10  -1 -11   -0.05    0.16 
 -10   1  11    0.09    0.20 
   9  -1 -11    0.81    0.19 
  -9   1  11    0.34    0.18 
   8  -1 -11    0.10    0.15 
  -8   1  11    0.20    0.19 
   7  -1 -11    0.02    0.13 
  -7   1  11   -0.04    0.14 
   6  -1 -11    1.57    0.21 
  -6   1  11    1.46    0.18 
   5  -1 -11    0.36    0.15 
  -5   1  11    0.36    0.15 
   4  -1 -11    0.12    0.14 
  -4   1  11    0.17    0.13 
   3  -1 -11    0.43    0.16 
  -2   1  11    1.64    0.20 
  -1   1  11    0.41    0.16 
   0   1  11    0.04    0.17 
   1   1  11    3.36    0.30 
   2   1  11    0.18    0.20 
  11  -2 -11    0.10    0.17 
  10  -2 -11    0.25    0.18 
   9  -2 -11    0.11    0.17 
   8  -2 -11    1.04    0.19 
   7  -2 -11    0.78    0.18 
   6  -2 -11    0.87    0.18 
   5  -2 -11    1.73    0.22 
   4  -2 -11    0.06    0.14 
   3  -2 -11    4.03    0.31 
  -2   2  11   -0.09    0.15 
  -1   2  11    4.88    0.34 
   0   2  11    1.03    0.22 
   1   2  11    0.59    0.20 
   2   2  11    0.64    0.24 
  11  -3 -11    0.15    0.18 
  10  -3 -11    2.44    0.28 
   9  -3 -11    0.84    0.20 
   8  -3 -11    0.24    0.16 
   7  -3 -11    3.03    0.28 
   6  -3 -11    0.32    0.16 
   5  -3 -11    3.69    0.31 
   4  -3 -11    0.48    0.17 
   3  -3 -11    3.43    0.29 
  -2   3  11    3.89    0.31 
  -1   3  11    1.81    0.24 
   0   3  11   10.82    0.56 
   1   3  11   -0.10    0.20 
  11  -4 -11    0.26    0.20 
  10  -4 -11    3.12    0.32 
   9  -4 -11   -0.10    0.15 
   8  -4 -11    0.13    0.17 
   7  -4 -11    2.57    0.26 
   6  -4 -11    3.46    0.31 
   5  -4 -11    0.09    0.15 
   4  -4 -11    2.24    0.27 
  -3   4  11    0.68    0.21 
  -2   4  11    5.12    0.36 
  -1   4  11    0.76    0.22 
   0   4  11    0.03    0.21 
   1   4  11    0.59    0.23 
  10  -5 -11    0.50    0.20 
   9  -5 -11    1.39    0.24 
   8  -5 -11    0.82    0.21 
   7  -5 -11   -0.07    0.15 
   6  -5 -11    3.77    0.34 
   5  -5 -11    1.16    0.23 
   4  -5 -11    8.44    0.48 
  -3   5  11    3.47    0.32 
  -2   5  11    0.16    0.20 
  -1   5  11    2.26    0.28 
   0   5  11    0.09    0.23 
   9  -6 -11    0.42    0.22 
   8  -6 -11    1.68    0.27 
   7  -6 -11    2.91    0.31 
   6  -6 -11    0.16    0.18 
   5  -6 -11    4.02    0.36 
  -4   6  11    2.27    0.30 
  -3   6  11    2.54    0.31 
  -2   6  11    1.15    0.26 
   8  -7 -11    0.16    0.21 
   7  -7 -11    4.12    0.38 
   6  -7 -11    2.19    0.31 
   5  -7 -11    0.57    0.25 
  -4   7  11    4.61    0.37 
  -3   7  11    0.82    0.24 
  -4  -8  12    0.22    0.23 
  -3  -8  12    4.28    0.38 
  -2  -8  12    0.19    0.23 
  -1  -8  12    0.51    0.23 
  -6  -7  12   -0.33    0.20 
  -5  -7  12   -0.03    0.22 
  -4  -7  12   -0.10    0.20 
  -3  -7  12    0.21    0.23 
  -2  -7  12    0.05    0.24 
  -1  -7  12    0.14    0.19 
   0  -7  12    0.00    0.20 
   1  -7  12   -0.24    0.20 
  -7  -6  12    0.34    0.26 
  -6  -6  12   -0.19    0.23 
  -5  -6  12    0.64    0.24 
  -4  -6  12    0.42    0.23 
  -3  -6  12   -0.11    0.22 
  -2  -6  12    0.90    0.21 
  -1  -6  12   -0.01    0.18 
   0  -6  12    0.41    0.20 
   1  -6  12   -0.12    0.20 
  -8  -5  12    0.29    0.28 
  -7  -5  12    0.09    0.22 
  -6  -5  12    1.60    0.29 
  -5  -5  12    0.20    0.22 
  -4  -5  12    0.38    0.22 
  -3  -5  12    0.44    0.23 
  -2  -5  12    0.50    0.18 
  -1  -5  12    0.20    0.17 
   0  -5  12    1.11    0.23 
   1  -5  12    0.58    0.22 
   2  -5  12    0.17    0.22 
  -9  -4  12    0.35    0.29 
  -8  -4  12    0.50    0.25 
  -7  -4  12    0.17    0.23 
  -6  -4  12   -0.08    0.20 
  -5  -4  12    0.29    0.20 
  -4  -4  12    0.29    0.20 
  -3  -4  12    1.20    0.24 
  -2  -4  12    0.08    0.16 
  -1  -4  12    2.16    0.25 
   0  -4  12    3.16    0.29 
   1  -4  12    0.81    0.23 
   2  -4  12    0.45    0.22 
  -9  -3  12    0.06    0.26 
  -8  -3  12   -0.20    0.22 
  -7  -3  12    0.82    0.24 
  -6  -3  12    0.37    0.21 
  -5  -3  12    0.73    0.22 
  -4  -3  12   -0.03    0.17 
  -3  -3  12    1.13    0.18 
  -3  -3  12    1.04    0.23 
  -2  -3  12    2.83    0.25 
  -1  -3  12   -0.02    0.16 
   0  -3  12    1.39    0.23 
   1  -3  12    0.08    0.20 
   2  -3  12    0.64    0.23 
 -10  -2  12    0.22    0.25 
  -9  -2  12    0.46    0.26 
  -8  -2  12   -0.14    0.21 
  -7  -2  12    0.19    0.20 
  -6  -2  12    0.70    0.20 
  -5  -2  12    0.10    0.18 
  -4  -2  12    0.28    0.18 
  -3  -2  12   -0.11    0.14 
  -2  -2  12    2.30    0.24 
  -1  -2  12    3.20    0.27 
   0  -2  12   -0.12    0.15 
   1  -2  12    0.97    0.22 
   2  -2  12    0.15    0.20 
  10   1 -12    0.20    0.17 
 -10  -1  12   -0.05    0.23 
   9   1 -12   -0.26    0.14 
  -9  -1  12    0.05    0.23 
   8   1 -12    0.08    0.16 
  -8  -1  12    0.08    0.19 
   7   1 -12    0.27    0.15 
  -7  -1  12    0.29    0.19 
   6   1 -12    0.24    0.14 
  -6  -1  12    0.24    0.17 
   5   1 -12    0.90    0.17 
  -5  -1  12    0.51    0.19 
   4   1 -12    4.69    0.31 
  -4  -1  12    4.22    0.32 
   3   1 -12   35.96    1.28 
  -3  -1  12   34.95    1.29 
  -2  -1  12    0.09    0.15 
  -1  -1  12    2.74    0.26 
   0  -1  12    0.20    0.17 
   1  -1  12    1.22    0.23 
   2  -1  12    0.14    0.20 
  10   0 -12    0.31    0.18 
 -10   0  12    0.44    0.23 
   9   0 -12    0.22    0.17 
  -9   0  12    0.14    0.20 
   8   0 -12    0.25    0.16 
  -8   0  12    0.24    0.18 
   7   0 -12    3.69    0.29 
  -7   0  12    3.67    0.30 
   6   0 -12    0.08    0.13 
  -6   0  12   -0.15    0.16 
   5   0 -12    3.65    0.28 
  -5   0  12    3.80    0.29 
   4   0 -12    1.61    0.21 
  -4   0  12    1.38    0.21 
  -2   0  12    2.05    0.22 
  -1   0  12    0.49    0.18 
   0   0  12    1.80    0.24 
  10  -1 -12    0.06    0.17 
   9  -1 -12    0.47    0.19 
   8  -1 -12    0.36    0.16 
   7  -1 -12    0.12    0.15 
   6  -1 -12    1.75    0.23 
   5  -1 -12    1.00    0.20 
   4  -1 -12    6.48    0.39 
  -3   1  12    0.54    0.18 
  -2   1  12    6.98    0.40 
  -1   1  12    0.02    0.17 
   0   1  12    2.62    0.28 
   1   1  12    0.48    0.22 
  10  -2 -12    0.11    0.17 
   9  -2 -12   -0.03    0.17 
   8  -2 -12    0.84    0.19 
   7  -2 -12    0.08    0.15 
   6  -2 -12    2.52    0.26 
   5  -2 -12    0.60    0.18 
   4  -2 -12    2.79    0.28 
  -3   2  12    0.79    0.20 
  -2   2  12    0.84    0.21 
  -1   2  12    1.95    0.25 
   0   2  12   -0.09    0.19 
   1   2  12    1.82    0.29 
  10  -3 -12    3.38    0.33 
   9  -3 -12    0.00    0.16 
   8  -3 -12    0.28    0.18 
   7  -3 -12    0.40    0.18 
   6  -3 -12   -0.03    0.16 
   5  -3 -12    0.99    0.22 
   4  -3 -12   -0.11    0.16 
  -3   3  12    2.12    0.26 
  -2   3  12    0.46    0.20 
  -1   3  12    3.52    0.33 
   0   3  12    2.18    0.30 
  10  -4 -12    3.10    0.32 
   9  -4 -12    0.20    0.19 
   8  -4 -12   -0.08    0.16 
   7  -4 -12    0.76    0.21 
   6  -4 -12   -0.19    0.16 
   5  -4 -12    1.94    0.26 
   4  -4 -12    1.15    0.24 
  -3   4  12    0.77    0.22 
  -2   4  12    3.65    0.32 
  -1   4  12    0.25    0.21 
   9  -5 -12    0.21    0.19 
   8  -5 -12    0.47    0.19 
   7  -5 -12    0.03    0.18 
   6  -5 -12    1.13    0.25 
   5  -5 -12    0.00    0.18 
  -4   5  12    3.63    0.33 
  -3   5  12    0.25    0.21 
  -2   5  12    2.25    0.31 
   8  -6 -12    1.15    0.25 
   7  -6 -12    0.28    0.22 
   6  -6 -12    1.36    0.27 
   5  -6 -12    0.45    0.22 
  -4   6  12    2.71    0.33 
  -4  -7  13   -0.29    0.23 
  -3  -7  13   -0.10    0.24 
  -2  -7  13   -0.12    0.24 
  -6  -6  13   -0.07    0.26 
  -5  -6  13    0.25    0.26 
  -4  -6  13    0.33    0.26 
  -3  -6  13    0.21    0.25 
  -2  -6  13    0.04    0.23 
  -1  -6  13    0.07    0.21 
   0  -6  13    0.46    0.23 
  -7  -5  13    0.17    0.26 
  -6  -5  13    1.27    0.30 
  -5  -5  13   -0.11    0.21 
  -4  -5  13    0.82    0.25 
  -3  -5  13   -0.16    0.21 
  -2  -5  13    2.43    0.27 
  -1  -5  13   -0.12    0.18 
   0  -5  13    0.24    0.22 
  -8  -4  13    0.16    0.24 
  -7  -4  13   -0.20    0.23 
  -6  -4  13    0.00    0.21 
  -5  -4  13    0.05    0.22 
  -4  -4  13    0.51    0.23 
  -3  -4  13    1.26    0.26 
  -2  -4  13    0.33    0.19 
  -1  -4  13    0.09    0.19 
   0  -4  13   -0.26    0.19 
   1  -4  13    0.51    0.23 
  -9  -3  13    0.23    0.24 
  -8  -3  13    0.35    0.25 
  -7  -3  13    0.41    0.24 
  -6  -3  13    0.84    0.25 
  -5  -3  13    2.31    0.29 
  -4  -3  13    0.10    0.20 
  -3  -3  13    0.94    0.24 
  -2  -3  13    0.00    0.16 
  -1  -3  13    1.29    0.23 
   0  -3  13   -0.14    0.18 
   1  -3  13    0.03    0.21 
  -9  -2  13   -0.27    0.24 
  -8  -2  13   -0.14    0.22 
  -7  -2  13    1.83    0.27 
  -6  -2  13    0.59    0.21 
  -5  -2  13    1.16    0.23 
  -4  -2  13    0.31    0.20 
  -2  -2  13    0.77    0.20 
  -1  -2  13    0.90    0.23 
   0  -2  13    1.10    0.26 
   1  -2  13    0.71    0.24 
   9   1 -13    1.48    0.23 
  -9  -1  13    1.22    0.27 
   8   1 -13    0.53    0.18 
  -8  -1  13    0.57    0.22 
  -7  -1  13    0.21    0.20 
  -6  -1  13    1.67    0.24 
  -5  -1  13    0.10    0.18 
  -4  -1  13    1.82    0.24 
  -3  -1  13    0.39    0.18 
  -2  -1  13    1.97    0.24 
  -1  -1  13    0.67    0.20 
   0  -1  13    0.07    0.19 
  10   0 -13    0.02    0.17 
   9   0 -13    0.65    0.20 
   8   0 -13    0.23    0.17 
   7   0 -13    0.71    0.19 
   6   0 -13    0.14    0.16 
   5   0 -13    0.87    0.20 
   4   0 -13    0.04    0.16 
  -3   0  13    0.78    0.20 
  10  -1 -13    0.24    0.18 
   9  -1 -13    0.04    0.17 
   8  -1 -13    0.45    0.19 
   7  -1 -13    1.06    0.21 
   6  -1 -13    0.32    0.18 
   5  -1 -13    1.18    0.22 
   4  -1 -13    0.78    0.21 
  -3   1  13    2.08    0.25 
  -2   1  13    1.40    0.23 
  -1   1  13   -0.25    0.18 
   0   1  13    0.84    0.23 
   9  -2 -13    0.22    0.18 
   8  -2 -13    0.70    0.20 
   7  -2 -13    0.63    0.20 
   6  -2 -13    2.14    0.27 
   5  -2 -13    0.08    0.17 
   4  -2 -13    2.51    0.28 
  -3   2  13    0.16    0.19 
  -2   2  13    3.89    0.33 
  -1   2  13    0.49    0.22 
   9  -3 -13   -0.07    0.17 
   8  -3 -13    2.20    0.28 
   7  -3 -13    1.03    0.23 
   6  -3 -13    0.08    0.19 
   5  -3 -13    1.89    0.27 
  -4   3  13    0.52    0.22 
  -3   3  13    1.43    0.25 
  -2   3  13    1.19    0.26 
   8  -4 -13    0.06    0.18 
   7  -4 -13    1.42    0.26 
   6  -4 -13    1.64    0.27 
   5  -4 -13    2.34    0.29 
  -4   4  13    0.57    0.23 
  -3   4  13    0.26    0.22 
   7  -5 -13    0.58    0.24 
   6  -5 -13    1.95    0.29 
   5  -5 -13    0.04    0.18 
  -5  -5  14    0.07    0.23 
  -4  -5  14    0.06    0.24 
  -3  -5  14    0.42    0.26 
  -6  -4  14    0.13    0.24 
  -5  -4  14    0.05    0.24 
  -4  -4  14    0.52    0.23 
  -3  -4  14   -0.21    0.23 
  -7  -3  14    0.18    0.25 
  -6  -3  14    0.32    0.24 
  -5  -3  14   -0.10    0.22 
  -4  -3  14    0.07    0.21 
  -3  -3  14    0.72    0.25 
  -2  -3  14    0.49    0.22 
  -1  -3  14    0.25    0.22 
  -8  -2  14   -0.09    0.23 
  -7  -2  14   -0.03    0.21 
  -6  -2  14    0.22    0.23 
  -5  -2  14    5.21    0.39 
  -4  -2  14    0.40    0.22 
  -3  -2  14   -0.23    0.20 
  -2  -2  14    0.65    0.22 
  -1  -2  14   -0.20    0.20 
  -8  -1  14    0.07    0.23 
  -7  -1  14    0.17    0.21 
  -6  -1  14    0.21    0.21 
  -5  -1  14    2.19    0.27 
  -4  -1  14    0.14    0.19 
  -2  -1  14    0.44    0.20 
  -1  -1  14    0.32    0.21 
   8   0 -14    0.29    0.19 
   7   0 -14   -0.18    0.16 
  -2   0  14    0.01    0.17 
   8  -1 -14    0.32    0.19 
   7  -1 -14    0.09    0.18 
   6  -1 -14    0.46    0.20 
   5  -1 -14    0.76    0.22 
  -4   1  14    0.12    0.19 
  -3   1  14    1.18    0.23 
   8  -2 -14    0.00    0.17 
   7  -2 -14    0.33    0.19 
   6  -2 -14    0.20    0.19 
   5  -2 -14    0.42    0.20 
  -4   2  14    0.80    0.23 
  -3   2  14    1.17    0.26 
   7  -3 -14    0.46    0.22 
   6  -3 -14    0.64    0.21 
   5  -3 -14    0.07    0.18 
   0   0   0    0.00    0.00 
;
_shelx_hkl_checksum              86996
loop_
_space_group_symop_operation_xyz
'x, y, z'
'-x, -y, -z'
loop_
_atom_site_label
_atom_site_type_symbol
_atom_site_fract_x
_atom_site_fract_y
_atom_site_fract_z
_atom_site_U_iso_or_equiv
_atom_site_adp_type
_atom_site_occupancy
_atom_site_site_symmetry_order
_atom_site_calc_flag
_atom_site_refinement_flags_posn
_atom_site_refinement_flags_adp
Br1 Br 0.21745(4) 0.85357(3) 1.08808(3) 0.05672(14) Uani 1 1 d . .
F1 F -0.4204(2) 0.6811(2) 0.48891(19) 0.0697(5) Uani 1 1 d . .
F2 F -0.2685(2) -0.0506(2) 0.31437(18) 0.0774(6) Uani 1 1 d . .
C1 C 0.1132(3) 0.6808(2) 0.9504(3) 0.0382(5) Uani 1 1 d . .
C2 C -0.0243(3) 0.6809(3) 0.8373(3) 0.0381(6) Uani 1 1 d . .
C3 C -0.0980(3) 0.8004(3) 0.8219(3) 0.0473(6) Uani 1 1 d . .
H3 H -0.0546 0.8818 0.8921 0.057 Uiso 1 1 calc R U
C4 C -0.2285(4) 0.7984(3) 0.7087(3) 0.0527(7) Uani 1 1 d . .
H4 H -0.2755 0.8769 0.7007 0.063 Uiso 1 1 calc R U
C5 C -0.2922(3) 0.6760(3) 0.6033(3) 0.0484(6) Uani 1 1 d . .
C6 C -0.2331(3) 0.5577(3) 0.6091(3) 0.0429(6) Uani 1 1 d . .
H6 H -0.2809 0.4788 0.5363 0.051 Uiso 1 1 calc R U
C7 C -0.0957(3) 0.5538(3) 0.7284(2) 0.0359(5) Uani 1 1 d . .
C8 C -0.0298(3) 0.4325(2) 0.7397(2) 0.0345(5) Uani 1 1 d . .
C9 C 0.1072(3) 0.4338(2) 0.8594(2) 0.0341(5) Uani 1 1 d . .
C10 C 0.1739(3) 0.3122(3) 0.8766(2) 0.0376(5) Uani 1 1 d . .
H10 H 0.1233 0.2274 0.8094 0.045 Uiso 1 1 calc R U
C11 C 0.3126(3) 0.3145(3) 0.9904(2) 0.0374(5) Uani 1 1 d . .
C12 C 0.3825(3) 0.1930(3) 1.0070(3) 0.0474(6) Uani 1 1 d . .
H12 H 0.3332 0.1073 0.9409 0.057 Uiso 1 1 calc R U
C13 C 0.5202(4) 0.2009(3) 1.1183(3) 0.0527(7) Uani 1 1 d . .
H13 H 0.5644 0.1206 1.1276 0.063 Uiso 1 1 calc R U
C14 C 0.5973(3) 0.3294(3) 1.2201(3) 0.0537(7) Uani 1 1 d . .
H14 H 0.6923 0.3332 1.2954 0.064 Uiso 1 1 calc R U
C15 C 0.5352(3) 0.4465(3) 1.2097(3) 0.0497(7) Uani 1 1 d . .
H15 H 0.5872 0.5302 1.2781 0.060 Uiso 1 1 calc R U
C16 C 0.3902(3) 0.4439(3) 1.0948(3) 0.0390(5) Uani 1 1 d . .
C17 C 0.3237(3) 0.5628(3) 1.0811(3) 0.0401(6) Uani 1 1 d . .
H17 H 0.3736 0.6461 1.1498 0.048 Uiso 1 1 calc R U
C18 C 0.1832(3) 0.5619(2) 0.9667(2) 0.0352(5) Uani 1 1 d . .
C19 C -0.0976(3) 0.3049(3) 0.6247(2) 0.0348(5) Uani 1 1 d . .
C20 C -0.2476(3) 0.2053(3) 0.5835(3) 0.0438(6) Uani 1 1 d . .
H20 H -0.3109 0.2190 0.6273 0.053 Uiso 1 1 calc R U
C21 C -0.3056(4) 0.0862(3) 0.4792(3) 0.0528(7) Uani 1 1 d . .
H21 H -0.4068 0.0198 0.4525 0.063 Uiso 1 1 calc R U
C22 C -0.2118(4) 0.0680(3) 0.4160(3) 0.0488(7) Uani 1 1 d . .
C23 C -0.0654(4) 0.1635(3) 0.4503(3) 0.0550(7) Uani 1 1 d . .
H23 H -0.0046 0.1494 0.4042 0.066 Uiso 1 1 calc R U
C24 C -0.0079(3) 0.2824(3) 0.5553(3) 0.0487(6) Uani 1 1 d . .
H24 H 0.0928 0.3487 0.5800 0.058 Uiso 1 1 calc R U
loop_
_atom_site_aniso_label
_atom_site_aniso_U_11
_atom_site_aniso_U_22
_atom_site_aniso_U_33
_atom_site_aniso_U_23
_atom_site_aniso_U_13
_atom_site_aniso_U_12
Br1 0.0743(2) 0.03347(17) 0.0491(2) -0.00679(12) 0.01874(15) 0.01278(13)
F1 0.0640(11) 0.0665(11) 0.0629(11) 0.0093(9) 0.0061(9) 0.0349(9)
F2 0.0963(14) 0.0600(11) 0.0542(11) -0.0216(9) 0.0208(10) 0.0187(10)
C1 0.0507(15) 0.0282(12) 0.0365(13) 0.0020(10) 0.0224(12) 0.0080(11)
C2 0.0501(15) 0.0299(12) 0.0404(14) 0.0050(10) 0.0265(12) 0.0104(11)
C3 0.0644(18) 0.0381(14) 0.0459(16) 0.0038(12) 0.0282(14) 0.0212(13)
C4 0.0661(18) 0.0442(15) 0.0564(18) 0.0099(13) 0.0289(15) 0.0288(14)
C5 0.0473(15) 0.0510(16) 0.0475(16) 0.0111(13) 0.0183(13) 0.0203(13)
C6 0.0468(15) 0.0391(14) 0.0409(15) 0.0035(11) 0.0180(12) 0.0128(12)
C7 0.0420(14) 0.0319(12) 0.0366(13) 0.0053(10) 0.0207(11) 0.0093(10)
C8 0.0398(13) 0.0306(12) 0.0312(12) 0.0025(10) 0.0162(11) 0.0063(10)
C9 0.0395(13) 0.0295(12) 0.0331(13) 0.0026(10) 0.0181(11) 0.0060(10)
C10 0.0473(14) 0.0301(12) 0.0346(13) 0.0026(10) 0.0187(11) 0.0095(11)
C11 0.0431(14) 0.0355(13) 0.0370(13) 0.0085(11) 0.0208(11) 0.0105(11)
C12 0.0593(17) 0.0411(14) 0.0439(15) 0.0092(12) 0.0217(13) 0.0203(13)
C13 0.0592(18) 0.0509(16) 0.0544(18) 0.0152(14) 0.0251(15) 0.0257(14)
C14 0.0484(16) 0.0615(18) 0.0468(17) 0.0145(14) 0.0139(13) 0.0194(14)
C15 0.0486(16) 0.0477(16) 0.0410(15) 0.0052(12) 0.0119(13) 0.0080(13)
C16 0.0422(14) 0.0365(13) 0.0368(13) 0.0059(11) 0.0189(11) 0.0055(11)
C17 0.0469(14) 0.0329(12) 0.0354(13) 0.0000(10) 0.0177(12) 0.0045(11)
C18 0.0407(13) 0.0296(12) 0.0356(13) 0.0033(10) 0.0200(11) 0.0050(10)
C19 0.0407(13) 0.0319(12) 0.0314(12) 0.0043(10) 0.0144(11) 0.0130(10)
C20 0.0486(15) 0.0403(14) 0.0411(15) 0.0017(11) 0.0215(12) 0.0083(12)
C21 0.0556(17) 0.0409(15) 0.0491(17) -0.0017(13) 0.0195(14) -0.0004(13)
C22 0.0627(18) 0.0407(14) 0.0327(14) -0.0028(11) 0.0109(13) 0.0193(13)
C23 0.0578(18) 0.0654(19) 0.0442(16) -0.0040(14) 0.0254(14) 0.0226(15)
C24 0.0435(15) 0.0527(16) 0.0459(16) -0.0021(13) 0.0209(13) 0.0080(12)
loop_
_atom_type_symbol
_atom_type_description
_atom_type_scat_dispersion_real
_atom_type_scat_dispersion_imag
_atom_type_scat_source
C C 0.0033 0.0016 'International Tables Vol C Tables 4.2.6.8 and 6.1.1.4'
H H 0.0000 0.0000 'International Tables Vol C Tables 4.2.6.8 and 6.1.1.4'
F F 0.0171 0.0103 'International Tables Vol C Tables 4.2.6.8 and 6.1.1.4'
Br Br -0.2901 2.4595 'International Tables Vol C Tables 4.2.6.8 and 6.1.1.4'
loop_
_geom_angle_atom_site_label_1
_geom_angle_atom_site_label_2
_geom_angle_atom_site_label_3
_geom_angle
C2 C1 C18 123.4(2)
C2 C1 Br1 118.36(18)
C18 C1 Br1 118.17(19)
C1 C2 C3 123.5(2)
C1 C2 C7 118.2(2)
C3 C2 C7 118.3(2)
C4 C3 C2 121.8(3)
C4 C3 H3 119.1
C2 C3 H3 119.1
C3 C4 C5 118.7(3)
C3 C4 H4 120.7
C5 C4 H4 120.7
C6 C5 F1 119.4(3)
C6 C5 C4 123.9(3)
F1 C5 C4 116.7(2)
C5 C6 C7 119.4(2)
C5 C6 H6 120.3
C7 C6 H6 120.3
C8 C7 C6 121.6(2)
C8 C7 C2 120.5(2)
C6 C7 C2 117.9(2)
C7 C8 C9 119.8(2)
C7 C8 C19 120.5(2)
C9 C8 C19 119.6(2)
C10 C9 C8 121.6(2)
C10 C9 C18 118.1(2)
C8 C9 C18 120.3(2)
C11 C10 C9 122.2(2)
C11 C10 H10 118.9
C9 C10 H10 118.9
C10 C11 C12 122.4(2)
C10 C11 C16 119.3(2)
C12 C11 C16 118.3(2)
C13 C12 C11 120.7(3)
C13 C12 H12 119.7
C11 C12 H12 119.7
C12 C13 C14 120.8(3)
C12 C13 H13 119.6
C14 C13 H13 119.6
C15 C14 C13 120.8(3)
C15 C14 H14 119.6
C13 C14 H14 119.6
C14 C15 C16 120.7(3)
C14 C15 H15 119.6
C16 C15 H15 119.6
C17 C16 C15 122.1(2)
C17 C16 C11 119.2(2)
C15 C16 C11 118.7(2)
C16 C17 C18 122.2(2)
C16 C17 H17 118.9
C18 C17 H17 118.9
C1 C18 C17 123.3(2)
C1 C18 C9 117.8(2)
C17 C18 C9 118.9(2)
C20 C19 C24 117.6(2)
C20 C19 C8 122.6(2)
C24 C19 C8 119.8(2)
C21 C20 C19 121.5(2)
C21 C20 H20 119.2
C19 C20 H20 119.2
C22 C21 C20 118.5(3)
C22 C21 H21 120.7
C20 C21 H21 120.7
C23 C22 F2 119.1(3)
C23 C22 C21 122.5(2)
F2 C22 C21 118.3(3)
C22 C23 C24 118.5(2)
C22 C23 H23 120.7
C24 C23 H23 120.7
C23 C24 C19 121.3(2)
C23 C24 H24 119.3
C19 C24 H24 119.3
loop_
_geom_bond_atom_site_label_1
_geom_bond_atom_site_label_2
_geom_bond_distance
Br1 C1 1.899(2)
F1 C5 1.361(3)
F2 C22 1.357(3)
C1 C2 1.385(4)
C1 C18 1.402(3)
C2 C3 1.428(3)
C2 C7 1.445(3)
C3 C4 1.344(4)
C3 H3 0.9300
C4 C5 1.399(4)
C4 H4 0.9300
C5 C6 1.340(4)
C6 C7 1.433(4)
C6 H6 0.9300
C7 C8 1.401(3)
C8 C9 1.418(3)
C8 C19 1.492(3)
C9 C10 1.409(3)
C9 C18 1.440(3)
C10 C11 1.389(4)
C10 H10 0.9300
C11 C12 1.425(3)
C11 C16 1.430(3)
C12 C13 1.355(4)
C12 H12 0.9300
C13 C14 1.409(4)
C13 H13 0.9300
C14 C15 1.345(4)
C14 H14 0.9300
C15 C16 1.427(4)
C15 H15 0.9300
C16 C17 1.383(4)
C17 C18 1.405(4)
C17 H17 0.9300
C19 C20 1.381(3)
C19 C24 1.388(4)
C20 C21 1.377(4)
C20 H20 0.9300
C21 C22 1.359(4)
C21 H21 0.9300
C22 C23 1.352(4)
C23 C24 1.381(4)
C23 H23 0.9300
C24 H24 0.9300
loop_
_geom_torsion_atom_site_label_1
_geom_torsion_atom_site_label_2
_geom_torsion_atom_site_label_3
_geom_torsion_atom_site_label_4
_geom_torsion
C18 C1 C2 C3 178.4(2)
Br1 C1 C2 C3 -4.0(3)
C18 C1 C2 C7 -2.3(4)
Br1 C1 C2 C7 175.27(16)
C1 C2 C3 C4 177.8(3)
C7 C2 C3 C4 -1.5(4)
C2 C3 C4 C5 -0.5(4)
C3 C4 C5 C6 1.6(4)
C3 C4 C5 F1 -177.6(3)
F1 C5 C6 C7 178.5(2)
C4 C5 C6 C7 -0.7(4)
C5 C6 C7 C8 179.7(2)
C5 C6 C7 C2 -1.3(3)
C1 C2 C7 C8 1.9(3)
C3 C2 C7 C8 -178.7(2)
C1 C2 C7 C6 -177.0(2)
C3 C2 C7 C6 2.3(3)
C6 C7 C8 C9 179.5(2)
C2 C7 C8 C9 0.6(3)
C6 C7 C8 C19 2.3(3)
C2 C7 C8 C19 -176.5(2)
C7 C8 C9 C10 177.9(2)
C19 C8 C9 C10 -5.0(3)
C7 C8 C9 C18 -2.8(3)
C19 C8 C9 C18 174.3(2)
C8 C9 C10 C11 176.8(2)
C18 C9 C10 C11 -2.5(3)
C9 C10 C11 C12 -178.6(2)
C9 C10 C11 C16 0.6(3)
C10 C11 C12 C13 178.4(2)
C16 C11 C12 C13 -0.8(4)
C11 C12 C13 C14 0.1(4)
C12 C13 C14 C15 0.6(5)
C13 C14 C15 C16 -0.4(4)
C14 C15 C16 C17 -179.8(2)
C14 C15 C16 C11 -0.4(4)
C10 C11 C16 C17 1.2(3)
C12 C11 C16 C17 -179.6(2)
C10 C11 C16 C15 -178.3(2)
C12 C11 C16 C15 0.9(3)
C15 C16 C17 C18 178.5(2)
C11 C16 C17 C18 -1.0(4)
C2 C1 C18 C17 179.3(2)
Br1 C1 C18 C17 1.7(3)
C2 C1 C18 C9 0.2(3)
Br1 C1 C18 C9 -177.44(16)
C16 C17 C18 C1 179.9(2)
C16 C17 C18 C9 -0.9(4)
C10 C9 C18 C1 -178.2(2)
C8 C9 C18 C1 2.5(3)
C10 C9 C18 C17 2.6(3)
C8 C9 C18 C17 -176.7(2)
C7 C8 C19 C20 -71.8(3)
C9 C8 C19 C20 111.1(3)
C7 C8 C19 C24 108.7(3)
C9 C8 C19 C24 -68.4(3)
C24 C19 C20 C21 1.2(4)
C8 C19 C20 C21 -178.3(2)
C19 C20 C21 C22 -0.2(4)
C20 C21 C22 C23 -1.1(5)
C20 C21 C22 F2 179.2(2)
F2 C22 C23 C24 -179.0(3)
C21 C22 C23 C24 1.3(5)
C22 C23 C24 C19 -0.2(4)
C20 C19 C24 C23 -1.0(4)
C8 C19 C24 C23 178.5(3)
