#------------------------------------------------------------------------------
#$Date: 2017-11-07 02:55:33 +0200 (Tue, 07 Nov 2017) $
#$Revision: 202737 $
#$URL: file:///home/coder/svn-repositories/cod/cif/4/03/26/4032692.cif $
#------------------------------------------------------------------------------
#
# This file is available in the Crystallography Open Database (COD),
# http://www.crystallography.net/
#
# All data on this site have been placed in the public domain by the
# contributors.
#
data_4032692
loop_
_publ_author_name
'Zheng, Jian-Feng'
'Hu, Xiu-Ning'
'Xu, Zhen'
'Cai, Dong-Cheng'
'Shen, Tai-Long'
'Huang, Pei-Qiang'
_publ_section_title
;
 Substrate-Controlled Chemoselective Reactions of Isocyanoacetates with
 Amides and Lactams.
;
_journal_issue                   18
_journal_name_full               'The Journal of organic chemistry'
_journal_page_first              9693
_journal_page_last               9703
_journal_paper_doi               10.1021/acs.joc.7b01768
_journal_volume                  82
_journal_year                    2017
_chemical_formula_moiety         'C15 H17 N3 O4'
_chemical_formula_sum            'C15 H17 N3 O4'
_chemical_formula_weight         303.32
_space_group_crystal_system      triclinic
_space_group_IT_number           2
_space_group_name_Hall           '-P 1'
_space_group_name_H-M_alt        'P -1'
_symmetry_space_group_name_Hall  '-P 1'
_symmetry_space_group_name_H-M   'P -1'
_atom_sites_solution_hydrogens   geom
_atom_sites_solution_primary     direct
_audit_creation_date             2017-02-16
_audit_creation_method
;
Olex2 1.2
(compiled 2017.01.04 svn.r3372 for OlexSys, GUI svn.r5289)
;
_cell_angle_alpha                109.664(4)
_cell_angle_beta                 96.700(4)
_cell_angle_gamma                106.526(4)
_cell_formula_units_Z            2
_cell_length_a                   7.715(2)
_cell_length_b                   9.543(2)
_cell_length_c                   10.884(3)
_cell_measurement_reflns_used    4624
_cell_measurement_temperature    273.15
_cell_measurement_theta_max      28.73
_cell_measurement_theta_min      2.49
_cell_volume                     703.1(3)
_computing_cell_refinement       'SAINT v6.28A (Bruker, 2002)'
_computing_data_reduction        'SAINT v6.28A (Bruker, 2002)'
_computing_molecular_graphics    'Olex2 (Dolomanov et al., 2009)'
_computing_publication_material  'Olex2 (Dolomanov et al., 2009)'
_computing_structure_refinement  'ShelXL (Sheldrick, 2015)'
_computing_structure_solution    'ShelXS (Sheldrick, 2008)'
_diffrn_ambient_temperature      273.15
_diffrn_measured_fraction_theta_full 0.980
_diffrn_measured_fraction_theta_max 0.899
_diffrn_measurement_device_type  'CCD area detector'
_diffrn_measurement_method       'phi and omega scans'
_diffrn_radiation_monochromator  graphite
_diffrn_radiation_type           MoK\a
_diffrn_radiation_wavelength     0.71073
_diffrn_reflns_av_R_equivalents  0.0276
_diffrn_reflns_av_unetI/netI     0.0330
_diffrn_reflns_Laue_measured_fraction_full 0.980
_diffrn_reflns_Laue_measured_fraction_max 0.899
_diffrn_reflns_limit_h_max       10
_diffrn_reflns_limit_h_min       -9
_diffrn_reflns_limit_k_max       12
_diffrn_reflns_limit_k_min       -12
_diffrn_reflns_limit_l_max       14
_diffrn_reflns_limit_l_min       -14
_diffrn_reflns_number            7888
_diffrn_reflns_point_group_measured_fraction_full 0.980
_diffrn_reflns_point_group_measured_fraction_max 0.899
_diffrn_reflns_theta_full        25.242
_diffrn_reflns_theta_max         28.774
_diffrn_reflns_theta_min         2.044
_exptl_absorpt_coefficient_mu    0.106
_exptl_absorpt_correction_T_max  1.0000
_exptl_absorpt_correction_T_min  0.792007
_exptl_absorpt_correction_type   multi-scan
_exptl_crystal_colour            colourless
_exptl_crystal_colour_primary    colourless
_exptl_crystal_density_diffrn    1.433
_exptl_crystal_description       block
_exptl_crystal_size_max          0.6
_exptl_crystal_size_mid          0.4
_exptl_crystal_size_min          0.4
_refine_diff_density_max         0.374
_refine_diff_density_min         -0.198
_refine_diff_density_rms         0.050
_refine_ls_extinction_method     none
_refine_ls_goodness_of_fit_ref   1.050
_refine_ls_hydrogen_treatment    constr
_refine_ls_matrix_type           full
_refine_ls_number_parameters     201
_refine_ls_number_reflns         3275
_refine_ls_number_restraints     0
_refine_ls_restrained_S_all      1.050
_refine_ls_R_factor_all          0.0534
_refine_ls_R_factor_gt           0.0480
_refine_ls_shift/su_max          0.000
_refine_ls_shift/su_mean         0.000
_refine_ls_structure_factor_coef Fsqd
_refine_ls_weighting_details
'w=1/[\s^2^(Fo^2^)+(0.0740P)^2^+0.1750P] where P=(Fo^2^+2Fc^2^)/3'
_refine_ls_weighting_scheme      calc
_refine_ls_wR_factor_gt          0.1297
_refine_ls_wR_factor_ref         0.1339
_reflns_Friedel_coverage         0.000
_reflns_number_gt                2872
_reflns_number_total             3275
_reflns_threshold_expression     'I > 2\s(I)'
_iucr_refine_instructions_details
;

    h0215m.res created by SHELXL-2014/7

TITL h0215m in P-1 #2
REM reset to P-1 #2
CELL 0.71073 7.715 9.5434 10.884 109.664 96.7 106.526
ZERR 2 0.002 0.0024 0.0028 0.004 0.004 0.004
LATT 1
SFAC C H N O
UNIT 30 34 6 8
 
L.S. 4
PLAN  20
TEMP 0
BOND
fmap 2
acta
REM <olex2.extras>
REM <HklSrc "%.\\h0215m.hkl">
REM </olex2.extras>
 
WGHT    0.074000    0.175000
FVAR       0.30116
N2    3    0.025360    0.274181    0.183598    11.00000    0.02011    0.02568 =
         0.02605    0.00908    0.00545    0.00682
O1    4   -0.294068    0.089392   -0.087627    11.00000    0.03907    0.02765 =
         0.02464    0.00600    0.00387    0.00642
C10   1   -0.242213    0.361836    0.236900    11.00000    0.02504    0.02198 =
         0.02258    0.00894    0.00598    0.00845
O2    4   -0.184043    0.352108   -0.007613    11.00000    0.04592    0.02698 =
         0.02724    0.01286    0.00718    0.01100
N1    3   -0.106286    0.014646    0.145554    11.00000    0.02509    0.02340 =
         0.02994    0.01172    0.00883    0.01005
N3    3   -0.442529    0.699569    0.470510    11.00000    0.04463    0.03058 =
         0.02470    0.01134    0.01357    0.01775
O4    4   -0.332782    0.813729    0.564910    11.00000    0.05750    0.03473 =
         0.03129    0.00126    0.01087    0.01796
C8    1   -0.228152    0.213988    0.004394    11.00000    0.02000    0.02443 =
         0.02611    0.00948    0.00615    0.00821
O3    4   -0.605806    0.679529    0.438829    11.00000    0.04542    0.05411 =
         0.04620    0.00716    0.01390    0.03057
C12   1   -0.497303    0.448136    0.287839    11.00000    0.02501    0.02987 =
         0.02954    0.01231    0.00793    0.01108
AFIX  43
H12   2   -0.623682    0.432757    0.270343    11.00000   -1.20000
AFIX   0
C13   1   -0.372670    0.581266    0.390251    11.00000    0.03554    0.02487 =
         0.02250    0.01058    0.01009    0.01389
C2    1   -0.258189    0.076189    0.164474    11.00000    0.02280    0.02209 =
         0.02539    0.00890    0.00649    0.00715
AFIX  13
H2    2   -0.372155    0.006645    0.095006    11.00000   -1.20000
AFIX   0
C14   1   -0.186585    0.606989    0.418433    11.00000    0.03219    0.02580 =
         0.02407    0.00325    0.00218    0.00753
AFIX  43
H14   2   -0.105515    0.697881    0.489056    11.00000   -1.20000
AFIX   0
C1    1   -0.178132    0.235666    0.151008    11.00000    0.01998    0.02022 =
         0.02315    0.00650    0.00414    0.00517
C11   1   -0.429603    0.338905    0.212409    11.00000    0.02526    0.02339 =
         0.02658    0.00559    0.00327    0.00631
AFIX  43
H11   2   -0.511670    0.247187    0.143109    11.00000   -1.20000
AFIX   0
C15   1   -0.120844    0.496410    0.340769    11.00000    0.02472    0.02786 =
         0.02647    0.00699    0.00238    0.00793
AFIX  43
H15   2    0.005715    0.512505    0.358396    11.00000   -1.20000
AFIX   0
C3    1   -0.282041    0.082540    0.302471    11.00000    0.03141    0.03204 =
         0.02828    0.01298    0.01194    0.01145
AFIX  23
H3A   2   -0.205783    0.184985    0.371393    11.00000   -1.20000
H3B   2   -0.410989    0.063652    0.307179    11.00000   -1.20000
AFIX   0
C7    1    0.046782    0.144371    0.176674    11.00000    0.02302    0.02810 =
         0.02642    0.01030    0.00717    0.00942
AFIX  43
H7    2    0.165235    0.138821    0.192680    11.00000   -1.20000
AFIX   0
C5    1   -0.114528   -0.097133    0.211249    11.00000    0.03345    0.02836 =
         0.03398    0.01616    0.00904    0.01325
AFIX  13
H5    2    0.011406   -0.085151    0.252703    11.00000   -1.20000
AFIX   0
C9    1   -0.221819    0.347614   -0.141348    11.00000    0.04572    0.03948 =
         0.03237    0.02101    0.00854    0.01466
AFIX 137
H9A   2   -0.172383    0.275146   -0.197967    11.00000   -1.50000
H9B   2   -0.164565    0.451672   -0.140119    11.00000   -1.50000
H9C   2   -0.353793    0.313017   -0.175465    11.00000   -1.50000
AFIX   0
C6    1   -0.214441   -0.264209    0.112470    11.00000    0.05284    0.02652 =
         0.04117    0.01519    0.01721    0.01340
AFIX 137
H6A   2   -0.339247   -0.275875    0.075191    11.00000   -1.50000
H6B   2   -0.217632   -0.335861    0.157144    11.00000   -1.50000
H6C   2   -0.150444   -0.287911    0.041802    11.00000   -1.50000
AFIX   0
C4    1   -0.219770   -0.047533    0.319609    11.00000    0.07370    0.04129 =
         0.03397    0.02126    0.02339    0.02931
AFIX  23
H4A   2   -0.326630   -0.137233    0.309892    11.00000   -1.20000
H4B   2   -0.139317   -0.009306    0.408083    11.00000   -1.20000
AFIX   0
HKLF 4
 
REM  h0215m in P-1 #2
REM R1 =  0.0480 for    2872 Fo > 4sig(Fo)  and  0.0534 for all    3275 data
REM    201 parameters refined using      0 restraints
 
END  
     
WGHT      0.0736      0.1761 

REM Highest difference peak  0.374,  deepest hole -0.198,  1-sigma level  0.050
Q1    1  -0.2026  0.3000  0.1946  11.00000  0.05    0.37
Q2    1  -0.2243  0.1581  0.1562  11.00000  0.05    0.33
Q3    1  -0.0765  0.2554  0.1685  11.00000  0.05    0.32
Q4    1  -0.1868  0.0345  0.1445  11.00000  0.05    0.31
Q5    1  -0.1018 -0.0377  0.1733  11.00000  0.05    0.31
Q6    1  -0.2096  0.2186  0.0811  11.00000  0.05    0.29
Q7    1  -0.2679  0.0063  0.2996  11.00000  0.05    0.28
Q8    1  -0.2865  0.6088  0.3847  11.00000  0.05    0.28
Q9    1  -0.1535  0.5579  0.3750  11.00000  0.05    0.28
Q10   1  -0.4249  0.5243  0.3359  11.00000  0.05    0.27
Q11   1  -0.1846  0.4242  0.2786  11.00000  0.05    0.26
Q12   1  -0.3945  0.6334  0.4201  11.00000  0.05    0.26
Q13   1  -0.3380  0.3328  0.2345  11.00000  0.05    0.26
Q14   1  -0.0312  0.0786  0.1788  11.00000  0.05    0.25
Q15   1  -0.3241  0.3602  0.2175  11.00000  0.05    0.24
Q16   1  -0.3358  0.1414 -0.0599  11.00000  0.05    0.24
Q17   1   0.0322  0.2243  0.2109  11.00000  0.05    0.21
Q18   1   0.0401  0.2200  0.1556  11.00000  0.05    0.21
Q19   1   0.1016  0.3447  0.1802  11.00000  0.05    0.21
Q20   1  -0.4473  0.3922  0.2577  11.00000  0.05    0.21

  REM The information below was added by Olex2.
  REM
  REM R1 = 0.0480 for 2872 Fo > 4sig(Fo) and 0.0534 for all 7888 data
  REM n/a parameters refined using n/a restraints
  REM Highest difference peak 0.37, deepest hole -0.20
  REM Mean Shift 0, Max Shift 0.000.

  REM +++ Tabular Listing of Refinement Information +++
  REM R1_all = 0.0534
  REM R1_gt = 0.0480
  REM wR_ref = 0.1339
  REM GOOF = 1.050
  REM Shift_max = 0.000
  REM Shift_mean = 0
  REM Reflections_all = 7888
  REM Reflections_gt = 2872
  REM Parameters = n/a
  REM Hole = -0.20
  REM Peak = 0.37
  REM Flack = n/a

  
;
_cod_data_source_file            jo7b01768_si_002.cif
_cod_data_source_block           h0215m
_cod_depositor_comments          'Adding full bibliography for 4032692.cif.'
_cod_database_code               4032692
_shelx_shelxl_version_number     2014/7
_shelx_space_group_comment
;
The symmetry employed for this shelxl refinement is uniquely defined
by the following loop, which should always be used as a source of
symmetry information in preference to the above space-group names.
They are only intended as comments.
;
_olex2_refinement_description
;
1. Fixed Uiso
 At 1.2 times of:
  All C(H) groups, All C(H,H) groups
 At 1.5 times of:
  All C(H,H,H) groups
2.a Ternary CH refined with riding coordinates:
 C2(H2), C5(H5)
2.b Secondary CH2 refined with riding coordinates:
 C3(H3A,H3B), C4(H4A,H4B)
2.c Aromatic/amide H refined with riding coordinates:
 C12(H12), C14(H14), C11(H11), C15(H15), C7(H7)
2.d Idealised Me refined as rotating group:
 C9(H9A,H9B,H9C), C6(H6A,H6B,H6C)
;
_olex2_submission_special_instructions 'No special instructions were received'
loop_
_space_group_symop_operation_xyz
'x, y, z'
'-x, -y, -z'
loop_
_atom_site_label
_atom_site_type_symbol
_atom_site_fract_x
_atom_site_fract_y
_atom_site_fract_z
_atom_site_U_iso_or_equiv
_atom_site_adp_type
_atom_site_occupancy
_atom_site_site_symmetry_order
_atom_site_calc_flag
_atom_site_refinement_flags_posn
N2 N 0.02536(14) 0.27418(12) 0.18360(11) 0.0245(2) Uani 1 1 d .
O1 O -0.29407(14) 0.08939(11) -0.08763(9) 0.0331(2) Uani 1 1 d .
C10 C -0.24221(17) 0.36184(14) 0.23690(12) 0.0230(3) Uani 1 1 d .
O2 O -0.18404(15) 0.35211(11) -0.00761(10) 0.0332(2) Uani 1 1 d .
N1 N -0.10629(15) 0.01465(12) 0.14555(11) 0.0252(2) Uani 1 1 d .
N3 N -0.44253(18) 0.69957(14) 0.47051(12) 0.0316(3) Uani 1 1 d .
O4 O -0.33278(17) 0.81373(13) 0.56491(11) 0.0439(3) Uani 1 1 d .
C8 C -0.22815(16) 0.21399(14) 0.00439(12) 0.0234(3) Uani 1 1 d .
O3 O -0.60581(17) 0.67953(15) 0.43883(12) 0.0486(3) Uani 1 1 d .
C12 C -0.49730(18) 0.44814(16) 0.28784(13) 0.0274(3) Uani 1 1 d .
H12 H -0.6237 0.4328 0.2703 0.033 Uiso 1 1 calc R
C13 C -0.37267(19) 0.58127(15) 0.39025(13) 0.0262(3) Uani 1 1 d .
C2 C -0.25819(17) 0.07619(14) 0.16447(13) 0.0236(3) Uani 1 1 d .
H2 H -0.3722 0.0066 0.0950 0.028 Uiso 1 1 calc R
C14 C -0.18658(19) 0.60699(16) 0.41843(13) 0.0301(3) Uani 1 1 d .
H14 H -0.1055 0.6979 0.4891 0.036 Uiso 1 1 calc R
C1 C -0.17813(16) 0.23567(14) 0.15101(12) 0.0221(3) Uani 1 1 d .
C11 C -0.42960(18) 0.33891(15) 0.21241(13) 0.0270(3) Uani 1 1 d .
H11 H -0.5117 0.2472 0.1431 0.032 Uiso 1 1 calc R
C15 C -0.12084(18) 0.49641(15) 0.34077(13) 0.0279(3) Uani 1 1 d .
H15 H 0.0057 0.5125 0.3584 0.034 Uiso 1 1 calc R
C3 C -0.28204(19) 0.08254(16) 0.30247(14) 0.0297(3) Uani 1 1 d .
H3A H -0.2058 0.1850 0.3714 0.036 Uiso 1 1 calc R
H3B H -0.4110 0.0637 0.3072 0.036 Uiso 1 1 calc R
C7 C 0.04678(17) 0.14437(15) 0.17667(13) 0.0257(3) Uani 1 1 d .
H7 H 0.1652 0.1388 0.1927 0.031 Uiso 1 1 calc R
C5 C -0.1145(2) -0.09713(16) 0.21125(14) 0.0301(3) Uani 1 1 d .
H5 H 0.0114 -0.0852 0.2527 0.036 Uiso 1 1 calc R
C9 C -0.2218(2) 0.34761(19) -0.14135(15) 0.0373(3) Uani 1 1 d .
H9A H -0.1724 0.2751 -0.1980 0.056 Uiso 1 1 calc GR
H9B H -0.1646 0.4517 -0.1401 0.056 Uiso 1 1 calc GR
H9C H -0.3538 0.3130 -0.1755 0.056 Uiso 1 1 calc GR
C6 C -0.2144(2) -0.26421(17) 0.11247(16) 0.0391(4) Uani 1 1 d .
H6A H -0.3392 -0.2759 0.0752 0.059 Uiso 1 1 calc GR
H6B H -0.2176 -0.3359 0.1571 0.059 Uiso 1 1 calc GR
H6C H -0.1504 -0.2879 0.0418 0.059 Uiso 1 1 calc GR
C4 C -0.2198(3) -0.0475(2) 0.31961(17) 0.0447(4) Uani 1 1 d .
H4A H -0.3266 -0.1372 0.3099 0.054 Uiso 1 1 calc R
H4B H -0.1393 -0.0093 0.4081 0.054 Uiso 1 1 calc R
loop_
_atom_site_aniso_label
_atom_site_aniso_U_11
_atom_site_aniso_U_22
_atom_site_aniso_U_33
_atom_site_aniso_U_23
_atom_site_aniso_U_13
_atom_site_aniso_U_12
N2 0.0201(5) 0.0257(5) 0.0261(5) 0.0091(4) 0.0055(4) 0.0068(4)
O1 0.0391(6) 0.0277(5) 0.0246(5) 0.0060(4) 0.0039(4) 0.0064(4)
C10 0.0250(6) 0.0220(6) 0.0226(6) 0.0089(5) 0.0060(5) 0.0085(5)
O2 0.0459(6) 0.0270(5) 0.0272(5) 0.0129(4) 0.0072(4) 0.0110(4)
N1 0.0251(5) 0.0234(5) 0.0299(6) 0.0117(4) 0.0088(4) 0.0101(4)
N3 0.0446(7) 0.0306(6) 0.0247(6) 0.0113(5) 0.0136(5) 0.0178(5)
O4 0.0575(7) 0.0347(6) 0.0313(6) 0.0013(4) 0.0109(5) 0.0180(5)
C8 0.0200(5) 0.0244(6) 0.0261(6) 0.0095(5) 0.0061(5) 0.0082(5)
O3 0.0454(7) 0.0541(7) 0.0462(7) 0.0072(6) 0.0139(5) 0.0306(6)
C12 0.0250(6) 0.0299(6) 0.0295(7) 0.0123(5) 0.0079(5) 0.0111(5)
C13 0.0355(7) 0.0249(6) 0.0225(6) 0.0106(5) 0.0101(5) 0.0139(5)
C2 0.0228(6) 0.0221(6) 0.0254(6) 0.0089(5) 0.0065(5) 0.0072(5)
C14 0.0322(7) 0.0258(6) 0.0241(6) 0.0032(5) 0.0022(5) 0.0075(5)
C1 0.0200(6) 0.0202(6) 0.0231(6) 0.0065(5) 0.0041(4) 0.0052(4)
C11 0.0253(6) 0.0234(6) 0.0266(6) 0.0056(5) 0.0033(5) 0.0063(5)
C15 0.0247(6) 0.0279(6) 0.0265(6) 0.0070(5) 0.0024(5) 0.0079(5)
C3 0.0314(7) 0.0320(7) 0.0283(7) 0.0130(5) 0.0119(5) 0.0114(5)
C7 0.0230(6) 0.0281(6) 0.0264(6) 0.0103(5) 0.0072(5) 0.0094(5)
C5 0.0334(7) 0.0284(7) 0.0340(7) 0.0162(6) 0.0090(5) 0.0133(5)
C9 0.0457(8) 0.0395(8) 0.0324(7) 0.0210(6) 0.0085(6) 0.0147(7)
C6 0.0528(9) 0.0265(7) 0.0412(8) 0.0152(6) 0.0172(7) 0.0134(6)
C4 0.0737(12) 0.0413(8) 0.0340(8) 0.0213(7) 0.0234(8) 0.0293(8)
loop_
_atom_type_symbol
_atom_type_description
_atom_type_scat_dispersion_real
_atom_type_scat_dispersion_imag
_atom_type_scat_source
C C 0.0033 0.0016 'International Tables Vol C Tables 4.2.6.8 and 6.1.1.4'
H H 0.0000 0.0000 'International Tables Vol C Tables 4.2.6.8 and 6.1.1.4'
N N 0.0061 0.0033 'International Tables Vol C Tables 4.2.6.8 and 6.1.1.4'
O O 0.0106 0.0060 'International Tables Vol C Tables 4.2.6.8 and 6.1.1.4'
loop_
_geom_angle_atom_site_label_1
_geom_angle_atom_site_label_2
_geom_angle_atom_site_label_3
_geom_angle
C7 N2 C1 104.70(10)
C11 C10 C1 118.42(11)
C15 C10 C1 122.16(11)
C15 C10 C11 119.39(12)
C8 O2 C9 116.52(11)
C2 N1 C5 109.67(10)
C7 N1 C2 104.85(10)
C7 N1 C5 121.84(11)
O4 N3 C13 118.10(12)
O3 N3 O4 123.71(12)
O3 N3 C13 118.19(12)
O1 C8 O2 124.14(12)
O1 C8 C1 124.72(12)
O2 C8 C1 111.12(10)
C11 C12 C13 117.81(12)
C12 C13 N3 118.42(12)
C14 C13 N3 119.15(12)
C14 C13 C12 122.43(12)
N1 C2 C1 101.14(10)
N1 C2 C3 103.59(10)
C3 C2 C1 116.80(10)
C13 C14 C15 118.94(12)
N2 C1 C10 113.89(10)
N2 C1 C8 105.05(10)
N2 C1 C2 104.58(9)
C10 C1 C8 110.04(10)
C10 C1 C2 112.90(10)
C8 C1 C2 109.97(10)
C12 C11 C10 121.37(12)
C14 C15 C10 120.06(12)
C4 C3 C2 104.83(11)
N2 C7 N1 118.73(12)
N1 C5 C6 110.64(12)
N1 C5 C4 103.92(11)
C6 C5 C4 111.84(13)
C3 C4 C5 107.49(12)
loop_
_geom_bond_atom_site_label_1
_geom_bond_atom_site_label_2
_geom_bond_distance
N2 C1 1.4764(15)
N2 C7 1.2745(17)
O1 C8 1.1880(15)
C10 C1 1.5024(17)
C10 C11 1.3784(18)
C10 C15 1.3769(18)
O2 C8 1.3197(16)
O2 C9 1.4343(17)
N1 C2 1.4585(16)
N1 C7 1.3545(17)
N1 C5 1.4624(17)
N3 O4 1.2159(16)
N3 O3 1.2081(17)
N3 C13 1.4562(17)
C8 C1 1.5254(18)
C12 C13 1.3722(19)
C12 C11 1.3665(18)
C13 C14 1.364(2)
C2 C1 1.5349(17)
C2 C3 1.5176(18)
C14 C15 1.3746(19)
C3 C4 1.510(2)
C5 C6 1.499(2)
C5 C4 1.530(2)
loop_
_refln_index_h
_refln_index_k
_refln_index_l
_refln_F_squared_meas
_refln_F_squared_sigma
1 0 0 6.47 0.3
-1 0 0 6.51 0.28
-1 0 0 6.53 0.32
1 0 0 6.54 0.27
2 0 0 217.75 9.91
-2 0 0 223.62 10.34
2 0 0 218.73 8.72
-2 0 0 221.24 9.29
-3 0 0 24.78 1.08
-3 0 0 25.66 1.19
3 0 0 23.75 1
3 0 0 24.87 1.13
4 0 0 4.26 0.22
4 0 0 4.27 0.2
-4 0 0 4.37 0.24
-4 0 0 4.17 0.22
-5 0 0 10.14 0.48
-6 0 0 1.42 0.13
6 0 0 1.49 0.1
-6 0 0 1.39 0.12
-7 0 0 0.07 0.06
7 0 0 0.27 0.06
-8 0 0 0.74 0.11
8 0 0 0.92 0.1
-9 0 0 0.13 0.07
9 0 0 0.08 0.06
-9 1 0 1.46 0.15
9 -1 0 1.36 0.13
-8 1 0 0.24 0.08
8 -1 0 0.31 0.06
7 -1 0 15.35 0.66
-7 1 0 15.01 0.72
-6 1 0 2.71 0.18
6 -1 0 2.74 0.16
-5 1 0 48.47 2.13
5 -1 0 49.64 2.25
-5 1 0 51.86 2.35
5 -1 0 47.41 1.99
4 -1 0 59.33 2.68
-4 1 0 61.16 2.8
4 -1 0 57.69 2.37
-4 1 0 58.77 2.54
3 -1 0 259.2 11.49
-3 1 0 264.01 12
3 -1 0 245.32 10.13
-3 1 0 254.76 10.79
-2 1 0 42.14 1.97
-2 1 0 40.68 1.77
2 -1 0 41.21 1.89
2 -1 0 42.62 1.66
1 -1 0 0.02 0.01
1 -1 0 0.03 0.01
-1 1 0 0.02 0.01
1 1 0 233.19 10.73
-1 -1 0 237.63 10.06
-1 -1 0 236.15 11.18
1 1 0 246.63 9.44
2 1 0 49.76 1.97
2 1 0 48.21 2.23
-2 -1 0 49.46 2.1
-2 -1 0 50.13 2.34
-3 -1 0 0.68 0.06
3 1 0 0.58 0.05
-3 -1 0 0.56 0.07
3 1 0 0.65 0.04
-4 -1 0 11.79 0.55
4 1 0 12.01 0.56
-4 -1 0 12.31 0.61
4 1 0 11.99 0.51
5 1 0 15.61 0.65
-5 -1 0 15.35 0.78
-5 -1 0 15.13 0.7
-6 -1 0 5.05 0.31
-6 -1 0 4.81 0.28
6 1 0 5.3 0.26
7 1 0 0.55 0.08
-7 -1 0 0.54 0.09
-7 -1 0 0.4 0.09
-8 -1 0 0.23 0.07
8 1 0 0.06 0.05
-9 -1 0 0.73 0.12
9 1 0 0.7 0.1
-9 2 0 0.17 0.08
9 -2 0 0.15 0.06
-8 2 0 3.17 0.22
8 -2 0 2.85 0.19
7 -2 0 0.35 0.07
-7 2 0 0.26 0.07
-6 2 0 1.77 0.14
6 -2 0 1.92 0.13
6 -2 0 2 0.12
5 -2 0 85.71 3.85
-5 2 0 88.01 4
-5 2 0 83.73 3.63
5 -2 0 82.13 3.4
-4 2 0 36.22 1.61
4 -2 0 36.73 1.5
4 -2 0 36.67 1.7
-4 2 0 38.89 1.76
-3 2 0 13.45 0.61
3 -2 0 13.91 0.57
3 -2 0 13.69 0.64
2 -2 0 17.43 0.68
2 -2 0 16.51 0.77
-2 2 0 16.1 0.73
1 -2 0 26.85 1.24
1 -2 0 27.51 1.29
1 -2 0 26.82 1.09
-1 2 0 27.79 1.16
0 2 0 31.75 1.45
0 -2 0 32.18 1.52
0 -2 0 31.41 1.36
0 -2 0 32.89 1.29
-1 -2 0 0.09 0.03
1 2 0 0.14 0.02
-1 -2 0 0.13 0.02
1 2 0 0.08 0.02
-2 -2 0 8.29 0.43
-2 -2 0 8.51 0.38
2 2 0 8.33 0.39
2 2 0 8.46 0.36
3 2 0 20.63 0.97
-3 -2 0 21.68 1.05
3 2 0 21.37 0.87
-3 -2 0 21.36 0.93
4 2 0 0.04 0.03
4 2 0 0.04 0.02
-4 -2 0 -0.01 0.03
-4 -2 0 0.04 0.03
-6 -2 0 5.38 0.29
6 2 0 5.29 0.27
-6 -2 0 5.15 0.33
-7 -2 0 0.59 0.11
-7 -2 0 0.74 0.1
7 2 0 0.68 0.09
8 2 0 8.94 0.44
9 -3 0 0.03 0.05
-9 3 0 0.07 0.07
-8 3 0 3.47 0.23
8 -3 0 2.72 0.19
-7 3 0 0.17 0.06
7 -3 0 0.05 0.06
7 -3 0 0.02 0.04
6 -3 0 0.07 0.04
-6 3 0 -0.03 0.04
6 -3 0 0.12 0.04
5 -3 0 0.74 0.08
-5 3 0 0.9 0.09
5 -3 0 0.86 0.08
-4 3 0 28.86 1.27
4 -3 0 28.98 1.19
4 -3 0 29.3 1.34
-3 3 0 0.73 0.06
3 -3 0 0.57 0.05
3 -3 0 0.7 0.06
2 -3 0 5.23 0.26
-2 3 0 5.19 0.24
2 -3 0 4.91 0.23
-1 3 0 47.69 2.03
-1 3 0 46.08 2.16
1 -3 0 48.33 1.91
1 -3 0 48.67 2.25
0 -3 0 128.66 5.08
0 -3 0 127.3 6.01
0 3 0 124.16 5.75
0 -3 0 130.94 5.4
-1 -3 0 4.03 0.23
1 3 0 3.88 0.2
-1 -3 0 4.08 0.19
2 3 0 30.51 1.24
-2 -3 0 31.21 1.31
2 3 0 30.26 1.39
-2 -3 0 30.29 1.48
3 3 0 44.65 2.05
-3 -3 0 46.4 1.94
3 3 0 45.34 1.83
-3 -3 0 44.65 2.18
-4 -3 0 11.64 0.53
-4 -3 0 11.57 0.6
4 3 0 10.83 0.49
-5 -3 0 44.12 2.16
5 3 0 46.7 1.81
-5 -3 0 42.16 1.92
6 3 0 16.91 0.73
-6 -3 0 16.68 0.88
7 3 0 0.63 0.09
-7 -3 0 0.63 0.12
8 3 0 0.21 0.07
10 -4 0 4.35 0.27
9 -4 0 3.55 0.23
-9 4 0 4 0.27
-8 4 0 0.65 0.12
8 -4 0 0.47 0.08
-7 4 0 0.65 0.11
7 -4 0 0.62 0.08
7 -4 0 0.52 0.09
6 -4 0 0.79 0.08
-6 4 0 0.47 0.08
6 -4 0 0.54 0.08
5 -4 0 0.33 0.05
5 -4 0 0.33 0.06
-5 4 0 0.24 0.06
4 -4 0 25.51 1.09
-4 4 0 27.67 1.18
4 -4 0 27.01 1.25
3 -4 0 5.72 0.27
-3 4 0 5.87 0.29
3 -4 0 6.15 0.31
2 -4 0 241.32 11.12
2 -4 0 246.32 11.59
-2 4 0 242.23 10.43
2 -4 0 258.73 9.8
-1 4 0 34.31 1.49
-1 4 0 34.15 1.59
1 -4 0 35.16 1.41
1 -4 0 35.68 1.66
0 -4 0 7.18 0.33
0 -4 0 7.47 0.32
0 -4 0 7.38 0.38
0 4 0 7.11 0.35
-1 -4 0 119.47 4.88
-1 -4 0 114.07 5.45
1 4 0 112.72 5.2
-2 -4 0 3.16 0.15
2 4 0 2.97 0.16
-2 -4 0 2.86 0.2
2 4 0 2.96 0.16
3 4 0 4.28 0.22
3 4 0 4.18 0.21
-3 -4 0 4.12 0.26
-3 -4 0 4.39 0.22
-4 -4 0 0.94 0.12
4 4 0 1.1 0.09
-5 -4 0 0.8 0.13
5 4 0 0.84 0.09
-6 -4 0 0.55 0.12
6 4 0 0.96 0.1
7 4 0 0.52 0.09
-7 -4 0 0.43 0.12
10 -5 0 1.7 0.16
-9 5 0 0.34 0.11
9 -5 0 0.2 0.07
8 -5 0 0.98 0.1
-8 5 0 1.18 0.15
8 -5 0 1.25 0.13
7 -5 0 28 1.23
7 -5 0 30.27 1.41
-7 5 0 30.61 1.34
-6 5 0 31.03 1.39
6 -5 0 30.29 1.28
6 -5 0 31.85 1.47
5 -5 0 7.1 0.33
5 -5 0 6.74 0.37
4 -5 0 55.74 2.3
4 -5 0 56.47 2.62
-4 5 0 58.94 2.46
3 -5 0 4.69 0.22
3 -5 0 4.51 0.23
-3 5 0 4.56 0.23
3 -5 0 4.31 0.25
2 -5 0 20.54 1
2 -5 0 21.36 0.86
-2 5 0 20.39 0.9
-2 5 0 20.16 0.96
1 -5 0 10.08 0.52
1 -5 0 10.7 0.45
-1 5 0 9.95 0.49
-1 5 0 10.01 0.46
0 -5 0 18.26 0.91
0 -5 0 19.11 0.79
0 5 0 18.14 0.86
0 -5 0 17.85 0.77
-1 -5 0 2.75 0.19
-1 -5 0 3.02 0.14
1 5 0 2.82 0.16
-2 -5 0 1.53 0.13
2 5 0 1.41 0.1
2 5 0 1.41 0.1
-3 -5 0 1.26 0.13
3 5 0 1.49 0.1
-4 -5 0 2.83 0.22
4 5 0 2.87 0.17
-5 -5 0 1.07 0.15
5 5 0 0.96 0.09
6 5 0 0.14 0.06
-6 -5 0 0.18 0.1
-7 -5 0 2.98 0.27
-9 6 0 1.06 0.16
9 -6 0 0.99 0.11
8 -6 0 0.17 0.07
-8 6 0 0.15 0.09
8 -6 0 0.26 0.06
7 -6 0 0.01 0.05
7 -6 0 0.05 0.06
-7 6 0 0.08 0.06
6 -6 0 5.62 0.29
-6 6 0 5.88 0.32
6 -6 0 5.82 0.34
5 -6 0 6.18 0.3
5 -6 0 5.78 0.34
4 -6 0 7.59 0.36
4 -6 0 7.81 0.42
-4 6 0 7.84 0.38
-3 6 0 4.7 0.27
-3 6 0 4.97 0.25
2 -6 0 0 0.02
-2 6 0 0.01 0.02
2 -6 0 -0.02 0.04
-2 6 0 0.02 0.03
-1 6 0 13.64 0.66
0 -6 0 0.25 0.06
0 -6 0 0.3 0.06
0 6 0 0.16 0.04
1 6 0 7.94 0.41
-1 -6 0 8.38 0.45
-2 -6 0 24.43 1.2
2 6 0 24.14 1
2 6 0 22.72 1.1
3 6 0 0.57 0.08
-3 -6 0 0.64 0.11
4 6 0 8.86 0.41
-4 -6 0 8.21 0.5
-5 -6 0 4.28 0.32
5 6 0 4.62 0.25
6 6 0 -0.01 0.05
-6 -6 0 0.17 0.1
9 -7 0 0.6 0.1
-9 7 0 0.67 0.14
9 -7 0 0.62 0.12
-8 7 0 -0.04 0.08
8 -7 0 0.06 0.07
8 -7 0 0.06 0.06
7 -7 0 0.64 0.11
-7 7 0 0.46 0.1
7 -7 0 0.63 0.09
6 -7 0 0.05 0.05
6 -7 0 0.03 0.05
-6 7 0 -0.05 0.05
-5 7 0 0.11 0.06
5 -7 0 0.04 0.05
4 -7 0 0.08 0.05
-4 7 0 0.01 0.04
-4 7 0 0.05 0.05
3 -7 0 2.08 0.14
-3 7 0 1.9 0.15
-3 7 0 2.07 0.13
-2 7 0 37.36 1.75
2 -7 0 37.82 1.55
2 -7 0 37.78 1.81
1 -7 0 0.24 0.06
-1 7 0 0.23 0.06
1 -7 0 0.22 0.06
0 -7 0 10.82 0.58
0 7 0 10.68 0.54
0 -7 0 11.35 0.51
-1 -7 0 -0.01 0.05
1 7 0 0.02 0.04
2 7 0 52.16 2.13
-2 -7 0 52.19 2.54
-3 -7 0 10.96 0.62
3 7 0 11.05 0.5
-4 -7 0 4.34 0.32
4 7 0 4.47 0.25
-5 -7 0 -0.05 0.08
5 7 0 0.03 0.04
-9 8 0 1.1 0.16
-9 8 0 1.26 0.17
9 -8 0 1.22 0.13
8 -8 0 0.78 0.1
-8 8 0 0.67 0.13
-8 8 0 0.8 0.13
-7 8 0 2.11 0.18
-7 8 0 2.28 0.19
7 -8 0 1.95 0.15
-6 8 0 11.53 0.59
-6 8 0 12.45 0.62
6 -8 0 11.64 0.55
-5 8 0 13.68 0.69
5 -8 0 13.53 0.62
-4 8 0 9.86 0.53
4 -8 0 10.43 0.48
-3 8 0 29.57 1.41
3 -8 0 30.3 1.26
2 -8 0 2.14 0.15
2 -8 0 1.38 0.14
-2 8 0 1.78 0.15
-1 8 0 143.58 6.68
1 -8 0 148.73 5.92
1 -8 0 150.94 6.99
0 8 0 0.03 0.06
0 -8 0 0.08 0.06
0 -8 0 -0.03 0.06
1 8 0 2.6 0.17
-1 -8 0 2.92 0.22
-2 -8 0 0.03 0.05
2 8 0 -0.04 0.04
-3 -8 0 0.08 0.07
3 8 0 0.07 0.04
4 8 0 0.41 0.08
-4 -8 0 0.35 0.11
-9 9 0 0.06 0.11
8 -9 0 5.32 0.33
-8 9 0 6.72 0.39
-8 9 0 6.36 0.38
7 -9 0 0.21 0.08
-7 9 0 0.26 0.09
-6 9 0 0.37 0.09
6 -9 0 0.37 0.09
5 -9 0 3.43 0.22
-5 9 0 3.28 0.24
-4 9 0 1.28 0.14
4 -9 0 1.38 0.13
3 -9 0 14.46 0.65
-3 9 0 14.08 0.72
-2 9 0 0.16 0.07
2 -9 0 0.31 0.08
1 -9 0 7.19 0.41
1 -9 0 6.89 0.36
-1 9 0 6.67 0.38
0 -9 0 0.44 0.09
0 9 0 0.54 0.09
0 -9 0 0.56 0.1
-1 -9 0 0.34 0.09
1 9 0 0.28 0.07
-2 -9 0 0.52 0.12
2 9 0 0.59 0.09
3 9 0 0.17 0.06
-3 -9 0 -0.07 0.08
7 -10 0 0.84 0.13
-7 10 0 0.67 0.13
6 -10 0 3.06 0.22
-6 10 0 3.23 0.24
-5 10 0 2.82 0.22
5 -10 0 2.86 0.2
4 -10 0 1.47 0.15
-4 10 0 1.28 0.15
-3 10 0 -0.03 0.06
3 -10 0 -0.04 0.06
-2 10 0 0.89 0.12
2 -10 0 1.19 0.14
1 -10 0 0.12 0.08
-1 10 0 0.09 0.07
0 -10 0 0.03 0.06
1 10 0 0.08 0.06
-1 -10 0 0.07 0.07
6 -11 0 0.3 0.1
-5 11 0 2.26 0.2
5 -11 0 2.46 0.2
4 -11 0 0.24 0.09
-4 11 0 0.19 0.09
-3 11 0 -0.01 0.08
3 -11 0 0.02 0.08
2 -11 0 2.02 0.18
-2 11 0 1.9 0.18
1 -11 0 1.92 0.19
-2 12 -1 1.12 0.15
-3 12 -1 -0.06 0.08
-1 -11 1 0.39 0.12
0 -11 1 0.51 0.12
-1 11 -1 0.57 0.11
1 -11 1 0.69 0.13
-2 11 -1 -0.01 0.07
2 -11 1 0.16 0.09
3 -11 1 0.4 0.1
-3 11 -1 0.55 0.11
4 -11 1 0.28 0.09
-4 11 -1 0.2 0.09
-5 11 -1 1.25 0.15
5 -11 1 1.4 0.16
6 -11 1 0.8 0.13
-6 11 -1 0.72 0.13
-2 -10 1 0.07 0.08
2 10 -1 0.02 0.05
-1 -10 1 0.18 0.08
1 10 -1 0.15 0.06
0 -10 1 5.35 0.32
0 10 -1 5.29 0.32
0 -10 1 5.59 0.36
1 -10 1 0.16 0.08
-1 10 -1 0.01 0.06
-2 10 -1 1.94 0.17
2 -10 1 2.07 0.17
-3 10 -1 0.65 0.11
3 -10 1 0.78 0.12
-4 10 -1 1.47 0.15
4 -10 1 1.7 0.15
-5 10 -1 7.45 0.44
5 -10 1 7.9 0.41
-6 10 -1 2.37 0.2
6 -10 1 2.31 0.18
-7 10 -1 0.32 0.1
7 -10 1 0.3 0.09
-8 10 -1 0.17 0.1
-3 -9 1 6.91 0.46
3 9 -1 7.29 0.37
-2 -9 1 1.79 0.18
2 9 -1 1.81 0.14
-1 -9 1 1.09 0.14
1 9 -1 1.06 0.1
0 -9 1 16.12 0.72
0 9 -1 15.31 0.77
0 -9 1 15.65 0.83
1 -9 1 2.73 0.2
1 -9 1 2.67 0.19
-1 9 -1 2.52 0.19
-2 9 -1 5.11 0.31
2 -9 1 5.42 0.29
3 -9 1 -0.04 0.06
-3 9 -1 0.05 0.06
-4 9 -1 0.14 0.07
4 -9 1 0.12 0.06
-5 9 -1 1.01 0.12
5 -9 1 1.04 0.12
-6 9 -1 0.78 0.12
6 -9 1 0.95 0.12
-7 9 -1 0.94 0.13
7 -9 1 0.83 0.11
-8 9 -1 0.09 0.08
8 -9 1 0.1 0.07
-8 9 -1 -0.07 0.09
-9 9 -1 4.47 0.32
-9 9 -1 4.32 0.32
-4 -8 1 0.06 0.08
4 8 -1 -0.01 0.06
3 8 -1 7.52 0.36
-3 -8 1 6.98 0.45
2 8 -1 0.11 0.05
-2 -8 1 0.11 0.06
1 8 -1 1 0.11
-1 -8 1 0.99 0.12
0 -8 1 5.66 0.34
0 8 -1 5.43 0.32
0 -8 1 5.98 0.31
1 -8 1 23.64 1.01
-1 8 -1 23.56 1.13
1 -8 1 24.18 1.19
2 -8 1 26.64 1.31
2 -8 1 27.02 1.14
-2 8 -1 26.79 1.27
3 -8 1 0.25 0.07
-3 8 -1 0.27 0.07
4 -8 1 8.69 0.42
-4 8 -1 8.72 0.46
-5 8 -1 0.1 0.06
-5 8 -1 0.21 0.07
5 -8 1 0.21 0.07
-6 8 -1 1.13 0.13
-6 8 -1 1.36 0.13
6 -8 1 1.07 0.11
-7 8 -1 0.24 0.08
7 -8 1 0.17 0.06
-7 8 -1 0.12 0.08
-8 8 -1 0.98 0.15
8 -8 1 0.85 0.11
-8 8 -1 1.08 0.13
9 -8 1 0.09 0.07
-9 8 -1 0.01 0.1
5 7 -1 0.07 0.06
-5 -7 1 0.02 0.09
-4 -7 1 1.54 0.17
4 7 -1 1.64 0.13
3 7 -1 0.56 0.08
-3 -7 1 0.78 0.12
2 7 -1 16.94 0.72
2 7 -1 16.38 0.79
-2 -7 1 16.32 0.86
1 7 -1 9.04 0.47
-1 -7 1 9.53 0.44
-1 -7 1 9.46 0.52
0 -7 1 1.69 0.14
0 -7 1 1.78 0.13
0 7 -1 1.75 0.13
1 -7 1 1.13 0.1
1 -7 1 1.06 0.1
-1 7 -1 1.06 0.1
-2 7 -1 2.59 0.18
2 -7 1 2.91 0.18
2 -7 1 2.91 0.17
3 -7 1 1.9 0.14
-3 7 -1 2.2 0.15
-3 7 -1 2.07 0.13
-4 7 -1 15.58 0.71
4 -7 1 15.28 0.68
-4 7 -1 15.64 0.76
5 -7 1 61.59 2.55
5 -7 1 61.33 2.55
-5 7 -1 65.53 2.89
-6 7 -1 2.15 0.17
-6 7 -1 2.4 0.17
6 -7 1 2.04 0.15
7 -7 1 0.17 0.06
-7 7 -1 0.05 0.06
-7 7 -1 0.23 0.08
-8 7 -1 0.16 0.08
8 -7 1 0.14 0.07
-8 7 -1 0.09 0.08
9 -7 1 0.41 0.09
-9 7 -1 0.74 0.14
-6 -6 1 2.22 0.23
6 6 -1 2.52 0.17
5 6 -1 0.07 0.05
-5 -6 1 0.03 0.08
4 6 -1 6.79 0.34
-4 -6 1 7.18 0.43
-3 -6 1 19.21 1.02
3 6 -1 20.51 0.84
2 6 -1 0.53 0.06
2 6 -1 0.48 0.06
-2 -6 1 0.57 0.09
1 6 -1 53.25 2.44
-1 -6 1 53.85 2.57
-1 -6 1 53.01 2.17
0 -6 1 1.78 0.13
0 -6 1 2.39 0.16
0 6 -1 2.49 0.15
1 -6 1 70.78 2.81
-1 6 -1 68.97 3.18
1 -6 1 69.85 3.32
-2 6 -1 24.92 1.19
2 -6 1 25.62 1.06
-2 6 -1 25.73 1.11
2 -6 1 25.9 1.24
3 -6 1 4.47 0.23
-4 6 -1 1.62 0.12
-4 6 -1 1.61 0.12
4 -6 1 1.57 0.11
5 -6 1 1.77 0.13
-6 6 -1 45.06 1.91
6 -6 1 41.55 1.77
-7 6 -1 0.4 0.09
7 -6 1 0.33 0.07
7 -6 1 0.25 0.08
-8 6 -1 -0.03 0.07
8 -6 1 0.03 0.05
-9 6 -1 0.44 0.12
9 -6 1 0.43 0.08
7 5 -1 2.21 0.16
-7 -5 1 2.04 0.22
-6 -5 1 2.1 0.21
6 5 -1 2.2 0.16
-5 -5 1 0.09 0.08
5 5 -1 0.15 0.05
4 5 -1 1.08 0.09
-4 -5 1 1.1 0.13
-3 -5 1 7.04 0.41
3 5 -1 7.11 0.33
3 5 -1 6.84 0.35
-2 -5 1 5.13 0.31
2 5 -1 5.27 0.25
2 5 -1 5.47 0.27
1 5 -1 0.55 0.06
-1 -5 1 0.41 0.07
-1 -5 1 0.48 0.06
0 -5 1 0.22 0.05
0 -5 1 0.25 0.05
0 5 -1 0.2 0.04
1 -5 1 0.1 0.04
-1 5 -1 0.06 0.03
1 -5 1 0.07 0.04
-1 5 -1 0.07 0.02
2 -5 1 63.87 2.56
2 -5 1 64.67 3.01
-2 5 -1 63.57 2.9
-2 5 -1 62.66 2.71
-3 5 -1 45.06 1.93
-3 5 -1 44.14 2.06
3 -5 1 45.57 1.82
-4 5 -1 5.64 0.28
4 -5 1 5.32 0.26
5 -5 1 1.17 0.09
5 -5 1 0.64 0.09
6 -5 1 4.25 0.23
-6 5 -1 4.6 0.27
6 -5 1 4.67 0.27
-7 5 -1 10.88 0.54
7 -5 1 9.91 0.48
7 -5 1 10.91 0.55
8 -5 1 2.22 0.16
-8 5 -1 2.14 0.19
9 -5 1 0.49 0.09
-9 5 -1 0.37 0.11
-8 -4 1 1.3 0.19
-7 -4 1 0.26 0.1
7 4 -1 0.29 0.07
-6 -4 1 7.53 0.46
6 4 -1 7.85 0.38
5 4 -1 23.63 0.98
-5 -4 1 22.71 1.18
-4 -4 1 0.3 0.08
4 4 -1 0.25 0.05
3 4 -1 0.29 0.04
-3 -4 1 0.32 0.04
-3 -4 1 0.24 0.06
3 4 -1 0.2 0.04
-2 -4 1 1.29 0.12
-2 -4 1 1.5 0.08
2 4 -1 1.37 0.09
2 4 -1 1.44 0.09
-1 -4 1 3.66 0.19
-1 -4 1 3.91 0.23
1 4 -1 3.83 0.2
0 4 -1 8.48 0.42
0 -4 1 9.19 0.45
0 -4 1 8.39 0.38
-1 4 -1 16.62 0.78
1 -4 1 16.6 0.69
-1 4 -1 16.69 0.72
1 -4 1 16.86 0.81
2 -4 1 0.6 0.06
2 -4 1 0.48 0.05
-2 4 -1 0.62 0.06
-2 4 -1 0.54 0.05
-3 4 -1 40.06 1.66
3 -4 1 37.18 1.56
4 -4 1 0.22 0.04
4 -4 1 0.21 0.05
-4 4 -1 0.2 0.05
-5 4 -1 6.03 0.34
5 -4 1 6.83 0.31
5 -4 1 7.1 0.35
6 -4 1 1.68 0.12
-6 4 -1 1.65 0.14
6 -4 1 1.58 0.13
-7 4 -1 0.2 0.08
7 -4 1 0.34 0.06
7 -4 1 0.2 0.06
-8 4 -1 0.28 0.09
8 -4 1 0.32 0.07
9 -4 1 0.2 0.07
-9 4 -1 0.24 0.09
8 3 -1 3.46 0.22
-7 -3 1 0.08 0.08
7 3 -1 0.24 0.06
-6 -3 1 -0.01 0.06
6 3 -1 0.05 0.05
-5 -3 1 25.17 1.14
-5 -3 1 26.49 1.29
5 3 -1 26.04 1.08
-4 -3 1 2.81 0.15
4 3 -1 2.66 0.15
4 3 -1 2.69 0.15
-4 -3 1 2.58 0.19
3 3 -1 11.73 0.54
-3 -3 1 11.43 0.59
3 3 -1 11.25 0.48
-3 -3 1 10.94 0.51
2 3 -1 10.17 0.43
2 3 -1 10.26 0.48
-2 -3 1 10.12 0.45
-2 -3 1 10.34 0.53
-1 -3 1 0.92 0.08
1 3 -1 0.78 0.06
-1 -3 1 0.83 0.06
0 3 -1 2.97 0.16
0 -3 1 3.21 0.17
0 -3 1 3.06 0.15
1 -3 1 14.91 0.65
-1 3 -1 15.67 0.69
1 -3 1 16.71 0.77
-1 3 -1 16.56 0.74
2 -3 1 34.07 1.56
2 -3 1 31.83 1.33
-2 3 -1 32.89 1.42
-2 3 -1 33.57 1.51
3 -3 1 1.13 0.08
-3 3 -1 1.17 0.09
3 -3 1 1.44 0.09
4 -3 1 5.5 0.26
4 -3 1 5.77 0.29
-4 3 -1 5.43 0.28
5 -3 1 1.66 0.11
6 -3 1 2.15 0.15
-6 3 -1 2.14 0.16
6 -3 1 1.91 0.13
-7 3 -1 0.23 0.07
7 -3 1 0.26 0.06
8 -3 1 0.12 0.05
-8 3 -1 0.07 0.06
9 -3 1 0.09 0.06
-9 3 -1 0.07 0.07
8 2 -1 0.81 0.1
-7 -2 1 0.65 0.09
-7 -2 1 0.51 0.11
7 2 -1 0.71 0.09
-6 -2 1 1.74 0.16
-6 -2 1 1.7 0.13
6 2 -1 1.64 0.12
-5 -2 1 2.91 0.17
5 2 -1 2.88 0.16
-5 -2 1 2.72 0.2
4 2 -1 6.18 0.29
-4 -2 1 6.53 0.31
4 2 -1 6.73 0.32
-4 -2 1 6.44 0.36
3 2 -1 1.21 0.08
-3 -2 1 1.18 0.1
3 2 -1 1.14 0.07
-3 -2 1 1.2 0.08
-2 -2 1 78.1 3.35
2 2 -1 79.03 3.15
-2 -2 1 80.24 3.74
2 2 -1 79.31 3.57
-1 -2 1 145.03 6.21
1 2 -1 148.45 6.61
-1 -2 1 147.28 6.91
0 2 -1 1.63 0.09
0 -2 1 1.41 0.08
0 -2 1 1.89 0.1
-1 2 -1 1.24 0.07
1 -2 1 1.41 0.08
-1 2 -1 1.53 0.08
-2 2 -1 120.68 5.17
2 -2 1 120.01 4.85
2 -2 1 126.12 5.51
3 -2 1 207.18 9.26
3 -2 1 206.72 8.16
-3 2 -1 203.82 8.69
4 -2 1 41.02 1.85
-4 2 -1 40.34 1.76
4 -2 1 38.46 1.64
-4 2 -1 42.76 1.93
5 -2 1 1.61 0.11
5 -2 1 1.39 0.1
6 -2 1 0.19 0.04
-6 2 -1 0.16 0.05
7 -2 1 0.25 0.06
-7 2 -1 0.37 0.08
8 -2 1 0.97 0.11
-8 2 -1 1.26 0.13
9 -2 1 0 0.05
-9 2 -1 0.12 0.08
-9 -1 1 1.71 0.16
9 1 -1 1.53 0.14
8 1 -1 0.11 0.05
-8 -1 1 0.09 0.06
7 1 -1 13.76 0.61
-7 -1 1 13.53 0.66
-6 -1 1 0.18 0.06
-6 -1 1 0.17 0.05
6 1 -1 0.11 0.04
-5 -1 1 5.17 0.3
5 1 -1 5.14 0.26
-5 -1 1 5.03 0.27
5 1 -1 5.13 0.24
4 1 -1 4.21 0.2
-4 -1 1 4.53 0.25
4 1 -1 4.42 0.22
-4 -1 1 4.14 0.22
-3 -1 1 0.79 0.06
3 1 -1 0.88 0.06
3 1 -1 0.84 0.06
-3 -1 1 0.88 0.08
2 1 -1 13.11 0.61
-2 -1 1 13.16 0.64
-2 -1 1 13.02 0.57
2 1 -1 13.37 0.54
-1 -1 1 101.03 4.7
1 1 -1 95.35 4.5
1 1 -1 106.1 3.97
-1 -1 1 97.55 4.23
0 1 -1 276.42 11.66
0 1 -1 284.33 12.28
0 -1 1 250.62 10.82
0 -1 1 279.49 12.82
1 -1 1 67.05 3.07
-1 1 -1 63.27 2.93
1 -1 1 67.18 2.59
-1 1 -1 62.72 2.75
-2 1 -1 126.84 5.58
2 -1 1 132.37 5.23
-2 1 -1 136.72 6.2
2 -1 1 131.9 5.94
-3 1 -1 39.62 1.76
3 -1 1 41.42 1.85
-3 1 -1 41.95 1.94
3 -1 1 40.74 1.64
4 -1 1 28.05 1.26
-4 1 -1 28.65 1.32
-4 1 -1 26.37 1.2
4 -1 1 26.82 1.12
5 -1 1 0.59 0.06
-5 1 -1 0.74 0.08
5 -1 1 0.73 0.06
-5 1 -1 0.34 0.06
6 -1 1 0.68 0.07
-6 1 -1 0.57 0.09
-6 1 -1 0.83 0.09
-7 1 -1 2.2 0.17
7 -1 1 2.15 0.15
-8 1 -1 1.97 0.17
8 -1 1 2.11 0.15
-9 1 -1 0.06 0.07
9 -1 1 0.19 0.07
-9 0 1 0.65 0.12
9 0 -1 0.58 0.09
8 0 -1 0.8 0.09
-8 0 1 0.75 0.11
-7 0 1 8.58 0.45
7 0 -1 8.73 0.4
6 0 -1 6.97 0.35
-6 0 1 6.56 0.38
-6 0 1 6.9 0.36
6 0 -1 7 0.32
5 0 -1 -0.01 0.03
-5 0 1 -0.01 0.04
-5 0 1 0.05 0.04
5 0 -1 0.06 0.03
-4 0 1 159.29 6.78
4 0 -1 159.04 6.36
4 0 -1 157.32 7.21
-4 0 1 165.08 7.53
3 0 -1 8.48 0.36
-3 0 1 8.46 0.39
3 0 -1 8.27 0.4
-3 0 1 8.76 0.43
2 0 -1 259.17 10.19
-2 0 1 270.94 12.08
-2 0 1 258.58 10.86
2 0 -1 241.18 11.56
-1 0 1 8.74 0.4
1 0 -1 8.23 0.34
-1 0 1 7.92 0.36
0 0 -1 32.83 1.5
0 0 1 33.32 1.33
0 0 -1 32.92 1.4
1 0 1 933.5 37.8
-1 0 -1 933.54 40.25
-1 0 -1 1000 44.81
2 0 1 8.39 0.35
-2 0 -1 8.29 0.38
-2 0 -1 8.47 0.42
3 0 1 34.55 1.54
-3 0 -1 34.46 1.62
3 0 1 33.5 1.37
-3 0 -1 33.3 1.46
-4 0 -1 0.11 0.04
-4 0 -1 0.09 0.04
4 0 1 0.12 0.03
-5 0 -1 -0.01 0.04
-5 0 -1 0.04 0.03
5 0 1 0.03 0.03
-6 0 -1 10.58 0.52
-7 0 -1 11.86 0.61
7 0 1 13.12 0.57
-8 0 -1 2.75 0.2
8 0 1 2.79 0.18
-9 0 -1 0.03 0.06
9 0 1 0.09 0.06
-9 1 1 1.35 0.15
9 -1 -1 1.36 0.13
-8 1 1 8.79 0.47
8 -1 -1 8.73 0.42
7 -1 -1 0.05 0.04
-7 1 1 0 0.05
-6 1 1 0.14 0.05
6 -1 -1 0.19 0.04
6 -1 -1 0.15 0.04
5 -1 -1 3.78 0.19
-5 1 1 3.77 0.21
5 -1 -1 3.74 0.2
-5 1 1 3.55 0.21
-4 1 1 14.62 0.67
4 -1 -1 15.27 0.62
4 -1 -1 14.49 0.7
-4 1 1 15.1 0.72
3 -1 -1 31.46 1.56
3 -1 -1 35.53 1.38
-3 1 1 35.91 1.62
-3 1 1 34.21 1.48
-2 1 1 39.56 1.77
2 -1 -1 42.42 1.65
-2 1 1 42.29 1.96
-1 1 1 456.31 20.09
-1 1 1 407.45 17.98
1 -1 -1 437.71 16.91
1 -1 -1 405.71 19.17
0 -1 -1 13.7 0.61
0 -1 -1 14.85 0.57
0 -1 -1 13.35 0.68
0 -1 -1 14.51 0.64
-1 -1 -1 170.69 7.15
1 1 1 172.45 6.71
-1 -1 -1 165.29 7.96
-2 -1 -1 0.71 0.07
2 1 1 0.73 0.05
-2 -1 -1 0.91 0.06
-3 -1 -1 40.09 1.71
3 1 1 38.68 1.6
-3 -1 -1 40.71 1.91
-4 -1 -1 49.47 2.3
4 1 1 47.67 1.93
-4 -1 -1 46.54 2.06
5 1 1 2.89 0.16
-5 -1 -1 2.57 0.17
-6 -1 -1 4.03 0.26
-6 -1 -1 3.62 0.22
6 1 1 3.64 0.21
7 1 1 0.65 0.09
-7 -1 -1 0.67 0.1
-7 -1 -1 0.51 0.11
-8 -1 -1 0.03 0.06
8 1 1 0.05 0.05
-9 -1 -1 0.14 0.08
10 -2 -1 0.75 0.11
9 -2 -1 0.06 0.05
-9 2 1 0.24 0.08
-8 2 1 0.29 0.07
8 -2 -1 0.2 0.06
7 -2 -1 31.82 1.47
-7 2 1 32.06 1.42
7 -2 -1 30.69 1.31
6 -2 -1 0.04 0.03
6 -2 -1 0.06 0.03
-6 2 1 0.05 0.04
-5 2 1 38.22 1.76
5 -2 -1 36.01 1.5
5 -2 -1 37.55 1.7
-5 2 1 36.35 1.62
4 -2 -1 177.85 6.83
4 -2 -1 163.43 7.75
-4 2 1 174.97 7.29
3 -2 -1 1.21 0.07
-3 2 1 1.05 0.08
3 -2 -1 0.96 0.07
2 -2 -1 167.88 7.81
-2 2 1 169.75 7.33
2 -2 -1 183.18 6.88
1 -2 -1 243.01 9.35
1 -2 -1 227.62 10.61
1 -2 -1 237.94 11.08
0 -2 -1 36.57 1.58
0 -2 -1 33.94 1.48
0 -2 -1 32.93 1.65
0 -2 -1 35.83 1.4
-1 -2 -1 6.49 0.34
1 2 1 6.87 0.28
1 2 1 6.42 0.31
-1 -2 -1 6.57 0.3
2 2 1 10.68 0.51
-2 -2 -1 10.92 0.49
2 2 1 11.56 0.46
-2 -2 -1 10.74 0.56
-3 -2 -1 10.7 0.48
3 2 1 9.99 0.48
-3 -2 -1 10.82 0.55
3 2 1 10.63 0.45
5 2 1 10.49 0.46
-5 -2 -1 10.02 0.49
-5 -2 -1 10.25 0.56
-6 -2 -1 6.49 0.39
-6 -2 -1 6.5 0.34
6 2 1 6.2 0.32
-7 -2 -1 0.31 0.07
-7 -2 -1 0.36 0.1
7 2 1 0.23 0.06
8 2 1 0.34 0.08
10 -3 -1 1.17 0.13
9 -3 -1 3.56 0.23
-9 3 1 4.08 0.27
-8 3 1 1.03 0.13
8 -3 -1 1.04 0.1
7 -3 -1 0.05 0.05
7 -3 -1 0.01 0.04
-7 3 1 0.01 0.05
-6 3 1 11.81 0.57
-5 3 1 3.06 0.2
5 -3 -1 3.56 0.21
5 -3 -1 3.77 0.18
4 -3 -1 23.91 0.97
4 -3 -1 23.73 1.11
-4 3 1 23.57 1.05
3 -3 -1 7.2 0.37
3 -3 -1 7.85 0.33
-3 3 1 7.52 0.36
2 -3 -1 4.03 0.21
-2 3 1 3.8 0.2
2 -3 -1 4.22 0.19
2 -3 -1 4.08 0.2
1 -3 -1 0.35 0.04
1 -3 -1 0.38 0.03
1 -3 -1 0.31 0.04
1 -3 -1 0.28 0.04
0 -3 -1 31.35 1.23
0 3 1 29.06 1.38
0 -3 -1 30.43 1.45
0 -3 -1 29.9 1.29
-1 -3 -1 262.6 12.6
-1 -3 -1 276.9 11.31
1 3 1 271.95 10.63
1 3 1 261.72 12.05
2 3 1 10.76 0.45
-2 -3 -1 10.44 0.48
2 3 1 10.42 0.49
-2 -3 -1 10.64 0.55
3 3 1 0.76 0.07
-3 -3 -1 1.14 0.08
-3 -3 -1 0.48 0.08
-4 -3 -1 5.93 0.3
4 3 1 5.91 0.28
-4 -3 -1 5.79 0.35
-5 -3 -1 3.74 0.26
-5 -3 -1 3.68 0.22
5 3 1 3.75 0.21
-6 -3 -1 9.19 0.54
6 3 1 9.65 0.44
-7 -3 -1 0.08 0.08
7 3 1 0.14 0.06
10 -4 -1 2.4 0.18
-9 4 1 1.44 0.15
9 -4 -1 1.38 0.13
8 -4 -1 1.01 0.12
8 -4 -1 0.82 0.09
-8 4 1 0.77 0.13
7 -4 -1 22.66 1.08
7 -4 -1 22.44 0.94
-7 4 1 22.01 1.03
6 -4 -1 25.66 1.06
-6 4 1 24.44 1.15
6 -4 -1 26.61 1.22
-5 4 1 0.03 0.04
5 -4 -1 0.09 0.04
5 -4 -1 0.05 0.03
4 -4 -1 0.16 0.04
-4 4 1 0.15 0.04
4 -4 -1 0.12 0.04
3 -4 -1 6.42 0.34
-3 4 1 6.62 0.32
3 -4 -1 6.61 0.3
2 -4 -1 77.17 2.95
2 -4 -1 70.46 3.35
2 -4 -1 74.58 3.48
-2 4 1 73.06 3.14
1 -4 -1 0.45 0.05
1 -4 -1 0.47 0.06
0 -4 -1 7.41 0.33
0 -4 -1 7.26 0.38
0 -4 -1 7.41 0.33
0 4 1 6.91 0.35
1 4 1 0.04 0.02
1 4 1 0.06 0.03
-1 -4 -1 0.08 0.03
-1 -4 -1 0.04 0.04
-3 -4 -1 2.99 0.21
3 4 1 2.92 0.17
-3 -4 -1 3.1 0.17
4 4 1 0.64 0.08
-4 -4 -1 0.72 0.11
5 4 1 0.47 0.08
-5 -4 -1 0.56 0.11
-6 -4 -1 -0.01 0.08
6 4 1 0.06 0.05
-7 -4 -1 1.34 0.19
7 4 1 1.71 0.14
10 -5 -1 0.12 0.07
9 -5 -1 2.95 0.2
-9 5 1 3.39 0.25
8 -5 -1 1.75 0.13
-8 5 1 1.78 0.17
8 -5 -1 1.65 0.16
-7 5 1 0.66 0.11
7 -5 -1 0.53 0.08
7 -5 -1 0.59 0.1
6 -5 -1 59.77 2.73
-6 5 1 59.42 2.57
6 -5 -1 58.6 2.4
5 -5 -1 5.2 0.26
5 -5 -1 5.29 0.3
-4 5 1 6.91 0.35
4 -5 -1 7.08 0.32
-3 5 1 20.73 0.94
3 -5 -1 21.62 1.01
3 -5 -1 21.35 0.88
3 -5 -1 20.81 1
-2 5 1 12.85 0.59
2 -5 -1 12.82 0.64
2 -5 -1 13.71 0.56
2 -5 -1 13.13 0.65
1 -5 -1 0.04 0.03
1 -5 -1 0.05 0.04
-1 5 1 0.04 0.03
-1 5 1 0.03 0.03
0 -5 -1 1.5 0.09
0 -5 -1 1.35 0.12
0 5 1 1.51 0.1
0 -5 -1 1.57 0.11
1 5 1 0.45 0.06
1 5 1 0.71 0.06
-1 -5 -1 0.52 0.08
-1 -5 -1 0.76 0.06
-2 -5 -1 0.58 0.09
2 5 1 0.71 0.07
3 5 1 0.06 0.04
-3 -5 -1 0.07 0.06
4 5 1 0.09 0.05
-4 -5 -1 0.02 0.07
5 5 1 0.75 0.09
-5 -5 -1 0.8 0.14
6 5 1 1.42 0.13
-6 -5 -1 1.45 0.19
10 -6 -1 2.59 0.19
-9 6 1 1.18 0.16
9 -6 -1 0.92 0.14
9 -6 -1 0.91 0.11
8 -6 -1 0.2 0.07
-8 6 1 0.03 0.08
8 -6 -1 0.13 0.06
-7 6 1 4.73 0.28
7 -6 -1 4.09 0.24
7 -6 -1 4.51 0.29
-6 6 1 1.38 0.13
6 -6 -1 1.4 0.14
6 -6 -1 1.5 0.12
5 -6 -1 3.7 0.24
5 -6 -1 3.65 0.2
4 -6 -1 5.88 0.33
4 -6 -1 6.1 0.29
-4 6 1 5.58 0.31
3 -6 -1 9.43 0.48
-3 6 1 9.3 0.45
-2 6 1 0.23 0.05
-2 6 1 0.36 0.05
2 -6 -1 0.37 0.06
2 -6 -1 0.42 0.06
-1 6 1 0.05 0.03
1 -6 -1 0.03 0.04
1 -6 -1 0.04 0.03
-1 6 1 0.02 0.04
0 6 1 4.58 0.25
0 -6 -1 4.6 0.25
0 -6 -1 4.93 0.28
-1 -6 -1 12.27 0.64
1 6 1 11.71 0.53
1 6 1 11.88 0.58
-2 -6 -1 18.18 0.94
2 6 1 18.14 0.78
-3 -6 -1 0.24 0.08
3 6 1 0.16 0.06
-4 -6 -1 0 0.07
4 6 1 0 0.05
5 6 1 1.13 0.11
-5 -6 -1 1.38 0.18
-9 7 1 0.05 0.09
9 -7 -1 0.05 0.08
9 -7 -1 0.12 0.06
8 -7 -1 11.52 0.61
8 -7 -1 10.1 0.51
-8 7 1 11.29 0.58
7 -7 -1 0.05 0.05
-7 7 1 -0.01 0.07
7 -7 -1 0.06 0.06
-6 7 1 1.17 0.13
6 -7 -1 0.94 0.1
6 -7 -1 0.98 0.12
5 -7 -1 5.02 0.26
5 -7 -1 4.38 0.29
4 -7 -1 -0.01 0.05
-4 7 1 0.05 0.05
-3 7 1 3.75 0.23
-3 7 1 3.78 0.22
3 -7 -1 3.93 0.22
2 -7 -1 5.85 0.29
2 -7 -1 5.79 0.33
-2 7 1 5.7 0.32
-1 7 1 19.81 0.97
1 -7 -1 20.47 0.88
1 -7 -1 21.19 1.03
0 -7 -1 14.83 0.77
0 7 1 14.61 0.72
0 -7 -1 15.07 0.66
-1 -7 -1 0.44 0.09
1 7 1 0.4 0.06
-2 -7 -1 0.06 0.07
2 7 1 0.09 0.05
-3 -7 -1 3.33 0.26
3 7 1 3.55 0.21
-4 -7 -1 -0.01 0.07
4 7 1 0.03 0.05
9 -8 -1 0.07 0.09
-9 8 1 0 0.09
9 -8 -1 0.12 0.07
-8 8 1 0.29 0.1
8 -8 -1 0.44 0.11
8 -8 -1 0.42 0.08
7 -8 -1 0.77 0.1
7 -8 -1 0.91 0.13
-7 8 1 0.83 0.13
6 -8 -1 2.35 0.16
-6 8 1 2.01 0.17
5 -8 -1 27.75 1.16
-5 8 1 26.61 1.23
-5 8 1 27.75 1.31
-4 8 1 0.02 0.06
4 -8 -1 -0.02 0.05
3 -8 -1 20.04 0.87
-3 8 1 19.8 0.97
2 -8 -1 2.92 0.19
-2 8 1 2.81 0.2
2 -8 -1 3.45 0.21
1 -8 -1 9.42 0.45
1 -8 -1 9.71 0.52
-1 8 1 9.04 0.48
0 -8 -1 12.48 0.58
0 8 1 12.33 0.62
0 -8 -1 12.54 0.67
-1 -8 -1 13.07 0.7
1 8 1 12.41 0.58
2 8 1 0.56 0.09
-2 -8 -1 0.49 0.11
-3 -8 -1 0.76 0.13
3 8 1 0.58 0.1
-8 9 1 4.79 0.31
8 -9 -1 3.83 0.26
-8 9 1 4.31 0.3
7 -9 -1 0.08 0.07
-7 9 1 0.06 0.08
-6 9 1 0.28 0.09
6 -9 -1 0.34 0.08
-5 9 1 0.84 0.13
5 -9 -1 0.95 0.12
4 -9 -1 2.98 0.2
-4 9 1 2.77 0.21
-3 9 1 12.66 0.65
3 -9 -1 12.47 0.59
-2 9 1 24.73 1.21
2 -9 -1 25.98 1.1
1 -9 -1 1.42 0.14
-1 9 1 1.52 0.14
1 -9 -1 1.54 0.15
0 -9 -1 0.11 0.07
1 9 1 1.45 0.13
-1 -9 -1 1.63 0.17
-2 -9 -1 0.77 0.13
2 9 1 0.63 0.1
-7 10 1 0.88 0.15
7 -10 -1 0.72 0.12
-6 10 1 0.76 0.14
6 -10 -1 0.72 0.12
5 -10 -1 1.24 0.14
-5 10 1 1.42 0.16
4 -10 -1 1.8 0.16
-4 10 1 1.58 0.17
-3 10 1 0.71 0.12
3 -10 -1 0.76 0.12
-2 10 1 7.69 0.44
2 -10 -1 8.16 0.42
1 -10 -1 0.21 0.09
0 10 1 1.75 0.15
0 -10 -1 1.73 0.18
-1 -10 -1 0.01 0.08
1 10 1 0.08 0.06
6 -11 -1 -0.03 0.08
-5 11 1 0.94 0.15
5 -11 -1 1.13 0.15
-4 11 1 0.02 0.09
4 -11 -1 0.04 0.09
-3 11 1 0.42 0.11
3 -11 -1 0.52 0.12
2 -11 -1 0.44 0.12
-2 11 1 0.4 0.11
-1 12 -2 0.11 0.08
-2 12 -2 1.76 0.18
-3 12 -2 0.87 0.13
-1 -11 2 0.09 0.09
0 -11 2 0.81 0.14
0 11 -2 0.59 0.11
0 -11 2 0.53 0.12
1 -11 2 1.37 0.16
-1 11 -2 1.33 0.14
-2 11 -2 0.09 0.07
2 -11 2 0.16 0.09
3 -11 2 0.45 0.1
-3 11 -2 0.35 0.09
-4 11 -2 0.63 0.11
4 -11 2 0.64 0.12
-5 11 -2 0.56 0.11
5 -11 2 0.73 0.13
-6 11 -2 1.83 0.17
6 -11 2 1.83 0.17
-2 -10 2 0.79 0.14
2 10 -2 0.82 0.1
-1 -10 2 -0.06 0.06
1 10 -2 0.01 0.04
0 -10 2 14.92 0.8
0 10 -2 14.27 0.74
0 -10 2 15.33 0.69
1 -10 2 17.61 0.92
1 -10 2 18.1 0.81
-1 10 -2 17.75 0.88
-2 10 -2 0.23 0.08
2 -10 2 0.19 0.08
-3 10 -2 4.16 0.27
3 -10 2 4.12 0.25
-4 10 -2 0.75 0.11
4 -10 2 0.92 0.12
5 -10 2 0.47 0.1
-5 10 -2 0.48 0.09
6 -10 2 0.14 0.07
-6 10 -2 0.18 0.07
7 -10 2 0.43 0.1
-7 10 -2 0.29 0.09
-8 10 -2 1.38 0.16
-3 -9 2 0.04 0.08
3 9 -2 0 0.04
-2 -9 2 6.21 0.4
2 9 -2 6.13 0.32
1 9 -2 3.29 0.22
-1 -9 2 3.66 0.26
0 -9 2 1.01 0.13
0 9 -2 0.86 0.11
0 -9 2 1 0.12
1 -9 2 11.64 0.55
-1 9 -2 11.69 0.6
1 -9 2 12.09 0.63
2 -9 2 1.22 0.12
-2 9 -2 1.09 0.12
-3 9 -2 15.24 0.76
3 -9 2 15.35 0.69
4 -9 2 0.04 0.05
-4 9 -2 0.08 0.05
-5 9 -2 1.28 0.13
5 -9 2 1.31 0.13
-6 9 -2 0.06 0.06
6 -9 2 0.01 0.06
-7 9 -2 2.09 0.18
7 -9 2 1.88 0.16
-8 9 -2 0.64 0.14
-8 9 -2 0.57 0.12
8 -9 2 0.49 0.1
-9 9 -2 -0.01 0.1
5 8 -2 0.46 0.09
-4 -8 2 3.4 0.27
4 8 -2 3.48 0.21
3 8 -2 0.28 0.06
-3 -8 2 0.24 0.09
2 8 -2 1.38 0.12
2 8 -2 1.43 0.11
-2 -8 2 1.51 0.15
-1 -8 2 0.21 0.08
-1 -8 2 0.2 0.07
1 8 -2 0.2 0.06
0 8 -2 4.33 0.26
0 -8 2 4.72 0.26
0 -8 2 4.79 0.29
-1 8 -2 7.32 0.4
1 -8 2 8.07 0.38
1 -8 2 7.76 0.43
2 -8 2 1.86 0.14
2 -8 2 1.94 0.14
-2 8 -2 1.78 0.14
-3 8 -2 1.07 0.11
3 -8 2 1.21 0.11
4 -8 2 1.13 0.11
-4 8 -2 1.1 0.11
-5 8 -2 10.45 0.5
5 -8 2 9.61 0.48
-5 8 -2 10.46 0.53
-6 8 -2 1.05 0.13
-6 8 -2 1.06 0.12
6 -8 2 1.04 0.12
-7 8 -2 1.33 0.15
-7 8 -2 1.54 0.14
7 -8 2 1.14 0.12
-8 8 -2 3.11 0.24
8 -8 2 2.76 0.2
-8 8 -2 3.33 0.23
9 -8 2 4.26 0.26
-9 8 -2 4.09 0.3
6 7 -2 0.18 0.06
5 7 -2 0.86 0.1
-5 -7 2 0.72 0.14
4 7 -2 1.64 0.12
-4 -7 2 1.51 0.17
-3 -7 2 0.15 0.07
3 7 -2 0.1 0.04
2 7 -2 1.56 0.13
-2 -7 2 1.69 0.16
2 7 -2 1.74 0.12
1 7 -2 5.8 0.31
-1 -7 2 5.82 0.35
-1 -7 2 5.88 0.3
0 -7 2 0.2 0.06
0 7 -2 0.21 0.05
0 -7 2 0.3 0.06
-1 7 -2 2.41 0.16
1 -7 2 2.65 0.18
1 -7 2 2.62 0.16
-2 7 -2 0.38 0.06
2 -7 2 0.44 0.06
2 -7 2 0.41 0.07
-3 7 -2 0.99 0.08
-3 7 -2 0.93 0.09
3 -7 2 0.86 0.09
-4 7 -2 0.25 0.06
-4 7 -2 0.11 0.05
4 -7 2 0.18 0.06
-5 7 -2 4.24 0.25
-5 7 -2 4.15 0.25
5 -7 2 4.25 0.23
-6 7 -2 101.33 4.43
6 -7 2 91.56 3.91
-6 7 -2 98.55 4.17
-7 7 -2 3.25 0.23
-7 7 -2 3.37 0.22
7 -7 2 2.82 0.19
-8 7 -2 1.26 0.16
8 -7 2 1.08 0.12
9 -7 2 0.21 0.08
-9 7 -2 0.36 0.12
6 6 -2 1.22 0.12
-6 -6 2 1.39 0.19
5 6 -2 0.07 0.04
-5 -6 2 0.07 0.09
4 6 -2 11.07 0.5
-4 -6 2 11.28 0.63
-3 -6 2 19.75 1.03
3 6 -2 20.75 0.85
3 6 -2 19.87 0.95
2 6 -2 3.12 0.17
-2 -6 2 3.15 0.22
2 6 -2 2.83 0.18
-1 -6 2 0.54 0.08
1 6 -2 0.4 0.06
-1 -6 2 0.5 0.07
0 6 -2 16.8 0.8
0 -6 2 16.99 0.72
0 -6 2 16.86 0.85
1 -6 2 4.05 0.21
1 -6 2 4.2 0.24
-1 6 -2 4.22 0.23
2 -6 2 97.63 3.92
-2 6 -2 97.1 4.44
2 -6 2 99.3 4.62
-2 6 -2 97.75 4.15
-3 6 -2 0.49 0.06
3 -6 2 0.41 0.06
-3 6 -2 0.48 0.06
3 -6 2 0.53 0.05
-4 6 -2 32.18 1.46
4 -6 2 29.48 1.29
-4 6 -2 32 1.37
5 -6 2 4.4 0.23
-5 6 -2 4.82 0.26
-5 6 -2 4.32 0.25
-6 6 -2 1.43 0.14
6 -6 2 1.23 0.11
-6 6 -2 1.67 0.13
-7 6 -2 0.58 0.09
7 -6 2 0.44 0.08
-7 6 -2 0.56 0.1
8 -6 2 5.91 0.32
-8 6 -2 6.85 0.38
9 -6 2 0.66 0.1
-9 6 -2 0.69 0.14
-7 -5 2 1.39 0.19
7 5 -2 1.73 0.14
-6 -5 2 4.09 0.31
6 5 -2 4.24 0.24
5 5 -2 5.11 0.26
-5 -5 2 4.9 0.34
4 5 -2 4.87 0.25
-4 -5 2 4.94 0.32
3 5 -2 1.45 0.11
3 5 -2 1.59 0.1
-3 -5 2 1.58 0.14
-2 -5 2 32.89 1.75
2 5 -2 36.84 1.47
2 5 -2 38.48 1.66
-1 -5 2 8.51 0.39
-1 -5 2 8.43 0.46
1 5 -2 8.86 0.42
0 -5 2 27.65 1.16
0 5 -2 28.63 1.31
0 -5 2 28.93 1.38
1 -5 2 83.46 3.4
1 -5 2 84.94 4.02
-1 5 -2 85.19 3.85
-1 5 -2 86.5 3.6
-2 5 -2 3.1 0.16
2 -5 2 3.23 0.18
-2 5 -2 3.06 0.18
2 -5 2 3.17 0.17
3 -5 2 4.13 0.22
-3 5 -2 4.23 0.22
3 -5 2 4.19 0.21
-3 5 -2 4.72 0.24
-4 5 -2 21.19 0.97
-4 5 -2 21.59 0.92
4 -5 2 19.18 0.86
-5 5 -2 1.57 0.12
5 -5 2 1.22 0.1
6 -5 2 1.59 0.12
-6 5 -2 1.8 0.13
-6 5 -2 1.58 0.14
7 -5 2 1.02 0.1
-7 5 -2 0.97 0.13
8 -5 2 4.69 0.27
-8 5 -2 4.97 0.31
-9 5 -2 0.39 0.12
9 -5 2 0.38 0.08
8 4 -2 2.68 0.18
-8 -4 2 2.16 0.23
7 4 -2 0 0.05
-7 -4 2 0.04 0.08
6 4 -2 12.39 0.57
-6 -4 2 12.91 0.7
-5 -4 2 8.8 0.49
5 4 -2 8.05 0.39
-4 -4 2 8.86 0.49
4 4 -2 8.48 0.39
4 4 -2 9.09 0.43
3 4 -2 10.43 0.45
-2 -4 2 3.4 0.21
2 4 -2 3.23 0.18
2 4 -2 3.16 0.16
1 4 -2 88.86 4.07
-1 -4 2 90.87 3.6
-1 -4 2 90.54 4.26
0 4 -2 3.49 0.18
0 -4 2 3.32 0.17
0 -4 2 3.38 0.2
-1 4 -2 1.96 0.12
1 -4 2 1.91 0.12
-1 4 -2 1.97 0.1
1 -4 2 1.78 0.1
-2 4 -2 17.83 0.82
2 -4 2 16.46 0.72
2 -4 2 18.3 0.84
-2 4 -2 17.34 0.76
-3 4 -2 4.1 0.2
3 -4 2 3.49 0.2
-3 4 -2 3.99 0.2
3 -4 2 3.49 0.18
-4 4 -2 0.09 0.03
-4 4 -2 0.11 0.04
4 -4 2 0.08 0.03
5 -4 2 9.54 0.43
-5 4 -2 9.24 0.46
-6 4 -2 14.64 0.68
6 -4 2 13.87 0.63
7 -4 2 0.38 0.07
-7 4 -2 0.38 0.09
8 -4 2 0.73 0.1
-8 4 -2 0.85 0.13
-9 4 -2 0.32 0.1
9 -4 2 0.26 0.08
8 3 -2 0.13 0.06
7 3 -2 0.5 0.08
-7 -3 2 0.47 0.11
-6 -3 2 0.23 0.08
6 3 -2 0.18 0.06
-5 -3 2 0.03 0.06
5 3 -2 0.06 0.04
5 3 -2 0.09 0.04
-5 -3 2 0.14 0.04
-3 -3 2 36.01 1.58
3 3 -2 38.58 1.69
3 3 -2 37.43 1.49
-3 -3 2 35.63 1.78
-2 -3 2 0.04 0.01
-2 -3 2 0.02 0.03
2 3 -2 0.08 0.02
2 3 -2 0.03 0.02
-1 -3 2 0.01 0.02
1 3 -2 0.12 0.02
-1 -3 2 -0.01 0.02
0 -3 2 6.26 0.3
0 -3 2 5.26 0.25
0 3 -2 5.92 0.28
1 -3 2 0.49 0.05
1 -3 2 0.4 0.04
-1 3 -2 0.4 0.04
1 -3 2 0.41 0.04
-1 3 -2 0.49 0.04
2 -3 2 0.91 0.06
-2 3 -2 1.08 0.07
-2 3 -2 1.06 0.07
-3 3 -2 2.88 0.16
3 -3 2 3.23 0.17
-3 3 -2 2.9 0.16
3 -3 2 3.01 0.15
4 -3 2 8.94 0.42
-4 3 -2 8.34 0.4
4 -3 2 7.98 0.37
5 -3 2 37.88 1.7
5 -3 2 36.04 1.76
-6 3 -2 0.08 0.06
6 -3 2 0.13 0.04
7 -3 2 22.36 0.98
-7 3 -2 23.61 1.06
-8 3 -2 1.12 0.13
8 -3 2 1.01 0.11
9 -3 2 0.1 0.06
-9 3 -2 0.15 0.08
9 2 -2 0.94 0.12
8 2 -2 2.34 0.16
-7 -2 2 0.42 0.08
-7 -2 2 0.48 0.1
7 2 -2 0.54 0.08
6 2 -2 0.14 0.04
-6 -2 2 -0.01 0.05
-6 -2 2 0.1 0.04
5 2 -2 2.57 0.15
-5 -2 2 2.61 0.16
5 2 -2 2.74 0.16
-4 -2 2 0.03 0.03
4 2 -2 0.02 0.02
4 2 -2 0.04 0.03
-4 -2 2 0.04 0.04
-3 -2 2 6.74 0.32
3 2 -2 6.75 0.3
-3 -2 2 6.78 0.37
3 2 -2 6.97 0.33
2 2 -2 4.7 0.21
-2 -2 2 4.49 0.22
-2 -2 2 4.89 0.26
2 2 -2 4.78 0.23
-1 -2 2 590.25 22.02
-1 -2 2 545.33 23.48
1 2 -2 533.67 24.97
0 -2 2 357.16 15.84
0 -2 2 315.61 13.37
0 2 -2 340.75 15.17
0 2 -2 337.48 14.27
-1 2 -2 0.24 0.03
1 -2 2 0.17 0.03
1 -2 2 0.26 0.03
-1 2 -2 0.3 0.03
2 -2 2 11.17 0.47
2 -2 2 11.9 0.55
-2 2 -2 11.29 0.53
-2 2 -2 11.03 0.5
-3 2 -2 0.14 0.04
-3 2 -2 0.17 0.03
3 -2 2 0.17 0.03
3 -2 2 0.18 0.03
-4 2 -2 78.62 3.57
4 -2 2 82.02 3.35
4 -2 2 85.9 3.79
-4 2 -2 88.49 3.95
-5 2 -2 1.36 0.1
5 -2 2 1.34 0.1
6 -2 2 0.29 0.05
-6 2 -2 0.31 0.06
7 -2 2 0.47 0.07
-7 2 -2 0.4 0.08
-8 2 -2 0.12 0.06
8 -2 2 -0.02 0.04
-9 2 -2 0.05 0.06
9 -2 2 0.04 0.06
9 1 -2 0.71 0.1
-9 -1 2 0.65 0.11
-8 -1 2 4.19 0.27
8 1 -2 4.19 0.24
-7 -1 2 3.32 0.21
7 1 -2 3.19 0.19
-6 -1 2 10.16 0.5
6 1 -2 10.26 0.5
-5 -1 2 14.99 0.76
5 1 -2 14.82 0.7
5 1 -2 15.2 0.63
-5 -1 2 14.56 0.68
-4 -1 2 10.75 0.54
-4 -1 2 10.46 0.49
4 1 -2 10.61 0.45
4 1 -2 10.34 0.5
3 1 -2 9.72 0.46
-3 -1 2 9.81 0.49
-3 -1 2 9.58 0.44
3 1 -2 9.55 0.4
2 1 -2 132.21 5.13
-2 -1 2 128.74 6.08
-2 -1 2 131.24 5.47
2 1 -2 125.09 5.82
1 1 -2 105.54 4.09
-1 -1 2 103.99 4.85
1 1 -2 106.17 4.35
1 1 -2 96.03 4.63
0 1 -2 0.89 0.05
0 -1 2 0.82 0.07
0 -1 2 1.06 0.04
0 1 -2 0.88 0.05
-1 1 -2 2.3 0.12
1 -1 2 2.56 0.14
-1 1 -2 2.4 0.13
1 -1 2 2.69 0.11
2 -1 2 136.78 5.5
-2 1 -2 137.31 5.86
-2 1 -2 136.24 6.24
-2 1 -2 143.99 6.51
-3 1 -2 19.32 0.88
3 -1 2 20.17 0.82
-3 1 -2 20.63 0.97
4 -1 2 1.04 0.07
-4 1 -2 0.93 0.08
4 -1 2 1.05 0.07
-4 1 -2 0.98 0.08
-5 1 -2 0.04 0.04
5 -1 2 0.22 0.04
-5 1 -2 0.17 0.05
-6 1 -2 5.26 0.3
-6 1 -2 5.11 0.29
6 -1 2 5.31 0.26
7 -1 2 2.36 0.16
-7 1 -2 2.24 0.17
8 -1 2 2.64 0.18
-8 1 -2 2.4 0.19
9 -1 2 0.23 0.08
-9 1 -2 0.21 0.09
-9 0 2 0.87 0.13
9 0 -2 1.04 0.11
8 0 -2 0.57 0.08
-8 0 2 0.53 0.09
-7 0 2 1.49 0.13
7 0 -2 1.52 0.11
-6 0 2 4.38 0.26
6 0 -2 4.45 0.22
-6 0 2 4.43 0.25
6 0 -2 4.41 0.24
-5 0 2 29.36 1.36
5 0 -2 27.18 1.14
-5 0 2 27.42 1.24
5 0 -2 28.06 1.29
4 0 -2 6.49 0.32
-4 0 2 6.58 0.34
-4 0 2 6.46 0.32
4 0 -2 6.56 0.29
-3 0 2 3.09 0.17
-3 0 2 3.1 0.16
-2 0 2 19.05 0.83
-2 0 2 20.07 0.92
2 0 -2 19.59 0.77
2 0 -2 17.95 0.88
1 0 -2 20.41 0.91
-1 0 2 18.42 0.96
1 0 -2 21.27 0.86
0 0 -2 27.84 1.28
0 0 2 28.62 1.13
0 0 -2 28.35 1.21
-1 0 -2 101.81 4.37
-1 0 -2 103.7 4.86
1 0 2 104.62 4.1
-2 0 -2 43.61 1.82
-2 0 -2 41.6 2.02
2 0 2 42.22 1.7
-3 0 -2 3.67 0.21
3 0 2 3.49 0.17
-3 0 -2 3.52 0.19
-4 0 -2 25.72 1.15
-4 0 -2 26.12 1.27
4 0 2 26.55 1.07
5 0 2 1.4 0.1
-5 0 -2 1.34 0.11
-5 0 -2 1.38 0.12
6 0 2 0.33 0.06
-6 0 -2 0.3 0.08
-6 0 -2 0.44 0.08
7 0 2 6.26 0.31
-7 0 -2 5.82 0.34
8 0 2 7.48 0.38
-8 0 -2 7.31 0.41
-9 0 -2 0.3 0.09
10 -1 -2 0.18 0.08
9 -1 -2 0.21 0.06
-9 1 2 0.31 0.08
8 -1 -2 3.58 0.21
-8 1 2 3.66 0.24
7 -1 -2 0.26 0.06
-7 1 2 0.39 0.08
7 -1 -2 0.58 0.07
6 -1 -2 1.69 0.11
6 -1 -2 1.55 0.12
-6 1 2 1.54 0.13
-5 1 2 6.18 0.31
-5 1 2 5.72 0.3
5 -1 -2 5.67 0.3
5 -1 -2 5.88 0.27
4 -1 -2 8.69 0.43
4 -1 -2 9.21 0.38
-4 1 2 8.88 0.44
-4 1 2 8.53 0.42
-3 1 2 9.62 0.45
3 -1 -2 8.47 0.43
3 -1 -2 9.24 0.38
-3 1 2 9.12 0.42
-1 1 2 120.32 5.51
1 -1 -2 118.37 4.65
1 -1 -2 113.91 5.27
1 -1 -2 115.91 4.95
0 -1 -2 74.32 3.25
0 -1 -2 70.3 3.05
0 -1 -2 70.68 3.4
0 1 2 73.18 2.86
1 1 2 14.31 0.56
-1 -1 -2 13.3 0.67
-1 -1 -2 13.39 0.6
2 1 2 27.1 1.08
-2 -1 -2 26.83 1.16
-2 -1 -2 26.17 1.29
-3 -1 -2 23.61 1.18
3 1 2 24.12 0.99
-3 -1 -2 24.66 1.06
-4 -1 -2 3.62 0.2
-4 -1 -2 3.67 0.23
4 1 2 3.67 0.19
-5 -1 -2 38.21 1.74
5 1 2 40.61 1.63
-5 -1 -2 40.98 1.94
-6 -1 -2 4.58 0.27
6 1 2 4.49 0.24
-6 -1 -2 4.52 0.29
-7 -1 -2 5.18 0.33
-7 -1 -2 5.04 0.3
7 1 2 4.88 0.27
8 1 2 0.11 0.06
-8 -1 -2 0.08 0.06
10 -2 -2 2.33 0.18
9 -2 -2 3.6 0.22
-9 2 2 3.99 0.27
8 -2 -2 0.23 0.06
-8 2 2 0.26 0.07
7 -2 -2 12.64 0.57
7 -2 -2 13.06 0.65
-7 2 2 13.44 0.64
-6 2 2 12.98 0.61
6 -2 -2 12.51 0.55
5 -2 -2 30.21 1.22
-5 2 2 29.18 1.31
5 -2 -2 29.82 1.38
-4 2 2 33.53 1.6
4 -2 -2 32.47 1.56
4 -2 -2 36.7 1.37
-4 2 2 32.8 1.48
-3 2 2 19.08 0.81
3 -2 -2 17.37 0.85
-2 2 2 8.03 0.38
-2 2 2 7.18 0.35
2 -2 -2 7.32 0.37
2 -2 -2 7.94 0.32
1 -2 -2 18.26 0.87
1 -2 -2 19.44 0.77
1 -2 -2 18.94 0.91
1 -2 -2 18.91 0.82
0 -2 -2 24.25 1.08
0 -2 -2 24.52 0.96
0 -2 -2 22.9 1.13
0 -2 -2 22.46 1.01
-1 -2 -2 48.51 2.34
1 2 2 47.39 2.22
-1 -2 -2 49.44 2.09
1 2 2 51.04 1.97
-2 -2 -2 22.73 1.02
2 2 2 24.32 0.96
-2 -2 -2 23.5 1.15
-3 -2 -2 72.28 3.43
-3 -2 -2 71.79 3.07
3 2 2 71.92 2.88
-4 -2 -2 1.14 0.1
4 2 2 1.01 0.09
-4 -2 -2 1.16 0.12
-5 -2 -2 21.95 1.03
-5 -2 -2 23.33 1.16
5 2 2 23.27 0.96
6 2 2 0.5 0.08
-6 -2 -2 0.53 0.11
-6 -2 -2 0.51 0.08
7 2 2 0.99 0.11
-7 -2 -2 0.94 0.12
-7 -2 -2 0.84 0.14
10 -3 -2 1.88 0.16
9 -3 -2 1.98 0.15
-9 3 2 2.12 0.19
8 -3 -2 1.7 0.13
8 -3 -2 1.64 0.15
-8 3 2 1.64 0.15
-7 3 2 15.05 0.71
7 -3 -2 14.93 0.64
7 -3 -2 14.43 0.73
-6 3 2 33.09 1.49
6 -3 -2 34.26 1.37
6 -3 -2 33.12 1.56
-5 3 2 0.38 0.07
5 -3 -2 0.4 0.06
5 -3 -2 0.7 0.06
4 -3 -2 6.22 0.27
-4 3 2 6.03 0.3
4 -3 -2 5.5 0.31
3 -3 -2 165.58 7.81
-3 3 2 169.63 7.34
3 -3 -2 179.18 6.88
-3 3 2 179.31 8.14
2 -3 -2 27.09 1.24
2 -3 -2 25.75 1.2
2 -3 -2 26.87 1.06
-2 3 2 24.36 1.13
1 -3 -2 0.26 0.04
1 -3 -2 0.33 0.04
1 -3 -2 0.31 0.03
1 -3 -2 0.33 0.04
0 -3 -2 4.01 0.23
0 -3 -2 4.23 0.2
0 -3 -2 4.25 0.2
-1 -3 -2 0.73 0.06
1 3 2 0.59 0.05
1 3 2 0.55 0.05
-1 -3 -2 0.54 0.07
2 3 2 47.35 1.85
2 3 2 43.62 2.07
-2 -3 -2 46.46 1.97
-2 -3 -2 45.76 2.2
-3 -3 -2 10.63 0.57
-3 -3 -2 11.03 0.5
-4 -3 -2 0.07 0.04
-4 -3 -2 0.07 0.06
4 3 2 -0.03 0.03
-5 -3 -2 7.39 0.44
5 3 2 7.47 0.36
-5 -3 -2 7.2 0.37
6 3 2 0.21 0.07
-6 -3 -2 0.24 0.1
7 3 2 0.2 0.07
-7 -3 -2 0.44 0.12
10 -4 -2 0.6 0.1
-9 4 2 3.77 0.26
9 -4 -2 3.52 0.22
-8 4 2 0 0.07
8 -4 -2 -0.01 0.04
8 -4 -2 0.03 0.06
7 -4 -2 4.66 0.28
-7 4 2 4.44 0.28
7 -4 -2 4.53 0.24
6 -4 -2 32.59 1.36
-6 4 2 33.1 1.48
6 -4 -2 34.01 1.56
-5 4 2 15.35 0.73
5 -4 -2 15.82 0.77
5 -4 -2 16.31 0.67
4 -4 -2 0.82 0.07
4 -4 -2 0.69 0.08
-4 4 2 0.74 0.08
-3 4 2 8.84 0.43
3 -4 -2 8.92 0.38
-3 4 2 8.75 0.42
3 -4 -2 8.49 0.44
2 -4 -2 37.66 1.76
-2 4 2 35.59 1.6
2 -4 -2 39.43 1.5
2 -4 -2 35.63 1.7
1 -4 -2 41.74 1.68
1 -4 -2 41.32 1.98
1 -4 -2 40.98 1.9
1 -4 -2 41.56 1.77
0 -4 -2 0.92 0.09
0 4 2 0.91 0.07
0 -4 -2 1.01 0.08
0 -4 -2 0.9 0.07
-1 -4 -2 29.74 1.25
1 4 2 29.85 1.19
-1 -4 -2 28.58 1.41
1 4 2 27.53 1.32
2 4 2 0.35 0.05
-2 -4 -2 0.58 0.06
-2 -4 -2 0.49 0.08
-3 -4 -2 0.1 0.04
3 4 2 0.08 0.04
-3 -4 -2 0.03 0.05
-4 -4 -2 1.08 0.14
4 4 2 1.22 0.1
-5 -4 -2 8.37 0.49
5 4 2 8.05 0.4
6 4 2 0.06 0.06
-6 -4 -2 -0.04 0.08
-7 -4 -2 1.08 0.17
10 -5 -2 5.55 0.31
-9 5 2 0.32 0.11
9 -5 -2 0.33 0.08
9 -5 -2 0.31 0.09
-8 5 2 1.49 0.16
8 -5 -2 1.48 0.12
8 -5 -2 1.43 0.15
-7 5 2 0 0.06
7 -5 -2 0.08 0.05
7 -5 -2 -0.01 0.06
-6 5 2 11.27 0.55
6 -5 -2 10.93 0.57
6 -5 -2 10.69 0.49
-5 5 2 11.99 0.6
5 -5 -2 12.58 0.63
5 -5 -2 13.01 0.55
-4 5 2 13.02 0.6
4 -5 -2 13.1 0.56
4 -5 -2 12.34 0.63
3 -5 -2 2.93 0.16
-3 5 2 2.68 0.17
3 -5 -2 2.62 0.17
3 -5 -2 2.83 0.16
-2 5 2 0.47 0.06
2 -5 -2 0.52 0.07
2 -5 -2 0.66 0.06
2 -5 -2 0.72 0.07
1 -5 -2 0.01 0.04
1 -5 -2 0.05 0.03
-1 5 2 0.04 0.03
1 -5 -2 0.05 0.02
0 -5 -2 1.47 0.12
0 -5 -2 1.22 0.11
0 5 2 1.48 0.1
0 -5 -2 1.6 0.1
-1 -5 -2 4.51 0.22
1 5 2 4.17 0.21
1 5 2 3.97 0.22
-1 -5 -2 3.95 0.26
2 5 2 0.27 0.05
-2 -5 -2 0.2 0.06
3 5 2 0.5 0.07
-3 -5 -2 0.55 0.1
-4 -5 -2 4.51 0.31
4 5 2 4.31 0.24
-5 -5 -2 0.33 0.11
5 5 2 0.27 0.07
-6 -5 -2 3.01 0.27
6 5 2 3.01 0.21
10 -6 -2 -0.02 0.08
9 -6 -2 0.01 0.07
-9 6 2 0.1 0.09
9 -6 -2 0.01 0.06
-8 6 2 0.39 0.1
8 -6 -2 0.56 0.08
8 -6 -2 0.47 0.1
7 -6 -2 0.58 0.1
-7 6 2 0.44 0.09
7 -6 -2 0.35 0.07
6 -6 -2 3.62 0.2
6 -6 -2 3.72 0.24
-6 6 2 3.42 0.23
-5 6 2 1.75 0.14
5 -6 -2 1.81 0.13
5 -6 -2 1.61 0.14
-4 6 2 0.06 0.05
4 -6 -2 0.05 0.04
4 -6 -2 0.05 0.04
-3 6 2 6.86 0.35
3 -6 -2 7.12 0.38
2 -6 -2 40.72 1.92
-2 6 2 37.25 1.73
2 -6 -2 41.22 1.63
-2 6 2 40.28 1.84
1 -6 -2 1.77 0.13
1 -6 -2 1.49 0.12
0 6 2 0.65 0.07
0 -6 -2 0.73 0.09
0 -6 -2 0.68 0.09
-1 -6 -2 0.02 0.04
1 6 2 -0.01 0.03
2 6 2 1.83 0.13
-2 -6 -2 1.8 0.17
-3 -6 -2 6.17 0.39
3 6 2 6.17 0.31
4 6 2 0 0.05
-4 -6 -2 -0.03 0.07
5 6 2 0.13 0.06
-5 -6 -2 0.04 0.09
9 -7 -2 2.05 0.2
9 -7 -2 1.98 0.16
-9 7 2 1.87 0.2
8 -7 -2 0.71 0.09
-8 7 2 0.56 0.12
8 -7 -2 0.57 0.11
7 -7 -2 7.02 0.41
-7 7 2 6.81 0.39
7 -7 -2 6.33 0.33
-6 7 2 -0.01 0.06
6 -7 -2 0.01 0.05
6 -7 -2 0.04 0.06
-5 7 2 0.74 0.1
5 -7 -2 0.89 0.11
5 -7 -2 0.87 0.1
4 -7 -2 1.88 0.15
4 -7 -2 1.76 0.13
-3 7 2 6.99 0.38
3 -7 -2 7.24 0.35
-3 7 2 6.91 0.36
2 -7 -2 7.32 0.35
-2 7 2 7.13 0.39
1 -7 -2 3.92 0.22
-1 7 2 3.46 0.22
1 -7 -2 3.68 0.24
0 7 2 -0.04 0.04
0 -7 -2 -0.03 0.04
-1 -7 -2 0.22 0.07
1 7 2 0.13 0.05
2 7 2 0.76 0.09
-2 -7 -2 0.88 0.13
-3 -7 -2 5.12 0.35
3 7 2 5.19 0.28
4 7 2 0.55 0.1
-4 -7 -2 0.41 0.12
-9 8 2 1.27 0.18
9 -8 -2 1.21 0.17
8 -8 -2 0.81 0.11
8 -8 -2 0.79 0.14
-8 8 2 1.07 0.15
7 -8 -2 0.11 0.08
7 -8 -2 0.17 0.07
-7 8 2 0.06 0.07
6 -8 -2 0.22 0.08
-6 8 2 0.36 0.09
6 -8 -2 0.32 0.09
5 -8 -2 1.2 0.12
-5 8 2 0.77 0.12
4 -8 -2 1.04 0.11
-4 8 2 0.96 0.12
-3 8 2 1.91 0.17
3 -8 -2 2.2 0.16
2 -8 -2 0.07 0.06
-2 8 2 0.03 0.06
1 -8 -2 0.16 0.06
1 -8 -2 0.17 0.08
-1 8 2 0.21 0.07
0 -8 -2 14.79 0.79
0 8 2 14.76 0.66
-1 -8 -2 3.02 0.23
1 8 2 2.86 0.19
2 8 2 0.72 0.1
-2 -8 -2 0.81 0.13
3 8 2 1.9 0.16
-3 -8 -2 1.8 0.19
-8 9 2 0.74 0.14
8 -9 -2 0.52 0.1
7 -9 -2 8.58 0.44
-6 9 2 1.95 0.19
6 -9 -2 2.07 0.17
5 -9 -2 11.74 0.56
-5 9 2 11.93 0.63
4 -9 -2 2.26 0.18
-4 9 2 2.21 0.19
3 -9 -2 3.78 0.24
-3 9 2 3.84 0.26
2 -9 -2 5.22 0.29
-2 9 2 4.85 0.3
1 -9 -2 1.02 0.12
1 -9 -2 0.85 0.12
0 -9 -2 0.63 0.11
0 9 2 0.52 0.09
1 9 2 0.79 0.11
-1 -9 -2 0.84 0.13
2 9 2 0.02 0.06
-2 -9 -2 0.07 0.08
7 -10 -2 1.12 0.15
6 -10 -2 2.53 0.2
-6 10 2 2.36 0.22
-5 10 2 -0.04 0.08
5 -10 -2 0.02 0.07
4 -10 -2 5.76 0.32
-4 10 2 5.18 0.35
3 -10 -2 1.18 0.14
-3 10 2 1.24 0.15
-2 10 2 0.81 0.12
2 -10 -2 0.69 0.12
0 10 2 0.06 0.06
0 -10 -2 0.05 0.07
5 -11 -2 -0.03 0.09
-4 11 2 2.74 0.23
4 -11 -2 2.72 0.22
-3 11 2 0.96 0.15
3 -11 -2 0.98 0.15
0 12 -3 1.44 0.16
-1 12 -3 0.44 0.1
2 -12 3 2.32 0.2
-2 12 -3 2.21 0.19
-3 12 -3 3.19 0.25
3 -12 3 3.62 0.26
4 -12 3 4.11 0.28
-4 12 -3 3.65 0.27
1 11 -3 1.41 0.13
-1 -11 3 1.31 0.16
0 -11 3 0 0.09
0 -11 3 0.02 0.07
0 11 -3 0.05 0.08
-1 11 -3 15.24 0.78
1 -11 3 15.78 0.73
-2 11 -3 3.15 0.23
2 -11 3 3.68 0.24
3 -11 3 1 0.13
-3 11 -3 0.76 0.12
-4 11 -3 0.09 0.08
4 -11 3 0.07 0.08
5 -11 3 1.21 0.15
-5 11 -3 0.94 0.13
6 -11 3 1.53 0.16
-6 11 -3 1.57 0.16
-7 11 -3 0.15 0.09
3 10 -3 1.62 0.14
2 10 -3 3.92 0.23
-2 -10 3 3.9 0.3
-1 -10 3 0.69 0.12
1 10 -3 0.61 0.1
0 10 -3 0.54 0.1
0 -10 3 0.61 0.11
0 -10 3 0.62 0.11
1 -10 3 10.34 0.51
-1 10 -3 10.46 0.55
1 -10 3 10.78 0.58
2 -10 3 2.24 0.17
-2 10 -3 2.28 0.18
-3 10 -3 3.67 0.25
3 -10 3 4.07 0.25
-4 10 -3 0.11 0.07
4 -10 3 0.1 0.07
-5 10 -3 0.1 0.06
5 -10 3 -0.03 0.07
-6 10 -3 -0.04 0.06
6 -10 3 0.12 0.06
7 -10 3 0.74 0.12
-7 10 -3 0.69 0.12
-8 10 -3 0.32 0.1
4 9 -3 1.12 0.12
-4 -9 3 1.07 0.17
-3 -9 3 2.87 0.24
3 9 -3 2.74 0.18
2 9 -3 0.62 0.09
2 9 -3 0.51 0.08
-2 -9 3 0.55 0.11
1 9 -3 0.44 0.08
-1 -9 3 0.52 0.1
-1 -9 3 0.4 0.09
0 -9 3 0.03 0.05
0 9 -3 -0.04 0.05
0 -9 3 0 0.06
1 -9 3 4.94 0.28
-1 9 -3 5.21 0.3
1 -9 3 5.06 0.31
2 -9 3 0.51 0.09
-2 9 -3 0.54 0.09
3 -9 3 3.28 0.21
-3 9 -3 3.48 0.22
4 -9 3 5.18 0.28
-4 9 -3 4.96 0.3
5 -9 3 -0.02 0.06
-5 9 -3 0.05 0.06
-6 9 -3 0.92 0.11
6 -9 3 0.92 0.11
-7 9 -3 0.24 0.08
7 -9 3 0.3 0.08
-8 9 -3 3.76 0.27
-8 9 -3 3.76 0.26
8 -9 3 3.07 0.22
5 8 -3 0.33 0.08
-5 -8 3 0.38 0.13
4 8 -3 0.09 0.05
-4 -8 3 0.13 0.09
-3 -8 3 1.25 0.15
3 8 -3 1.27 0.1
-2 -8 3 3.37 0.25
2 8 -3 3.14 0.2
2 8 -3 3.36 0.19
1 8 -3 21.82 1.06
-1 -8 3 22.66 0.96
-1 -8 3 22.35 1.13
0 -8 3 0.14 0.06
0 8 -3 0.18 0.06
0 -8 3 0.23 0.07
1 -8 3 0.03 0.05
-1 8 -3 0.06 0.05
1 -8 3 -0.02 0.05
2 -8 3 0.22 0.06
2 -8 3 0.31 0.07
-2 8 -3 0.18 0.06
-3 8 -3 0.38 0.07
3 -8 3 0.44 0.08
-4 8 -3 0.21 0.06
4 -8 3 0.18 0.07
-5 8 -3 24.41 1.16
-5 8 -3 25.22 1.1
5 -8 3 23.31 1.04
-6 8 -3 6.06 0.34
-6 8 -3 6.08 0.33
6 -8 3 5.28 0.3
-7 8 -3 2.13 0.17
-7 8 -3 2.01 0.18
7 -8 3 1.65 0.14
-8 8 -3 1.22 0.16
8 -8 3 1.33 0.13
-9 8 -3 0.73 0.14
6 7 -3 0.33 0.08
-6 -7 3 0.03 0.1
5 7 -3 2.37 0.16
-5 -7 3 2.33 0.23
-4 -7 3 0.01 0.08
4 7 -3 0.02 0.04
3 7 -3 1.83 0.14
-3 -7 3 1.74 0.17
3 7 -3 1.75 0.12
2 7 -3 12 0.52
2 7 -3 11.54 0.58
-2 -7 3 11.93 0.64
-1 -7 3 53.59 2.58
-1 -7 3 53.19 2.18
1 7 -3 53.63 2.45
0 -7 3 5.27 0.31
0 -7 3 5.28 0.27
0 7 -3 5.26 0.29
1 -7 3 10.5 0.47
-1 7 -3 10.49 0.52
1 -7 3 10.32 0.55
2 -7 3 31.97 1.52
2 -7 3 31.26 1.3
-2 7 -3 31.01 1.46
-3 7 -3 9.57 0.43
3 -7 3 8.87 0.43
-3 7 -3 9.29 0.47
4 -7 3 2.94 0.18
-4 7 -3 3.16 0.19
-4 7 -3 3.26 0.2
-5 7 -3 1.6 0.13
5 -7 3 1.38 0.12
-5 7 -3 1.38 0.13
6 -7 3 1.78 0.14
-6 7 -3 1.99 0.17
-6 7 -3 2.25 0.16
-7 7 -3 7.54 0.4
7 -7 3 6.54 0.35
-8 7 -3 0.18 0.09
8 -7 3 0.2 0.06
9 -7 3 0.17 0.08
-9 7 -3 0.3 0.11
-7 -6 3 -0.01 0.1
7 6 -3 0.14 0.07
-6 -6 3 15.35 0.85
6 6 -3 15.58 0.69
5 6 -3 1.88 0.14
-5 -6 3 2.05 0.2
4 6 -3 6.52 0.35
4 6 -3 6.3 0.32
-4 -6 3 6.87 0.41
3 6 -3 4.76 0.25
-3 -6 3 5.04 0.32
3 6 -3 5.11 0.28
-2 -6 3 6.97 0.41
2 6 -3 6.98 0.36
2 6 -3 7.29 0.33
-1 -6 3 4.32 0.27
1 6 -3 4.77 0.25
0 -6 3 6.23 0.3
0 -6 3 6.21 0.35
0 6 -3 6.21 0.32
1 -6 3 0.66 0.08
1 -6 3 0.62 0.07
-1 6 -3 0.58 0.07
2 -6 3 24.64 1.02
-2 6 -3 24.65 1.15
-2 6 -3 24.13 1.06
2 -6 3 24.77 1.19
-3 6 -3 0.25 0.04
-3 6 -3 0.23 0.05
3 -6 3 0.17 0.05
3 -6 3 0.17 0.04
-4 6 -3 16.09 0.77
-4 6 -3 16.15 0.73
4 -6 3 15.67 0.69
-5 6 -3 6.15 0.33
-5 6 -3 6.83 0.34
5 -6 3 6 0.31
-6 6 -3 1.77 0.13
-6 6 -3 1.46 0.14
6 -6 3 1.56 0.12
-7 6 -3 1.08 0.13
7 -6 3 0.84 0.1
8 -6 3 1.05 0.12
-8 6 -3 1.23 0.15
-9 6 -3 0.06 0.09
9 -6 3 -0.06 0.06
7 5 -3 0.1 0.06
-7 -5 3 -0.02 0.09
6 5 -3 4.4 0.24
-6 -5 3 4.17 0.31
5 5 -3 29.67 1.23
-5 -5 3 29.6 1.49
4 5 -3 3.92 0.2
-4 -5 3 3.95 0.27
4 5 -3 3.88 0.22
3 5 -3 1.85 0.11
-3 -5 3 1.61 0.15
3 5 -3 1.62 0.12
-1 -5 3 50.15 2.4
1 5 -3 50.48 2.28
-1 -5 3 49.55 2.02
0 5 -3 17.12 0.79
0 -5 3 17.14 0.84
0 -5 3 16.3 0.71
1 -5 3 45.24 1.88
1 -5 3 47.39 2.23
-1 5 -3 46.82 2.13
-1 5 -3 47.52 1.99
2 -5 3 21.67 0.92
2 -5 3 22.93 1.08
-2 5 -3 21.72 0.96
-2 5 -3 22.61 1.04
3 -5 3 0.85 0.07
-3 5 -3 0.87 0.08
3 -5 3 0.66 0.07
-3 5 -3 0.82 0.07
-4 5 -3 2.55 0.16
-4 5 -3 2.53 0.16
-5 5 -3 7.15 0.36
-5 5 -3 7.36 0.36
5 -5 3 6.38 0.33
6 -5 3 9.09 0.43
-6 5 -3 9.5 0.47
-7 5 -3 0.1 0.07
7 -5 3 -0.02 0.04
8 -5 3 1.09 0.12
-8 5 -3 1.27 0.15
9 -5 3 0.12 0.07
-9 5 -3 0.12 0.1
8 4 -3 7.96 0.4
-7 -4 3 0.23 0.1
7 4 -3 0.35 0.07
6 4 -3 0.66 0.08
-6 -4 3 0.81 0.13
-5 -4 3 17.91 0.94
5 4 -3 18.32 0.77
-4 -4 3 0.19 0.07
4 4 -3 0.1 0.04
4 4 -3 0.19 0.04
3 4 -3 0.3 0.04
-3 -4 3 0.41 0.04
3 4 -3 0.38 0.05
-3 -4 3 0.24 0.06
-2 -4 3 8.14 0.44
2 4 -3 8.26 0.36
2 4 -3 8.29 0.41
-1 -4 3 41.22 2
1 4 -3 41.59 1.9
-1 -4 3 42.06 1.68
0 -4 3 64.41 2.98
0 4 -3 62.15 2.84
0 -4 3 61.67 2.51
-1 4 -3 205.78 8.62
1 -4 3 197.72 8.1
1 -4 3 210.83 9.6
-1 4 -3 203.03 9.19
-2 4 -3 15.57 0.71
-2 4 -3 15.17 0.66
2 -4 3 14.41 0.63
4 -4 3 1.48 0.1
4 -4 3 1.78 0.11
-4 4 -3 1.6 0.11
-4 4 -3 1.48 0.11
5 -4 3 2.7 0.16
-5 4 -3 2.81 0.18
-5 4 -3 2.73 0.16
6 -4 3 1.43 0.12
-6 4 -3 1.46 0.13
-7 4 -3 23.51 1.07
7 -4 3 22.69 0.99
8 -4 3 1.38 0.13
-8 4 -3 1.67 0.17
-9 4 -3 0.75 0.13
9 -4 3 0.56 0.1
8 3 -3 0.06 0.06
-7 -3 3 0.01 0.08
7 3 -3 0.1 0.06
-6 -3 3 0.62 0.11
6 3 -3 0.49 0.07
5 3 -3 0.31 0.05
5 3 -3 0.35 0.05
-5 -3 3 0.39 0.06
-5 -3 3 0.41 0.09
4 3 -3 9.32 0.42
4 3 -3 9.74 0.47
-4 -3 3 9.65 0.44
3 3 -3 0.73 0.06
3 3 -3 0.75 0.06
-3 -3 3 0.77 0.09
-3 -3 3 0.88 0.06
-2 -3 3 12.61 0.63
-2 -3 3 12.51 0.55
2 3 -3 12.79 0.52
2 3 -3 11.95 0.59
-1 -3 3 17.29 0.7
-1 -3 3 16.59 0.73
1 3 -3 17.09 0.79
-1 -3 3 17.49 0.84
0 -3 3 253.27 11.09
0 3 -3 233.05 9.96
0 3 -3 230.66 10.61
0 -3 3 227.53 9.35
1 -3 3 108.37 4.3
-2 3 -3 1.06 0.08
2 -3 3 1.09 0.07
-2 3 -3 1.18 0.08
2 -3 3 1.12 0.09
-3 3 -3 3.23 0.19
3 -3 3 3.86 0.2
3 -3 3 3.28 0.17
-3 3 -3 3.45 0.18
-4 3 -3 3.87 0.21
4 -3 3 3.7 0.21
-4 3 -3 3.89 0.2
4 -3 3 3.32 0.19
-5 3 -3 10.93 0.51
5 -3 3 10.89 0.54
-5 3 -3 10.22 0.51
-6 3 -3 2.12 0.16
6 -3 3 2.12 0.14
7 -3 3 0 0.04
-7 3 -3 0.08 0.06
8 -3 3 7.73 0.4
-8 3 -3 8.4 0.45
9 -3 3 0.35 0.09
-9 3 -3 0.43 0.11
9 2 -3 0.06 0.06
8 2 -3 0.25 0.06
7 2 -3 0.33 0.06
-7 -2 3 0.36 0.07
-7 -2 3 0.22 0.08
-6 -2 3 2.3 0.18
6 2 -3 2.34 0.14
5 2 -3 62.49 2.52
-5 -2 3 63.65 2.69
5 2 -3 61.86 2.85
-4 -2 3 0.86 0.08
4 2 -3 0.83 0.07
-4 -2 3 0.89 0.1
4 2 -3 0.86 0.06
-3 -2 3 16.28 0.82
3 2 -3 16.15 0.68
3 2 -3 15.49 0.77
-3 -2 3 18.09 0.73
2 2 -3 20.52 0.94
-2 -2 3 20.12 0.99
-2 -2 3 20.58 0.88
2 2 -3 20.14 0.82
1 2 -3 12.51 0.56
1 2 -3 12.11 0.6
-1 -2 3 13.17 0.53
-1 -2 3 13.65 0.64
0 2 -3 878.51 36.06
0 -2 3 854.3 33.88
0 2 -3 836.13 38.42
1 -2 3 57.61 2.17
-1 2 -3 52.15 2.45
-1 2 -3 53.3 2.31
-2 2 -3 12.96 0.59
2 -2 3 13.45 0.65
2 -2 3 13.16 0.55
-2 2 -3 13.07 0.61
-3 2 -3 3.71 0.18
-3 2 -3 3.46 0.19
3 -2 3 3.87 0.18
3 -2 3 3.52 0.2
4 -2 3 9.58 0.43
-4 2 -3 9.98 0.47
-4 2 -3 9.91 0.46
-5 2 -3 9.29 0.49
-5 2 -3 11.47 0.54
5 -2 3 10.18 0.46
6 -2 3 2.09 0.14
-6 2 -3 2.15 0.16
-7 2 -3 1.1 0.12
7 -2 3 1.01 0.1
8 -2 3 -0.03 0.05
-8 2 -3 0.05 0.06
-9 2 -3 0.06 0.08
9 -2 3 0 0.06
9 1 -3 0.93 0.11
-9 -1 3 0.98 0.13
8 1 -3 0.82 0.09
-8 -1 3 0.86 0.11
7 1 -3 5.62 0.28
-7 -1 3 5.47 0.31
-6 -1 3 0.68 0.1
-6 -1 3 0.88 0.09
6 1 -3 0.98 0.08
-5 -1 3 0.43 0.06
5 1 -3 0.5 0.06
5 1 -3 0.35 0.05
-5 -1 3 0.3 0.06
-4 -1 3 28.26 1.25
4 1 -3 27.94 1.31
-4 -1 3 29.05 1.39
4 1 -3 28.93 1.16
3 1 -3 10.17 0.48
3 1 -3 9.9 0.42
-3 -1 3 10.21 0.51
-3 -1 3 10.09 0.46
-2 -1 3 0.89 0.06
-2 -1 3 1 0.08
2 1 -3 0.98 0.05
2 1 -3 0.97 0.06
0 -1 3 490.07 18.11
0 1 -3 438.01 20.49
0 1 -3 440.97 19.22
1 -1 3 102.04 4.68
1 -1 3 106.46 3.95
-1 1 -3 93.56 4.47
-1 1 -3 95.81 4.21
2 -1 3 11.23 0.46
-2 1 -3 10.86 0.5
-3 1 -3 12.48 0.59
3 -1 3 12.87 0.54
-3 1 -3 13.29 0.64
-4 1 -3 5.37 0.29
4 -1 3 4.96 0.24
-4 1 -3 5.28 0.27
5 -1 3 0.02 0.03
-5 1 -3 -0.01 0.03
-5 1 -3 0.02 0.04
6 -1 3 1.06 0.1
-6 1 -3 1.08 0.11
-6 1 -3 1.17 0.12
-7 1 -3 4.7 0.29
7 -1 3 4.87 0.26
-8 1 -3 2.96 0.22
8 -1 3 2.99 0.2
-9 1 -3 0.13 0.08
-9 0 3 0.54 0.1
9 0 -3 0.42 0.08
-8 0 3 2.22 0.18
8 0 -3 2.15 0.15
-7 0 3 6.44 0.36
7 0 -3 6.69 0.31
6 0 -3 0.61 0.06
-6 0 3 0.51 0.08
-6 0 3 0.46 0.08
6 0 -3 0.38 0.06
5 0 -3 0.21 0.04
5 0 -3 0.16 0.03
-5 0 3 0.22 0.05
-5 0 3 0.17 0.05
-4 0 3 15.49 0.75
4 0 -3 15.35 0.62
-4 0 3 15.16 0.69
4 0 -3 14.58 0.71
3 0 -3 35.06 1.37
-3 0 3 33.78 1.48
-3 0 3 35.16 1.64
3 0 -3 33.14 1.56
2 0 -3 217.7 9.8
-2 0 3 218.51 9.2
1 0 -3 6.22 0.3
1 0 -3 6.43 0.29
0 0 3 127.98 5.13
0 0 -3 125.09 5.47
0 0 -3 124.93 5.82
0 0 3 139.88 6.09
-1 0 -3 82.33 3.87
-1 0 -3 85.66 3.64
1 0 3 87.71 3.41
-1 0 -3 87.62 4.05
2 0 3 3.7 0.17
-2 0 -3 3.79 0.21
-2 0 -3 3.62 0.19
-3 0 -3 0.17 0.04
-3 0 -3 0.09 0.04
3 0 3 0.12 0.03
4 0 3 5.75 0.27
-4 0 -3 6.31 0.33
-4 0 -3 5.19 0.29
-5 0 -3 3.7 0.22
5 0 3 3.47 0.19
-5 0 -3 3.46 0.23
-6 0 -3 12.05 0.64
-6 0 -3 11.68 0.59
6 0 3 12.45 0.55
7 0 3 0.11 0.06
-7 0 -3 0.11 0.06
-8 0 -3 0.61 0.11
8 0 3 0.48 0.09
-9 1 3 2.15 0.18
9 -1 -3 1.9 0.15
-8 1 3 1.51 0.14
8 -1 -3 1.31 0.11
7 -1 -3 0.01 0.04
-7 1 3 0.11 0.05
7 -1 -3 0.09 0.04
-6 1 3 23.76 1.07
6 -1 -3 23.59 0.98
5 -1 -3 8.69 0.37
5 -1 -3 8.31 0.42
-5 1 3 8.88 0.43
-5 1 3 7.42 0.41
4 -1 -3 54.42 2.49
-4 1 3 52.79 2.35
-4 1 3 56.54 2.59
4 -1 -3 54.83 2.19
-3 1 3 4.75 0.23
-3 1 3 4.05 0.24
3 -1 -3 4.6 0.23
2 -1 -3 117.67 4.67
-1 1 3 52.18 2.36
1 -1 -3 49.37 2.12
1 -1 -3 49.21 1.98
1 -1 -3 48.12 2.25
0 -1 -3 37.26 1.77
0 1 3 37.03 1.49
0 -1 -3 38.34 1.69
0 -1 -3 36.58 1.6
-1 -1 -3 115.05 4.92
-1 -1 -3 113.98 5.47
1 1 3 119.27 4.61
2 1 3 1.06 0.07
-2 -1 -3 1.18 0.09
-2 -1 -3 1.14 0.09
3 1 3 9.82 0.42
-3 -1 -3 9.54 0.46
-3 -1 -3 9.9 0.51
-4 -1 -3 12.37 0.59
4 1 3 12.91 0.55
-4 -1 -3 12.65 0.66
5 1 3 54.49 2.17
-5 -1 -3 53.69 2.58
-5 -1 -3 52.29 2.32
-6 -1 -3 0.2 0.07
6 1 3 0.11 0.05
-6 -1 -3 0.13 0.08
-7 -1 -3 0.83 0.11
7 1 3 0.9 0.11
-7 -1 -3 0.77 0.13
-8 -1 -3 2.38 0.2
8 1 3 2.58 0.19
-9 2 3 3.28 0.23
9 -2 -3 2.75 0.19
8 -2 -3 2.12 0.15
8 -2 -3 2.12 0.17
-8 2 3 1.91 0.17
7 -2 -3 21.94 0.94
7 -2 -3 22.59 1.07
-7 2 3 22.81 1.04
-6 2 3 1.1 0.11
6 -2 -3 1.25 0.1
-5 2 3 0.09 0.04
5 -2 -3 0.12 0.04
5 -2 -3 0.15 0.04
4 -2 -3 0.43 0.04
-4 2 3 0.35 0.06
-4 2 3 0.39 0.05
4 -2 -3 0.28 0.05
-3 2 3 13.57 0.62
3 -2 -3 13.53 0.64
2 -2 -3 114.59 4.85
2 -2 -3 110.9 5.16
-2 2 3 116.6 5.39
2 -2 -3 115.76 4.54
1 -2 -3 0.02 0.02
1 -2 -3 0.02 0.02
1 -2 -3 0.03 0.01
1 -2 -3 0 0.02
0 2 3 7.38 0.32
0 -2 -3 8.09 0.36
0 -2 -3 7.34 0.35
0 -2 -3 7.22 0.39
1 2 3 5.61 0.25
-1 -2 -3 5.88 0.28
-1 -2 -3 5.67 0.31
-2 -2 -3 3.19 0.18
2 2 3 3.32 0.16
-2 -2 -3 3.12 0.2
-3 -2 -3 36.92 1.81
-3 -2 -3 37.49 1.63
3 2 3 37.7 1.52
4 2 3 11.91 0.51
-4 -2 -3 11.34 0.61
-4 -2 -3 11.25 0.55
5 2 3 3.24 0.18
-5 -2 -3 2.89 0.23
-5 -2 -3 3.02 0.2
-6 -2 -3 5.51 0.33
6 2 3 6.54 0.32
-6 -2 -3 6.22 0.39
7 2 3 0.16 0.07
-7 -2 -3 0.24 0.07
-7 -2 -3 0.11 0.09
9 -3 -3 4.27 0.25
-9 3 3 4.59 0.3
8 -3 -3 5.53 0.28
8 -3 -3 5.76 0.33
-8 3 3 5.45 0.33
7 -3 -3 19.47 0.79
-7 3 3 17.79 0.87
7 -3 -3 18.66 0.91
5 -3 -3 27.89 1.32
5 -3 -3 28.39 1.15
-5 3 3 28.28 1.26
-4 3 3 2.53 0.16
4 -3 -3 2.07 0.15
4 -3 -3 2.38 0.13
-3 3 3 0.74 0.06
3 -3 -3 0.73 0.06
-3 3 3 0.71 0.07
3 -3 -3 0.61 0.07
2 -3 -3 124.47 5.26
-2 3 3 125.29 5.84
2 -3 -3 127.07 4.93
2 -3 -3 119.6 5.6
1 -3 -3 1.56 0.11
1 -3 -3 1.75 0.1
1 -3 -3 1.7 0.11
1 -3 -3 1.57 0.1
0 -3 -3 0.08 0.04
0 3 3 0.13 0.03
0 -3 -3 0.11 0.03
0 -3 -3 0.11 0.03
1 3 3 12.78 0.52
-1 -3 -3 12.48 0.56
1 3 3 11.76 0.57
-1 -3 -3 12.2 0.63
-2 -3 -3 7.89 0.43
2 3 3 7.49 0.35
-2 -3 -3 8.15 0.38
3 3 3 8.59 0.38
-3 -3 -3 8.17 0.4
-3 -3 -3 8 0.46
4 3 3 5.77 0.29
-4 -3 -3 5.88 0.36
-4 -3 -3 6.03 0.31
5 3 3 10 0.46
-5 -3 -3 9.45 0.56
-5 -3 -3 9.81 0.48
-6 -3 -3 1.08 0.16
6 3 3 1.03 0.11
-7 -3 -3 0.89 0.16
7 3 3 1.03 0.12
9 -4 -3 2.25 0.2
-9 4 3 2.42 0.2
9 -4 -3 2.21 0.16
8 -4 -3 0.99 0.13
-8 4 3 0.94 0.14
8 -4 -3 1.03 0.1
7 -4 -3 0.47 0.07
-7 4 3 0.59 0.1
7 -4 -3 0.53 0.09
6 -4 -3 1.51 0.12
-6 4 3 1.6 0.14
6 -4 -3 1.61 0.14
5 -4 -3 0.17 0.05
5 -4 -3 0.17 0.05
-5 4 3 0.23 0.06
-4 4 3 1.68 0.13
4 -4 -3 1.79 0.11
4 -4 -3 1.65 0.13
3 -4 -3 6.13 0.33
3 -4 -3 6.67 0.28
-3 4 3 5.71 0.31
-3 4 3 6.2 0.32
2 -4 -3 14.88 0.61
2 -4 -3 14.01 0.69
2 -4 -3 14.24 0.71
1 -4 -3 44.51 1.93
1 -4 -3 44.54 2.15
1 -4 -3 45.95 2.07
1 -4 -3 45.28 1.82
0 -4 -3 19.3 0.84
0 -4 -3 18.75 0.94
0 4 3 18.54 0.88
1 4 3 0.24 0.04
1 4 3 0.27 0.04
-1 -4 -3 0.39 0.07
-1 -4 -3 0.41 0.05
-2 -4 -3 2.43 0.15
-2 -4 -3 2.49 0.18
2 4 3 2.48 0.15
3 4 3 8.38 0.38
-3 -4 -3 8.44 0.47
-3 -4 -3 7.92 0.4
4 4 3 0.88 0.1
-4 -4 -3 0.98 0.14
5 4 3 0.57 0.09
-5 -4 -3 0.51 0.12
6 4 3 10.03 0.47
-6 -4 -3 9.31 0.58
-9 5 3 0.05 0.09
9 -5 -3 0.07 0.07
-8 5 3 0.2 0.09
8 -5 -3 0.12 0.06
8 -5 -3 0.25 0.08
-7 5 3 2.17 0.18
7 -5 -3 2.29 0.15
7 -5 -3 2.2 0.18
-6 5 3 2.98 0.21
6 -5 -3 3.07 0.21
6 -5 -3 3.1 0.17
5 -5 -3 0.06 0.04
5 -5 -3 0.11 0.05
-5 5 3 0.08 0.06
4 -5 -3 8.07 0.44
4 -5 -3 8.86 0.38
-3 5 3 0.77 0.08
3 -5 -3 0.67 0.08
3 -5 -3 0.76 0.08
2 -5 -3 16.18 0.68
2 -5 -3 16.05 0.77
-2 5 3 14.61 0.72
2 -5 -3 16.49 0.79
1 -5 -3 9.03 0.43
1 -5 -3 9.17 0.48
1 -5 -3 9.23 0.42
0 -5 -3 2.36 0.17
0 -5 -3 2.3 0.14
0 5 3 2.26 0.15
-1 -5 -3 1.09 0.11
1 5 3 1.1 0.09
2 5 3 0.9 0.09
-2 -5 -3 0.98 0.12
-3 -5 -3 2.65 0.22
3 5 3 3.03 0.18
4 5 3 3.28 0.2
-4 -5 -3 3.12 0.25
5 5 3 0.66 0.1
-5 -5 -3 0.71 0.14
-9 6 3 0.78 0.15
9 -6 -3 0.56 0.12
-8 6 3 0.22 0.09
8 -6 -3 0.21 0.09
8 -6 -3 0.33 0.07
-7 6 3 2.52 0.2
7 -6 -3 2.57 0.2
7 -6 -3 2.65 0.16
6 -6 -3 17.59 0.88
-6 6 3 17.56 0.84
6 -6 -3 17.91 0.76
5 -6 -3 5.37 0.32
5 -6 -3 5.45 0.28
-5 6 3 5.61 0.31
-4 6 3 3.71 0.22
4 -6 -3 3.12 0.22
-3 6 3 0.26 0.07
3 -6 -3 0.4 0.07
3 -6 -3 0.52 0.07
2 -6 -3 10.33 0.54
2 -6 -3 10.48 0.55
2 -6 -3 10.92 0.48
-1 6 3 47.89 2.27
1 -6 -3 50.32 2.02
1 -6 -3 49.99 2.38
0 -6 -3 3.17 0.22
0 6 3 3.08 0.18
-1 -6 -3 1.27 0.13
1 6 3 1.29 0.11
2 6 3 3.33 0.19
-2 -6 -3 3.22 0.24
3 6 3 9.87 0.45
-3 -6 -3 9 0.55
-4 -6 -3 1.87 0.2
4 6 3 1.7 0.14
9 -7 -3 2.79 0.24
-9 7 3 2.81 0.24
8 -7 -3 1.69 0.14
-8 7 3 1.84 0.18
8 -7 -3 1.72 0.18
7 -7 -3 0.26 0.06
7 -7 -3 0.18 0.08
-7 7 3 0.18 0.08
6 -7 -3 0.65 0.11
6 -7 -3 0.64 0.09
-6 7 3 0.55 0.11
-5 7 3 0.03 0.06
5 -7 -3 0.03 0.05
5 -7 -3 0.14 0.06
4 -7 -3 1.08 0.11
4 -7 -3 1.08 0.12
-4 7 3 1.14 0.12
-3 7 3 0.16 0.06
3 -7 -3 0.19 0.06
2 -7 -3 15.04 0.67
-2 7 3 15.24 0.75
2 -7 -3 15.22 0.78
1 -7 -3 43.22 1.78
-1 7 3 42.18 2
1 -7 -3 44.15 2.1
0 7 3 11.6 0.53
0 -7 -3 11.71 0.63
1 7 3 0.27 0.06
-1 -7 -3 0.27 0.08
2 7 3 0.1 0.06
-2 -7 -3 0.21 0.08
-3 -7 -3 1.74 0.18
3 7 3 1.81 0.15
-8 8 3 3.41 0.26
8 -8 -3 3.29 0.27
7 -8 -3 2.22 0.17
7 -8 -3 2.06 0.2
-7 8 3 2.24 0.2
6 -8 -3 0.81 0.1
-6 8 3 0.61 0.12
6 -8 -3 0.71 0.11
-5 8 3 0.03 0.07
5 -8 -3 0.08 0.06
5 -8 -3 0.08 0.05
4 -8 -3 5.82 0.31
3 -8 -3 1.45 0.13
-3 8 3 1.76 0.16
-2 8 3 3.35 0.23
2 -8 -3 3.53 0.22
1 -8 -3 0.41 0.09
1 -8 -3 0.46 0.09
0 -8 -3 1.12 0.13
0 8 3 1 0.11
1 8 3 0.98 0.11
-1 -8 -3 1.12 0.14
-2 -8 -3 0 0.07
2 8 3 -0.02 0.05
-8 9 3 0.06 0.1
7 -9 -3 3.57 0.23
7 -9 -3 3.23 0.27
6 -9 -3 0.2 0.08
5 -9 -3 1.43 0.14
-5 9 3 1.61 0.17
4 -9 -3 2.32 0.17
-4 9 3 1.93 0.19
-3 9 3 0.79 0.12
3 -9 -3 0.88 0.12
-2 9 3 0.08 0.07
2 -9 -3 0.12 0.07
0 9 3 0.07 0.06
0 -9 -3 0.06 0.06
-1 -9 -3 0.74 0.13
1 9 3 0.85 0.11
6 -10 -3 0.78 0.13
5 -10 -3 0.72 0.12
-5 10 3 0.49 0.13
4 -10 -3 0.05 0.09
-4 10 3 0.09 0.1
3 -10 -3 7.24 0.39
-3 10 3 7.18 0.43
2 -10 -3 0.53 0.12
-1 10 3 -0.03 0.06
0 -10 -3 0.03 0.07
0 12 -4 5.83 0.36
-1 12 -4 0.72 0.12
1 -12 4 1.08 0.15
-2 12 -4 1.19 0.15
2 -12 4 1.68 0.17
3 -12 4 0.42 0.11
-3 12 -4 0.29 0.09
4 -12 4 1.73 0.17
-4 12 -4 1.15 0.15
1 11 -4 0.42 0.1
-1 -11 4 0.32 0.1
0 11 -4 3.87 0.26
0 -11 4 3.94 0.29
0 -11 4 3.89 0.26
1 -11 4 0.15 0.08
-1 11 -4 -0.01 0.07
-2 11 -4 1.29 0.14
2 -11 4 1.49 0.15
-3 11 -4 0.05 0.06
3 -11 4 0.02 0.07
4 -11 4 0.55 0.11
-4 11 -4 0.62 0.1
5 -11 4 0.15 0.09
-5 11 -4 0.18 0.07
6 -11 4 0.02 0.07
-6 11 -4 0.01 0.07
-7 11 -4 4.05 0.29
-3 -10 4 2.43 0.23
3 10 -4 2.44 0.17
-2 -10 4 0.92 0.15
2 10 -4 0.93 0.1
2 10 -4 0.85 0.12
-1 -10 4 0.18 0.08
1 10 -4 0.09 0.07
-1 -10 4 0.22 0.09
0 10 -4 0.07 0.06
0 -10 4 -0.04 0.06
0 -10 4 0.13 0.08
1 -10 4 0.76 0.11
1 -10 4 0.87 0.12
-1 10 -4 0.72 0.11
2 -10 4 0.08 0.07
-2 10 -4 0.03 0.06
-3 10 -4 2.05 0.17
3 -10 4 2.2 0.17
-4 10 -4 1.05 0.12
4 -10 4 1.32 0.14
-5 10 -4 0.19 0.07
5 -10 4 0.13 0.07
-6 10 -4 1.27 0.14
6 -10 4 1.17 0.14
7 -10 4 0.18 0.08
-7 10 -4 0.23 0.09
-8 10 -4 0.66 0.12
-4 -9 4 1.64 0.19
4 9 -4 1.66 0.14
3 9 -4 0.08 0.04
-3 -9 4 0.05 0.08
-2 -9 4 0.08 0.07
2 9 -4 0.08 0.06
2 9 -4 0.02 0.04
-1 -9 4 1.65 0.14
-1 -9 4 1.49 0.15
1 9 -4 1.34 0.13
0 9 -4 0.15 0.06
0 -9 4 0.3 0.08
0 -9 4 0.33 0.08
1 -9 4 11.29 0.6
-1 9 -4 10.88 0.56
1 -9 4 10.82 0.52
-2 9 -4 8.57 0.45
2 -9 4 8.44 0.47
2 -9 4 8.6 0.42
3 -9 4 0.06 0.06
-3 9 -4 0.04 0.05
-4 9 -4 1.98 0.16
4 -9 4 1.93 0.16
5 -9 4 7.44 0.38
-5 9 -4 7.56 0.42
6 -9 4 3.61 0.23
-6 9 -4 3.81 0.25
-7 9 -4 1.8 0.16
7 -9 4 1.75 0.15
-8 9 -4 0.09 0.09
8 -9 4 0.2 0.08
-5 -8 4 0.56 0.15
5 8 -4 0.64 0.09
-4 -8 4 0.18 0.1
4 8 -4 0.29 0.06
-3 -8 4 0 0.06
3 8 -4 0.01 0.05
3 8 -4 0.03 0.04
-2 -8 4 7.02 0.42
2 8 -4 6.87 0.33
2 8 -4 6.84 0.37
1 8 -4 1.64 0.14
-1 -8 4 1.74 0.16
-1 -8 4 1.84 0.14
0 8 -4 8.64 0.44
0 -8 4 8.09 0.4
0 -8 4 8.47 0.47
-1 8 -4 21.95 1.04
1 -8 4 21.49 0.93
1 -8 4 21.76 1.09
2 -8 4 5.74 0.29
2 -8 4 5.4 0.32
-2 8 -4 5.67 0.31
3 -8 4 6.24 0.32
-3 8 -4 6.6 0.35
-4 8 -4 0.36 0.07
4 -8 4 0.33 0.07
5 -8 4 14.95 0.69
-5 8 -4 15.59 0.72
-5 8 -4 15.86 0.77
-6 8 -4 3.21 0.21
6 -8 4 2.64 0.19
-6 8 -4 2.85 0.2
-7 8 -4 0.36 0.1
7 -8 4 0.26 0.08
-7 8 -4 0.3 0.08
-8 8 -4 0.84 0.14
8 -8 4 0.63 0.1
-6 -7 4 0.07 0.1
6 7 -4 0.05 0.06
-5 -7 4 5.65 0.39
5 7 -4 5.88 0.3
4 7 -4 1.32 0.12
4 7 -4 1.3 0.11
-4 -7 4 1.27 0.16
-3 -7 4 0.35 0.1
3 7 -4 0.2 0.06
3 7 -4 0.37 0.06
2 7 -4 2.52 0.17
2 7 -4 2.72 0.15
-2 -7 4 2.62 0.2
1 7 -4 10.23 0.51
-1 -7 4 9.88 0.55
-1 -7 4 10.05 0.46
0 -7 4 7.01 0.34
0 -7 4 7.25 0.4
0 7 -4 6.76 0.36
1 -7 4 2.16 0.14
1 -7 4 2.36 0.17
-1 7 -4 2.22 0.15
2 -7 4 17.29 0.85
-2 7 -4 17.68 0.82
2 -7 4 16.08 0.73
3 -7 4 0.15 0.05
-3 7 -4 0.19 0.05
-3 7 -4 0.22 0.04
3 -7 4 0.2 0.05
-4 7 -4 5.53 0.31
-4 7 -4 5.89 0.29
4 -7 4 5.24 0.28
-5 7 -4 1.44 0.13
-5 7 -4 1.59 0.13
5 -7 4 1.36 0.12
6 -7 4 7.49 0.41
-6 7 -4 9.33 0.46
-6 7 -4 8.92 0.45
-7 7 -4 4.05 0.26
7 -7 4 3.62 0.22
8 -7 4 0.53 0.1
-8 7 -4 0.81 0.13
-9 7 -4 0.94 0.16
7 6 -4 0.21 0.07
-7 -6 4 0.14 0.11
-6 -6 4 0.41 0.12
6 6 -4 0.56 0.09
-5 -6 4 24.65 1.3
5 6 -4 25.89 1.07
4 6 -4 0.31 0.06
-4 -6 4 0.37 0.1
4 6 -4 0.3 0.06
3 6 -4 0.57 0.08
3 6 -4 0.56 0.06
-3 -6 4 0.48 0.1
2 6 -4 4.34 0.22
-2 -6 4 4.54 0.29
2 6 -4 4.64 0.25
-1 -6 4 0.03 0.04
1 6 -4 0.03 0.03
-1 -6 4 0.03 0.04
0 -6 4 0.02 0.04
0 6 -4 0.06 0.03
0 -6 4 0.07 0.04
1 -6 4 4.98 0.29
-1 6 -4 5.11 0.27
1 -6 4 4.98 0.25
2 -6 4 6.1 0.34
-2 6 -4 6.09 0.32
-2 6 -4 6.09 0.29
2 -6 4 6.48 0.3
-3 6 -4 11.9 0.55
-3 6 -4 12.07 0.59
-4 6 -4 31.07 1.33
-4 6 -4 28.86 1.4
4 -6 4 30.75 1.25
-5 6 -4 0.84 0.1
5 -6 4 0.84 0.09
-5 6 -4 0.91 0.09
6 -6 4 3.05 0.19
-6 6 -4 3.67 0.21
-6 6 -4 3.27 0.22
7 -6 4 -0.01 0.05
-7 6 -4 0.03 0.07
-8 6 -4 2.59 0.21
8 -6 4 2.15 0.17
9 -6 4 2.26 0.18
-9 6 -4 2.52 0.22
8 5 -4 0.14 0.07
-8 -5 4 -0.02 0.11
7 5 -4 0.66 0.09
-7 -5 4 0.41 0.12
-6 -5 4 2.47 0.23
6 5 -4 2.84 0.17
5 5 -4 3.15 0.19
5 5 -4 3.14 0.18
-5 -5 4 3.09 0.24
4 5 -4 5.47 0.29
4 5 -4 5.46 0.26
-4 -5 4 5.31 0.34
-3 -5 4 2 0.16
3 5 -4 1.86 0.13
-2 -5 4 0.05 0.04
2 5 -4 0.05 0.03
2 5 -4 0.02 0.03
-1 -5 4 14.47 0.75
-1 -5 4 15.08 0.63
1 5 -4 14.98 0.71
0 -5 4 5.25 0.24
0 -5 4 5.02 0.29
0 5 -4 4.71 0.26
-1 5 -4 0.04 0.03
-1 5 -4 0.1 0.02
1 -5 4 0.08 0.04
1 -5 4 0.05 0.03
-2 5 -4 2.92 0.16
2 -5 4 2.91 0.19
-2 5 -4 2.97 0.17
2 -5 4 2.79 0.15
3 -5 4 0.15 0.04
-3 5 -4 0.15 0.04
-3 5 -4 0.16 0.04
3 -5 4 0.19 0.06
4 -5 4 13.21 0.57
5 -5 4 2.77 0.17
-5 5 -4 3.17 0.2
-5 5 -4 3.21 0.18
-6 5 -4 10.02 0.5
6 -5 4 9.53 0.45
-7 5 -4 0.05 0.06
7 -5 4 -0.03 0.04
8 -5 4 0 0.06
-8 5 -4 0.02 0.07
-9 5 -4 0.34 0.12
9 -5 4 0.32 0.09
8 4 -4 0.17 0.07
7 4 -4 1.06 0.1
-7 -4 4 0.89 0.15
-6 -4 4 0.27 0.09
6 4 -4 0.35 0.06
5 4 -4 0.98 0.09
5 4 -4 1.01 0.09
-5 -4 4 0.98 0.13
4 4 -4 2.9 0.17
-4 -4 4 2.83 0.2
4 4 -4 2.3 0.14
3 4 -4 31.12 1.25
-3 -4 4 30.62 1.33
-2 -4 4 6.01 0.28
2 4 -4 6.26 0.31
2 4 -4 6.13 0.27
-2 -4 4 6.09 0.35
-2 -4 4 6.1 0.35
-1 -4 4 149.89 5.91
-1 -4 4 147.49 7.02
1 4 -4 149.06 6.71
0 -4 4 45.53 2.02
0 4 -4 42.09 1.91
0 4 -4 39.58 1.78
0 -4 4 40.74 1.69
1 -4 4 0.23 0.07
1 -4 4 0.09 0.03
-1 4 -4 0.13 0.03
-1 4 -4 0.11 0.03
-2 4 -4 0.8 0.07
2 -4 4 0.78 0.06
-2 4 -4 0.77 0.07
3 -4 4 44.41 1.81
-3 4 -4 44.74 2.04
-3 4 -4 45.06 1.93
4 -4 4 2.52 0.15
-4 4 -4 2.3 0.15
4 -4 4 1.92 0.13
-4 4 -4 2.27 0.14
5 -4 4 1.08 0.1
-5 4 -4 0.99 0.11
-5 4 -4 1.26 0.09
6 -4 4 1.3 0.12
-6 4 -4 1.55 0.14
-7 4 -4 3.06 0.22
7 -4 4 3.15 0.2
-8 4 -4 2.47 0.2
8 -4 4 2.32 0.18
9 -4 4 0.36 0.09
-9 4 -4 0.34 0.1
8 3 -4 0.32 0.07
7 3 -4 7.43 0.35
-7 -3 4 6.75 0.43
6 3 -4 4.56 0.23
-6 -3 4 4.61 0.31
5 3 -4 0.5 0.07
-5 -3 4 0.53 0.07
5 3 -4 0.47 0.06
-5 -3 4 0.53 0.09
4 3 -4 7.35 0.37
3 3 -4 7.14 0.3
-3 -3 4 6.42 0.38
3 3 -4 6.9 0.35
-3 -3 4 7.06 0.32
2 3 -4 11.47 0.46
2 3 -4 11.13 0.53
-2 -3 4 11.09 0.57
-2 -3 4 10.82 0.49
1 3 -4 7.66 0.34
1 3 -4 7.42 0.38
-1 -3 4 7.8 0.33
-1 -3 4 8.19 0.42
0 3 -4 37.74 1.64
0 -3 4 39.68 1.54
0 3 -4 37.75 1.75
-1 3 -4 0.53 0.05
2 -3 4 9.24 0.4
-2 3 -4 8.67 0.44
2 -3 4 10.25 0.48
-2 3 -4 8.92 0.43
-3 3 -4 43.89 2.02
3 -3 4 43.82 1.8
3 -3 4 46.23 2.13
-3 3 -4 44.38 1.92
4 -3 4 0.04 0.03
4 -3 4 -0.02 0.03
-4 3 -4 0.02 0.04
-4 3 -4 0.03 0.03
5 -3 4 6.98 0.37
5 -3 4 6.62 0.33
-5 3 -4 6.9 0.36
6 -3 4 12.33 0.57
-6 3 -4 13.26 0.63
-7 3 -4 1.2 0.14
7 -3 4 1.11 0.11
-8 3 -4 0.79 0.12
8 -3 4 0.73 0.1
8 2 -4 0.64 0.09
-7 -2 4 1.12 0.14
7 2 -4 1.17 0.1
-7 -2 4 1.29 0.12
-6 -2 4 8.34 0.42
6 2 -4 8.66 0.38
-6 -2 4 8.37 0.47
5 2 -4 1.8 0.11
5 2 -4 1.57 0.12
-5 -2 4 1.87 0.13
-4 -2 4 47.33 2.04
4 2 -4 49.14 2.17
4 2 -4 46.5 1.9
-4 -2 4 46.72 2.28
-3 -2 4 0.02 0.03
-3 -2 4 0.04 0.02
3 2 -4 0.03 0.02
3 2 -4 0.03 0.02
2 2 -4 0.09 0.02
-2 -2 4 0.04 0.04
2 2 -4 0.02 0.02
-2 -2 4 0.03 0.02
-1 -2 4 2.87 0.13
1 2 -4 2.91 0.14
-1 2 -4 45.46 1.93
-1 2 -4 43.15 2.04
1 -2 4 46.45 1.8
-2 2 -4 33.68 1.49
-2 2 -4 31.9 1.56
2 -2 4 36.9 1.39
2 -2 4 35.63 1.66
-3 2 -4 14.18 0.64
3 -2 4 14.67 0.59
-3 2 -4 13.33 0.64
3 -2 4 13.74 0.7
4 -2 4 10.66 0.46
4 -2 4 10.13 0.54
-5 2 -4 0.6 0.08
5 -2 4 0.53 0.07
6 -2 4 0.25 0.06
7 -2 4 0.1 0.06
-7 2 -4 0.29 0.08
-8 2 -4 0.27 0.08
8 -2 4 0.32 0.08
-9 -1 4 0.91 0.13
8 1 -4 0.16 0.05
-8 -1 4 0.26 0.07
7 1 -4 8.18 0.37
7 1 -4 7.75 0.42
-7 -1 4 8.11 0.42
-6 -1 4 0.64 0.09
6 1 -4 0.77 0.07
-6 -1 4 0.51 0.09
5 1 -4 2.16 0.12
-5 -1 4 2.22 0.15
-5 -1 4 2.29 0.16
-4 -1 4 21.17 1.03
-4 -1 4 20.95 0.93
4 1 -4 21.11 0.85
4 1 -4 20.69 0.98
-3 -1 4 12.05 0.56
3 1 -4 11.98 0.5
3 1 -4 11.77 0.58
-3 -1 4 13.01 0.62
2 1 -4 29.73 1.36
1 1 -4 0.7 0.05
-1 -1 4 0.39 0.06
1 1 -4 0.69 0.05
0 -1 4 105.37 4.66
0 1 -4 96.4 4.18
0 1 -4 90.62 4.44
0 -1 4 102.03 3.92
-1 1 -4 47.28 2.06
-1 1 -4 45.9 2.17
1 -1 4 49.18 2.29
1 -1 4 50.14 1.92
2 -1 4 2.84 0.18
-2 1 -4 2.8 0.16
2 -1 4 3.12 0.14
-3 1 -4 2.91 0.17
3 -1 4 2.65 0.14
-3 1 -4 2.59 0.16
4 -1 4 19.22 0.83
-4 1 -4 19.36 0.9
-4 1 -4 21.46 0.99
5 -1 4 0.86 0.09
-5 1 -4 1.01 0.11
-5 1 -4 0.88 0.1
-6 1 -4 0.26 0.07
-6 1 -4 0.35 0.08
6 -1 4 0.31 0.07
7 -1 4 2.38 0.17
-7 1 -4 2.35 0.18
8 -1 4 3.16 0.22
-8 1 -4 3.39 0.24
-8 0 4 0.88 0.12
7 0 -4 0.15 0.04
7 0 -4 0.17 0.06
-7 0 4 0.11 0.06
-6 0 4 17.97 0.82
6 0 -4 16.87 0.85
-6 0 4 18.38 0.89
5 0 -4 0.2 0.04
-5 0 4 0.32 0.06
-5 0 4 0.2 0.05
5 0 -4 0.31 0.04
4 0 -4 2.63 0.12
4 0 -4 2.24 0.15
-4 0 4 2.54 0.16
-4 0 4 2.5 0.16
-3 0 4 14.58 0.66
3 0 -4 14.33 0.69
-3 0 4 14.26 0.74
3 0 -4 15.3 0.59
1 0 -4 39.95 1.85
1 0 -4 41.54 1.74
0 0 -4 14.75 0.71
0 0 4 16.44 0.76
0 0 4 15.11 0.62
0 0 -4 15.23 0.68
-1 0 -4 12.62 0.55
1 0 4 11.51 0.59
1 0 4 11.77 0.49
-1 0 -4 11.55 0.54
2 0 4 0.62 0.05
-2 0 -4 0.57 0.06
-2 0 -4 0.53 0.07
3 0 4 0.42 0.05
-3 0 -4 0.4 0.06
-3 0 -4 0.49 0.07
-4 0 -4 26.55 1.21
4 0 4 27.64 1.13
-4 0 -4 27.68 1.34
-5 0 -4 0.54 0.09
5 0 4 0.52 0.07
-5 0 -4 0.64 0.1
-6 0 -4 2.4 0.19
6 0 4 2.3 0.16
-6 0 -4 2.22 0.17
-7 0 -4 0.52 0.09
7 0 4 0.45 0.09
-8 0 -4 0.34 0.09
8 0 4 0.28 0.08
-9 1 4 0.23 0.08
-8 1 4 0.11 0.06
8 -1 -4 0.16 0.06
7 -1 -4 3.2 0.18
7 -1 -4 3.23 0.21
-7 1 4 3.44 0.22
6 -1 -4 7.92 0.36
6 -1 -4 8.37 0.42
-6 1 4 7.85 0.41
-5 1 4 0.39 0.06
5 -1 -4 0.29 0.05
-5 1 4 0.43 0.07
5 -1 -4 0.44 0.05
-4 1 4 22.24 1.02
4 -1 -4 22.19 1.07
4 -1 -4 23.97 0.93
-4 1 4 23.6 1.12
-2 1 4 3.26 0.17
2 -1 -4 2.57 0.15
2 -1 -4 2.46 0.15
1 -1 -4 3.79 0.2
1 -1 -4 3.63 0.19
-1 1 4 3.91 0.21
0 1 4 0.35 0.05
0 -1 -4 0.4 0.05
0 -1 -4 0.44 0.04
0 1 4 0.37 0.03
-1 -1 -4 69.5 3.48
-1 -1 -4 77.01 3.32
-1 -1 -4 73.43 3.14
1 1 4 74.36 2.93
-2 -1 -4 3.8 0.21
-2 -1 -4 3.98 0.24
2 1 4 4.24 0.19
-3 -1 -4 1.22 0.11
-3 -1 -4 1.22 0.1
3 1 4 1.17 0.08
4 1 4 4.16 0.22
-4 -1 -4 4.38 0.25
-4 -1 -4 4.27 0.27
-5 -1 -4 6.08 0.37
5 1 4 6.04 0.3
-5 -1 -4 5.83 0.32
-6 -1 -4 18.15 0.87
-6 -1 -4 18.62 0.97
6 1 4 19.12 0.81
-7 -1 -4 1.39 0.14
-7 -1 -4 1.6 0.17
7 1 4 1.41 0.13
-8 -1 -4 0.22 0.08
-9 2 4 3.83 0.27
8 -2 -4 0.16 0.07
-8 2 4 0.22 0.07
-7 2 4 9.79 0.51
7 -2 -4 9.98 0.52
7 -2 -4 10.32 0.45
6 -2 -4 27.59 1.3
6 -2 -4 27.74 1.13
-6 2 4 27.3 1.24
5 -2 -4 0.11 0.03
-5 2 4 0.06 0.04
5 -2 -4 0.03 0.03
-4 2 4 30.66 1.37
4 -2 -4 31.7 1.45
-3 2 4 3.01 0.19
3 -2 -4 3.14 0.19
3 -2 -4 3.45 0.16
-3 2 4 3.72 0.2
2 -2 -4 11.28 0.52
2 -2 -4 11.55 0.48
-2 2 4 11.94 0.58
2 -2 -4 11.17 0.55
-1 2 4 32.34 1.53
1 -2 -4 31.24 1.37
1 -2 -4 31.2 1.28
1 -2 -4 32.03 1.45
0 2 4 13.59 0.57
0 -2 -4 13.44 0.62
0 -2 -4 14.64 0.64
0 -2 -4 13.34 0.69
1 2 4 96.36 3.81
-1 -2 -4 100.34 4.31
-1 -2 -4 89.63 4.52
-1 -2 -4 96.07 4.07
2 2 4 0.53 0.05
-2 -2 -4 0.3 0.06
-2 -2 -4 0.34 0.06
-3 -2 -4 0.6 0.08
-3 -2 -4 0.77 0.1
3 2 4 0.75 0.07
-4 -2 -4 0.01 0.06
4 2 4 0.08 0.04
-4 -2 -4 -0.01 0.04
5 2 4 1.29 0.11
-5 -2 -4 1.39 0.12
-5 -2 -4 1.25 0.14
6 2 4 1.58 0.14
-6 -2 -4 1.81 0.15
-6 -2 -4 1.91 0.19
-7 -2 -4 1.41 0.17
-7 -2 -4 1.45 0.15
7 2 4 1.31 0.13
9 -3 -4 0.04 0.07
-9 3 4 0.04 0.06
-8 3 4 8.89 0.49
8 -3 -4 9.3 0.49
7 -3 -4 3.96 0.25
-7 3 4 3.89 0.25
7 -3 -4 3.67 0.2
6 -3 -4 33.6 1.54
6 -3 -4 31.94 1.34
-6 3 4 33.18 1.47
5 -3 -4 8.23 0.44
5 -3 -4 8.68 0.37
-3 3 4 0.1 0.03
3 -3 -4 0.1 0.03
3 -3 -4 0.08 0.03
-3 3 4 0.06 0.04
2 -3 -4 0.51 0.06
-2 3 4 0.5 0.06
2 -3 -4 0.42 0.05
2 -3 -4 0.51 0.05
1 -3 -4 0.3 0.04
1 -3 -4 0.27 0.04
1 -3 -4 0.25 0.04
1 -3 -4 0.3 0.05
0 3 4 0.06 0.02
0 -3 -4 0.01 0.02
0 -3 -4 -0.02 0.02
0 -3 -4 0.01 0.02
-1 -3 -4 21.84 0.96
-1 -3 -4 20.77 1.07
1 3 4 22.15 0.89
-2 -3 -4 4.62 0.28
-3 -3 -4 0.25 0.07
-3 -3 -4 0.2 0.06
3 3 4 0.21 0.05
-4 -3 -4 1.65 0.16
-4 -3 -4 1.53 0.13
4 3 4 1.59 0.12
-5 -3 -4 1.4 0.13
5 3 4 1.56 0.13
-5 -3 -4 1.54 0.17
6 3 4 0.01 0.06
-6 -3 -4 0.12 0.09
9 -4 -4 0.34 0.1
-9 4 4 0.44 0.1
8 -4 -4 0.03 0.06
-8 4 4 0.08 0.08
7 -4 -4 2.94 0.21
7 -4 -4 2.93 0.17
-7 4 4 2.94 0.21
6 -4 -4 -0.01 0.04
-6 4 4 0.02 0.06
6 -4 -4 -0.07 0.04
-5 4 4 0.65 0.09
5 -4 -4 0.69 0.09
-4 4 4 57.82 2.53
4 -4 -4 59.47 2.35
4 -4 -4 57.92 2.68
-3 4 4 5.63 0.3
2 -4 -4 4.39 0.21
2 -4 -4 4.23 0.24
2 -4 -4 4.12 0.22
1 -4 -4 4.54 0.22
1 -4 -4 4.19 0.23
1 -4 -4 4.66 0.24
1 -4 -4 4.1 0.25
0 4 4 8.2 0.37
0 -4 -4 7.8 0.44
0 -4 -4 8.32 0.4
0 -4 -4 8.76 0.42
-1 -4 -4 0.44 0.06
1 4 4 0.28 0.05
-1 -4 -4 0.37 0.07
-2 -4 -4 0.93 0.11
2 4 4 0.9 0.09
-2 -4 -4 0.9 0.09
-3 -4 -4 0.21 0.08
-3 -4 -4 0.14 0.05
3 4 4 0.13 0.05
-4 -4 -4 2.93 0.23
4 4 4 2.84 0.18
5 4 4 0.02 0.05
-5 -4 -4 0.03 0.08
-6 -4 -4 0.01 0.09
10 -5 -4 0.39 0.12
9 -5 -4 -0.06 0.07
-9 5 4 0.08 0.09
8 -5 -4 11.26 0.59
-8 5 4 10.34 0.57
7 -5 -4 0.03 0.05
-7 5 4 -0.02 0.06
-6 5 4 -0.04 0.05
6 -5 -4 0.13 0.06
6 -5 -4 0.12 0.04
5 -5 -4 1.69 0.14
-5 5 4 1.58 0.14
5 -5 -4 1.81 0.12
-4 5 4 2.89 0.2
4 -5 -4 3.47 0.18
4 -5 -4 3.03 0.2
3 -5 -4 6.12 0.34
-3 5 4 5.67 0.32
-3 5 4 6.17 0.34
3 -5 -4 6.49 0.3
2 -5 -4 0.37 0.06
2 -5 -4 0.32 0.06
2 -5 -4 0.37 0.06
2 -5 -4 0.29 0.05
1 -5 -4 13.61 0.64
1 -5 -4 14.94 0.69
1 -5 -4 14.06 0.61
1 -5 -4 13.79 0.72
0 -5 -4 0.45 0.08
0 -5 -4 0.38 0.06
0 5 4 0.21 0.05
-1 -5 -4 0.18 0.06
-1 -5 -4 0.09 0.04
1 5 4 0.17 0.05
-2 -5 -4 34.05 1.69
2 5 4 33.9 1.41
3 5 4 0.43 0.08
-3 -5 -4 0.42 0.1
-4 -5 -4 6.84 0.45
4 5 4 7.53 0.37
-5 -5 -4 0.89 0.16
5 5 4 0.88 0.11
9 -6 -4 1.25 0.16
-9 6 4 1.23 0.18
8 -6 -4 0.06 0.07
-8 6 4 -0.03 0.07
7 -6 -4 0.27 0.09
-7 6 4 0.4 0.1
6 -6 -4 0.24 0.06
-6 6 4 0.11 0.07
6 -6 -4 0.48 0.09
-5 6 4 6.3 0.35
5 -6 -4 6.58 0.31
5 -6 -4 5.98 0.36
-4 6 4 0.18 0.07
4 -6 -4 0.07 0.05
4 -6 -4 0.12 0.05
-3 6 4 0.73 0.1
3 -6 -4 0.87 0.09
3 -6 -4 1.05 0.1
2 -6 -4 3.75 0.24
2 -6 -4 3.93 0.24
2 -6 -4 3.93 0.21
1 -6 -4 72.3 2.88
1 -6 -4 68.68 3.05
1 -6 -4 72.52 3.41
-1 6 4 71.43 3.25
0 -6 -4 12.11 0.65
0 6 4 12 0.54
1 6 4 0.05 0.04
-1 -6 -4 0.05 0.06
-2 -6 -4 2.67 0.22
2 6 4 2.81 0.18
-3 -6 -4 2.34 0.21
3 6 4 2.4 0.17
-4 -6 -4 -0.01 0.08
4 6 4 -0.01 0.06
-8 7 4 12.06 0.63
8 -7 -4 11.7 0.65
-7 7 4 0.48 0.11
7 -7 -4 0.55 0.11
6 -7 -4 0.21 0.07
-6 7 4 0.08 0.08
6 -7 -4 0.15 0.06
5 -7 -4 9.82 0.44
5 -7 -4 8.57 0.5
-5 7 4 8.82 0.48
4 -7 -4 2.33 0.16
4 -7 -4 1.95 0.17
-4 7 4 2.01 0.17
3 -7 -4 0.18 0.05
3 -7 -4 0.06 0.05
-3 7 4 0.07 0.06
2 -7 -4 0.41 0.08
-2 7 4 0.42 0.09
2 -7 -4 0.49 0.09
1 -7 -4 0.05 0.05
0 7 4 1.3 0.12
0 -7 -4 1.41 0.14
1 7 4 0.02 0.05
-1 -7 -4 0.07 0.06
-2 -7 -4 0.11 0.07
2 7 4 0.11 0.06
-3 -7 -4 0.13 0.08
3 7 4 0.25 0.08
-8 8 4 1.02 0.16
7 -8 -4 1.48 0.17
-7 8 4 1.57 0.17
-6 8 4 0.05 0.08
6 -8 -4 0.09 0.06
5 -8 -4 0.61 0.09
-5 8 4 0.42 0.1
5 -8 -4 0.66 0.11
4 -8 -4 0.26 0.07
-3 8 4 3.17 0.24
3 -8 -4 3.49 0.21
2 -8 -4 0.09 0.07
-2 8 4 0.04 0.07
-1 8 4 3.07 0.2
1 -8 -4 3.3 0.24
0 -8 -4 0.86 0.12
0 8 4 0.79 0.1
1 8 4 0.41 0.08
-1 -8 -4 0.63 0.12
2 8 4 0.33 0.09
-2 -8 -4 0.3 0.1
6 -9 -4 1.04 0.15
-5 9 4 0.11 0.1
5 -9 -4 0.15 0.08
-4 9 4 2.33 0.22
4 -9 -4 2.45 0.18
3 -9 -4 0 0.07
-3 9 4 -0.02 0.08
2 -9 -4 1.82 0.16
-1 9 4 0.52 0.09
0 -9 -4 6.21 0.4
0 9 4 6.07 0.33
-5 10 4 0.89 0.16
4 -10 -4 0.41 0.11
-4 10 4 0.17 0.11
3 -10 -4 2.97 0.23
0 -12 5 2.06 0.21
0 12 -5 2.01 0.19
-1 12 -5 8.98 0.51
1 -12 5 9.72 0.49
-2 12 -5 0.28 0.09
2 -12 5 0.43 0.11
3 -12 5 0.32 0.1
-3 12 -5 0.34 0.09
-4 12 -5 0.49 0.11
4 -12 5 0.77 0.13
2 11 -5 1.57 0.16
2 11 -5 1.56 0.14
-1 -11 5 0.25 0.1
1 11 -5 0.3 0.09
0 -11 5 2.15 0.18
0 -11 5 1.77 0.18
0 11 -5 1.83 0.17
-1 11 -5 5.89 0.36
1 -11 5 6.39 0.35
2 -11 5 1.88 0.17
-2 11 -5 1.6 0.16
-3 11 -5 0.1 0.06
3 -11 5 0.13 0.09
4 -11 5 3.94 0.26
-4 11 -5 3.78 0.26
5 -11 5 0.11 0.09
-5 11 -5 0.08 0.07
6 -11 5 1.31 0.15
-6 11 -5 1.33 0.15
-7 11 -5 0.1 0.09
-3 -10 5 0.02 0.09
3 10 -5 0.02 0.05
2 10 -5 0.17 0.06
2 10 -5 0.03 0.07
-2 -10 5 0.04 0.08
-1 -10 5 0.6 0.11
1 10 -5 0.56 0.09
-1 -10 5 0.58 0.11
0 10 -5 0.16 0.07
0 -10 5 0.18 0.08
0 -10 5 0.23 0.08
-1 10 -5 1.41 0.14
1 -10 5 1.64 0.15
1 -10 5 1.43 0.15
-2 10 -5 0 0.06
2 -10 5 0.04 0.06
3 -10 5 0.67 0.11
-3 10 -5 0.66 0.09
4 -10 5 0.78 0.12
-4 10 -5 0.91 0.11
-5 10 -5 0.91 0.12
5 -10 5 1.01 0.13
-6 10 -5 1.84 0.17
6 -10 5 1.99 0.17
-7 10 -5 0.47 0.1
7 -10 5 0.37 0.09
4 9 -5 0.66 0.09
-4 -9 5 0.67 0.15
-3 -9 5 2.03 0.19
3 9 -5 1.75 0.13
3 9 -5 1.5 0.15
2 9 -5 6.02 0.3
-2 -9 5 5.76 0.38
2 9 -5 5.87 0.34
-1 -9 5 0.74 0.12
-1 -9 5 0.53 0.1
1 9 -5 0.51 0.09
0 9 -5 2.09 0.16
0 -9 5 2.25 0.19
0 -9 5 2.3 0.17
1 -9 5 15.63 0.69
-1 9 -5 14.96 0.76
1 -9 5 15.45 0.8
2 -9 5 7.04 0.4
-2 9 -5 6.66 0.38
2 -9 5 7.1 0.35
-3 9 -5 2.77 0.19
3 -9 5 2.83 0.19
4 -9 5 1.48 0.13
-4 9 -5 1.33 0.13
5 -9 5 12.41 0.6
-5 9 -5 13.62 0.67
6 -9 5 15.4 0.72
-6 9 -5 16.53 0.8
-7 9 -5 0 0.06
7 -9 5 -0.02 0.06
-8 9 -5 0.19 0.1
5 8 -5 3.64 0.22
-5 -8 5 3.91 0.32
4 8 -5 0.54 0.09
4 8 -5 0.7 0.08
-4 -8 5 0.54 0.13
3 8 -5 0.02 0.03
3 8 -5 0.05 0.06
-3 -8 5 0.03 0.07
2 8 -5 0.73 0.1
-2 -8 5 0.77 0.12
2 8 -5 0.76 0.08
-1 -8 5 1.96 0.15
1 8 -5 1.85 0.15
-1 -8 5 2.03 0.17
0 8 -5 0.11 0.05
0 -8 5 0.04 0.05
0 -8 5 0.05 0.05
1 -8 5 2.06 0.16
1 -8 5 1.9 0.14
-1 8 -5 2.01 0.15
2 -8 5 7.87 0.38
-2 8 -5 7.92 0.42
-3 8 -5 3.25 0.21
3 -8 5 3.22 0.2
4 -8 5 0.01 0.05
-4 8 -5 0.09 0.05
-5 8 -5 0.46 0.09
-5 8 -5 0.64 0.09
5 -8 5 0.78 0.1
-6 8 -5 40.73 1.8
6 -8 5 38.15 1.69
-6 8 -5 43.18 1.9
-7 8 -5 1.18 0.15
7 -8 5 1.26 0.13
-8 8 -5 0.26 0.1
8 -8 5 0.15 0.08
6 7 -5 1.79 0.14
-6 -7 5 1.43 0.2
-5 -7 5 0.08 0.1
4 7 -5 0.13 0.06
-4 -7 5 0.09 0.08
4 7 -5 0.2 0.05
3 7 -5 12.21 0.52
3 7 -5 12.03 0.59
-3 -7 5 10.86 0.64
2 7 -5 0.53 0.08
-2 -7 5 0.38 0.09
1 7 -5 10.27 0.51
-1 -7 5 9.87 0.46
-1 -7 5 10.02 0.55
0 7 -5 0.35 0.06
0 -7 5 0.39 0.07
0 -7 5 0.34 0.07
1 -7 5 -0.01 0.04
-1 7 -5 0.04 0.04
1 -7 5 -0.02 0.03
2 -7 5 0.25 0.06
-2 7 -5 0.26 0.05
2 -7 5 0.3 0.06
-3 7 -5 15.63 0.75
-3 7 -5 15.32 0.7
3 -7 5 15.49 0.67
3 -7 5 15.47 0.78
4 -7 5 4.66 0.25
-5 7 -5 1.23 0.11
5 -7 5 1.24 0.11
-5 7 -5 1.37 0.13
-6 7 -5 6.03 0.32
-6 7 -5 5.77 0.33
6 -7 5 5.23 0.29
-7 7 -5 4.69 0.28
7 -7 5 3.74 0.24
-8 7 -5 0.06 0.09
8 -7 5 0 0.06
-7 -6 5 0.07 0.1
-6 -6 5 0.82 0.15
6 6 -5 1.22 0.11
-5 -6 5 0.76 0.14
5 6 -5 0.44 0.07
5 6 -5 0.38 0.08
-4 -6 5 15.7 0.85
4 6 -5 16.16 0.78
4 6 -5 15.99 0.68
3 6 -5 13.42 0.57
-3 -6 5 13.42 0.72
3 6 -5 13.23 0.66
-2 -6 5 1.06 0.12
2 6 -5 1.18 0.1
-1 -6 5 2.18 0.14
1 6 -5 2.19 0.15
-1 -6 5 2.18 0.17
0 6 -5 34.66 1.64
0 -6 5 34.49 1.45
0 -6 5 37.29 1.73
2 -6 5 39.07 1.61
-2 6 -5 39.95 1.7
-3 6 -5 0.37 0.06
3 -6 5 0.35 0.08
3 -6 5 0.28 0.05
-3 6 -5 0.15 0.05
-4 6 -5 1.98 0.14
-4 6 -5 2.19 0.14
4 -6 5 1.96 0.14
-5 6 -5 2.89 0.18
5 -6 5 2.57 0.17
-5 6 -5 2.89 0.19
-6 6 -5 1.47 0.14
6 -6 5 1.34 0.12
-7 6 -5 3.25 0.23
7 -6 5 2.59 0.19
-8 6 -5 1.47 0.16
8 -6 5 1.3 0.13
-8 -5 5 3.76 0.32
-7 -5 5 0.18 0.11
-6 -5 5 2.22 0.21
6 5 -5 2.19 0.15
5 5 -5 0.11 0.04
-5 -5 5 0.16 0.08
5 5 -5 0.13 0.06
4 5 -5 0.58 0.06
4 5 -5 0.56 0.07
-4 -5 5 0.62 0.11
-3 -5 5 1.84 0.16
3 5 -5 1.89 0.13
2 5 -5 0.22 0.05
-2 -5 5 0.17 0.06
-1 -5 5 24.97 1.24
1 5 -5 24.33 1.16
-1 -5 5 25.5 1.03
0 5 -5 2.12 0.12
0 -5 5 2.2 0.13
0 5 -5 2.31 0.14
0 -5 5 2.6 0.17
1 -5 5 7.59 0.35
-1 5 -5 7.52 0.36
-1 5 -5 7.7 0.39
1 -5 5 8.56 0.44
-2 5 -5 17.7 0.79
2 -5 5 17.71 0.74
-2 5 -5 18.02 0.84
3 -5 5 0.08 0.04
3 -5 5 0.02 0.05
-3 5 -5 0.03 0.03
-3 5 -5 0.06 0.04
4 -5 5 0.82 0.1
4 -5 5 1.13 0.09
-4 5 -5 1.5 0.11
5 -5 5 0.11 0.05
-5 5 -5 0.29 0.07
-5 5 -5 0.08 0.04
-6 5 -5 0.09 0.06
6 -5 5 -0.08 0.04
-7 5 -5 4.2 0.27
7 -5 5 3.76 0.24
-8 5 -5 0.6 0.13
8 -5 5 0.54 0.1
-7 -4 5 0.02 0.08
6 4 -5 2.58 0.18
-6 -4 5 2.82 0.23
6 4 -5 2.54 0.16
-5 -4 5 0.26 0.09
5 4 -5 0.23 0.06
5 4 -5 0.25 0.05
4 4 -5 1.53 0.1
-4 -4 5 1.88 0.16
4 4 -5 1.6 0.12
-3 -4 5 20.14 1.02
2 4 -5 8.8 0.44
2 4 -5 8.93 0.38
-2 -4 5 9 0.48
-2 -4 5 8.88 0.4
-1 -4 5 95.24 3.74
1 4 -5 91.05 4.24
1 4 -5 90.48 3.97
-1 -4 5 98.47 4.46
0 -4 5 152.74 6.15
0 4 -5 156.04 6.98
0 4 -5 153.33 6.54
0 -4 5 157.91 7.32
-1 4 -5 16.37 0.72
1 -4 5 16.1 0.67
3 -4 5 1.48 0.1
-3 4 -5 1.57 0.1
3 -4 5 1.65 0.13
-3 4 -5 1.69 0.12
4 -4 5 86.68 3.84
-4 4 -5 78.9 3.46
4 -4 5 76.75 3.24
5 -4 5 0.35 0.06
5 -4 5 0.24 0.06
-5 4 -5 0.25 0.07
6 -4 5 1.38 0.12
-6 4 -5 1.42 0.14
-7 4 -5 0.3 0.09
7 -4 5 0.32 0.08
-8 4 -5 0.31 0.1
8 -4 5 0.29 0.08
-7 -3 5 0.45 0.11
6 3 -5 9.37 0.49
6 3 -5 10.49 0.44
-6 -3 5 9.46 0.55
-5 -3 5 6.51 0.33
5 3 -5 6.31 0.34
-5 -3 5 6.68 0.39
5 3 -5 6.49 0.3
-4 -3 5 0.67 0.07
4 3 -5 0.61 0.07
-4 -3 5 0.43 0.09
4 3 -5 0.8 0.06
-3 -3 5 0.67 0.09
3 3 -5 0.64 0.07
-3 -3 5 0.77 0.07
3 3 -5 0.82 0.05
-2 -3 5 37.7 1.73
2 3 -5 36.84 1.43
2 3 -5 34.84 1.64
-2 -3 5 33.13 1.53
-1 -3 5 158.68 7.8
1 3 -5 166.19 7.45
-1 -3 5 172.97 6.56
1 3 -5 163.75 6.98
0 -3 5 5.93 0.26
0 3 -5 6.08 0.28
1 -3 5 55.35 2.24
-1 3 -5 57 2.4
-1 3 -5 56.21 2.55
-2 3 -5 0.35 0.04
-2 3 -5 0.33 0.05
2 -3 5 0.41 0.06
2 -3 5 0.34 0.04
3 -3 5 38.31 1.58
-3 3 -5 39.47 1.69
3 -3 5 40.01 1.87
-3 3 -5 37.54 1.76
4 -3 5 1 0.09
-4 3 -5 1.12 0.1
4 -3 5 1.25 0.1
-5 3 -5 7.26 0.38
5 -3 5 6.8 0.39
5 -3 5 7.08 0.34
-6 3 -5 0.01 0.06
6 -3 5 -0.06 0.04
7 -3 5 0.38 0.08
-7 3 -5 0.32 0.08
-8 3 -5 1.15 0.15
8 -3 5 1.04 0.13
-7 -2 5 4.44 0.27
7 2 -5 4.4 0.27
6 2 -5 3.04 0.16
6 2 -5 3 0.19
-6 -2 5 2.82 0.22
-6 -2 5 2.99 0.19
-5 -2 5 8.87 0.48
5 2 -5 8.28 0.44
5 2 -5 9.35 0.38
-5 -2 5 8.55 0.43
-4 -2 5 29.4 1.29
-3 -2 5 0.3 0.06
3 2 -5 0.2 0.03
-3 -2 5 0.19 0.04
3 2 -5 0.2 0.04
-2 -2 5 37.52 1.81
2 2 -5 38.66 1.6
2 2 -5 35.85 1.7
0 -2 5 123.02 4.84
0 2 -5 122.35 5.17
0 -2 5 118.87 5.77
0 2 -5 123.88 5.5
1 -2 5 0.09 0.02
-1 2 -5 0.12 0.03
1 -2 5 0.21 0.05
-1 2 -5 0.08 0.02
2 -2 5 0.3 0.05
-2 2 -5 0.33 0.05
-2 2 -5 0.24 0.03
2 -2 5 0.39 0.04
-3 2 -5 0.66 0.05
3 -2 5 0.7 0.06
3 -2 5 0.72 0.08
-3 2 -5 0.57 0.07
4 -2 5 27.68 1.12
-4 2 -5 26.74 1.21
-5 2 -5 0.03 0.04
5 -2 5 0.26 0.06
5 -2 5 0.04 0.04
6 -2 5 0.41 0.08
-6 2 -5 0.41 0.08
6 -2 5 0.39 0.08
-7 2 -5 4.53 0.29
7 -2 5 4.47 0.26
8 -2 5 0.04 0.06
-8 2 -5 0.11 0.07
-9 -1 5 1.35 0.15
-8 -1 5 -0.01 0.06
8 1 -5 0.07 0.06
-7 -1 5 16.39 0.77
7 1 -5 15.63 0.78
-6 -1 5 0.11 0.07
-6 -1 5 0.28 0.06
6 1 -5 0.22 0.06
5 1 -5 0 0.04
5 1 -5 0.03 0.02
-5 -1 5 0.04 0.04
-5 -1 5 0.05 0.03
-4 -1 5 29.77 1.42
-4 -1 5 28.61 1.28
4 1 -5 28.99 1.35
4 1 -5 28.97 1.17
-3 -1 5 47.31 2.12
3 1 -5 47.85 2.24
-3 -1 5 52.45 2.37
2 1 -5 3.8 0.19
1 1 -5 68.43 3.12
1 1 -5 68.69 2.93
-1 -1 5 69.54 3.28
0 1 -5 86.89 3.82
0 -1 5 94.72 3.58
0 -1 5 95.17 4.27
0 1 -5 83.41 4.06
1 -1 5 55.01 2.56
-1 1 -5 53.19 2.3
1 -1 5 55.89 2.14
-1 1 -5 50.47 2.42
-2 1 -5 1.21 0.07
2 -1 5 1.34 0.11
-2 1 -5 1.25 0.1
2 -1 5 1.34 0.08
-4 1 -5 38.87 1.73
4 -1 5 39.99 1.61
-5 1 -5 31.52 1.47
-5 1 -5 28.42 1.33
5 -1 5 29.6 1.24
-6 1 -5 0.28 0.08
6 -1 5 0.32 0.07
-6 1 -5 0.23 0.07
7 -1 5 0.49 0.09
-7 1 -5 0.48 0.09
-8 1 -5 10.25 0.55
8 -1 5 10.61 0.52
-9 0 5 0.08 0.07
-8 0 5 0.02 0.06
8 0 -5 -0.03 0.06
-7 0 5 5.6 0.33
7 0 -5 5.67 0.32
-6 0 5 1.1 0.11
6 0 -5 1.13 0.1
-5 0 5 0.73 0.08
5 0 -5 0.77 0.08
5 0 -5 0.68 0.06
-5 0 5 0.54 0.08
-4 0 5 1.99 0.14
-4 0 5 2.15 0.15
4 0 -5 2.19 0.11
4 0 -5 1.98 0.13
-3 0 5 0.52 0.06
-3 0 5 0.41 0.08
3 0 -5 0.58 0.06
2 0 -5 0.18 0.04
2 0 -5 0.18 0.03
-2 0 5 0.16 0.06
1 0 -5 147.08 6.93
-1 0 5 166.26 7.25
1 0 -5 148.38 6.51
0 0 -5 33.13 1.47
0 0 5 33.38 1.35
0 0 5 35.38 1.64
0 0 -5 33.62 1.54
1 0 5 0.25 0.05
1 0 5 0.28 0.03
-1 0 -5 0.39 0.05
-1 0 -5 0.37 0.04
2 0 5 1.33 0.08
-2 0 -5 1.31 0.1
-3 0 -5 0.15 0.05
3 0 5 0.12 0.04
-3 0 -5 0.1 0.05
4 0 5 8.05 0.37
-4 0 -5 7.57 0.4
-4 0 -5 8.22 0.44
-5 0 -5 51.53 2.43
-5 0 -5 48.07 2.19
5 0 5 50.86 2.05
-6 0 -5 0.83 0.11
-6 0 -5 0.94 0.14
6 0 5 0.86 0.1
7 0 5 0.34 0.08
-7 0 -5 0.43 0.09
-9 1 5 0.26 0.09
9 -1 -5 0.07 0.07
8 -1 -5 0.86 0.12
-8 1 5 1.11 0.13
-7 1 5 2.37 0.18
7 -1 -5 2.15 0.17
-6 1 5 0.49 0.08
6 -1 -5 0.48 0.08
5 -1 -5 0.07 0.03
-5 1 5 0.08 0.04
5 -1 -5 0.03 0.03
-5 1 5 0.08 0.04
-4 1 5 26.47 1.34
-4 1 5 28.19 1.22
-2 1 5 114.65 5
2 -1 -5 99.61 4.77
2 -1 -5 102.74 4.48
-1 1 5 36.88 1.7
-1 1 5 34.96 1.41
1 -1 -5 34.46 1.53
1 -1 -5 35.05 1.61
0 -1 -5 0.7 0.06
0 -1 -5 0.65 0.06
0 1 5 0.69 0.07
0 1 5 0.64 0.05
-1 -1 -5 0.01 0.02
-1 -1 -5 0 0.03
1 1 5 0.02 0.02
-1 -1 -5 0.07 0.03
-2 -1 -5 39.67 1.88
2 1 5 46.31 1.75
-2 -1 -5 44.11 2.09
3 1 5 0.64 0.06
-3 -1 -5 0.62 0.09
-3 -1 -5 0.45 0.07
4 1 5 17.61 0.76
-4 -1 -5 18.31 0.92
-4 -1 -5 17.79 0.83
-5 -1 -5 1.13 0.14
-5 -1 -5 1.18 0.12
5 1 5 0.94 0.1
-6 -1 -5 0.94 0.14
-6 -1 -5 0.87 0.12
6 1 5 1.09 0.11
7 1 5 0.37 0.08
-7 -1 -5 0.45 0.12
-7 -1 -5 0.38 0.09
9 -2 -5 0.11 0.07
-9 2 5 0.13 0.07
-8 2 5 1.59 0.15
8 -2 -5 1.6 0.15
7 -2 -5 1.95 0.16
-7 2 5 2.1 0.17
6 -2 -5 49.68 2.33
-6 2 5 51.03 2.21
-5 2 5 6.53 0.35
5 -2 -5 6.77 0.36
-3 2 5 3.84 0.21
-3 2 5 3.03 0.2
3 -2 -5 3.39 0.16
3 -2 -5 3.43 0.2
2 -2 -5 0.07 0.03
2 -2 -5 0.08 0.03
2 -2 -5 0.11 0.03
-2 2 5 0.12 0.04
1 -2 -5 56.7 2.46
-1 2 5 54 2.16
-1 2 5 53.63 2.58
1 -2 -5 51.92 2.32
0 -2 -5 10.3 0.46
0 2 5 9.01 0.4
0 -2 -5 9.18 0.45
1 2 5 9.46 0.4
-1 -2 -5 9.12 0.48
-1 -2 -5 8.8 0.44
3 2 5 8.97 0.4
-3 -2 -5 8.38 0.43
-3 -2 -5 8.71 0.48
-4 -2 -5 1.85 0.17
4 2 5 1.77 0.13
-4 -2 -5 1.64 0.14
-5 -2 -5 5.8 0.33
5 2 5 6.15 0.31
-5 -2 -5 5.8 0.38
-6 -2 -5 1.14 0.13
6 2 5 1.28 0.12
-6 -2 -5 1.25 0.17
-7 -2 -5 0.41 0.09
-7 -2 -5 0.29 0.12
9 -3 -5 2.97 0.23
-9 3 5 3.28 0.24
-8 3 5 0.27 0.08
8 -3 -5 0.48 0.09
-7 3 5 0.21 0.07
7 -3 -5 0.25 0.08
-6 3 5 0.18 0.07
6 -3 -5 -0.03 0.05
-5 3 5 2.78 0.19
5 -3 -5 2.67 0.18
4 -3 -5 0.08 0.03
4 -3 -5 0.07 0.04
-4 3 5 0 0.04
-4 3 5 0.15 0.05
3 -3 -5 1.48 0.09
-3 3 5 1.29 0.11
-3 3 5 1.51 0.12
-2 3 5 1.3 0.11
2 -3 -5 1.2 0.1
2 -3 -5 1.19 0.09
2 -3 -5 1.31 0.09
-1 3 5 11.02 0.46
1 -3 -5 11.49 0.54
1 -3 -5 10.58 0.51
-1 3 5 10.65 0.57
0 -3 -5 0.32 0.06
0 3 5 0.42 0.05
0 -3 -5 0.35 0.06
0 -3 -5 0.57 0.06
-1 -3 -5 3.48 0.23
-1 -3 -5 3.74 0.21
1 3 5 3.84 0.19
-2 -3 -5 1.63 0.13
2 3 5 1.68 0.11
-2 -3 -5 1.92 0.15
-3 -3 -5 0.85 0.09
3 3 5 0.67 0.08
-3 -3 -5 0.99 0.13
4 3 5 0.88 0.1
-4 -3 -5 1.02 0.14
-4 -3 -5 0.9 0.11
-5 -3 -5 0.01 0.08
5 3 5 0.09 0.06
-5 -3 -5 0.08 0.05
6 3 5 0.04 0.06
-6 -3 -5 0.1 0.1
9 -4 -5 0.27 0.09
-9 4 5 0.38 0.1
8 -4 -5 0.57 0.1
-8 4 5 0.53 0.12
-7 4 5 0.47 0.1
7 -4 -5 0.52 0.09
6 -4 -5 2.55 0.19
-6 4 5 2.42 0.19
5 -4 -5 5.09 0.3
-5 4 5 5.08 0.3
4 -4 -5 5.95 0.27
4 -4 -5 5.64 0.32
-4 4 5 5.35 0.31
-3 4 5 15.91 0.81
3 -4 -5 18.36 0.86
-3 4 5 18.33 0.89
3 -4 -5 18.38 0.75
2 -4 -5 45.86 1.85
2 -4 -5 45.5 2.1
-2 4 5 46.6 2.19
2 -4 -5 44.28 1.97
1 -4 -5 1.34 0.11
1 -4 -5 1.33 0.1
-1 4 5 1.26 0.09
1 -4 -5 1.28 0.11
0 -4 -5 0.13 0.05
0 -4 -5 0.13 0.04
0 4 5 0.03 0.03
-1 -4 -5 13.76 0.75
1 4 5 14.76 0.62
-1 -4 -5 14.57 0.67
-2 -4 -5 10.1 0.49
-2 -4 -5 10.05 0.56
2 4 5 10.17 0.46
-3 -4 -5 17.89 0.82
-3 -4 -5 17.3 0.93
3 4 5 18.03 0.77
4 4 5 0 0.05
-4 -4 -5 0.02 0.07
5 4 5 1.86 0.15
-5 -4 -5 1.97 0.21
9 -5 -5 0.24 0.1
-9 5 5 0.15 0.1
-8 5 5 0.08 0.08
8 -5 -5 0.08 0.07
-7 5 5 3.99 0.28
7 -5 -5 4.62 0.29
6 -5 -5 2.86 0.21
-6 5 5 2.79 0.21
5 -5 -5 4.08 0.27
-5 5 5 4.54 0.28
4 -5 -5 4 0.26
4 -5 -5 4.55 0.22
-4 5 5 4.02 0.25
3 -5 -5 14.87 0.63
3 -5 -5 14.97 0.72
-3 5 5 14.39 0.74
-3 5 5 13.6 0.68
1 -5 -5 0.48 0.08
1 -5 -5 0.3 0.06
1 -5 -5 0.44 0.07
0 5 5 20.18 0.85
0 -5 -5 20.28 1.02
0 -5 -5 19.86 0.91
-1 -5 -5 1.13 0.1
-1 -5 -5 1.07 0.12
1 5 5 1.19 0.1
2 5 5 8.72 0.4
-2 -5 -5 7.97 0.48
-3 -5 -5 4.73 0.34
3 5 5 5.7 0.28
4 5 5 0.84 0.11
-4 -5 -5 0.94 0.15
-8 6 5 5.47 0.37
8 -6 -5 6.29 0.38
-7 6 5 0.04 0.08
7 -6 -5 0.08 0.07
6 -6 -5 0.72 0.11
-6 6 5 0.5 0.11
-5 6 5 21.74 1.01
5 -6 -5 21.35 1.06
-4 6 5 2.04 0.17
4 -6 -5 2.43 0.15
4 -6 -5 2.17 0.17
3 -6 -5 4.83 0.29
-3 6 5 4.7 0.28
3 -6 -5 4.68 0.25
2 -6 -5 5.3 0.31
2 -6 -5 5.1 0.27
2 -6 -5 5.04 0.28
2 -6 -5 5.3 0.31
-1 6 5 4.58 0.25
1 -6 -5 4.71 0.26
1 -6 -5 5.25 0.31
0 -6 -5 0.01 0.05
0 6 5 0.08 0.05
1 6 5 0.6 0.08
-1 -6 -5 0.84 0.12
-2 -6 -5 0.48 0.11
2 6 5 0.59 0.09
-3 -6 -5 7.06 0.46
3 6 5 7.31 0.37
8 -7 -5 1.07 0.16
-8 7 5 1.1 0.17
-7 7 5 0.32 0.11
7 -7 -5 0.45 0.1
-6 7 5 0.17 0.09
6 -7 -5 0.3 0.08
5 -7 -5 1.3 0.14
-5 7 5 1.26 0.15
4 -7 -5 1.31 0.13
-4 7 5 1.1 0.14
3 -7 -5 3.44 0.23
-3 7 5 3.1 0.23
3 -7 -5 3.52 0.21
-2 7 5 3.48 0.24
2 -7 -5 3.65 0.22
-1 7 5 2.49 0.16
1 -7 -5 2.46 0.2
0 -7 -5 3.1 0.24
0 7 5 3.25 0.2
1 7 5 5.01 0.27
-1 -7 -5 4.61 0.33
-2 -7 -5 2.23 0.21
2 7 5 2.16 0.17
-7 8 5 0.71 0.15
7 -8 -5 0.7 0.13
6 -8 -5 0.57 0.11
-6 8 5 0.71 0.13
5 -8 -5 0.32 0.09
-5 8 5 0.45 0.11
4 -8 -5 0.05 0.06
3 -8 -5 1.35 0.14
-3 8 5 1.34 0.16
1 -8 -5 0.19 0.08
-1 8 5 0.16 0.06
0 -8 -5 1.18 0.16
0 8 5 1.23 0.12
-1 -8 -5 0.3 0.1
1 8 5 0.24 0.08
-4 9 5 8.4 0.5
-1 9 5 1.1 0.13
0 -9 -5 0.02 0.08
0 9 5 0.11 0.07
0 -12 6 0.28 0.11
0 -12 6 0.36 0.12
-1 12 -6 1.24 0.15
1 -12 6 1.26 0.16
2 -12 6 4.02 0.27
-2 12 -6 3.39 0.25
3 -12 6 0.1 0.1
-3 12 -6 0.01 0.07
4 -12 6 0.14 0.09
-4 12 -6 0.06 0.07
2 11 -6 0.89 0.13
-2 -11 6 0.8 0.15
2 11 -6 0.86 0.1
1 11 -6 1.01 0.13
-1 -11 6 1.48 0.16
-1 -11 6 1.13 0.16
0 -11 6 1.81 0.17
0 11 -6 1.83 0.17
0 -11 6 2.04 0.19
-1 11 -6 0.2 0.08
1 -11 6 0.4 0.1
-2 11 -6 1.91 0.17
2 -11 6 1.99 0.17
3 -11 6 0.15 0.09
-3 11 -6 0.3 0.08
-4 11 -6 1.25 0.14
4 -11 6 1.4 0.16
5 -11 6 0.82 0.13
-5 11 -6 0.69 0.11
-6 11 -6 0.74 0.12
6 -11 6 0.62 0.12
-7 11 -6 0.86 0.14
4 10 -6 0.08 0.06
3 10 -6 0.26 0.07
3 10 -6 0.27 0.08
-3 -10 6 0.33 0.12
2 10 -6 0.06 0.04
-2 -10 6 0.1 0.08
2 10 -6 0.04 0.07
1 10 -6 2.59 0.2
-1 -10 6 2.74 0.2
-1 -10 6 2.69 0.23
0 -10 6 3.56 0.26
0 -10 6 3.52 0.23
0 10 -6 3.46 0.23
1 -10 6 1.27 0.13
-1 10 -6 1.2 0.13
1 -10 6 1.3 0.14
2 -10 6 2.81 0.2
-2 10 -6 2.75 0.2
-3 10 -6 0.06 0.06
3 -10 6 0.13 0.08
4 -10 6 0.21 0.09
-4 10 -6 0.23 0.07
5 -10 6 10.82 0.54
-5 10 -6 11.63 0.59
-6 10 -6 3.34 0.23
6 -10 6 3.13 0.23
7 -10 6 1.84 0.17
4 9 -6 0.19 0.05
4 9 -6 0.15 0.08
-4 -9 6 0.17 0.1
3 9 -6 0.01 0.06
3 9 -6 0.03 0.04
-3 -9 6 0.01 0.07
2 9 -6 2.92 0.17
-2 -9 6 2.85 0.24
2 9 -6 2.52 0.2
-1 -9 6 0.71 0.1
1 9 -6 0.67 0.09
-1 -9 6 0.58 0.11
0 -9 6 2.25 0.17
0 9 -6 2.42 0.17
0 -9 6 2.49 0.2
1 -9 6 3.3 0.21
-1 9 -6 3.33 0.22
1 -9 6 3.38 0.24
2 -9 6 25.32 1.1
-2 9 -6 25.49 1.22
2 -9 6 26.21 1.28
-3 9 -6 1.04 0.11
3 -9 6 1.08 0.11
-4 9 -6 0.78 0.1
4 -9 6 0.79 0.1
-5 9 -6 15.07 0.75
5 -9 6 14.69 0.68
6 -9 6 3.21 0.22
-6 9 -6 3.75 0.24
7 -9 6 5.92 0.33
-8 9 -6 0.01 0.09
-5 -8 6 6.91 0.47
4 8 -6 0.26 0.07
-4 -8 6 0.32 0.12
4 8 -6 0.29 0.06
3 8 -6 0.79 0.08
3 8 -6 0.75 0.1
-3 -8 6 0.83 0.14
-2 -8 6 0.26 0.09
2 8 -6 0.32 0.07
-1 -8 6 3.59 0.22
-1 -8 6 3.99 0.27
1 8 -6 4.16 0.24
0 8 -6 4.59 0.27
0 -8 6 4.52 0.29
0 -8 6 4.37 0.24
1 -8 6 5.6 0.28
1 -8 6 5.41 0.33
-1 8 -6 5.36 0.3
2 -8 6 21.12 1.04
2 -8 6 20.25 0.88
-2 8 -6 20.44 0.99
-3 8 -6 2.75 0.19
3 -8 6 2.71 0.18
4 -8 6 9.13 0.44
-4 8 -6 9.37 0.48
-5 8 -6 1.39 0.14
5 -8 6 1.64 0.14
-5 8 -6 1.89 0.15
6 -8 6 6.44 0.35
-6 8 -6 7.37 0.39
7 -8 6 1.27 0.13
-7 8 -6 1.48 0.16
-8 8 -6 0.12 0.09
8 -8 6 0.01 0.07
-6 -7 6 2.37 0.24
5 7 -6 1.1 0.12
-5 -7 6 1.25 0.18
4 7 -6 0.49 0.09
4 7 -6 0.69 0.08
-4 -7 6 0.68 0.13
3 7 -6 11.64 0.58
-3 -7 6 11.24 0.64
3 7 -6 11.5 0.51
-2 -7 6 12.87 0.71
2 7 -6 13.32 0.65
-1 -7 6 0.15 0.06
-1 -7 6 0.09 0.06
1 7 -6 0.12 0.06
0 -7 6 0.01 0.05
0 -7 6 0.01 0.04
0 7 -6 0.07 0.04
1 -7 6 0.94 0.11
-1 7 -6 0.92 0.09
1 -7 6 1.03 0.09
2 -7 6 7.31 0.46
-2 7 -6 8.96 0.44
2 -7 6 8.95 0.39
3 -7 6 1.48 0.12
-3 7 -6 1.47 0.11
-3 7 -6 1.78 0.13
-4 7 -6 12.76 0.61
-4 7 -6 12.08 0.58
4 -7 6 11.92 0.55
-5 7 -6 4.88 0.28
-5 7 -6 5.23 0.28
5 -7 6 4.7 0.26
6 -7 6 0.04 0.05
-6 7 -6 0 0.07
-7 7 -6 4.24 0.28
7 -7 6 3.69 0.23
-8 7 -6 -0.01 0.08
8 -7 6 0.02 0.06
-7 -6 6 0.21 0.12
-6 -6 6 0.26 0.11
5 6 -6 5.6 0.32
-5 -6 6 5.5 0.37
4 6 -6 0.09 0.04
4 6 -6 0.08 0.05
-4 -6 6 0.06 0.07
3 6 -6 0.19 0.04
3 6 -6 0.14 0.06
-3 -6 6 0.12 0.08
2 6 -6 1.66 0.13
-2 -6 6 1.76 0.16
-1 -6 6 5.31 0.26
-1 -6 6 5.21 0.32
1 6 -6 5 0.28
0 -6 6 1.89 0.12
0 -6 6 1.86 0.16
-1 6 -6 0.15 0.04
-1 6 -6 0.13 0.04
1 -6 6 0.18 0.04
1 -6 6 0.23 0.08
-2 6 -6 14.04 0.62
-2 6 -6 13.7 0.66
2 -6 6 13.76 0.72
2 -6 6 13.21 0.59
3 -6 6 41.99 1.75
-3 6 -6 43.64 1.97
-3 6 -6 42.99 1.86
4 -6 6 1.92 0.13
-4 6 -6 2 0.14
-4 6 -6 1.87 0.14
5 -6 6 0.38 0.07
-5 6 -6 0.42 0.09
-6 6 -6 0.02 0.06
6 -6 6 0.05 0.05
-7 6 -6 4.19 0.28
7 -6 6 3.92 0.24
8 -6 6 0.6 0.1
-8 6 -6 0.67 0.13
-7 -5 6 4.73 0.35
-6 -5 6 0.3 0.11
6 5 -6 0.48 0.09
5 5 -6 0.01 0.05
-5 -5 6 0 0.07
4 5 -6 0.17 0.06
-4 -5 6 0.2 0.08
4 5 -6 0.3 0.04
-3 -5 6 6.16 0.38
3 5 -6 6.44 0.34
-2 -5 6 0.55 0.09
2 5 -6 0.82 0.08
1 5 -6 4.69 0.24
1 5 -6 5.26 0.28
-1 -5 6 5.4 0.25
0 -5 6 43.19 1.95
0 -5 6 39.35 1.61
0 5 -6 39.17 1.83
0 5 -6 37.6 1.7
1 -5 6 5.69 0.37
-1 5 -6 6.46 0.3
-1 5 -6 6.44 0.32
1 -5 6 6.47 0.29
2 -5 6 23.68 0.98
-3 5 -6 4.11 0.22
3 -5 6 3.69 0.2
-3 5 -6 3.89 0.21
4 -5 6 0.07 0.05
-4 5 -6 0.04 0.05
-4 5 -6 0.02 0.03
4 -5 6 0.04 0.04
5 -5 6 -0.02 0.04
-5 5 -6 -0.04 0.05
6 -5 6 1.14 0.12
-6 5 -6 1.18 0.13
-7 5 -6 5.49 0.34
7 -5 6 5.78 0.31
8 -5 6 0.35 0.09
-8 5 -6 0.42 0.11
-7 -4 6 1.42 0.18
6 4 -6 0.06 0.05
-6 -4 6 -0.04 0.07
-5 -4 6 6.21 0.39
5 4 -6 6.35 0.34
4 4 -6 0.95 0.09
4 4 -6 0.91 0.07
-4 -4 6 1.03 0.13
-3 -4 6 0.08 0.06
-3 -4 6 0.09 0.04
3 4 -6 0.12 0.03
3 4 -6 0.06 0.04
-1 -4 6 14.53 0.71
1 4 -6 12.46 0.59
-1 -4 6 13.12 0.56
1 4 -6 13.43 0.64
0 -4 6 120.27 4.82
0 4 -6 121.02 5.14
0 4 -6 123.02 5.48
-2 4 -6 6.95 0.35
-2 4 -6 7.45 0.35
2 -4 6 7.01 0.32
3 -4 6 0.91 0.1
3 -4 6 0.87 0.08
-3 4 -6 0.89 0.07
-4 4 -6 0.88 0.1
4 -4 6 0.91 0.1
4 -4 6 0.66 0.08
5 -4 6 0.34 0.07
-5 4 -6 0.49 0.09
5 -4 6 0.34 0.07
-6 4 -6 0.43 0.1
6 -4 6 0.28 0.07
7 -4 6 0.7 0.11
-7 4 -6 0.81 0.13
-8 4 -6 1 0.15
8 -4 6 1.25 0.14
7 3 -6 0.03 0.06
-7 -3 6 0.01 0.07
-6 -3 6 0.06 0.08
6 3 -6 0.17 0.06
-5 -3 6 0.89 0.1
-5 -3 6 1.09 0.13
5 3 -6 1.34 0.11
4 3 -6 0.25 0.05
-4 -3 6 0.24 0.05
-4 -3 6 0.28 0.08
3 3 -6 7.73 0.4
-3 -3 6 8.24 0.38
2 3 -6 0.94 0.07
-2 -3 6 1.09 0.12
2 3 -6 0.99 0.08
1 3 -6 0.38 0.05
-1 -3 6 0.34 0.08
1 3 -6 0.38 0.04
-1 3 -6 1.08 0.08
1 -3 6 1 0.07
-1 3 -6 1.11 0.09
1 -3 6 0.97 0.11
2 -3 6 31.89 1.47
-2 3 -6 28.2 1.37
2 -3 6 30.7 1.22
-2 3 -6 28.72 1.31
3 -3 6 10.94 0.56
-3 3 -6 10.16 0.5
3 -3 6 10.63 0.46
-3 3 -6 10.5 0.51
4 -3 6 0.31 0.06
4 -3 6 0.14 0.05
-4 3 -6 0.25 0.06
-5 3 -6 2.29 0.17
5 -3 6 2.35 0.17
5 -3 6 2.13 0.15
-6 3 -6 4.87 0.3
6 -3 6 5.26 0.28
7 -3 6 0.06 0.06
-7 3 -6 0.07 0.06
8 -3 6 3.06 0.22
-8 3 -6 2.88 0.23
8 2 -6 0.59 0.1
-7 -2 6 22.77 1.04
7 2 -6 22.45 1.09
6 2 -6 3.11 0.21
-6 -2 6 3.42 0.24
-6 -2 6 3.22 0.21
-5 -2 6 1.28 0.11
-5 -2 6 1.14 0.13
5 2 -6 1.08 0.1
4 2 -6 0.06 0.04
-4 -2 6 0.11 0.04
-4 -2 6 0.09 0.05
-3 -2 6 0.05 0.05
3 2 -6 0.04 0.03
-3 -2 6 0.05 0.03
2 2 -6 21.56 1
1 2 -6 0.78 0.06
-1 -2 6 0.35 0.08
1 2 -6 0.83 0.07
0 2 -6 39.88 1.73
0 2 -6 38.71 1.83
0 -2 6 42.03 1.95
-1 2 -6 2.27 0.14
1 -2 6 2.38 0.12
1 -2 6 2.58 0.17
-1 2 -6 2.23 0.13
-2 2 -6 20.82 1.01
-2 2 -6 21.65 0.98
2 -2 6 22.01 1.09
2 -2 6 23.6 0.91
3 -2 6 0.22 0.06
3 -2 6 0.14 0.04
-3 2 -6 0.11 0.05
-4 2 -6 9.24 0.48
4 -2 6 9.66 0.53
4 -2 6 10.35 0.44
5 -2 6 13.67 0.59
5 -2 6 13.16 0.7
-5 2 -6 13.02 0.64
-6 2 -6 3.26 0.22
6 -2 6 3.22 0.2
6 -2 6 3.36 0.24
-7 2 -6 4.04 0.27
7 -2 6 4.55 0.26
-9 -1 6 0.07 0.08
-8 -1 6 0.77 0.11
8 1 -6 0.85 0.11
7 1 -6 4.1 0.26
-7 -1 6 4.65 0.28
6 1 -6 8.33 0.45
-6 -1 6 8.78 0.44
-6 -1 6 8.77 0.48
-5 -1 6 7.16 0.36
-5 -1 6 6.16 0.39
5 1 -6 7.59 0.37
4 1 -6 0.38 0.06
-4 -1 6 0.53 0.09
-4 -1 6 0.39 0.07
3 1 -6 23.77 1.04
-3 -1 6 22.58 0.99
-3 -1 6 20.48 1.12
1 1 -6 54.27 2.42
-1 -1 6 59.57 2.72
1 1 -6 55.73 2.57
0 1 -6 28.89 1.36
0 -1 6 31.06 1.45
0 1 -6 29.09 1.29
-1 1 -6 73.66 3.35
1 -1 6 73.72 3.53
1 -1 6 76.22 2.96
-1 1 -6 73.38 3.17
2 -1 6 0.16 0.03
-2 1 -6 0.15 0.05
2 -1 6 0.14 0.05
3 -1 6 5.34 0.24
-3 1 -6 4.8 0.27
3 -1 6 5.03 0.3
-4 1 -6 29.08 1.33
4 -1 6 30.86 1.24
4 -1 6 29.89 1.48
5 -1 6 23.06 1.16
-5 1 -6 22.49 1.05
5 -1 6 23.38 0.97
-6 1 -6 15.15 0.76
6 -1 6 16.12 0.7
6 -1 6 15.93 0.84
-7 1 -6 0.14 0.07
7 -1 6 0.07 0.06
9 0 -6 0.11 0.08
-9 0 6 0.14 0.07
8 0 -6 0.91 0.12
-8 0 6 1.04 0.13
7 0 -6 5.89 0.34
-7 0 6 6.1 0.35
-6 0 6 2.15 0.16
6 0 -6 1.79 0.15
-5 0 6 10.76 0.55
-5 0 6 10.31 0.51
5 0 -6 10.06 0.52
4 0 -6 4.45 0.25
-4 0 6 4.68 0.29
-4 0 6 4.59 0.25
-2 0 6 26.32 1.29
2 0 -6 25.92 1.14
2 0 -6 25.92 1.21
-1 0 6 55.01 2.53
1 0 -6 51.67 2.26
1 0 -6 51.42 2.39
0 0 6 23.29 0.95
0 0 6 23.87 1.16
0 0 -6 23.21 1.04
0 0 -6 23.94 1.08
-1 0 -6 61.94 2.65
1 0 6 63.25 2.47
1 0 6 59.57 2.95
-1 0 -6 62.2 2.79
2 0 6 5.89 0.34
2 0 6 6.01 0.27
-2 0 -6 5.41 0.3
-3 0 -6 4.94 0.28
3 0 6 5.27 0.25
3 0 6 5.39 0.32
-4 0 -6 1.67 0.14
4 0 6 1.77 0.12
-5 0 -6 0.15 0.08
5 0 6 0.15 0.06
-5 0 -6 0.2 0.07
-6 0 -6 0.44 0.09
-6 0 -6 0.52 0.11
6 0 6 0.39 0.08
-7 0 -6 1.72 0.16
7 0 6 1.58 0.15
-9 1 6 0.61 0.12
9 -1 -6 0.71 0.12
-8 1 6 10.67 0.56
8 -1 -6 10.81 0.57
-7 1 6 12.11 0.6
7 -1 -6 11.76 0.61
-6 1 6 0.2 0.07
6 -1 -6 0.19 0.06
5 -1 -6 2.51 0.17
-5 1 6 2.46 0.18
-5 1 6 2.83 0.19
-4 1 6 3.4 0.2
4 -1 -6 3.26 0.2
-3 1 6 11.12 0.59
-2 1 6 36.4 1.66
2 -1 -6 33.1 1.57
2 -1 -6 32.77 1.48
-1 1 6 0.01 0.01
1 -1 -6 0.04 0.03
1 -1 -6 0.02 0.02
-1 1 6 0 0.03
0 1 6 0.9 0.1
0 1 6 1.1 0.06
0 -1 -6 1.05 0.08
0 -1 -6 0.99 0.09
1 1 6 2.22 0.12
1 1 6 2.14 0.16
-2 -1 -6 0.47 0.07
2 1 6 0.47 0.05
-3 -1 -6 9.37 0.51
3 1 6 9.54 0.42
-3 -1 -6 8.84 0.46
-4 -1 -6 6.39 0.38
4 1 6 6.23 0.3
-4 -1 -6 5.78 0.33
-5 -1 -6 8.55 0.48
5 1 6 7.98 0.39
-5 -1 -6 7.28 0.42
6 1 6 0.48 0.09
-6 -1 -6 0.46 0.12
-6 -1 -6 0.52 0.1
-7 -1 -6 0.11 0.1
-7 -1 -6 0.09 0.07
9 -2 -6 0.3 0.1
-9 2 6 0.58 0.11
8 -2 -6 1.08 0.13
-8 2 6 1.23 0.15
7 -2 -6 8.57 0.47
-7 2 6 8.65 0.46
6 -2 -6 11.07 0.58
-6 2 6 11.53 0.57
-5 2 6 13.38 0.62
5 -2 -6 11.83 0.63
3 -2 -6 0.14 0.04
-3 2 6 0.16 0.05
3 -2 -6 0.18 0.04
-2 2 6 0.19 0.05
2 -2 -6 0.15 0.04
2 -2 -6 0.2 0.04
-1 2 6 0.03 0.04
1 -2 -6 0.09 0.03
1 -2 -6 0.03 0.03
-1 2 6 0.16 0.03
0 2 6 10.88 0.47
0 2 6 10.44 0.58
0 -2 -6 12.31 0.54
0 -2 -6 10.55 0.52
-1 -2 -6 5.43 0.3
1 2 6 5.85 0.26
-1 -2 -6 5.71 0.33
-2 -2 -6 3.4 0.23
2 2 6 3.44 0.18
-2 -2 -6 3.39 0.21
3 2 6 0.26 0.06
-3 -2 -6 0.19 0.08
-3 -2 -6 0.25 0.06
-4 -2 -6 3.14 0.24
4 2 6 3.32 0.19
-4 -2 -6 3.28 0.22
-5 -2 -6 0.37 0.1
-5 -2 -6 0.39 0.08
5 2 6 0.41 0.08
-6 -2 -6 5.37 0.37
-6 -2 -6 5.12 0.32
6 2 6 5.24 0.3
-9 3 6 0.02 0.07
9 -3 -6 0.03 0.08
-8 3 6 1.41 0.15
8 -3 -6 1.58 0.15
7 -3 -6 1.01 0.12
-7 3 6 1.16 0.13
6 -3 -6 0.08 0.06
-6 3 6 0.09 0.06
-5 3 6 5.38 0.31
5 -3 -6 5.04 0.3
4 -3 -6 3.7 0.22
-4 3 6 3.31 0.22
-4 3 6 3.43 0.23
3 -3 -6 4.51 0.26
3 -3 -6 4.39 0.25
-3 3 6 4.81 0.28
2 -3 -6 3.81 0.22
-2 3 6 4.08 0.25
2 -3 -6 4.16 0.23
1 -3 -6 0.3 0.05
-1 3 6 0.22 0.06
-1 3 6 0.32 0.04
1 -3 -6 0.27 0.06
0 3 6 12.51 0.53
0 -3 -6 12.16 0.58
-1 -3 -6 4.87 0.27
-1 -3 -6 4.58 0.29
-2 -3 -6 0.1 0.05
-2 -3 -6 0.01 0.05
2 3 6 0.04 0.04
-3 -3 -6 1.69 0.14
-3 -3 -6 1.46 0.16
3 3 6 1.51 0.12
4 3 6 1.09 0.1
-4 -3 -6 0.98 0.15
-4 -3 -6 0.98 0.11
5 3 6 0 0.05
-5 -3 -6 0.11 0.06
-5 -3 -6 0.07 0.09
9 -4 -6 0.8 0.13
-9 4 6 0.48 0.11
-8 4 6 0.06 0.08
8 -4 -6 0.09 0.07
7 -4 -6 1.1 0.13
-7 4 6 1.19 0.15
-6 4 6 0.84 0.12
6 -4 -6 0.91 0.11
5 -4 -6 4.55 0.28
-5 4 6 4.84 0.29
4 -4 -6 5.13 0.29
-4 4 6 4.76 0.29
-3 4 6 0.25 0.06
3 -4 -6 0.27 0.06
2 -4 -6 19.11 0.88
2 -4 -6 17.52 0.83
-2 4 6 18.07 0.92
-1 4 6 85.94 4.15
1 -4 -6 94.24 3.97
-1 4 6 86.46 3.48
1 -4 -6 81.47 3.72
0 -4 -6 0.19 0.06
0 4 6 0.04 0.04
0 -4 -6 0.04 0.04
-1 -4 -6 0.24 0.07
-1 -4 -6 0.16 0.05
1 4 6 0.13 0.05
-2 -4 -6 0.29 0.08
-2 -4 -6 0.47 0.08
2 4 6 0.37 0.07
-3 -4 -6 1.52 0.17
-3 -4 -6 1.76 0.14
3 4 6 1.64 0.13
4 4 6 0.3 0.07
-4 -4 -6 0.01 0.08
5 4 6 0.63 0.1
-8 5 6 0.09 0.08
8 -5 -6 0.11 0.08
-7 5 6 -0.02 0.07
7 -5 -6 0.03 0.06
-6 5 6 5.06 0.32
6 -5 -6 5.18 0.32
5 -5 -6 7.06 0.41
-5 5 6 7.38 0.41
4 -5 -6 1.12 0.12
-4 5 6 1.07 0.13
-3 5 6 0.17 0.07
3 -5 -6 0.19 0.06
2 -5 -6 6.67 0.36
2 -5 -6 7.29 0.39
-2 5 6 7.14 0.41
1 -5 -6 9.05 0.45
-1 5 6 9.44 0.42
0 5 6 0.85 0.09
0 -5 -6 0.97 0.1
0 -5 -6 1.02 0.12
-1 -5 -6 0.19 0.07
1 5 6 0.24 0.06
-1 -5 -6 0.25 0.06
2 5 6 1.5 0.13
-2 -5 -6 1.53 0.16
-3 -5 -6 2.26 0.21
3 5 6 2.08 0.16
4 5 6 0.1 0.07
8 -6 -6 9.09 0.52
-8 6 6 8.67 0.51
-7 6 6 2.01 0.2
7 -6 -6 1.93 0.18
6 -6 -6 0.91 0.12
-6 6 6 0.86 0.13
5 -6 -6 1.7 0.16
-5 6 6 1.76 0.17
4 -6 -6 1.01 0.12
-4 6 6 0.92 0.13
3 -6 -6 0.18 0.06
-3 6 6 0.58 0.1
2 -6 -6 1.09 0.1
-2 6 6 1.09 0.13
2 -6 -6 1.11 0.12
1 -6 -6 3.14 0.23
1 -6 -6 3.1 0.2
0 6 6 2.44 0.17
0 -6 -6 2.73 0.21
1 6 6 15.69 0.67
-1 -6 -6 14.54 0.81
2 6 6 0.2 0.07
-2 -6 -6 0.25 0.09
3 6 6 0.33 0.08
7 -7 -6 0.35 0.1
-7 7 6 0.28 0.11
-6 7 6 4.43 0.31
6 -7 -6 4.98 0.32
5 -7 -6 0.39 0.09
-5 7 6 0.35 0.11
-4 7 6 1.86 0.18
4 -7 -6 2.07 0.18
-3 7 6 10.62 0.58
3 -7 -6 11.88 0.61
1 -7 -6 3.37 0.25
0 7 6 1.62 0.14
0 -7 -6 1.73 0.17
1 7 6 0.35 0.08
-1 -7 -6 0.47 0.11
2 7 6 0.3 0.09
-7 8 6 0.63 0.14
-6 8 6 5.16 0.36
6 -8 -6 5.81 0.37
5 -8 -6 0.03 0.06
4 -8 -6 12.15 0.66
1 -8 -6 0.48 0.1
0 -8 -6 0.3 0.1
0 -12 7 0.17 0.1
0 -12 7 0.11 0.09
1 -12 7 0.01 0.09
2 -12 7 1.86 0.18
-3 12 -7 0.38 0.09
3 -12 7 0.43 0.12
4 -12 7 1.95 0.19
2 11 -7 1.22 0.12
2 11 -7 1.4 0.15
1 11 -7 0.06 0.08
-1 -11 7 0.04 0.08
-1 -11 7 0.17 0.09
0 -11 7 1 0.15
0 11 -7 1.03 0.13
0 -11 7 1.07 0.14
1 -11 7 0.03 0.08
1 -11 7 0.02 0.07
-1 11 -7 0.04 0.07
-2 11 -7 0.34 0.08
2 -11 7 0.24 0.09
-3 11 -7 1.99 0.17
3 -11 7 2.26 0.18
-4 11 -7 0.47 0.1
4 -11 7 0.52 0.11
-5 11 -7 4.02 0.27
5 -11 7 3.9 0.26
-6 11 -7 2.26 0.2
-3 -10 7 0.13 0.1
3 10 -7 0.17 0.08
2 10 -7 0.56 0.1
2 10 -7 0.53 0.08
-2 -10 7 0.6 0.13
-1 -10 7 0.37 0.11
1 10 -7 0.41 0.09
-1 -10 7 0.47 0.1
0 10 -7 5.4 0.33
0 -10 7 5.66 0.31
0 -10 7 5.92 0.38
-1 10 -7 1.97 0.17
1 -10 7 2.18 0.17
1 -10 7 2.17 0.19
2 -10 7 0 0.06
-2 10 -7 -0.03 0.04
-3 10 -7 2.7 0.2
3 -10 7 2.88 0.2
4 -10 7 0.24 0.08
-4 10 -7 0.14 0.07
-5 10 -7 8.15 0.44
5 -10 7 7.69 0.41
-6 10 -7 7.32 0.4
6 -10 7 6.52 0.37
4 9 -7 0.34 0.09
-4 -9 7 0.28 0.12
3 9 -7 3.25 0.23
-3 -9 7 3.66 0.29
-2 -9 7 7.38 0.47
2 9 -7 7.66 0.35
2 9 -7 7.1 0.41
1 9 -7 3.05 0.21
-1 -9 7 3.18 0.25
-1 -9 7 3.02 0.2
0 9 -7 0.25 0.07
0 -9 7 0.28 0.08
0 -9 7 0.3 0.09
1 -9 7 0.71 0.11
-1 9 -7 0.75 0.1
1 -9 7 0.8 0.1
-2 9 -7 4.37 0.27
2 -9 7 4.32 0.29
2 -9 7 4.59 0.25
3 -9 7 4.63 0.26
-3 9 -7 4.69 0.28
-4 9 -7 0.52 0.09
4 -9 7 0.47 0.09
-5 9 -7 5.93 0.33
5 -9 7 5.45 0.31
6 -9 7 1.09 0.13
7 -9 7 2.15 0.18
-8 9 -7 0.43 0.13
-5 -8 7 17.53 0.98
5 8 -7 17.66 0.87
-4 -8 7 0 0.09
4 8 -7 0.12 0.07
3 8 -7 0.08 0.06
-3 -8 7 0.11 0.07
-2 -8 7 0.26 0.09
2 8 -7 0.16 0.07
-1 -8 7 4.53 0.25
1 8 -7 4.74 0.28
-1 -8 7 4.67 0.32
0 8 -7 0.01 0.04
0 -8 7 0.06 0.06
0 -8 7 0.03 0.05
1 -8 7 13.85 0.61
-1 8 -7 13.39 0.68
1 -8 7 13.92 0.73
2 -8 7 9.61 0.45
-2 8 -7 9.4 0.49
2 -8 7 9.99 0.54
-3 8 -7 1.48 0.13
3 -8 7 1.58 0.13
-4 8 -7 6.23 0.34
4 -8 7 5.74 0.31
-5 8 -7 0.16 0.07
-5 8 -7 0.21 0.07
5 -8 7 0.16 0.07
6 -8 7 4.18 0.26
-6 8 -7 4.63 0.28
7 -8 7 1 0.13
-7 8 -7 1.14 0.15
-8 8 -7 3.18 0.25
-6 -7 7 0.39 0.13
-5 -7 7 4.24 0.33
5 7 -7 4.31 0.27
-4 -7 7 0.96 0.15
4 7 -7 0.91 0.11
3 7 -7 0.13 0.06
-3 -7 7 0.01 0.07
-2 -7 7 21.28 1.09
2 7 -7 20.6 1
-1 -7 7 5.05 0.27
1 7 -7 5.67 0.31
-1 -7 7 5.62 0.35
1 -7 7 8.07 0.39
1 -7 7 9.09 0.48
-1 7 -7 7.97 0.43
-2 7 -7 13.38 0.67
2 -7 7 13.82 0.6
2 -7 7 13.83 0.73
3 -7 7 0.81 0.13
-3 7 -7 0.94 0.09
3 -7 7 0.84 0.09
-3 7 -7 0.65 0.08
4 -7 7 13.6 0.62
-4 7 -7 14.11 0.66
-4 7 -7 14.4 0.69
-5 7 -7 25.07 1.12
5 -7 7 24.24 1.05
-6 7 -7 5.19 0.31
6 -7 7 4.76 0.27
7 -7 7 0.58 0.1
-7 7 -7 0.86 0.13
-8 7 -7 0.01 0.09
-7 -6 7 0.09 0.1
6 6 -7 -0.05 0.06
-6 -6 7 0.07 0.09
5 6 -7 0.05 0.06
-5 -6 7 -0.04 0.08
4 6 -7 5.38 0.31
-4 -6 7 5.57 0.37
3 6 -7 7.26 0.39
-3 -6 7 7.34 0.44
2 6 -7 2.03 0.15
-2 -6 7 2.17 0.19
1 6 -7 1.13 0.1
-1 -6 7 1.09 0.1
-1 -6 7 0.93 0.13
0 -6 7 0.21 0.05
0 6 -7 0.3 0.06
0 -6 7 0.14 0.08
-1 6 -7 15.47 0.75
-1 6 -7 14.12 0.69
1 -6 7 16.83 0.83
1 -6 7 15.79 0.66
2 -6 7 2.05 0.13
2 -6 7 1.97 0.2
-2 6 -7 2.18 0.14
-2 6 -7 2.14 0.14
3 -6 7 19.47 0.82
-3 6 -7 19.34 0.88
4 -6 7 15.42 0.67
5 -6 7 6.1 0.32
-5 6 -7 6.67 0.35
6 -6 7 0.06 0.06
-6 6 -7 0.05 0.07
7 -6 7 0.02 0.06
-7 6 -7 -0.04 0.07
8 -6 7 0.24 0.08
-8 6 -7 0.29 0.1
-7 -5 7 0.45 0.13
6 5 -7 4.01 0.25
-6 -5 7 3.61 0.29
-5 -5 7 0.3 0.1
5 5 -7 0.36 0.08
-4 -5 7 0.04 0.08
4 5 -7 0.09 0.05
3 5 -7 1.02 0.1
-3 -5 7 1.31 0.14
2 5 -7 23.15 1.12
-2 -5 7 24.36 1.21
-1 -5 7 36.33 1.42
1 5 -7 35.23 1.62
1 5 -7 33.06 1.5
0 -5 7 91.78 3.6
0 -5 7 89.95 4.31
0 5 -7 88.59 3.83
1 -5 7 3.91 0.19
-1 5 -7 3.53 0.2
-1 5 -7 3.54 0.21
2 -5 7 0.13 0.04
-2 5 -7 0.08 0.04
-2 5 -7 0.11 0.04
2 -5 7 0.06 0.06
3 -5 7 4.16 0.23
-3 5 -7 4.88 0.25
-3 5 -7 5.02 0.26
4 -5 7 1.55 0.12
-4 5 -7 1.99 0.15
5 -5 7 2.04 0.15
-5 5 -7 1.95 0.16
6 -5 7 8.88 0.43
-6 5 -7 8.51 0.46
7 -5 7 1.36 0.14
-7 5 -7 1.48 0.16
8 -5 7 0.34 0.1
7 4 -7 1.14 0.13
-7 -4 7 1.16 0.16
-6 -4 7 2.52 0.22
6 4 -7 2.43 0.18
5 4 -7 11.87 0.59
-5 -4 7 11.28 0.64
4 4 -7 10.87 0.55
-4 -4 7 10.83 0.6
-3 -4 7 0.48 0.1
-3 -4 7 0.72 0.07
3 4 -7 0.49 0.07
-2 -4 7 2 0.18
2 4 -7 1.97 0.13
2 4 -7 1.62 0.11
-1 -4 7 8.67 0.5
0 4 -7 2.49 0.15
0 4 -7 2.54 0.15
1 -4 7 0.21 0.04
-1 4 -7 0.18 0.04
-1 4 -7 0.16 0.04
1 -4 7 0.09 0.06
-2 4 -7 1.27 0.09
2 -4 7 0.63 0.1
-2 4 -7 0.98 0.09
2 -4 7 1.02 0.07
-3 4 -7 1.97 0.12
-3 4 -7 2.02 0.15
-4 4 -7 0 0.05
4 -4 7 0.03 0.05
4 -4 7 0.07 0.05
-5 4 -7 5.18 0.3
5 -4 7 4.72 0.27
5 -4 7 5.21 0.32
-6 4 -7 0.2 0.08
6 -4 7 0.21 0.07
-7 4 -7 1.53 0.16
7 -4 7 1.44 0.14
8 3 -7 0.03 0.07
-7 -3 7 1.3 0.16
7 3 -7 1.38 0.13
6 3 -7 4.21 0.26
-6 -3 7 4.65 0.31
-5 -3 7 8.33 0.48
5 3 -7 8.15 0.44
-5 -3 7 8.56 0.42
-4 -3 7 5.24 0.28
4 3 -7 5.12 0.29
-4 -3 7 5.47 0.34
3 3 -7 0.67 0.08
-3 -3 7 0.87 0.08
-3 -3 7 0.55 0.1
2 3 -7 0.11 0.03
-2 -3 7 0.14 0.07
2 3 -7 0.07 0.03
1 3 -7 2.01 0.13
1 3 -7 1.98 0.12
1 -3 7 0.28 0.07
-1 3 -7 0.19 0.05
1 -3 7 0.17 0.03
-1 3 -7 0.17 0.04
-2 3 -7 9.85 0.48
-2 3 -7 9.79 0.48
2 -3 7 10.54 0.44
3 -3 7 0.37 0.07
3 -3 7 0.2 0.04
-3 3 -7 0.28 0.07
4 -3 7 13.87 0.72
4 -3 7 13.55 0.6
-4 3 -7 13.93 0.66
5 -3 7 0 0.05
-5 3 -7 0.06 0.06
5 -3 7 0.09 0.06
-6 3 -7 0.06 0.07
6 -3 7 0.07 0.06
-7 3 -7 5.08 0.33
7 -3 7 5.63 0.31
8 2 -7 0.23 0.08
-7 -2 7 0.38 0.08
7 2 -7 0.26 0.08
-6 -2 7 14.85 0.79
6 2 -7 14.63 0.74
-6 -2 7 15.27 0.72
-5 -2 7 8.41 0.47
-5 -2 7 8.43 0.42
5 2 -7 8.04 0.43
-4 -2 7 0.61 0.08
4 2 -7 0.65 0.08
3 2 -7 7.02 0.36
2 2 -7 5.36 0.27
2 2 -7 5.36 0.28
0 2 -7 4.84 0.26
0 -2 7 5.55 0.32
0 2 -7 5.21 0.27
-1 2 -7 9.43 0.45
-2 2 -7 2.35 0.16
2 -2 7 2.41 0.13
2 -2 7 2.61 0.18
3 -2 7 0.67 0.09
-3 2 -7 0.68 0.09
-4 2 -7 22.85 1.05
4 -2 7 22.77 1.16
4 -2 7 23.58 0.97
5 -2 7 6.27 0.38
-5 2 -7 6.56 0.36
5 -2 7 6.2 0.32
6 -2 7 0.44 0.1
6 -2 7 0.4 0.08
-6 2 -7 0.57 0.1
-7 2 -7 2.32 0.19
7 -2 7 2.18 0.18
9 1 -7 0.1 0.08
8 1 -7 0.12 0.07
-8 -1 7 0.27 0.08
-7 -1 7 1.66 0.15
7 1 -7 1.5 0.14
-6 -1 7 0.2 0.06
-6 -1 7 0.14 0.08
6 1 -7 0.17 0.06
-5 -1 7 1.34 0.12
-5 -1 7 1.4 0.14
5 1 -7 1.33 0.12
-4 -1 7 2.49 0.17
4 1 -7 2.37 0.16
1 1 -7 4.16 0.23
-1 -1 7 4.8 0.28
1 1 -7 4.27 0.23
0 1 -7 6.38 0.3
0 -1 7 5.09 0.34
0 1 -7 6.5 0.31
-1 1 -7 34.45 1.54
1 -1 7 37.34 1.42
1 -1 7 34.85 1.71
-1 1 -7 34.01 1.6
-2 1 -7 15.72 0.75
2 -1 7 16.83 0.68
2 -1 7 15.9 0.83
3 -1 7 1.19 0.09
3 -1 7 1.13 0.12
-3 1 -7 1.11 0.11
4 -1 7 3.56 0.19
-4 1 -7 3.31 0.22
4 -1 7 3.23 0.24
-5 1 -7 -0.02 0.05
5 -1 7 0.12 0.05
5 -1 7 -0.03 0.06
-6 1 -7 2.19 0.18
6 -1 7 2.15 0.16
6 -1 7 2.1 0.2
-7 1 -7 0.23 0.09
7 -1 7 0.25 0.08
-9 0 7 0.23 0.09
9 0 -7 0.13 0.09
-8 0 7 0.21 0.08
8 0 -7 0.15 0.07
7 0 -7 2.84 0.21
-7 0 7 3.15 0.22
6 0 -7 39.64 1.9
-6 0 7 41.84 1.81
5 0 -7 1.58 0.13
-5 0 7 1.63 0.14
-4 0 7 3.65 0.22
4 0 -7 3.77 0.21
-4 0 7 3.14 0.25
3 0 -7 1.26 0.09
-3 0 7 0.54 0.1
2 0 -7 19.27 0.89
-2 0 7 20.02 0.96
2 0 -7 17.26 0.84
1 0 -7 0.39 0.06
-1 0 7 0.41 0.07
1 0 -7 0.72 0.06
0 0 7 47 2.28
0 0 -7 47.44 2.15
0 0 -7 47.01 2.04
-1 0 -7 0.06 0.04
1 0 7 0.04 0.04
1 0 7 0.03 0.02
2 0 7 12.91 0.71
2 0 7 14.15 0.58
-2 0 -7 13.5 0.64
3 0 7 12.08 0.65
3 0 7 12.44 0.53
-3 0 -7 11.73 0.58
4 0 7 0.54 0.08
4 0 7 0.57 0.1
-4 0 -7 0.59 0.09
5 0 7 2.7 0.17
5 0 7 2.73 0.22
-5 0 -7 2.71 0.2
-6 0 -7 2.67 0.21
6 0 7 2.73 0.19
6 0 7 2.85 0.24
7 0 7 7.35 0.48
-9 1 7 2.22 0.2
9 -1 -7 2.36 0.2
-8 1 7 0.19 0.07
8 -1 -7 0.1 0.07
-7 1 7 12.21 0.64
7 -1 -7 13.11 0.66
6 -1 -7 27.25 1.29
-6 1 7 27.17 1.24
-5 1 7 5.52 0.34
-5 1 7 5.5 0.32
5 -1 -7 5.53 0.31
4 -1 -7 0.18 0.04
-4 1 7 0.06 0.06
-4 1 7 0.17 0.06
3 -1 -7 6.34 0.32
3 -1 -7 6.35 0.31
-3 1 7 5.46 0.35
-2 1 7 0.46 0.07
2 -1 -7 0.3 0.06
2 -1 -7 0.36 0.06
1 -1 -7 63.94 2.82
1 -1 -7 60.4 2.66
-1 1 7 61.38 2.96
0 1 7 6.61 0.4
0 -1 -7 6.93 0.36
0 -1 -7 7.72 0.36
1 1 7 12.43 0.67
1 1 7 13.27 0.54
-1 -1 -7 12.38 0.6
2 1 7 2.69 0.16
2 1 7 2.95 0.22
-2 -1 -7 3 0.19
3 1 7 8.81 0.4
3 1 7 9.1 0.51
-3 -1 -7 8.45 0.45
-4 -1 -7 7.13 0.4
4 1 7 7.81 0.36
-5 -1 -7 0.33 0.08
5 1 7 0.31 0.07
6 1 7 1.29 0.13
-6 -1 -7 1.21 0.14
9 -2 -7 0.31 0.1
-9 2 7 0.3 0.1
8 -2 -7 0.23 0.08
-8 2 7 0.17 0.08
7 -2 -7 1.03 0.13
-7 2 7 1.34 0.14
-6 2 7 1.33 0.13
6 -2 -7 1.35 0.13
-5 2 7 10.94 0.56
5 -2 -7 11.31 0.57
4 -2 -7 2.38 0.16
-4 2 7 2.34 0.17
3 -2 -7 0.04 0.04
3 -2 -7 0.02 0.03
-3 2 7 0.08 0.05
2 -2 -7 0.26 0.05
2 -2 -7 0.34 0.06
-2 2 7 0.34 0.07
-1 2 7 4.25 0.27
1 -2 -7 4.14 0.24
1 -2 -7 4.86 0.25
0 -2 -7 21.44 0.99
0 2 7 22.63 1.11
1 2 7 1.81 0.11
-1 -2 -7 1.93 0.14
1 2 7 1.96 0.17
2 2 7 30.2 1.23
-2 -2 -7 29.45 1.34
-3 -2 -7 1.4 0.15
3 2 7 1.21 0.1
-3 -2 -7 1.33 0.13
-4 -2 -7 0.09 0.06
-4 -2 -7 0 0.07
4 2 7 0.07 0.05
5 2 7 1.88 0.15
-5 -2 -7 1.79 0.19
-5 -2 -7 1.67 0.16
-6 -2 -7 0.06 0.07
-9 3 7 0.62 0.13
9 -3 -7 0.63 0.12
-8 3 7 1.52 0.16
8 -3 -7 1.39 0.15
-7 3 7 0.71 0.11
7 -3 -7 0.66 0.11
-6 3 7 2.8 0.21
6 -3 -7 2.78 0.2
-5 3 7 2.13 0.17
5 -3 -7 1.98 0.16
4 -3 -7 8.35 0.44
-4 3 7 8.12 0.44
3 -3 -7 22.79 1.07
3 -3 -7 21.74 1.01
-3 3 7 22.95 1.13
-2 3 7 0.04 0.05
2 -3 -7 -0.01 0.04
2 -3 -7 -0.03 0.03
1 -3 -7 43.77 1.87
1 -3 -7 38.84 1.77
-1 3 7 38.44 1.97
0 -3 -7 0.07 0.04
0 3 7 0.11 0.06
-1 -3 -7 7.52 0.39
1 3 7 7.54 0.35
-2 -3 -7 1.01 0.11
2 3 7 0.95 0.09
-2 -3 -7 1.01 0.12
-3 -3 -7 0.52 0.09
3 3 7 0.41 0.07
-3 -3 -7 0.39 0.1
-4 -3 -7 0.3 0.08
-4 -3 -7 0.21 0.1
4 3 7 0.3 0.07
5 3 7 1.05 0.12
-5 -3 -7 1.05 0.14
8 -4 -7 0.23 0.09
-8 4 7 0.2 0.1
7 -4 -7 0.37 0.09
-7 4 7 0.54 0.12
-6 4 7 2.5 0.21
6 -4 -7 2.65 0.19
-5 4 7 2.59 0.21
5 -4 -7 2.99 0.2
4 -4 -7 2.69 0.18
-4 4 7 2.26 0.19
-3 4 7 9.77 0.54
3 -4 -7 9.5 0.48
3 -4 -7 10.4 0.52
2 -4 -7 0.07 0.05
-2 4 7 0.15 0.07
2 -4 -7 0.12 0.06
-1 4 7 18.81 0.96
1 -4 -7 18.09 0.85
0 4 7 3.84 0.26
0 -4 -7 3.35 0.22
-1 -4 -7 1.1 0.11
-1 -4 -7 1 0.13
-2 -4 -7 3.13 0.21
2 4 7 3.11 0.19
-2 -4 -7 3.09 0.24
3 4 7 0.04 0.05
-3 -4 -7 0.1 0.06
-3 -4 -7 0.03 0.06
4 4 7 1.27 0.12
-8 5 7 3.09 0.26
8 -5 -7 3.15 0.25
-7 5 7 0.95 0.15
7 -5 -7 1.29 0.14
-6 5 7 0.03 0.07
6 -5 -7 -0.01 0.04
5 -5 -7 5.13 0.32
-5 5 7 5.18 0.33
4 -5 -7 4.68 0.29
-4 5 7 4.51 0.29
3 -5 -7 3.1 0.22
2 -5 -7 0.17 0.05
-2 5 7 0.22 0.08
2 -5 -7 0.14 0.06
1 -5 -7 6.72 0.36
-1 5 7 6.88 0.42
0 -5 -7 1.86 0.15
-1 -5 -7 0.21 0.08
-1 -5 -7 0.2 0.06
-2 -5 -7 1.79 0.18
2 5 7 1.49 0.13
3 5 7 0.35 0.08
7 -6 -7 2.15 0.19
-7 6 7 1.59 0.19
6 -6 -7 0.48 0.1
-6 6 7 0.64 0.13
-5 6 7 0.5 0.11
5 -6 -7 0.4 0.09
4 -6 -7 1.56 0.15
-4 6 7 1.23 0.16
3 -6 -7 1.8 0.16
-3 6 7 1.8 0.17
2 -6 -7 3.57 0.23
-2 6 7 3.66 0.27
1 -6 -7 5.7 0.32
-1 6 7 5.65 0.38
0 -6 -7 0.45 0.1
-1 -6 -7 1.21 0.16
-7 7 7 0.85 0.16
-6 7 7 0.21 0.1
6 -7 -7 0.27 0.09
5 -7 -7 0.47 0.1
-5 7 7 0.44 0.13
-4 7 7 1.86 0.2
4 -7 -7 2.19 0.19
-3 7 7 0.05 0.09
-1 7 7 1.41 0.17
0 -7 -7 2.12 0.2
-6 8 7 1.01 0.17
5 -8 -7 2.46 0.22
4 -8 -7 2.26 0.21
0 -12 8 0.03 0.09
1 -12 8 0.76 0.13
2 -12 8 0.17 0.09
3 -12 8 1.56 0.16
4 -12 8 1.36 0.16
-1 -11 8 1.25 0.18
1 11 -8 1.27 0.15
0 11 -8 0.48 0.1
0 -11 8 0.44 0.12
1 -11 8 0.98 0.13
-1 11 -8 0.89 0.12
1 -11 8 0.79 0.14
2 -11 8 0.04 0.07
-2 11 -8 -0.04 0.06
3 -11 8 2.01 0.17
-3 11 -8 1.66 0.16
-4 11 -8 0.04 0.06
4 -11 8 -0.05 0.07
-5 11 -8 3.15 0.23
5 -11 8 3.19 0.23
3 10 -8 0.11 0.08
-2 -10 8 8.43 0.53
2 10 -8 8.24 0.46
1 10 -8 0.03 0.07
-1 -10 8 -0.04 0.07
0 -10 8 2.06 0.19
0 10 -8 1.75 0.16
1 -10 8 3.4 0.22
-1 10 -8 2.97 0.21
1 -10 8 3.08 0.24
2 -10 8 0.74 0.11
-2 10 -8 0.76 0.1
-3 10 -8 1.16 0.12
3 -10 8 1.3 0.13
4 -10 8 0.2 0.08
-4 10 -8 0.12 0.07
5 -10 8 0.03 0.06
-5 10 -8 0.07 0.07
6 -10 8 4.17 0.27
4 9 -8 0.52 0.1
-4 -9 8 0.46 0.14
3 9 -8 0.38 0.09
-3 -9 8 0.57 0.13
2 9 -8 -0.03 0.06
-2 -9 8 0.03 0.07
1 9 -8 16.92 0.84
-1 -9 8 16.63 0.91
0 -9 8 0.74 0.12
0 9 -8 0.62 0.09
1 -9 8 0.47 0.09
-1 9 -8 0.39 0.08
1 -9 8 0.31 0.08
-2 9 -8 0.27 0.07
2 -9 8 0.32 0.08
2 -9 8 0.32 0.08
3 -9 8 0.08 0.07
-3 9 -8 0.05 0.05
4 -9 8 0.2 0.07
-4 9 -8 0.04 0.06
-5 9 -8 0.33 0.08
5 -9 8 0.3 0.08
6 -9 8 0.48 0.1
7 -9 8 1.96 0.17
-5 -8 8 3.5 0.31
5 8 -8 3.41 0.24
-4 -8 8 11.49 0.68
4 8 -8 11.34 0.6
3 8 -8 1.06 0.12
-3 -8 8 0.9 0.15
-2 -8 8 1.54 0.17
2 8 -8 1.47 0.14
1 8 -8 0.04 0.06
-1 -8 8 0.14 0.08
0 8 -8 4.15 0.26
0 -8 8 4.26 0.3
1 -8 8 0.34 0.07
-1 8 -8 0.28 0.06
1 -8 8 0.31 0.09
2 -8 8 0.11 0.06
-2 8 -8 0.01 0.05
2 -8 8 0.1 0.08
3 -8 8 1.77 0.14
-3 8 -8 1.71 0.14
3 -8 8 1.73 0.18
4 -8 8 6.66 0.34
-4 8 -8 6.52 0.36
5 -8 8 0.04 0.06
6 -8 8 0.7 0.1
-6 8 -8 0.84 0.12
7 -8 8 0.09 0.07
-7 8 -8 -0.05 0.08
6 7 -8 0.05 0.07
-6 -7 8 0.14 0.12
5 7 -8 0.32 0.09
-5 -7 8 0.42 0.13
-4 -7 8 0.45 0.13
4 7 -8 0.4 0.09
-3 -7 8 4.79 0.34
3 7 -8 4.8 0.29
-2 -7 8 0.14 0.08
2 7 -8 0.11 0.06
-1 -7 8 2.08 0.19
1 7 -8 2.26 0.16
0 7 -8 4.86 0.28
0 -7 8 5.09 0.33
1 -7 8 18.81 0.83
-1 7 -8 19.19 0.94
1 -7 8 21.01 1.03
2 -7 8 8.56 0.5
-2 7 -8 8.18 0.43
2 -7 8 8.29 0.39
3 -7 8 13.62 0.6
-3 7 -8 13.57 0.64
-3 7 -8 13.76 0.67
-4 7 -8 10.82 0.54
-4 7 -8 10.89 0.53
4 -7 8 10.27 0.49
5 -7 8 9.06 0.45
-5 7 -8 10.2 0.5
-6 7 -8 0.04 0.07
6 -7 8 0.02 0.06
-7 7 -8 1.81 0.18
7 -7 8 1.64 0.15
-6 -6 8 0.17 0.11
6 6 -8 0.13 0.08
5 6 -8 0.14 0.06
-5 -6 8 -0.04 0.08
4 6 -8 5.71 0.32
-4 -6 8 5.31 0.37
3 6 -8 14.28 0.72
-3 -6 8 14.58 0.79
-2 -6 8 11.62 0.64
2 6 -8 11.37 0.58
-1 -6 8 133.11 6.09
1 6 -8 122.65 5.79
0 -6 8 2.84 0.23
0 6 -8 2.49 0.17
1 -6 8 25.28 1.31
1 -6 8 26.04 1.06
-1 6 -8 25.78 1.2
-1 6 -8 25.05 1.12
2 -6 8 1.89 0.13
-2 6 -8 2.1 0.14
-2 6 -8 2.14 0.14
2 -6 8 1.7 0.2
3 -6 8 10.39 0.47
-5 6 -8 2.7 0.2
5 -6 8 2.44 0.17
-6 6 -8 0.88 0.13
6 -6 8 0.57 0.09
-7 6 -8 1.27 0.16
7 -6 8 1.1 0.13
-7 -5 8 0.16 0.11
7 5 -8 0.09 0.07
6 5 -8 3.18 0.22
-6 -5 8 3.16 0.27
-5 -5 8 1.14 0.16
5 5 -8 1 0.12
-4 -5 8 19.11 1
4 5 -8 18.74 0.92
3 5 -8 16.86 0.84
-3 -5 8 17.87 0.92
2 5 -8 32.18 1.56
-2 -5 8 34.71 1.68
-1 -5 8 16.17 0.83
1 5 -8 15.1 0.73
1 5 -8 14.22 0.68
0 5 -8 96.16 4.38
0 5 -8 96.93 4.11
-2 5 -8 0.22 0.04
2 -5 8 0.2 0.05
-2 5 -8 0.28 0.06
2 -5 8 0.09 0.07
3 -5 8 0.1 0.07
3 -5 8 0.04 0.04
-3 5 -8 0.09 0.05
-3 5 -8 0.02 0.03
4 -5 8 0.08 0.05
-4 5 -8 0.03 0.05
4 -5 8 0.04 0.06
-5 5 -8 -0.02 0.06
5 -5 8 0.02 0.05
6 -5 8 1.3 0.13
-6 5 -8 1.34 0.15
-7 5 -8 -0.01 0.08
7 -5 8 0.07 0.07
8 4 -8 0.06 0.08
-7 -4 8 1.09 0.17
7 4 -8 1.26 0.14
6 4 -8 2.26 0.17
-6 -4 8 2.17 0.22
-5 -4 8 7.03 0.44
5 4 -8 7.24 0.39
4 4 -8 1.77 0.14
-4 -4 8 1.63 0.17
-3 -4 8 0.51 0.11
3 4 -8 0.48 0.07
-3 -4 8 0.51 0.07
2 4 -8 1.64 0.13
-2 -4 8 2 0.19
2 4 -8 1.75 0.12
1 4 -8 2.95 0.18
1 4 -8 3.15 0.17
-1 4 -8 3.6 0.2
-1 4 -8 3.54 0.2
-2 4 -8 3.44 0.2
-2 4 -8 3.33 0.18
2 -4 8 2.94 0.16
3 -4 8 2.95 0.22
-3 4 -8 2.98 0.19
3 -4 8 2.78 0.16
4 -4 8 1.4 0.13
4 -4 8 1.72 0.16
-4 4 -8 1.56 0.14
-5 4 -8 1.02 0.13
5 -4 8 0.81 0.1
5 -4 8 0.91 0.13
-6 4 -8 1.99 0.18
6 -4 8 1.77 0.16
7 -4 8 0.84 0.12
-7 4 -8 1.16 0.15
8 3 -8 -0.05 0.07
7 3 -8 0.85 0.11
6 3 -8 0.63 0.1
-6 -3 8 0.7 0.13
-5 -3 8 13.9 0.76
5 3 -8 13.84 0.7
-5 -3 8 14.77 0.68
4 3 -8 15.25 0.74
-4 -3 8 14.41 0.7
-4 -3 8 15.59 0.81
-3 -3 8 0.23 0.06
-3 -3 8 0.34 0.1
3 3 -8 0.32 0.06
2 3 -8 1.8 0.12
2 3 -8 1.84 0.13
-1 3 -8 0.19 0.05
1 -3 8 0.2 0.07
-1 3 -8 0.19 0.04
-2 3 -8 1.43 0.12
2 -3 8 1.38 0.1
2 -3 8 1.29 0.13
3 -3 8 4.17 0.27
-3 3 -8 4.15 0.25
3 -3 8 4.09 0.22
4 -3 8 26.76 1.33
4 -3 8 25.95 1.11
-4 3 -8 26.44 1.2
5 -3 8 31.26 1.52
-5 3 -8 30.6 1.38
5 -3 8 29.3 1.27
6 -3 8 1.67 0.14
-6 3 -8 1.4 0.16
7 -3 8 0.27 0.08
-7 3 -8 0.31 0.09
8 2 -8 0.14 0.07
-7 -2 8 1.52 0.15
7 2 -8 1.43 0.14
6 2 -8 0.79 0.11
-6 -2 8 0.91 0.12
-6 -2 8 1.04 0.14
-5 -2 8 8.48 0.48
5 2 -8 7.73 0.43
-5 -2 8 8.56 0.43
4 2 -8 2.35 0.16
-4 -2 8 2.41 0.17
-3 -2 8 49.81 2.44
-2 -2 8 0 0.06
2 2 -8 0.19 0.05
2 2 -8 0.17 0.04
1 2 -8 1.18 0.09
-1 -2 8 0.53 0.11
1 2 -8 1.14 0.09
0 2 -8 38.73 1.79
0 2 -8 39.57 1.71
-1 2 -8 15.38 0.74
1 -2 8 16.03 0.82
-1 2 -8 15.74 0.73
2 -2 8 0.13 0.04
-2 2 -8 0.13 0.06
2 -2 8 0.27 0.07
3 -2 8 0.05 0.05
-3 2 -8 -0.04 0.04
3 -2 8 0.06 0.04
4 -2 8 4.09 0.22
-4 2 -8 3.84 0.25
4 -2 8 4.1 0.28
5 -2 8 6.13 0.38
5 -2 8 5.76 0.3
-5 2 -8 5.63 0.34
6 -2 8 1.24 0.13
-6 2 -8 1.23 0.14
6 -2 8 1.18 0.15
7 -2 8 0.77 0.12
9 1 -8 0.85 0.13
8 1 -8 0.96 0.13
-8 -1 8 0.99 0.14
-7 -1 8 11.38 0.57
7 1 -8 10.72 0.58
6 1 -8 22.92 1.13
-6 -1 8 24.05 1.2
-6 -1 8 23.65 1.09
5 1 -8 4.63 0.28
-5 -1 8 4.99 0.29
4 1 -8 0.54 0.07
-4 -1 8 0.41 0.1
-4 -1 8 0.63 0.09
3 1 -8 2.52 0.16
3 1 -8 2.49 0.16
1 1 -8 0.13 0.05
-1 -1 8 0.13 0.06
1 1 -8 0.12 0.04
0 1 -8 0.6 0.08
0 -1 8 0.67 0.1
0 1 -8 0.73 0.07
-1 1 -8 0.18 0.06
1 -1 8 0.12 0.06
-2 1 -8 0.5 0.09
2 -1 8 0.5 0.09
-3 1 -8 0.23 0.07
3 -1 8 0.15 0.05
3 -1 8 0.18 0.07
-4 1 -8 0.04 0.05
4 -1 8 0.05 0.06
4 -1 8 0.04 0.04
5 -1 8 0.52 0.11
5 -1 8 0.45 0.08
-5 1 -8 0.54 0.1
6 -1 8 5.27 0.29
-6 1 -8 4.69 0.31
6 -1 8 5.24 0.35
-9 0 8 2.93 0.24
9 0 -8 2.98 0.24
8 0 -8 0.19 0.09
-8 0 8 0.35 0.09
7 0 -8 3.24 0.22
-7 0 8 2.9 0.22
6 0 -8 0.5 0.09
-6 0 8 0.6 0.1
5 0 -8 11.18 0.56
-5 0 8 11.06 0.56
-4 0 8 3.36 0.21
3 0 -8 1.6 0.12
2 0 -8 3.83 0.22
-2 0 8 4 0.27
2 0 -8 3.69 0.22
-1 0 8 0.01 0.04
1 0 -8 0.03 0.04
1 0 -8 0.1 0.03
0 0 -8 5.06 0.28
0 0 -8 5.39 0.27
0 0 8 5.13 0.32
-1 0 -8 1.58 0.13
1 0 8 1.54 0.14
-2 0 -8 6.96 0.36
2 0 8 6.48 0.4
-3 0 -8 25.74 1.17
3 0 8 26.88 1.08
3 0 8 24.64 1.3
-4 0 -8 1.2 0.12
4 0 8 1.2 0.11
4 0 8 1.14 0.14
-5 0 -8 0.02 0.05
5 0 8 -0.01 0.06
5 0 8 0.06 0.05
-6 0 -8 0.22 0.08
6 0 8 0.11 0.07
6 0 8 0.23 0.11
-8 1 8 0.5 0.11
8 -1 -8 0.46 0.1
-7 1 8 0.66 0.11
7 -1 -8 0.84 0.12
-6 1 8 0.6 0.1
6 -1 -8 0.51 0.09
5 -1 -8 1.14 0.11
-5 1 8 1.19 0.12
-3 1 8 1.47 0.16
3 -1 -8 1.86 0.13
3 -1 -8 1.56 0.12
2 -1 -8 0.26 0.05
-2 1 8 0.23 0.07
2 -1 -8 0.2 0.06
-1 1 8 29.98 1.5
1 -1 -8 31.66 1.41
1 -1 -8 29.11 1.34
0 1 8 24.6 1.25
0 -1 -8 25.36 1.13
-1 -1 -8 17.46 0.81
1 1 8 17.29 0.9
-2 -1 -8 16.81 0.78
2 1 8 16.08 0.87
-3 -1 -8 5.95 0.34
3 1 8 5.67 0.38
3 1 8 5.84 0.29
4 1 8 0.78 0.09
4 1 8 0.69 0.13
-4 -1 -8 0.81 0.12
5 1 8 5.03 0.36
5 1 8 5.01 0.28
-5 -1 -8 4.85 0.31
-8 2 8 0.59 0.12
8 -2 -8 0.54 0.11
-7 2 8 1.04 0.14
7 -2 -8 0.98 0.13
-6 2 8 2.59 0.2
6 -2 -8 2.34 0.18
-5 2 8 2.96 0.21
5 -2 -8 3.07 0.2
-4 2 8 15.53 0.75
3 -2 -8 0.32 0.06
-3 2 8 0.33 0.08
3 -2 -8 0.39 0.06
2 -2 -8 119.27 5.24
-2 2 8 116 5.49
2 -2 -8 111.17 4.93
1 -2 -8 3.7 0.22
-1 2 8 3.28 0.24
0 -2 -8 27.82 1.26
0 2 8 28.15 1.4
-1 -2 -8 0.32 0.07
1 2 8 0.25 0.08
2 2 8 5.42 0.35
-2 -2 -8 5.19 0.31
-3 -2 -8 14.75 0.73
3 2 8 15.22 0.83
4 2 8 0.21 0.07
4 2 8 0.2 0.1
-4 -2 -8 0.29 0.08
5 2 8 0.17 0.07
-5 -2 -8 0.27 0.08
8 -3 -8 0.51 0.11
-7 3 8 0.25 0.08
7 -3 -8 0.26 0.09
6 -3 -8 3.34 0.22
-6 3 8 2.76 0.23
5 -3 -8 14.24 0.7
-5 3 8 13.17 0.68
-4 3 8 2.45 0.19
4 -3 -8 2.56 0.18
-3 3 8 7.91 0.44
3 -3 -8 6.82 0.38
3 -3 -8 7.85 0.41
-2 3 8 22.67 1.19
2 -3 -8 23.51 1.07
2 -3 -8 24.39 1.12
1 -3 -8 3.73 0.23
-1 3 8 3.52 0.25
0 -3 -8 2.24 0.16
0 3 8 2.13 0.19
-1 -3 -8 0 0.04
1 3 8 -0.06 0.05
2 3 8 3.82 0.3
-2 -3 -8 4.27 0.26
3 3 8 0.06 0.08
-3 -3 -8 0.12 0.06
-4 -3 -8 0.11 0.07
-8 4 8 -0.01 0.09
8 -4 -8 0.04 0.08
7 -4 -8 0.93 0.12
-7 4 8 0.72 0.14
-6 4 8 0.31 0.1
6 -4 -8 0.3 0.07
5 -4 -8 0.08 0.05
-5 4 8 0.01 0.07
-4 4 8 1.3 0.15
4 -4 -8 1.39 0.13
3 -4 -8 4.33 0.26
-3 4 8 4.3 0.28
3 -4 -8 3.92 0.25
2 -4 -8 3.29 0.21
-2 4 8 3.36 0.24
-1 4 8 1.34 0.15
1 -4 -8 1.41 0.13
0 -4 -8 0.81 0.1
0 4 8 0.82 0.13
1 4 8 1.56 0.17
-1 -4 -8 1.63 0.14
-2 -4 -8 6.25 0.37
2 4 8 6.71 0.44
-3 -4 -8 0.12 0.06
-7 5 8 0.97 0.16
7 -5 -8 1.15 0.15
-6 5 8 1.3 0.17
6 -5 -8 1.19 0.14
-5 5 8 0.65 0.13
5 -5 -8 0.69 0.11
-4 5 8 0.69 0.13
4 -5 -8 0.78 0.11
3 -5 -8 2.87 0.2
3 -5 -8 2.92 0.21
-2 5 8 0.07 0.06
2 -5 -8 0.01 0.04
1 -5 -8 1.56 0.14
-1 5 8 1.67 0.17
0 -5 -8 1.42 0.14
0 5 8 1.57 0.17
-1 -5 -8 0.1 0.06
1 5 8 0.05 0.09
-6 6 8 0.89 0.16
6 -6 -8 0.89 0.13
5 -6 -8 0.04 0.06
-5 6 8 0 0.09
-4 6 8 12.47 0.67
4 -6 -8 13.28 0.69
-3 6 8 0.54 0.13
2 -6 -8 0.73 0.1
-1 6 8 0.61 0.13
1 -6 -8 0.59 0.09
0 6 8 2.71 0.25
-6 7 8 0.39 0.13
-5 7 8 -0.07 0.09
5 -7 -8 0.05 0.07
-4 7 8 4.04 0.3
-1 -11 9 1.33 0.19
0 11 -9 2.81 0.22
0 -11 9 2.96 0.26
-1 11 -9 1.15 0.13
1 -11 9 1.2 0.16
-2 11 -9 3.14 0.23
-3 11 -9 0.59 0.1
4 -11 9 0.2 0.09
-4 11 -9 0.15 0.08
5 -11 9 0 0.08
-5 11 -9 0.03 0.08
2 10 -9 0.68 0.11
-2 -10 9 0.62 0.14
1 10 -9 2.4 0.2
-1 -10 9 2.66 0.24
0 10 -9 1.33 0.14
0 -10 9 1.32 0.16
1 -10 9 0.78 0.13
-1 10 -9 0.61 0.1
-2 10 -9 4.75 0.29
3 -10 9 0.6 0.1
-3 10 -9 0.43 0.09
-4 10 -9 1.45 0.14
4 -10 9 1.5 0.15
5 -10 9 1.65 0.16
6 -10 9 0.16 0.09
4 9 -9 1.01 0.14
3 9 -9 1.05 0.14
-3 -9 9 1.17 0.18
2 9 -9 0.18 0.07
-2 -9 9 0.16 0.09
-1 -9 9 0.04 0.08
1 9 -9 0.03 0.06
0 9 -9 0.42 0.08
0 -9 9 0.25 0.09
-1 9 -9 0.23 0.07
1 -9 9 0.25 0.09
2 -9 9 0.17 0.08
-2 9 -9 0.06 0.05
-3 9 -9 0.01 0.04
3 -9 9 0.07 0.07
4 -9 9 1.02 0.12
-4 9 -9 0.96 0.11
5 -9 9 1.4 0.14
6 -9 9 0.41 0.09
5 8 -9 0.95 0.13
4 8 -9 1.87 0.17
-4 -8 9 1.85 0.22
3 8 -9 0.4 0.09
-3 -8 9 0.45 0.12
-2 -8 9 8.97 0.55
2 8 -9 8.95 0.48
-1 -8 9 5.1 0.35
1 8 -9 4.7 0.29
0 -8 9 0.78 0.13
0 8 -9 0.69 0.1
-1 8 -9 1.35 0.12
1 -8 9 1.41 0.16
2 -8 9 0.2 0.09
-2 8 -9 0.19 0.06
3 -8 9 16.47 0.88
-3 8 -9 16.1 0.8
3 -8 9 16.39 0.72
4 -8 9 1.08 0.11
5 -8 9 0.3 0.07
6 -8 9 0.09 0.07
-6 8 -9 0.01 0.08
7 -8 9 1.85 0.17
-7 8 -9 1.98 0.2
6 7 -9 0.47 0.11
5 7 -9 2.12 0.18
-5 -7 9 1.94 0.23
-4 -7 9 0.24 0.11
4 7 -9 0.36 0.09
-3 -7 9 0.14 0.09
3 7 -9 0.17 0.07
2 7 -9 0.09 0.06
-2 -7 9 0.02 0.07
1 7 -9 0.03 0.05
-1 -7 9 0.04 0.08
0 -7 9 40.93 1.97
0 7 -9 38.02 1.83
-1 7 -9 0.37 0.06
1 -7 9 0.32 0.12
-2 7 -9 0.02 0.04
2 -7 9 0.09 0.1
-3 7 -9 5.13 0.28
-3 7 -9 5.4 0.28
3 -7 9 4.33 0.35
-4 7 -9 1.71 0.15
4 -7 9 1.67 0.13
-5 7 -9 0.26 0.08
5 -7 9 0.27 0.07
6 -7 9 0.1 0.06
-6 7 -9 0.01 0.07
7 -7 9 1.73 0.15
-7 7 -9 1.65 0.18
-6 -6 9 0.96 0.17
6 6 -9 0.97 0.14
5 6 -9 3.11 0.22
-5 -6 9 3.27 0.28
-4 -6 9 2.1 0.21
4 6 -9 2.1 0.17
-3 -6 9 10.28 0.59
3 6 -9 9.79 0.52
2 6 -9 0.14 0.06
-2 -6 9 0.11 0.08
1 6 -9 1.06 0.1
-1 -6 9 0.98 0.15
0 -6 9 37.82 1.87
0 6 -9 36.39 1.72
1 -6 9 1.1 0.17
-1 6 -9 1.58 0.12
-1 6 -9 1.53 0.12
-2 6 -9 0.19 0.06
2 -6 9 0.17 0.1
-2 6 -9 0.26 0.06
3 -6 9 1.43 0.18
-3 6 -9 2.67 0.17
4 -6 9 6.2 0.31
5 -6 9 0.99 0.11
-5 6 -9 0.94 0.13
6 -6 9 0.18 0.07
-6 6 -9 0.27 0.09
7 -6 9 0.05 0.07
7 5 -9 0.25 0.09
-7 -5 9 0.27 0.13
-6 -5 9 0.17 0.11
6 5 -9 0.09 0.07
-5 -5 9 0.2 0.1
5 5 -9 0.18 0.07
4 5 -9 9.19 0.48
-4 -5 9 9.16 0.55
-3 -5 9 1.03 0.15
3 5 -9 1.04 0.1
2 5 -9 29.92 1.45
-2 -5 9 32.28 1.58
-1 -5 9 4.07 0.31
1 5 -9 3.57 0.21
1 5 -9 3.75 0.23
0 5 -9 1.37 0.11
0 -5 9 1.25 0.18
0 5 -9 1.16 0.1
-2 5 -9 0.11 0.04
-2 5 -9 0.15 0.06
2 -5 9 0 0.06
3 -5 9 0.58 0.12
-3 5 -9 0.98 0.11
4 -5 9 1.32 0.11
4 -5 9 1.32 0.15
-4 5 -9 1.43 0.14
-5 5 -9 2.94 0.21
5 -5 9 2.63 0.18
-6 5 -9 0.04 0.07
6 -5 9 0.07 0.06
7 -5 9 2.06 0.18
7 4 -9 0.15 0.08
-7 -4 9 0.13 0.1
-6 -4 9 0.91 0.16
6 4 -9 0.88 0.12
-5 -4 9 4.09 0.31
5 4 -9 4.49 0.27
-4 -4 9 1.04 0.15
4 4 -9 1.04 0.11
-3 -4 9 2.92 0.24
-3 -4 9 2.44 0.17
3 4 -9 2.44 0.17
-2 -4 9 20.35 1.07
2 4 -9 19.8 0.96
1 4 -9 6.71 0.34
0 4 -9 1.5 0.11
0 -4 9 0.66 0.13
0 4 -9 1.23 0.1
-1 4 -9 7.57 0.38
-2 4 -9 6.85 0.35
2 -4 9 6.23 0.41
-3 4 -9 3.26 0.22
3 -4 9 3.52 0.25
4 -4 9 1.99 0.18
4 -4 9 1.63 0.14
-4 4 -9 1.97 0.16
5 -4 9 3.2 0.25
5 -4 9 2.92 0.2
-5 4 -9 3.09 0.23
-6 4 -9 0.01 0.07
6 -4 9 0.16 0.07
7 -4 9 2.86 0.22
8 3 -9 0.34 0.1
7 3 -9 4.39 0.29
6 3 -9 2.68 0.2
-6 -3 9 2.7 0.23
-5 -3 9 0.13 0.08
5 3 -9 0.03 0.05
-5 -3 9 0.03 0.05
-4 -3 9 0.2 0.09
4 3 -9 0.12 0.05
-4 -3 9 0.17 0.06
3 3 -9 2.3 0.15
3 3 -9 2.34 0.16
-3 -3 9 2.34 0.23
2 3 -9 0.13 0.04
2 3 -9 0.11 0.04
-2 -3 9 0.11 0.09
1 3 -9 1.48 0.11
1 3 -9 1.61 0.12
0 3 -9 13.81 0.66
-1 3 -9 5.34 0.29
-1 3 -9 5.78 0.31
1 -3 9 6.11 0.37
2 -3 9 0.65 0.1
-2 3 -9 0.48 0.09
3 -3 9 0.38 0.09
-3 3 -9 0.2 0.07
4 -3 9 3.19 0.24
-4 3 -9 3.14 0.22
5 -3 9 9.35 0.54
5 -3 9 8.57 0.44
-5 3 -9 9.63 0.5
6 -3 9 2.84 0.2
-6 3 -9 3 0.23
8 2 -9 0.01 0.07
-7 -2 9 17.49 0.84
7 2 -9 17.1 0.87
-6 -2 9 3.8 0.28
-6 -2 9 3.82 0.25
6 2 -9 3.53 0.24
5 2 -9 0.96 0.11
-5 -2 9 0.9 0.14
-5 -2 9 1.03 0.12
4 2 -9 0.19 0.06
-4 -2 9 0.2 0.1
-4 -2 9 0.19 0.06
3 2 -9 3.55 0.2
3 2 -9 3.83 0.21
-3 -2 9 2.97 0.27
2 2 -9 3.21 0.19
2 2 -9 3.23 0.19
-1 -2 9 0.01 0.06
1 2 -9 -0.01 0.04
1 2 -9 0.02 0.03
0 -2 9 0.26 0.08
0 2 -9 0.16 0.06
0 2 -9 0.19 0.04
1 -2 9 21.7 1.09
-1 2 -9 20.93 0.97
2 -2 9 1 0.12
-2 2 -9 1.25 0.12
3 -2 9 0.34 0.09
-3 2 -9 0.35 0.09
4 -2 9 0.63 0.11
-4 2 -9 0.53 0.1
5 -2 9 2.35 0.21
5 -2 9 2.18 0.16
-5 2 -9 2.26 0.19
6 -2 9 0.3 0.1
-6 2 -9 0.32 0.09
6 -2 9 0.27 0.08
8 1 -9 3.22 0.25
-8 -1 9 3.55 0.26
-7 -1 9 8.4 0.45
7 1 -9 7.25 0.44
-6 -1 9 6.95 0.38
6 1 -9 6.52 0.38
-5 -1 9 1.79 0.15
5 1 -9 1.92 0.15
-5 -1 9 1.81 0.18
-4 -1 9 3.08 0.2
-4 -1 9 2.18 0.23
4 1 -9 2.87 0.18
3 1 -9 1.16 0.1
-3 -1 9 0.57 0.13
3 1 -9 0.96 0.09
2 1 -9 9.51 0.46
-1 -1 9 2.98 0.22
1 1 -9 2.51 0.17
1 1 -9 2.86 0.17
0 -1 9 3.91 0.27
0 1 -9 3.97 0.22
0 1 -9 3.79 0.23
-1 1 -9 0.39 0.08
1 -1 9 0.47 0.09
-2 1 -9 0.3 0.08
2 -1 9 0.32 0.08
-3 1 -9 1.14 0.12
3 -1 9 1.44 0.15
-4 1 -9 0.14 0.06
4 -1 9 0.18 0.09
5 -1 9 3.11 0.25
-5 1 -9 2.74 0.22
6 -1 9 0.15 0.1
-8 0 9 0.55 0.12
8 0 -9 0.47 0.11
-7 0 9 0.1 0.06
7 0 -9 0.1 0.07
-6 0 9 0.42 0.09
6 0 -9 0.51 0.09
5 0 -9 0.4 0.07
-5 0 9 0.58 0.09
-5 0 9 0.26 0.1
4 0 -9 7.57 0.4
-4 0 9 7.37 0.4
2 0 -9 6.58 0.35
2 0 -9 6.74 0.35
-2 0 9 6.93 0.42
1 0 -9 1.95 0.15
1 0 -9 2.02 0.14
-1 0 9 2.07 0.18
0 0 9 6.1 0.37
0 0 -9 6.04 0.33
-1 0 -9 0.25 0.06
1 0 9 0.18 0.07
2 0 9 6.93 0.43
-2 0 -9 7.46 0.39
-3 0 -9 0.12 0.06
3 0 9 0.04 0.07
4 0 9 0.38 0.11
-4 0 -9 0.31 0.08
5 0 9 1.16 0.17
-5 0 -9 1.1 0.14
8 -1 -9 0.45 0.11
-8 1 9 0.52 0.12
7 -1 -9 1.13 0.14
-7 1 9 1.08 0.15
6 -1 -9 0.18 0.07
-6 1 9 0.21 0.08
5 -1 -9 0.58 0.09
-5 1 9 0.75 0.11
-4 1 9 1.49 0.14
4 -1 -9 1.7 0.14
-3 1 9 -0.06 0.06
3 -1 -9 -0.02 0.04
3 -1 -9 0.03 0.04
-2 1 9 7.63 0.45
2 -1 -9 7.81 0.4
2 -1 -9 7.2 0.39
-1 1 9 11.36 0.64
1 -1 -9 12.56 0.59
1 -1 -9 11.5 0.57
0 1 9 0.03 0.06
0 -1 -9 0.03 0.04
1 1 9 0.09 0.07
-1 -1 -9 0.17 0.06
-2 -1 -9 4.53 0.29
2 1 9 5.04 0.33
-3 -1 -9 4 0.27
3 1 9 4.36 0.31
4 1 9 -0.02 0.07
-4 -1 -9 0.03 0.06
8 -2 -9 0.02 0.07
-8 2 9 0.12 0.09
-7 2 9 0.8 0.13
7 -2 -9 0.71 0.11
-6 2 9 5.22 0.33
6 -2 -9 4.83 0.31
-5 2 9 0 0.05
5 -2 -9 0.1 0.05
-4 2 9 7.72 0.43
4 -2 -9 7.65 0.42
3 -2 -9 0.93 0.1
3 -2 -9 0.86 0.09
-3 2 9 1.2 0.14
2 -2 -9 1.19 0.12
2 -2 -9 1.47 0.13
-2 2 9 1.47 0.15
-1 2 9 44.24 2.24
1 -2 -9 47.2 2.01
0 -2 -9 6.84 0.37
0 2 9 6.53 0.41
-1 -2 -9 0.73 0.1
1 2 9 0.56 0.11
-2 -2 -9 2.03 0.17
2 2 9 1.97 0.2
3 2 9 0.18 0.09
-3 -2 -9 0.06 0.06
-4 -2 -9 0.25 0.08
-7 3 9 0.58 0.12
7 -3 -9 0.5 0.1
6 -3 -9 0.08 0.06
-6 3 9 0.03 0.07
5 -3 -9 7.38 0.42
-5 3 9 7.49 0.43
-4 3 9 0.57 0.11
4 -3 -9 0.46 0.08
-3 3 9 11.15 0.59
3 -3 -9 10.53 0.55
3 -3 -9 9.89 0.52
-2 3 9 3.41 0.25
2 -3 -9 3.1 0.21
1 -3 -9 0.4 0.08
-1 3 9 0.38 0.09
0 3 9 0.33 0.09
0 -3 -9 0.25 0.06
-1 -3 -9 3.32 0.22
1 3 9 2.82 0.25
-2 -3 -9 0.18 0.06
2 3 9 0.07 0.08
-3 -3 -9 0.04 0.06
-7 4 9 2.15 0.22
7 -4 -9 2.21 0.19
6 -4 -9 0.25 0.08
-6 4 9 0.19 0.1
5 -4 -9 7.94 0.47
-5 4 9 8.89 0.49
-4 4 9 4.33 0.31
4 -4 -9 5.2 0.3
3 -4 -9 5.28 0.3
3 -4 -9 4.29 0.28
2 -4 -9 0.34 0.08
-2 4 9 0.44 0.1
1 -4 -9 0.99 0.11
-1 4 9 0.8 0.13
0 4 9 0.17 0.08
0 -4 -9 0.1 0.05
1 4 9 1.06 0.17
-1 -4 -9 1.06 0.13
-2 -4 -9 0.66 0.11
-6 5 9 2.17 0.22
6 -5 -9 1.81 0.18
5 -5 -9 1.92 0.17
-5 5 9 1.81 0.2
-4 5 9 0.52 0.13
4 -5 -9 0.49 0.1
3 -5 -9 1.63 0.15
-2 5 9 0.08 0.08
2 -5 -9 0.03 0.05
1 -5 -9 2.38 0.18
-1 5 9 2.23 0.22
0 5 9 1.79 0.2
0 -5 -9 1.85 0.16
5 -6 -9 0.08 0.07
-5 6 9 0.09 0.11
-4 6 9 1.76 0.21
2 -6 -9 1.53 0.15
-1 6 9 3.17 0.28
0 -11 10 3.47 0.29
-1 11 -10 0.08 0.07
1 -11 10 0.09 0.09
-2 11 -10 0.03 0.07
-3 11 -10 0.22 0.08
-4 11 -10 1.89 0.17
-2 -10 10 3.6 0.31
1 10 -10 0.03 0.07
-1 -10 10 0.09 0.09
0 -10 10 0.53 0.12
0 10 -10 0.57 0.1
1 -10 10 1.13 0.16
-1 10 -10 1.29 0.13
-2 10 -10 0.17 0.07
-3 10 -10 0.73 0.1
-4 10 -10 1.81 0.16
3 9 -10 0.01 0.07
-3 -9 10 -0.02 0.09
-2 -9 10 0.23 0.1
2 9 -10 0.31 0.09
-1 -9 10 2.15 0.21
1 9 -10 1.74 0.16
0 -9 10 1.52 0.18
0 9 -10 1.3 0.13
1 -9 10 0.07 0.08
-1 9 -10 0.07 0.06
2 -9 10 0.57 0.12
-2 9 -10 0.53 0.09
-3 9 -10 2.25 0.17
-4 -8 10 1.38 0.21
4 8 -10 1.64 0.16
-3 -8 10 0.46 0.12
3 8 -10 0.52 0.1
-2 -8 10 0.63 0.13
2 8 -10 0.66 0.1
-1 -8 10 16.85 0.89
1 8 -10 15.44 0.8
0 8 -10 3.96 0.26
0 -8 10 4.42 0.32
1 -8 10 3.58 0.28
-1 8 -10 2.89 0.21
2 -8 10 0.1 0.1
-2 8 -10 0.11 0.06
-3 8 -10 0.44 0.08
3 -8 10 0.34 0.14
-6 8 -10 0.19 0.09
5 7 -10 0.11 0.08
-5 -7 10 0.18 0.12
-4 -7 10 4.52 0.35
4 7 -10 4.35 0.28
-3 -7 10 0.45 0.12
3 7 -10 0.38 0.09
-2 -7 10 0.01 0.07
2 7 -10 -0.01 0.05
-1 -7 10 2.38 0.23
1 7 -10 2.38 0.17
0 -7 10 1.06 0.17
0 7 -10 0.82 0.1
-1 7 -10 0.19 0.06
1 -7 10 0.08 0.09
2 -7 10 2.96 0.28
-2 7 -10 3.54 0.21
3 -7 10 0.43 0.13
-3 7 -10 0.37 0.08
-4 7 -10 2.49 0.19
-5 7 -10 2.04 0.18
-6 7 -10 1.29 0.16
-6 -6 10 2.5 0.26
6 6 -10 2.29 0.2
-5 -6 10 0.12 0.1
5 6 -10 0.11 0.07
4 6 -10 0.15 0.07
-4 -6 10 0.27 0.11
3 6 -10 0.18 0.06
-3 -6 10 0.41 0.12
2 6 -10 4.07 0.26
-2 -6 10 4.76 0.34
-1 -6 10 3.66 0.29
1 6 -10 3.08 0.21
0 6 -10 8.7 0.44
0 -6 10 8.01 0.53
-1 6 -10 0.32 0.07
1 -6 10 0.25 0.11
-1 6 -10 0.32 0.06
-2 6 -10 4.43 0.26
3 -6 10 0.31 0.11
-3 6 -10 0.47 0.09
-4 6 -10 1.18 0.13
4 -6 10 0.53 0.13
-5 6 -10 2.05 0.18
-6 6 -10 0.02 0.08
-7 -5 10 2.24 0.25
6 5 -10 0.08 0.07
-6 -5 10 0.2 0.11
-5 -5 10 2.52 0.24
5 5 -10 2.45 0.19
-4 -5 10 2.1 0.21
4 5 -10 1.97 0.16
3 5 -10 0.53 0.08
-3 -5 10 0.46 0.13
-2 -5 10 0.36 0.13
2 5 -10 0.33 0.07
-1 -5 10 0.59 0.15
1 5 -10 0.58 0.08
1 5 -10 0.5 0.07
0 -5 10 2.53 0.27
0 5 -10 3.5 0.2
0 5 -10 3.39 0.2
-1 5 -10 0.22 0.06
-1 5 -10 0.18 0.05
1 -5 10 0.1 0.08
2 -5 10 1.07 0.17
-2 5 -10 2.16 0.15
3 -5 10 0.28 0.1
-3 5 -10 0.33 0.08
-4 5 -10 16.39 0.77
4 -5 10 15.49 0.87
-5 5 -10 1.8 0.17
-6 5 -10 0.12 0.09
7 4 -10 0.93 0.14
-7 -4 10 1.09 0.18
6 4 -10 3.52 0.25
-6 -4 10 3.61 0.29
-5 -4 10 0.08 0.08
5 4 -10 0.03 0.06
4 4 -10 12.01 0.62
-4 -4 10 12.35 0.7
3 4 -10 1.71 0.14
-3 -4 10 1.75 0.2
2 4 -10 -0.02 0.03
2 4 -10 0 0.04
-2 -4 10 0.11 0.11
1 4 -10 5.45 0.3
1 4 -10 5.41 0.29
-1 4 -10 3.08 0.18
-1 4 -10 3.22 0.2
2 -4 10 6.56 0.44
-2 4 -10 7.56 0.38
3 -4 10 0.23 0.08
-3 4 -10 0.23 0.08
-4 4 -10 8.39 0.47
4 -4 10 9.17 0.53
5 -4 10 0.15 0.09
-5 4 -10 0.2 0.08
7 3 -10 10.66 0.58
6 3 -10 1.28 0.14
-6 -3 10 1.42 0.18
-5 -3 10 1.62 0.18
5 3 -10 1.26 0.13
-5 -3 10 1.41 0.14
4 3 -10 1.09 0.11
-4 -3 10 1.37 0.18
-4 -3 10 1.13 0.12
3 3 -10 6.48 0.33
-3 -3 10 6.21 0.43
3 3 -10 6.6 0.35
-2 -3 10 0.12 0.1
2 3 -10 0.18 0.05
2 3 -10 0.25 0.06
1 3 -10 0.04 0.04
-1 -3 10 0 0.07
1 3 -10 0.01 0.04
0 -3 10 0.9 0.15
0 3 -10 1.47 0.1
0 3 -10 1.41 0.12
1 -3 10 0.98 0.14
-1 3 -10 1.06 0.11
-2 3 -10 0.06 0.05
2 -3 10 0.05 0.06
-3 3 -10 1.52 0.15
3 -3 10 2.01 0.18
4 -3 10 1.42 0.16
-4 3 -10 1.37 0.15
-5 3 -10 0.48 0.11
5 -3 10 0.47 0.11
-7 -2 10 0.44 0.1
7 2 -10 0.34 0.1
-6 -2 10 28.8 1.45
6 2 -10 27.41 1.36
-6 -2 10 28.91 1.31
5 2 -10 1.3 0.13
-5 -2 10 1.41 0.17
-5 -2 10 1.24 0.13
4 2 -10 2.51 0.18
-4 -2 10 2.34 0.18
-4 -2 10 2.62 0.25
3 2 -10 2.81 0.17
3 2 -10 3.15 0.18
-3 -2 10 1.96 0.23
1 2 -10 4.98 0.28
1 2 -10 4.85 0.27
0 2 -10 0.03 0.05
0 -2 10 0.01 0.06
0 2 -10 0.03 0.03
-1 2 -10 6.69 0.37
1 -2 10 7.19 0.43
-2 2 -10 0.02 0.05
2 -2 10 0.04 0.06
3 -2 10 3.72 0.27
-3 2 -10 3.72 0.25
-4 2 -10 1.65 0.16
4 -2 10 1.55 0.17
5 -2 10 0.97 0.15
-5 2 -10 0.86 0.13
-8 -1 10 0.27 0.1
7 1 -10 3.74 0.27
-7 -1 10 3.95 0.28
6 1 -10 9.94 0.55
-6 -1 10 10.6 0.55
5 1 -10 2.95 0.2
-5 -1 10 2.7 0.2
-5 -1 10 2.83 0.25
-4 -1 10 0.1 0.05
-4 -1 10 0.13 0.1
4 1 -10 0.01 0.04
3 1 -10 0.38 0.06
-3 -1 10 0.13 0.09
3 1 -10 0.23 0.06
2 1 -10 6.56 0.35
2 1 -10 6.91 0.36
-1 -1 10 12.35 0.68
1 1 -10 11.87 0.59
1 1 -10 11.87 0.58
0 -1 10 0.34 0.09
0 1 -10 0.41 0.08
-1 1 -10 1.25 0.13
1 -1 10 1.38 0.15
2 -1 10 0.29 0.09
-2 1 -10 0.32 0.09
-3 1 -10 3.01 0.22
3 -1 10 3.09 0.25
-4 1 -10 0.09 0.06
4 -1 10 -0.01 0.07
5 -1 10 2.55 0.24
-8 0 10 0.65 0.13
-7 0 10 0.19 0.08
7 0 -10 0.17 0.08
6 0 -10 0.01 0.05
-6 0 10 0.09 0.06
-5 0 10 0.81 0.16
-5 0 10 0.79 0.11
5 0 -10 1 0.1
4 0 -10 0.77 0.09
-4 0 10 0.31 0.12
-3 0 10 0.43 0.12
3 0 -10 0.73 0.09
3 0 -10 0.7 0.09
-2 0 10 9.28 0.57
2 0 -10 9.81 0.49
2 0 -10 10.15 0.5
1 0 -10 3.49 0.23
-1 0 10 3.63 0.27
0 0 -10 1.6 0.14
0 0 10 1.4 0.16
1 0 10 0.29 0.09
-1 0 -10 0.23 0.07
-2 0 -10 4.43 0.27
2 0 10 4.13 0.31
-3 0 -10 0.2 0.07
3 0 10 0.1 0.08
-4 0 -10 2.06 0.19
4 0 10 2.26 0.22
7 -1 -10 0.28 0.09
-7 1 10 0.28 0.09
-6 1 10 0.57 0.11
6 -1 -10 0.72 0.1
-5 1 10 0.12 0.06
5 -1 -10 0.17 0.06
-4 1 10 0.11 0.09
4 -1 -10 0.31 0.07
-3 1 10 -0.02 0.07
3 -1 -10 0.19 0.05
3 -1 -10 0.09 0.06
2 -1 -10 0.07 0.05
2 -1 -10 0.1 0.05
-2 1 10 0.01 0.06
1 -1 -10 8.18 0.43
-1 1 10 7.84 0.48
0 1 10 0.27 0.09
0 -1 -10 0.39 0.08
1 1 10 6.15 0.41
-1 -1 -10 6.76 0.37
-2 -1 -10 3.02 0.22
2 1 10 2.98 0.25
3 1 10 0.08 0.09
-3 -1 -10 0.19 0.07
7 -2 -10 0.73 0.11
-7 2 10 0.56 0.12
-6 2 10 0.13 0.07
6 -2 -10 0.09 0.06
-5 2 10 0.67 0.11
5 -2 -10 0.62 0.1
-4 2 10 0.25 0.09
4 -2 -10 0.39 0.08
3 -2 -10 1.84 0.15
-3 2 10 1.84 0.19
3 -2 -10 1.5 0.14
-2 2 10 6.47 0.41
2 -2 -10 6.3 0.35
1 -2 -10 16.23 0.76
-1 2 10 14.86 0.84
0 2 10 0.06 0.07
0 -2 -10 0.03 0.05
1 2 10 0.2 0.09
-1 -2 -10 0.3 0.08
2 2 10 0.37 0.11
-2 -2 -10 0.36 0.09
-3 -2 -10 0.15 0.08
-6 3 10 2.58 0.23
6 -3 -10 2.81 0.22
-5 3 10 0.44 0.12
5 -3 -10 0.3 0.08
4 -3 -10 0.72 0.1
-4 3 10 0.84 0.14
3 -3 -10 -0.01 0.04
-3 3 10 0.06 0.08
3 -3 -10 0.01 0.05
2 -3 -10 0.14 0.06
-2 3 10 0.21 0.09
1 -3 -10 0.07 0.05
-1 3 10 0.09 0.08
0 3 10 0.46 0.11
0 -3 -10 0.36 0.09
-1 -3 -10 0.09 0.06
1 3 10 0.02 0.08
-2 -3 -10 0.11 0.07
6 -4 -10 0.14 0.07
-6 4 10 0.13 0.11
-5 4 10 7.85 0.48
5 -4 -10 8.1 0.46
4 -4 -10 4.56 0.28
-4 4 10 3.72 0.29
3 -4 -10 2.4 0.18
-2 4 10 1.71 0.18
2 -4 -10 1.7 0.15
1 -4 -10 0.22 0.07
-1 4 10 0.21 0.09
0 4 10 1.03 0.17
0 -4 -10 1.25 0.15
-1 -4 -10 0.05 0.07
5 -5 -10 0.16 0.08
-4 5 10 3.61 0.29
3 -5 -10 0.15 0.07
2 -5 -10 0.18 0.07
1 -5 -10 0.06 0.06
-1 5 10 0.12 0.09
1 -11 11 0.15 0.1
-1 -10 11 3.48 0.3
0 -10 11 0.49 0.13
0 10 -11 0.41 0.1
-1 10 -11 0.21 0.08
1 -10 11 0.18 0.1
-2 10 -11 3.52 0.24
-3 10 -11 0.12 0.07
2 9 -11 0.67 0.11
-2 -9 11 0.48 0.14
1 9 -11 12.65 0.67
-1 -9 11 13 0.76
0 -9 11 0.1 0.09
0 9 -11 0.12 0.06
-1 9 -11 0.06 0.05
1 -9 11 0.11 0.09
2 -9 11 0.09 0.09
-2 9 -11 0.13 0.06
-3 9 -11 0.06 0.06
-3 -8 11 0.08 0.1
3 8 -11 0.08 0.07
-2 -8 11 1.41 0.19
2 8 -11 1.51 0.14
1 8 -11 8.9 0.48
-1 -8 11 8.99 0.56
0 8 -11 3.15 0.22
0 -8 11 3.22 0.28
1 -8 11 0.96 0.17
-1 8 -11 0.89 0.1
-2 8 -11 0.49 0.08
2 -8 11 0.35 0.14
3 -8 11 0.19 0.12
4 7 -11 3.2 0.24
-4 -7 11 3.47 0.31
3 7 -11 1 0.12
-3 -7 11 1.37 0.19
2 7 -11 1.48 0.14
-2 -7 11 1.51 0.2
-1 -7 11 2.2 0.23
1 7 -11 2.2 0.17
0 7 -11 3.46 0.23
0 -7 11 3.85 0.32
-1 7 -11 2.94 0.19
1 -7 11 2.5 0.27
-2 7 -11 2.18 0.15
2 -7 11 1.83 0.24
3 -7 11 -0.01 0.11
-4 7 -11 0.2 0.08
-5 7 -11 1.13 0.15
5 6 -11 1.59 0.16
-5 -6 11 1.57 0.21
4 6 -11 1.1 0.13
-4 -6 11 1.19 0.18
3 6 -11 0.55 0.09
-3 -6 11 0.48 0.14
2 6 -11 4.55 0.28
-2 -6 11 5 0.37
-1 -6 11 3.65 0.31
1 6 -11 3.08 0.21
0 6 -11 0.32 0.06
0 -6 11 0.27 0.13
1 -6 11 0.49 0.15
-1 6 -11 1.03 0.09
-1 6 -11 0.95 0.1
2 -6 11 0.73 0.16
-2 6 -11 1.39 0.13
-3 6 -11 1.15 0.13
3 -6 11 0.44 0.13
-4 6 -11 2.79 0.2
4 -6 11 1.58 0.21
-5 6 -11 1.49 0.16
-6 -5 11 0.07 0.11
5 5 -11 1.44 0.15
-5 -5 11 1.71 0.2
4 5 -11 0.09 0.06
-4 -5 11 0.12 0.1
-3 -5 11 0.38 0.13
3 5 -11 0.46 0.08
-2 -5 11 0.2 0.12
2 5 -11 0.16 0.06
-1 -5 11 1.82 0.24
1 5 -11 2.02 0.14
1 5 -11 1.89 0.14
0 5 -11 5.73 0.31
0 5 -11 5.89 0.32
-1 5 -11 4.07 0.25
2 -5 11 0.04 0.08
-2 5 -11 0.08 0.06
3 -5 11 0.18 0.1
-3 5 -11 0.14 0.08
-4 5 -11 3.48 0.24
4 -5 11 2.62 0.26
-5 5 -11 8.21 0.46
6 4 -11 1.3 0.15
-6 -4 11 1.64 0.21
-5 -4 11 0.15 0.1
5 4 -11 0 0.06
-4 -4 11 2.38 0.24
4 4 -11 2.43 0.18
3 4 -11 18.44 0.86
3 4 -11 18.44 0.92
-3 -4 11 19.8 1.04
-2 -4 11 0.11 0.12
2 4 -11 0.12 0.05
2 4 -11 0.06 0.05
1 4 -11 0.13 0.06
-1 -4 11 0.05 0.1
1 4 -11 0.18 0.05
0 4 -11 0.28 0.05
0 4 -11 0.25 0.07
0 -4 11 0.18 0.1
-1 4 -11 3.57 0.21
1 -4 11 2.27 0.24
-2 4 -11 1.51 0.15
2 -4 11 1.43 0.18
3 -4 11 0.23 0.09
-3 4 -11 0.2 0.08
-4 4 -11 2.07 0.19
4 -4 11 2.04 0.21
-5 4 -11 7.5 0.44
5 -4 11 8.03 0.5
-6 -3 11 10.22 0.61
6 3 -11 10.03 0.55
-5 -3 11 0.47 0.13
5 3 -11 0.33 0.07
-5 -3 11 0.25 0.08
-4 -3 11 1.66 0.2
4 3 -11 1.3 0.13
-4 -3 11 1.67 0.15
3 3 -11 4.35 0.26
-3 -3 11 4.57 0.36
3 3 -11 4.74 0.27
2 3 -11 3.19 0.19
2 3 -11 2.93 0.18
-2 -3 11 1.84 0.24
1 3 -11 0.27 0.06
-1 -3 11 0.09 0.09
1 3 -11 0.3 0.07
0 -3 11 1.1 0.17
0 3 -11 1.55 0.13
-1 3 -11 7.09 0.38
1 -3 11 6.81 0.45
2 -3 11 0.04 0.07
-2 3 -11 0.07 0.06
3 -3 11 0.28 0.09
-3 3 -11 0.17 0.08
-4 3 -11 1.04 0.14
4 -3 11 0.96 0.15
5 -3 11 1.14 0.17
6 2 -11 0.64 0.11
-6 -2 11 0.6 0.11
5 2 -11 4.07 0.26
-5 -2 11 3.52 0.25
-5 -2 11 4.22 0.32
-4 -2 11 0.12 0.11
-4 -2 11 0.12 0.06
4 2 -11 0.15 0.06
3 2 -11 0.11 0.05
3 2 -11 0.24 0.06
-3 -2 11 0.02 0.09
2 2 -11 2.89 0.18
2 2 -11 2.65 0.18
1 2 -11 0.32 0.06
-1 -2 11 0.26 0.1
1 2 -11 0.23 0.07
0 -2 11 7.45 0.47
0 2 -11 7.44 0.4
-1 2 -11 10.34 0.54
1 -2 11 10.94 0.62
-2 2 -11 -0.03 0.06
2 -2 11 0.12 0.08
-3 2 -11 0.58 0.11
3 -2 11 0.56 0.12
-4 2 -11 0.01 0.08
4 -2 11 0.03 0.08
-7 -1 11 0.57 0.12
-6 -1 11 0.04 0.06
6 1 -11 0 0.06
-5 -1 11 0.25 0.13
-5 -1 11 0.21 0.07
5 1 -11 0.34 0.08
4 1 -11 0.31 0.07
-4 -1 11 0.12 0.11
-3 -1 11 0.74 0.16
3 1 -11 1.48 0.12
3 1 -11 1.61 0.13
2 1 -11 1.67 0.14
2 1 -11 1.64 0.13
-2 -1 11 0.96 0.17
1 1 -11 0.8 0.11
-1 -1 11 0.63 0.13
0 -1 11 2.01 0.2
0 1 -11 2.08 0.17
1 -1 11 0.45 0.11
-1 1 -11 0.46 0.1
2 -1 11 1.26 0.16
-2 1 -11 1.17 0.14
3 -1 11 2.08 0.21
-3 1 -11 2.31 0.19
4 -1 11 2.54 0.24
-7 0 11 0.02 0.07
6 0 -11 0.77 0.11
-6 0 11 0.72 0.12
-5 0 11 0.38 0.09
5 0 -11 0.43 0.08
-4 0 11 0.18 0.11
4 0 -11 0.61 0.09
-3 0 11 -0.02 0.07
3 0 -11 -0.01 0.04
3 0 -11 0.08 0.05
-2 0 11 22.85 1.27
2 0 -11 23.7 1.11
2 0 -11 26.29 1.16
1 0 -11 0.74 0.11
-1 0 11 0.96 0.15
0 0 11 0.42 0.11
0 0 -11 0.41 0.09
1 0 11 0.13 0.09
-1 0 -11 0.05 0.06
-2 0 -11 3.02 0.22
2 0 11 3.06 0.26
-3 0 -11 5.87 0.35
3 0 11 5.35 0.39
6 -1 -11 1.24 0.14
-6 1 11 1.08 0.15
5 -1 -11 4.6 0.29
-5 1 11 4.26 0.3
-4 1 11 0.08 0.09
4 -1 -11 0.09 0.05
3 -1 -11 5.17 0.31
3 -1 -11 5.67 0.32
-2 1 11 10.34 0.59
2 -1 -11 9.5 0.51
1 -1 -11 0.62 0.1
-1 1 11 0.58 0.13
0 -1 -11 3.31 0.23
0 1 11 3.2 0.26
1 1 11 0.94 0.15
-1 -1 -11 1.15 0.13
2 1 11 0.15 0.1
-2 -1 -11 0.24 0.08
6 -2 -11 0.99 0.13
-6 2 11 0.82 0.14
-5 2 11 2.56 0.22
5 -2 -11 2.54 0.2
4 -2 -11 0.73 0.1
3 -2 -11 1.78 0.16
-3 2 11 2.14 0.21
-2 2 11 0.99 0.15
2 -2 -11 0.91 0.12
1 -2 -11 0.27 0.08
-1 2 11 0.21 0.09
0 2 11 0.43 0.12
0 -2 -11 0.4 0.09
1 2 11 0.96 0.16
-1 -2 -11 1.14 0.14
-5 3 11 0.19 0.1
5 -3 -11 0.15 0.07
4 -3 -11 0.08 0.06
3 -3 -11 0.05 0.05
-3 3 11 0.07 0.08
-2 3 11 1.79 0.2
2 -3 -11 1.58 0.15
-1 3 11 0.2 0.1
1 -3 -11 0.22 0.08
0 -3 -11 2.6 0.21
0 3 11 2.59 0.25
5 -4 -11 0.09 0.07
3 -4 -11 0.05 0.06
-2 4 11 0.26 0.11
2 -4 -11 0.23 0.07
-1 4 11 0.2 0.11
1 -10 12 1.4 0.2
-2 10 -12 0.16 0.08
-1 -9 12 0.09 0.1
1 9 -12 0.14 0.08
0 9 -12 4.69 0.3
0 -9 12 5.03 0.38
-1 9 -12 0.63 0.1
1 -9 12 0.49 0.15
-2 9 -12 2.83 0.21
2 -9 12 3 0.28
2 8 -12 0.51 0.1
-2 -8 12 0.66 0.16
-1 -8 12 7.77 0.52
1 8 -12 7.38 0.43
0 8 -12 7.94 0.45
0 -8 12 8.45 0.54
-1 8 -12 4.19 0.27
1 -8 12 4.57 0.37
2 -8 12 1.23 0.22
3 -8 12 0.43 0.17
3 7 -12 6.16 0.38
-3 -7 12 6.85 0.47
2 7 -12 0.15 0.06
-2 -7 12 0.24 0.12
-1 -7 12 2.33 0.25
1 7 -12 1.92 0.16
0 -7 12 1.37 0.22
0 7 -12 1.24 0.12
1 -7 12 1.42 0.23
-1 7 -12 2 0.15
2 -7 12 0.03 0.11
3 -7 12 1.3 0.22
-4 7 -12 -0.02 0.07
-4 -6 12 1.01 0.19
4 6 -12 0.82 0.12
-3 -6 12 0.03 0.1
3 6 -12 0.01 0.05
2 6 -12 0.07 0.05
-2 -6 12 0.2 0.12
1 6 -12 0.07 0.05
-1 -6 12 0.02 0.13
0 6 -12 1.02 0.1
0 -6 12 0.92 0.2
1 -6 12 0.39 0.15
2 -6 12 0.73 0.17
-2 6 -12 1.44 0.14
3 -6 12 0 0.09
-3 6 -12 0.01 0.06
-4 6 -12 1.54 0.16
4 -6 12 0.63 0.16
5 5 -12 0.45 0.1
-5 -5 12 0.67 0.16
4 5 -12 0.18 0.07
-4 -5 12 0.18 0.11
3 5 -12 0.42 0.09
-3 -5 12 0.43 0.15
2 5 -12 0.4 0.07
-2 -5 12 0.36 0.16
-1 -5 12 0.01 0.11
1 5 -12 0.1 0.06
1 5 -12 0.14 0.06
0 5 -12 0.93 0.09
0 -5 12 0.6 0.16
0 5 -12 0.86 0.11
-1 5 -12 2.32 0.17
1 -5 12 1.11 0.2
2 -5 12 0.06 0.09
-2 5 -12 0.03 0.06
3 -5 12 1.29 0.2
-3 5 -12 2.27 0.18
4 -5 12 0.05 0.09
-4 5 -12 0.02 0.08
-6 -4 12 1.32 0.2
-5 -4 12 0.21 0.11
5 4 -12 0.09 0.06
-4 -4 12 0.19 0.12
4 4 -12 0.14 0.06
3 4 -12 0.45 0.08
-3 -4 12 0.61 0.17
3 4 -12 0.53 0.09
2 4 -12 5.78 0.31
-2 -4 12 4.62 0.41
2 4 -12 6.28 0.33
1 4 -12 0.89 0.11
1 4 -12 0.93 0.1
-1 -4 12 0.63 0.16
0 -4 12 1.15 0.2
0 4 -12 2.44 0.17
-1 4 -12 0.69 0.11
1 -4 12 0.48 0.13
2 -4 12 0.09 0.08
-2 4 -12 0.1 0.07
-3 4 -12 1.62 0.16
3 -4 12 1.47 0.2
-4 4 -12 0.2 0.09
4 -4 12 0.23 0.1
-6 -3 12 0.3 0.12
-5 -3 12 1.88 0.22
5 3 -12 1.54 0.15
-4 -3 12 0.09 0.06
4 3 -12 0.06 0.05
-4 -3 12 0.05 0.11
3 3 -12 0.15 0.06
3 3 -12 0.18 0.06
-3 -3 12 0.08 0.12
-2 -3 12 0.62 0.16
2 3 -12 1.33 0.12
2 3 -12 1.17 0.11
1 3 -12 1.06 0.1
1 3 -12 0.83 0.11
-1 -3 12 0.41 0.14
0 3 -12 0.3 0.08
0 -3 12 0.21 0.11
1 -3 12 0.47 0.13
-1 3 -12 0.75 0.11
-2 3 -12 0.58 0.11
2 -3 12 0.61 0.13
-3 3 -12 4.78 0.31
3 -3 12 4.78 0.36
4 -3 12 1.27 0.18
-6 -2 12 3.42 0.26
6 2 -12 3.2 0.24
-5 -2 12 0.82 0.17
-5 -2 12 0.7 0.12
5 2 -12 0.87 0.11
4 2 -12 0.07 0.05
-4 -2 12 0.14 0.07
3 2 -12 3.06 0.19
-3 -2 12 1.8 0.25
3 2 -12 3 0.19
-2 -2 12 0.08 0.09
2 2 -12 0.09 0.06
2 2 -12 0.1 0.05
1 2 -12 1.45 0.14
-1 -2 12 0.85 0.17
0 -2 12 -0.01 0.07
0 2 -12 0.1 0.06
-1 2 -12 0.2 0.08
1 -2 12 0.25 0.1
-2 2 -12 0.35 0.1
2 -2 12 0.37 0.12
-3 2 -12 0.73 0.13
3 -2 12 0.59 0.14
6 1 -12 1.35 0.14
-6 -1 12 1.12 0.16
-5 -1 12 0.07 0.11
-5 -1 12 0.15 0.07
5 1 -12 0.04 0.05
4 1 -12 3.31 0.21
-4 -1 12 2.13 0.26
-3 -1 12 0.23 0.12
3 1 -12 0.23 0.07
3 1 -12 0.42 0.07
-1 -1 12 0.7 0.15
1 1 -12 0.7 0.11
0 -1 12 1.3 0.18
0 1 -12 1.01 0.13
-1 1 -12 11.58 0.6
1 -1 12 11.33 0.67
2 -1 12 0.08 0.09
-2 1 -12 0.09 0.08
-6 0 12 0.23 0.09
-5 0 12 1.93 0.19
5 0 -12 1.92 0.17
-4 0 12 1.04 0.19
4 0 -12 2.1 0.16
-3 0 12 0.74 0.16
3 0 -12 1.38 0.13
3 0 -12 1.4 0.14
-2 0 12 9.8 0.64
2 0 -12 11.73 0.56
1 0 -12 23.99 1.12
-1 0 12 24.15 1.27
0 0 12 2.93 0.26
0 0 -12 2.96 0.23
1 0 12 0.4 0.11
-1 0 -12 0.35 0.09
-5 1 12 0.29 0.1
5 -1 -12 0.08 0.07
-3 1 12 0.08 0.1
3 -1 -12 0.01 0.06
-2 1 12 0.07 0.09
2 -1 -12 0.02 0.06
-1 1 12 2.66 0.25
1 -1 -12 3.02 0.22
0 1 12 0.14 0.09
0 -1 -12 0.04 0.06
5 -2 -12 0.19 0.08
4 -2 -12 0.07 0.05
-3 2 12 0.45 0.13
3 -2 -12 0.66 0.11
-2 2 12 0.24 0.11
2 -2 -12 0.1 0.07
-1 2 12 1.28 0.18
1 -2 -12 1.23 0.15
-2 3 12 0.08 0.1
-1 9 -13 0.68 0.11
1 8 -13 1.4 0.14
0 8 -13 1.55 0.15
0 -8 13 1.64 0.25
1 -8 13 1.62 0.25
-1 8 -13 1.8 0.15
2 -8 13 0.27 0.15
3 -8 13 0.82 0.22
-2 -7 13 5.11 0.41
2 7 -13 4.98 0.31
-1 -7 13 2.83 0.3
1 7 -13 2.27 0.19
0 7 -13 9.59 0.52
0 -7 13 10.08 0.66
1 -7 13 0.18 0.15
2 -7 13 0.56 0.18
3 -7 13 0.42 0.17
-3 -6 13 2.41 0.27
3 6 -13 2.42 0.19
2 6 -13 0.96 0.12
-2 -6 13 0.93 0.2
-1 -6 13 0.29 0.15
1 6 -13 0.2 0.07
0 6 -13 1.44 0.13
0 -6 13 1.14 0.22
1 -6 13 2.05 0.27
-2 6 -13 0.03 0.07
2 -6 13 0.11 0.12
3 -6 13 0.32 0.15
-3 6 -13 1.46 0.16
-4 -5 13 3.71 0.33
4 5 -13 3.38 0.24
-3 -5 13 0.13 0.14
3 5 -13 -0.03 0.05
2 5 -13 1.28 0.12
-2 -5 13 0.71 0.2
-1 -5 13 0.04 0.13
1 5 -13 0.11 0.06
0 5 -13 0.43 0.09
0 -5 13 0.18 0.14
2 -5 13 0.08 0.11
-2 5 -13 0.08 0.07
-3 5 -13 0.25 0.1
3 -5 13 0.26 0.14
-5 -4 13 0.13 0.12
-4 -4 13 0.09 0.13
4 4 -13 0.06 0.06
3 4 -13 2.4 0.18
-3 -4 13 2.38 0.28
2 4 -13 0.43 0.08
2 4 -13 0.51 0.09
-2 -4 13 0.25 0.16
1 4 -13 0.15 0.07
-1 -4 13 0.07 0.12
0 4 -13 0.54 0.1
0 -4 13 0.33 0.14
1 -4 13 0.2 0.1
-1 4 -13 0.21 0.08
2 -4 13 0.67 0.16
-2 4 -13 0.78 0.13
-5 -3 13 0.92 0.18
-4 -3 13 0.08 0.06
4 3 -13 0.06 0.06
-4 -3 13 0.1 0.13
3 3 -13 0.98 0.11
-3 -3 13 0.52 0.17
3 3 -13 0.87 0.11
2 3 -13 0.49 0.09
-2 -3 13 0.16 0.13
2 3 -13 0.45 0.08
1 3 -13 0.53 0.1
-1 -3 13 0.15 0.12
0 3 -13 0.93 0.12
0 -3 13 0.6 0.16
-1 3 -13 0.45 0.1
1 -3 13 0.27 0.12
-2 3 -13 0.04 0.07
2 -3 13 0.13 0.1
-5 -2 13 0.35 0.1
-5 -2 13 0.38 0.15
-4 -2 13 1.33 0.23
4 2 -13 1.92 0.16
-4 -2 13 1.89 0.18
3 2 -13 2.15 0.16
3 2 -13 2.14 0.17
-3 -2 13 1.28 0.23
2 2 -13 0.18 0.07
-2 -2 13 0.09 0.12
-1 -2 13 0.16 0.12
1 2 -13 0.41 0.09
0 -2 13 0.44 0.14
0 2 -13 0.81 0.12
-1 2 -13 0.18 0.09
1 -2 13 0.25 0.11
-5 -1 13 0.22 0.09
-4 -1 13 1.06 0.21
4 1 -13 1.63 0.14
3 1 -13 0.88 0.1
3 1 -13 0.87 0.12
-3 -1 13 0.36 0.15
-2 -1 13 0.86 0.18
2 1 -13 1.37 0.14
0 -1 13 0.46 0.14
0 1 -13 0.45 0.11
4 0 -13 4.15 0.25
-4 0 13 2.34 0.29
-3 0 13 0.18 0.12
3 0 -13 0.41 0.1
-2 0 13 0.62 0.16
2 0 -13 1.12 0.14
-1 0 13 2.15 0.24
1 0 -13 1.88 0.19
-3 1 13 1.64 0.23
-2 1 13 2.91 0.28
1 7 -14 0.26 0.08
2 6 -14 0.06 0.07
1 6 -14 2.45 0.19
-2 6 -14 4.16 0.29
2 5 -14 0.26 0.08
0 5 -14 2.11 0.18
-1 5 -14 0.13 0.08
3 4 -14 0.11 0.07
2 4 -14 0.24 0.08
2 4 -14 0.2 0.07
1 4 -14 0.2 0.08
0 4 -14 0.21 0.09
-4 -3 14 0.12 0.08
3 3 -14 0.33 0.08
3 3 -14 0.43 0.09
2 3 -14 1.28 0.14
1 3 -14 0.15 0.08
0 3 -14 0.13 0.08
2 2 -14 11.7 0.6
