#------------------------------------------------------------------------------
#$Date: 2017-03-04 10:14:01 +0200 (Sat, 04 Mar 2017) $
#$Revision: 193299 $
#$URL: file:///home/coder/svn-repositories/cod/cif/4/03/23/4032317.cif $
#------------------------------------------------------------------------------
#
# This file is available in the Crystallography Open Database (COD),
# http://www.crystallography.net/
#
# All data on this site have been placed in the public domain by the
# contributors.
#
data_4032317
loop_
_publ_author_name
'Sakaguchi, Yukiho'
'Yamada, Shigeyuki'
'Konno, Tsutomu'
'Agou, Tomohiro'
'Kubota, Toshio'
_publ_section_title
;
 Stereochemically Defined Various Multisubstituted Alkenes Bearing a
 Tetrafluoroethylene (-CF2CF2-) Fragment.
;
_journal_issue                   3
_journal_name_full               'The Journal of organic chemistry'
_journal_page_first              1618
_journal_page_last               1631
_journal_paper_doi               10.1021/acs.joc.6b02793
_journal_volume                  82
_journal_year                    2017
_chemical_formula_moiety         '2(C16 H10 Br Cl F4)'
_chemical_formula_sum            'C16 H10 Br Cl F4'
_chemical_formula_weight         393.60
_chemical_name_systematic
;
 ?
;
_space_group_crystal_system      triclinic
_space_group_IT_number           2
_space_group_name_Hall           '-P 1'
_space_group_name_H-M_alt        'P -1'
_symmetry_space_group_name_Hall  '-P 1'
_symmetry_space_group_name_H-M   'P -1'
_atom_sites_solution_hydrogens   geom
_audit_creation_date             2015-12-03
_audit_creation_method
;
Olex2 1.2
(compiled 2015.09.30 svn.r3233 for OlexSys, GUI svn.r5103)
;
_cell_angle_alpha                97.739(7)
_cell_angle_beta                 93.504(7)
_cell_angle_gamma                99.049(7)
_cell_formula_units_Z            1
_cell_length_a                   5.3972(4)
_cell_length_b                   9.9775(7)
_cell_length_c                   14.1887(10)
_cell_measurement_reflns_used    7416
_cell_measurement_temperature    293
_cell_measurement_theta_max      27.6
_cell_measurement_theta_min      3.3
_cell_volume                     745.04(10)
_computing_cell_refinement
;
CrystalClear-SM Auto 2.0 r1 (Rigaku, 2009)
;
_computing_data_collection
;
CrystalClear-SM Auto 2.0 r1 (Rigaku, 2009)
;
_computing_data_reduction
;
CrystalClear-SM Auto 2.0 r1 (Rigaku, 2009)
;
_computing_molecular_graphics    'Olex2 (Dolomanov et al., 2009)'
_computing_publication_material  'Olex2 (Dolomanov et al., 2009)'
_computing_structure_refinement  'ShelXL (Sheldrick, 2015)'
_computing_structure_solution    'ShelXS (Sheldrick, 2008)'
_diffrn_ambient_temperature      293
_diffrn_detector                 CCD
_diffrn_detector_area_resol_mean 13.6612
_diffrn_measured_fraction_theta_full 0.998
_diffrn_measured_fraction_theta_max 0.998
_diffrn_measurement_details
;
scan:
    Number of images: 180
               Slice: -60.0000 - 120.0000
         Image width: 1.0000
            Exp time: 10.0000
       Rotation axis: Omega
               Omega: 0.0000
                 Chi: 54.0000
                 Phi: 0.0000
                 XTD: 50.0000
              2theta: 30.0000
scan:
    Number of images: 180
               Slice: -60.0000 - 120.0000
         Image width: 1.0000
            Exp time: 10.0000
       Rotation axis: Omega
               Omega: 0.0000
                 Chi: 54.0000
                 Phi: 120.0000
                 XTD: 50.0000
              2theta: 30.0000
scan:
    Number of images: 180
               Slice: -60.0000 - 120.0000
         Image width: 1.0000
            Exp time: 10.0000
       Rotation axis: Omega
               Omega: 0.0000
                 Chi: 54.0000
                 Phi: 240.0000
                 XTD: 50.0000
              2theta: 30.0000
;
_diffrn_measurement_device
;
XtaLABmini: Fixed Chi 2 circle
;
_diffrn_measurement_device_type
;
Rigaku Mercury375R (2x2 bin mode)
;
_diffrn_measurement_method       'profile data from \w-scans'
_diffrn_measurement_specimen_support Fiber
_diffrn_orient_matrix_type       d*Trek
_diffrn_orient_matrix_UB_11      -0.011025
_diffrn_orient_matrix_UB_12      0.186097
_diffrn_orient_matrix_UB_13      -0.016030
_diffrn_orient_matrix_UB_21      -0.099560
_diffrn_orient_matrix_UB_22      0.012639
_diffrn_orient_matrix_UB_23      0.019659
_diffrn_orient_matrix_UB_31      0.004623
_diffrn_orient_matrix_UB_32      0.012341
_diffrn_orient_matrix_UB_33      0.070030
_diffrn_radiation_monochromator  'Graphite Monochromator'
_diffrn_radiation_type           MoK\a
_diffrn_radiation_wavelength     0.71075
_diffrn_reflns_av_R_equivalents  0.0228
_diffrn_reflns_av_unetI/netI     0.0271
_diffrn_reflns_Laue_measured_fraction_full 0.998
_diffrn_reflns_Laue_measured_fraction_max 0.998
_diffrn_reflns_limit_h_max       7
_diffrn_reflns_limit_h_min       -6
_diffrn_reflns_limit_k_max       12
_diffrn_reflns_limit_k_min       -12
_diffrn_reflns_limit_l_max       18
_diffrn_reflns_limit_l_min       -18
_diffrn_reflns_number            7859
_diffrn_reflns_point_group_measured_fraction_full 0.998
_diffrn_reflns_point_group_measured_fraction_max 0.998
_diffrn_reflns_theta_full        25.242
_diffrn_reflns_theta_max         27.484
_diffrn_reflns_theta_min         3.324
_diffrn_source                   'Sealed Tube'
_diffrn_source_current           12.0
_diffrn_source_power             0.6
_diffrn_source_voltage           50.0
_exptl_absorpt_coefficient_mu    1.486
_exptl_absorpt_correction_T_max  1.000
_exptl_absorpt_correction_T_min  0.730
_exptl_absorpt_correction_type   multi-scan
_exptl_crystal_colour            Colorless
_exptl_crystal_density_diffrn    0.877
_exptl_crystal_description       Prism
_exptl_crystal_F_000             194
_exptl_crystal_size_max          0.466
_exptl_crystal_size_mid          0.344
_exptl_crystal_size_min          0.3
_refine_diff_density_max         0.356
_refine_diff_density_min         -0.513
_refine_diff_density_rms         0.052
_refine_ls_extinction_method     none
_refine_ls_goodness_of_fit_ref   1.060
_refine_ls_hydrogen_treatment    constr
_refine_ls_matrix_type           full
_refine_ls_number_parameters     199
_refine_ls_number_reflns         3394
_refine_ls_number_restraints     0
_refine_ls_restrained_S_all      1.060
_refine_ls_R_factor_all          0.0340
_refine_ls_R_factor_gt           0.0292
_refine_ls_shift/su_max          0.000
_refine_ls_shift/su_mean         0.000
_refine_ls_structure_factor_coef Fsqd
_refine_ls_weighting_details
'w=1/[\s^2^(Fo^2^)+(0.0260P)^2^+0.3697P] where P=(Fo^2^+2Fc^2^)/3'
_refine_ls_weighting_scheme      calc
_refine_ls_wR_factor_gt          0.0673
_refine_ls_wR_factor_ref         0.0697
_reflns_Friedel_coverage         0.000
_reflns_number_gt                3063
_reflns_number_total             3394
_reflns_threshold_expression     'I > 2\s(I)'
_cod_data_source_file            jo6b02793_si_002.cif
_cod_data_source_block           shelx
_cod_depositor_comments
;
The following automatic conversions were performed:

'_exptl_absorpt_correction_type' value 'Multi-scan' changed to
'multi-scan' according to
/home/data/users/saulius/crontab/automatic-downloads/current/ACS/lib/dictionaries/cif_core.dic
dictionary named 'cif_core.dic' version 2.4.2 from 2011-04-26.

Automatic conversion script
Id: cif_fix_values 4973 2017-02-22 13:04:09Z antanas 
;
_cod_original_cell_volume        745.04(9)
_cod_database_code               4032317
_shelxl_version_number           2013-4
_shelx_space_group_comment
;
The symmetry employed for this shelxl refinement is uniquely defined
by the following loop, which should always be used as a source of
symmetry information in preference to the above space-group names.
They are only intended as comments.
;
_shelx_estimated_absorpt_t_max   0.664
_shelx_estimated_absorpt_t_min   0.544
_olex2_refinement_description
;
1. Fixed Uiso
 At 1.2 times of:
  All C(H) groups
2.a Aromatic/amide H refined with riding coordinates:
 C7(H7), C11(H11), C12(H12), C13(H13), C14(H14), C15(H15), C16(H16), C17(H17),
 C18(H18), C20(H20)
;
_shelx_res_file
;
TITL shelx in P-1 #2
REM reset to P-1 #2
CELL 0.710747 5.3972 9.9775 14.1887 97.7394 93.5037 99.0492
ZERR 1 0.0004 0.0007 0.001 0.0069 0.0066 0.007
LATT 1
SFAC C H Br Cl F
UNIT 16 10 1 1 4

L.S. 4
PLAN  20
SIZE 0.3 0.466 0.344
TEMP 293.15
BOND
fmap 2
ACTA
OMIT 5 -8 9
REM <olex2.extras>
REM <HklSrc "%.\\shelx.hkl">
REM </olex2.extras>

WGHT    0.026000    0.369700
FVAR       0.39205
BR1   3    0.508870    0.871858    0.621732    11.00000    0.06137    0.04449 =
         0.03339   -0.00808    0.00602    0.01446
CL2   4    1.162938    0.221673    0.047586    11.00000    0.04915    0.04566 =
         0.04259   -0.00302    0.00965    0.01800
F1    5    0.296277    0.618236    0.480367    11.00000    0.04248    0.04043 =
         0.03040    0.00436    0.01012   -0.00221
F2    5    0.359606    0.790410    0.400888    11.00000    0.05207    0.04632 =
         0.02815    0.01038    0.00410    0.02323
F3    5    0.790222    0.687541    0.557736    11.00000    0.05587    0.05067 =
         0.03569    0.00050   -0.00890    0.02379
C4    1    0.664596    0.632577    0.283626    11.00000    0.02779    0.02514 =
         0.02193    0.00244   -0.00120    0.00129
F5    5    0.832266    0.866250    0.486041    11.00000    0.05260    0.04704 =
         0.04966    0.00269    0.01077   -0.01298
C6    1    0.640179    0.759215    0.240058    11.00000    0.02937    0.02852 =
         0.01987    0.00529    0.00539    0.00636
C7    1    0.592003    0.608308    0.368520    11.00000    0.03887    0.02681 =
         0.02367    0.00511    0.00305    0.00581
AFIX  43
H7    2    0.616929    0.524472    0.385840    11.00000   -1.20000
AFIX   0
C8    1    0.786502    0.529085    0.225475    11.00000    0.02974    0.02516 =
         0.02248    0.00431    0.00155    0.00184
C9    1    0.665186    0.777637    0.521084    11.00000    0.04122    0.03060 =
         0.02818    0.00375    0.00340    0.00683
C10   1    0.476025    0.698080    0.439340    11.00000    0.03652    0.02933 =
         0.02222    0.00799    0.00331    0.00603
C11   1    0.425898    0.768610    0.183735    11.00000    0.03082    0.03908 =
         0.02713    0.00582    0.00144    0.00557
AFIX  43
H11   2    0.288634    0.697754    0.175756    11.00000   -1.20000
AFIX   0
C12   1    0.735867    0.500907    0.126777    11.00000    0.04037    0.04225 =
         0.02344    0.00496    0.00030    0.01431
AFIX  43
H12   2    0.626360    0.548107    0.096636    11.00000   -1.20000
AFIX   0
C13   1    1.072259    0.364567    0.214272    11.00000    0.03984    0.03366 =
         0.03399    0.00341   -0.00379    0.01173
AFIX  43
H13   2    1.187445    0.319666    0.243467    11.00000   -1.20000
AFIX   0
C14   1    0.955590    0.458467    0.268073    11.00000    0.04062    0.03340 =
         0.02332    0.00228   -0.00441    0.00739
AFIX  43
H14   2    0.990521    0.474899    0.334002    11.00000   -1.20000
AFIX   0
C15   1    0.829969    0.981222    0.207880    11.00000    0.03942    0.03113 =
         0.04179    0.00960    0.00815    0.00294
AFIX  43
H15   2    0.965617    1.053046    0.216533    11.00000   -1.20000
AFIX   0
C16   1    0.842164    0.866798    0.252099    11.00000    0.02941    0.03410 =
         0.03147    0.00786    0.00029    0.00455
AFIX  43
H16   2    0.986208    0.861864    0.290057    11.00000   -1.20000
AFIX   0
C17   1    0.845515    0.404105    0.072979    11.00000    0.04583    0.04548 =
         0.02106    0.00018    0.00222    0.01194
AFIX  43
H17   2    0.804574    0.383440    0.007443    11.00000   -1.20000
AFIX   0
C18   1    0.617737    0.989479    0.150991    11.00000    0.05042    0.03605 =
         0.03467    0.01479    0.01204    0.01823
AFIX  43
H18   2    0.610997    1.066094    0.120755    11.00000   -1.20000
AFIX   0
C19   1    1.015888    0.338251    0.116836    11.00000    0.03301    0.02913 =
         0.03067    0.00030    0.00744    0.00477
C20   1    0.416174    0.883758    0.139246    11.00000    0.03795    0.05040 =
         0.02866    0.01078    0.00192    0.01806
AFIX  43
H20   2    0.272539    0.889396    0.101299    11.00000   -1.20000
AFIX   0
HKLF 4

REM  shelx in P-1 #2
REM R1 =  0.0292 for    3063 Fo > 4sig(Fo)  and  0.0340 for all    3394 data
REM    199 parameters refined using      0 restraints

END

WGHT      0.0260      0.3698

REM Highest difference peak  0.356,  deepest hole -0.513,  1-sigma level  0.052
Q1    1   0.5678  0.7401  0.4795  11.00000  0.05    0.36
Q2    1   0.4007  0.9210  0.6239  11.00000  0.05    0.33
Q3    1   0.5828  0.8088  0.5986  11.00000  0.05    0.32
Q4    1   0.6373  0.9176  0.5972  11.00000  0.05    0.31
Q5    1   0.7105  0.5848  0.2520  11.00000  0.05    0.31
Q6    1   1.0749  0.2884  0.0822  11.00000  0.05    0.27
Q7    1   0.5345  1.0968  0.1059  11.00000  0.05    0.27
Q8    1   0.4095  0.8726  0.5848  11.00000  0.05    0.26
Q9    1   0.5365  0.6555  0.4010  11.00000  0.05    0.26
Q10   1   0.7994  0.4551  0.1007  11.00000  0.05    0.23
Q11   1   0.7623  0.5126  0.1786  11.00000  0.05    0.23
Q12   1   0.5457  0.5970  0.3062  11.00000  0.05    0.22
Q13   1   0.7756  0.8026  0.2236  11.00000  0.05    0.22
Q14   1   0.7539  0.9663  0.1562  11.00000  0.05    0.21
Q15   1   0.9714  0.3921  0.0953  11.00000  0.05    0.20
Q16   1   0.4349  0.7788  0.6365  11.00000  0.05    0.19
Q17   1   0.8519  0.4711  0.2418  11.00000  0.05    0.19
Q18   1   1.0466  0.3537  0.1659  11.00000  0.05    0.19
Q19   1   1.1423  0.2633 -0.0016  11.00000  0.05    0.19
Q20   1   0.8328  0.9026  0.2030  11.00000  0.05    0.19
;
_shelx_res_checksum              56717
_shelx_hkl_file
;
   0   0   3  115.99    1.44
   0   0  -3  117.83    1.41
   0   0  -3  113.97    0.88
   0   0   4   78.96    1.25
   0   0  -4   77.31    0.67
   0   0  -4   76.72    1.09
   0   0   5  201.74    3.61
   0   0  -5  192.31    3.39
   0   0  -5  190.84    2.18
   0   0   6  118.71    2.29
   0   0  -6  113.03    2.15
   0   0  -6  113.77    1.34
   0   0   7  207.93    2.98
   0   0   7  218.55    4.82
   0   0  -7  220.93    4.72
   0   0   8  369.32    6.48
   0   0   8  389.19   10.23
   0   0  -8  388.69   10.22
   0   0   9  265.11    7.14
   0   0   9  262.42    4.40
   0   0  -9  263.96    7.08
   0   0  10    3.39    0.18
   0   0  10    4.02    0.35
   0   0 -10    4.15    0.38
   0   0  11    0.47    0.11
   0   0  11    0.72    0.37
   0   0 -11    0.93    0.37
   0   0  12  203.62    7.16
   0   0 -12  194.80    6.64
   0   0  13   32.04    1.46
   0   0 -13   28.15    1.39
   0   0  14    1.89    0.58
   0   0 -14    1.46    0.47
   0   0  15    5.43    0.67
   0   0 -15    4.94    0.68
   0   0  16   39.89    2.19
   0   0 -16   42.96    2.75
   0   0  17   14.48    1.47
   0   0 -17   13.15    1.17
   0   0  18    6.77    0.88
   0   0 -18    5.84    0.96
   0   1 -18   27.17    1.98
   0  -1  18   25.72    1.86
   0   1 -17   23.07    1.66
   0  -1  17   22.45    1.79
   0   1 -16   10.51    1.05
   0  -1  16   10.93    0.90
   0   1 -15   57.80    3.18
   0  -1  15   56.82    2.97
   0   1 -14   -0.05    0.42
   0  -1  14    0.62    0.39
   0   1 -13    9.21    0.75
   0  -1  13    9.77    0.70
   0   1 -12   16.34    0.92
   0  -1  12   17.96    1.00
   0  -1  12   15.46    0.41
   0   1 -11   20.85    0.94
   0  -1  11   21.85    0.91
   0  -1  11   20.35    0.47
   0   1 -10    7.92    0.55
   0  -1  10    7.83    0.45
   0  -1  10    7.31    0.25
   0   1  -9   47.36    1.43
   0  -1   9   49.93    1.32
   0  -1   9   49.05    0.85
   0   1  -8   93.77    2.44
   0  -1   8   97.65    2.31
   0  -1   8   98.16    1.58
   0   1  -7   45.93    1.11
   0  -1   7   50.22    1.07
   0  -1   7   48.97    0.75
   0   1  -6  539.92   13.56
   0  -1   6  563.58   10.44
   0  -1   6  546.27   13.23
   0   1  -5  264.27    5.11
   0  -1   5  262.55    3.95
   0  -1   5  264.08    4.76
   0   1  -4    5.00    0.17
   0  -1   4    5.78    0.13
   0   1  -3  888.78   17.21
   0  -1   3  878.88   15.52
   0  -1   3  867.88   14.73
   0   1  -2    2.82    0.08
   0  -1   2    2.62    0.06
   0  -1   2    2.56    0.05
   0   1   2   24.92    0.28
   0  -1  -2   24.12    0.23
   0  -1  -2   25.20    0.19
   0   1   3  393.17    6.51
   0  -1  -3  386.95    4.25
   0  -1  -3  387.52    5.66
   0   1   4  901.74   21.38
   0  -1  -4  914.40   13.33
   0  -1  -4  922.13   19.10
   0   1   5  250.35    4.97
   0  -1  -5  245.18    2.87
   0  -1  -5  244.26    4.27
   0   1   6  148.95    3.13
   0  -1  -6  154.98    2.95
   0  -1  -6  150.24    1.79
   0   1   7   22.24    0.64
   0  -1  -7   22.94    0.68
   0   1   8   74.01    1.89
   0  -1  -8   72.23    1.66
   0  -1  -8   68.73    0.90
   0   1   9  296.65    8.74
   0  -1  -9  287.66    8.04
   0  -1  -9  272.59    4.66
   0   1  10   34.77    1.23
   0  -1 -10   30.67    0.51
   0  -1 -10   33.91    1.10
   0   1  11   23.10    0.97
   0  -1 -11   22.29    0.91
   0   1  12   13.02    0.80
   0  -1 -12   13.65    0.74
   0   1  13  193.92    7.60
   0  -1 -13  185.40    6.91
   0   1  14   51.43    2.35
   0  -1 -14   47.03    2.14
   0   1  15   22.16    1.43
   0  -1 -15   19.92    1.28
   0   1  16    5.54    0.98
   0  -1 -16    5.07    0.75
   0   1  17    9.42    1.02
   0  -1 -17    9.21    1.17
   0   2 -18   26.27    1.98
   0  -2  18   26.86    1.70
   0   2 -17    1.44    0.76
   0  -2  17    1.16    0.50
   0   2 -16   15.46    1.23
   0  -2  16   15.14    1.30
   0   2 -15    6.52    0.79
   0  -2  15    5.89    0.79
   0   2 -14  144.01    6.21
   0  -2  14  146.75    6.16
   0   2 -13    8.10    0.73
   0  -2  13    6.88    0.74
   0   2 -12    2.77    0.43
   0  -2  12    1.08    0.21
   0  -2  12    1.25    0.34
   0   2 -11  174.83    5.66
   0  -2  11  164.30    3.61
   0  -2  11  173.36    5.19
   0   2 -10  152.71    4.68
   0  -2  10  154.10    3.36
   0  -2  10  153.37    4.26
   0   2  -9  198.94    5.63
   0  -2   9  195.05    4.19
   0  -2   9  196.81    5.05
   0   2  -8  109.73    2.81
   0  -2   8  109.92    2.62
   0  -2   8  107.23    2.04
   0   2  -7   23.67    0.70
   0  -2   7   24.45    0.63
   0  -2   7   23.60    0.47
   0   2  -6  669.43   18.00
   0  -2   6  657.19   15.91
   0  -2   6  659.06   15.10
   0   2  -5  394.80    8.90
   0  -2   5  398.88    7.71
   0  -2   5  386.89    7.67
   0   2  -4    0.52    0.13
   0  -2   4    0.98    0.10
   0   2  -3  138.65    2.11
   0  -2   3  133.84    2.01
   0  -2   3  135.35    1.64
   0   2  -1  208.00    2.55
   0   2  -1  203.32    2.13
   0  -2   1  202.94    2.97
   0   2   0  262.43    3.01
   0  -2   0  276.74    3.99
   0   2   1   19.68    0.21
   0   2   1   19.52    0.24
   0  -2  -1   20.48    0.26
   0   2   2  153.97    1.79
   0   2   2  154.99    2.16
   0  -2  -2  151.38    1.76
   0   2   3  436.77    8.09
   0  -2  -3  422.19    6.12
   0  -2  -3  425.46    6.79
   0   2   4  105.25    1.84
   0  -2  -4  103.53    1.42
   0  -2  -4  104.01    1.19
   0   2   5   52.37    1.18
   0  -2  -5   50.37    0.62
   0  -2  -5   51.69    0.92
   0   2   6  247.71    5.86
   0  -2  -6  239.27    3.46
   0  -2  -6  244.70    5.18
   0   2   7   56.88    1.48
   0  -2  -7   56.39    1.17
   0   2   8   13.54    0.58
   0  -2  -8   15.69    0.49
   0  -2  -8   13.59    0.26
   0   2   9   23.83    1.14
   0  -2  -9   23.04    0.78
   0  -2  -9   22.55    0.41
   0   2  10  348.06   11.43
   0  -2 -10  287.20    5.84
   0  -2 -10  330.97    9.57
   0   2  11   98.17    3.50
   0  -2 -11   91.18    2.96
   0   2  12    8.81    0.72
   0  -2 -12   10.03    0.64
   0   2  13   52.32    2.78
   0  -2 -13   51.15    2.37
   0   2  14    8.17    0.83
   0  -2 -14    9.66    0.76
   0   2  15   55.27    2.93
   0  -2 -15   50.60    2.49
   0   2  16   -0.01    0.51
   0  -2 -16   -0.09    0.44
   0   2  17    6.66    0.95
   0  -2 -17    6.21    0.86
   0   3 -18    2.89    0.80
   0  -3  18    2.43    0.60
   0   3 -17    2.42    0.69
   0  -3  17    3.13    0.57
   0   3 -16    1.90    0.56
   0  -3  16    0.56    0.45
   0   3 -15   21.73    1.51
   0  -3  15   20.88    1.17
   0   3 -14  131.92    5.84
   0  -3  14  134.77    5.49
   0   3 -13    9.88    0.83
   0  -3  13    8.92    0.63
   0  -3  13    8.86    0.47
   0   3 -12   31.31    1.41
   0  -3  12   30.10    1.13
   0  -3  12   30.08    0.95
   0   3 -11   15.26    0.88
   0  -3  11   15.73    0.67
   0  -3  11   16.12    0.57
   0   3 -10   34.77    1.43
   0  -3  10   36.79    1.10
   0  -3  10   36.36    0.98
   0   3  -9   72.06    2.25
   0  -3   9   75.52    1.78
   0  -3   9   75.80    1.66
   0   3  -8  180.81    4.99
   0  -3   8  178.44    4.03
   0  -3   8  193.28    4.49
   0   3  -7   54.93    1.48
   0  -3   7   55.89    1.32
   0  -3   7   59.50    1.26
   0   3  -6  295.11    7.40
   0  -3   6  300.50    7.20
   0  -3   6  331.84    6.90
   0   3  -5  404.67    9.88
   0  -3   5  414.60    9.99
   0  -3   5  413.97    8.26
   0   3  -4   18.67    0.50
   0  -3   4   19.30    0.46
   0  -3   4   19.04    0.30
   0   3  -3  201.51    3.58
   0  -3   3  207.12    3.06
   0  -3   3  200.03    3.89
   0   3  -2  260.11    3.58
   0   3  -2  254.27    4.26
   0  -3   2  248.90    4.78
   0   3  -1  246.48    3.39
   0   3  -1  258.16    3.74
   0  -3   1  253.96    4.65
   0   3   0  314.20    4.64
   0  -3   0  317.17    5.90
   0   3   1    3.22    0.11
   0   3   1    3.40    0.12
   0  -3  -1    3.65    0.15
   0   3   2  160.88    2.54
   0   3   2  159.23    2.10
   0  -3  -2  160.67    2.51
   0   3   3  313.15    6.24
   0   3   3  307.40    5.25
   0  -3  -3  310.11    5.36
   0   3   4  286.92    6.24
   0  -3  -4  293.48    5.03
   0  -3  -4  287.79    4.74
   0   3   5   18.57    0.53
   0  -3  -5   18.69    0.36
   0  -3  -5   18.71    0.37
   0   3   6  108.19    2.62
   0  -3  -6  106.84    2.05
   0  -3  -6  103.60    1.61
   0   3   7  743.03   25.74
   0  -3  -7  749.80   21.22
   0  -3  -7  733.80   16.21
   0   3   8  348.65   11.37
   0  -3  -8  333.71    8.66
   0  -3  -8  324.26    6.11
   0   3   9  351.19   11.46
   0  -3  -9  338.91    9.43
   0  -3  -9  333.15    6.69
   0   3  10   20.26    1.10
   0  -3 -10   21.71    0.83
   0   3  11    2.16    0.50
   0  -3 -11    2.58    0.38
   0   3  12   13.81    0.99
   0  -3 -12   12.08    0.76
   0   3  13   15.41    1.17
   0  -3 -13   13.41    1.05
   0   3  14    3.55    0.63
   0  -3 -14    2.55    0.52
   0   3  15   21.02    1.52
   0  -3 -15   21.95    1.33
   0   3  16   69.95    4.65
   0  -3 -16   66.30    3.11
   0   3  17   -1.11    0.70
   0  -3 -17    0.39    0.43
   0   4 -18    4.91    1.18
   0  -4  18    5.53    0.94
   0   4 -17   15.62    1.47
   0  -4  17   16.71    1.34
   0   4 -16   21.29    1.68
   0  -4  16   21.13    1.27
   0   4 -15    4.04    0.88
   0  -4  15    3.50    0.63
   0   4 -14   -0.69    0.43
   0  -4  14   -0.10    0.26
   0  -4  14    0.69    0.36
   0   4 -13   11.67    0.92
   0  -4  13   12.71    0.81
   0  -4  13   11.47    0.53
   0   4 -12   35.06    1.77
   0  -4  12   38.69    1.34
   0  -4  12   39.46    1.40
   0   4 -11   42.81    1.78
   0  -4  11   47.19    1.47
   0  -4  11   46.07    1.52
   0   4 -10    4.45    0.51
   0  -4  10    5.06    0.34
   0  -4  10    5.26    0.44
   0   4  -9   49.86    1.65
   0  -4   9   53.46    1.35
   0  -4   9   48.52    1.34
   0   4  -8  458.22   14.86
   0  -4   8  459.57   13.81
   0  -4   8  463.25   12.47
   0   4  -7   12.82    0.55
   0  -4   7   12.70    0.43
   0   4  -6   22.95    0.71
   0  -4   6   23.37    0.67
   0  -4   6   21.72    0.45
   0   4  -5    2.78    0.24
   0  -4   5    2.69    0.18
   0  -4   5    3.00    0.24
   0   4  -4    5.04    0.32
   0  -4   4    4.76    0.18
   0  -4   4    4.50    0.27
   0   4  -3   76.91    1.11
   0   4  -3   72.83    1.31
   0  -4   3   72.27    1.55
   0   4  -2  108.94    1.52
   0   4  -2  105.41    1.74
   0  -4   2  109.21    2.19
   0   4  -1  753.57   15.40
   0   4  -1  760.35   16.11
   0  -4   1  727.65   19.77
   0   4   0  290.10    4.81
   0  -4   0  294.43    6.39
   0   4   1  484.62   10.33
   0   4   1  497.80    9.51
   0  -4  -1  524.75   12.23
   0   4   2    0.23    0.09
   0   4   2    0.49    0.13
   0  -4  -2    0.61    0.12
   0   4   3   78.48    1.55
   0   4   3   75.28    1.14
   0  -4  -3   75.16    1.41
   0   4   4  548.16   14.77
   0  -4  -4  559.18   12.59
   0  -4  -4  549.66   11.89
   0   4   5    4.05    0.32
   0  -4  -5    4.29    0.24
   0  -4  -5    4.59    0.20
   0  -4  -6    1.55    0.15
   0  -4  -6    2.48    0.20
   0   4   7  207.78    6.27
   0  -4  -7  204.14    4.03
   0  -4  -7  204.38    4.79
   0   4   8  222.31    7.12
   0  -4  -8  217.35    5.61
   0  -4  -8  211.38    4.42
   0   4   9  127.80    4.30
   0  -4  -9  126.13    3.24
   0  -4  -9  115.42    2.30
   0   4  10   81.36    2.98
   0  -4 -10   79.56    2.50
   0  -4 -10   72.60    1.51
   0   4  11  102.58    4.06
   0  -4 -11  101.67    3.30
   0   4  12   47.94    2.34
   0  -4 -12   44.09    1.71
   0   4  13   97.46    4.47
   0  -4 -13   92.77    3.54
   0   4  14    6.53    0.85
   0  -4 -14    5.34    0.79
   0   4  15    4.93    0.95
   0  -4 -15    4.43    0.65
   0   4  16   18.03    1.52
   0  -4 -16   18.01    1.30
   0   5 -17    9.00    1.44
   0   5 -16   39.92    2.21
   0  -5  16   32.46    1.58
   0   5 -15   39.74    2.45
   0  -5  15   38.21    1.61
   0   5 -14   57.31    2.85
   0  -5  14   52.38    1.94
   0  -5  14   52.68    2.02
   0   5 -13    1.53    0.49
   0  -5  13    0.67    0.31
   0  -5  13    0.45    0.28
   0   5 -12   12.38    0.95
   0  -5  12   13.52    0.61
   0  -5  12   12.94    0.64
   0   5 -11   78.75    2.99
   0  -5  11   78.00    2.37
   0  -5  11   77.24    2.24
   0   5 -10    1.83    0.41
   0  -5  10    1.59    0.31
   0  -5  10    1.62    0.30
   0   5  -9   15.46    0.99
   0  -5   9   14.91    0.64
   0  -5   9   15.05    0.62
   0   5  -8   33.01    1.38
   0  -5   8   31.86    0.81
   0  -5   8   31.62    1.05
   0   5  -7   49.10    1.29
   0  -5   7   39.59    1.26
   0  -5   7   39.98    1.01
   0   5  -6  127.25    3.36
   0  -5   6  126.98    3.49
   0  -5   6  131.99    2.77
   0   5  -5  104.94    2.43
   0  -5   5  103.98    1.95
   0  -5   5  104.50    2.95
   0   5  -4  467.46   12.31
   0   5  -4  469.57   10.13
   0  -5   4  465.91   14.25
   0   5  -3   36.56    0.65
   0   5  -3   35.39    0.73
   0  -5   3   36.69    0.99
   0   5  -2  121.46    2.24
   0   5  -2  118.10    1.89
   0  -5   2  115.63    2.77
   0   5  -1    0.07    0.11
   0  -5   1    0.15    0.19
   0   5   0    2.54    0.15
   0  -5   0    2.25    0.25
   0   5   1  431.85    9.10
   0   5   1  415.69    9.51
   0  -5  -1  433.48   11.15
   0   5   2   31.16    0.68
   0   5   2   31.30    0.56
   0  -5  -2   31.19    0.82
   0   5   3   20.66    0.43
   0   5   3   21.28    0.60
   0  -5  -3   20.48    0.61
   0   5   4    1.71    0.26
   0   5   4    1.86    0.22
   0  -5  -4    2.17    0.20
   0   5   5  249.35    7.01
   0  -5  -5  254.97    5.49
   0  -5  -5  251.78    5.59
   0   5   6  271.44    8.29
   0  -5  -6  265.14    6.19
   0  -5  -6  272.34    6.25
   0   5   7  248.44    8.05
   0  -5  -7  238.75    5.56
   0  -5  -7  235.29    5.84
   0   5   8  124.60    4.20
   0  -5  -8  120.54    2.74
   0  -5  -8  124.29    3.39
   0   5   9   14.04    1.09
   0  -5  -9   13.81    0.58
   0  -5  -9   12.48    0.44
   0   5  10    3.47    0.52
   0  -5 -10    3.17    0.36
   0  -5 -10    2.87    0.23
   0   5  11   -0.22    0.45
   0  -5 -11    0.68    0.35
   0   5  12    8.57    0.93
   0  -5 -12    8.80    0.67
   0   5  13   40.00    2.45
   0  -5 -13   38.25    1.65
   0   5  14   74.63    4.01
   0  -5 -14   64.71    2.93
   0   5  15    4.20    0.77
   0  -5 -15    3.46    0.74
   0   6 -17    5.56    1.28
   0   6 -16    6.21    1.00
   0   6 -15    3.61    0.75
   0  -6  15    2.91    0.56
   0   6 -14    5.59    1.01
   0  -6  14    5.06    0.55
   0  -6  14    4.80    0.55
   0   6 -13    0.09    0.44
   0  -6  13    0.15    0.34
   0  -6  13   -0.38    0.26
   0   6 -12   15.62    1.34
   0  -6  12   14.57    0.89
   0  -6  12   14.79    0.76
   0   6 -11   55.35    2.19
   0  -6  11   55.45    1.87
   0  -6  11   51.29    1.84
   0   6 -10  150.60    5.31
   0  -6  10  148.16    4.87
   0  -6  10  154.63    4.55
   0   6  -9   11.25    0.69
   0  -6   9    9.84    0.59
   0  -6   9   10.22    0.51
   0   6  -8    4.92    0.46
   0  -6   8    4.66    0.34
   0  -6   8    4.46    0.44
   0   6  -7  266.87    8.17
   0  -6   7  253.85    8.22
   0  -6   7  259.97    6.48
   0   6  -6   53.61    1.04
   0   6  -6   54.62    1.56
   0  -6   6   55.24    1.69
   0   6  -5  162.70    4.17
   0   6  -5  154.42    3.10
   0  -6   5  157.48    4.76
   0   6  -4    2.63    0.19
   0   6  -4    2.13    0.29
   0  -6   4    2.04    0.35
   0   6  -3  142.07    3.13
   0   6  -3  137.67    2.69
   0  -6   3  140.40    3.80
   0   6  -2  351.76    8.25
   0   6  -2  350.33    7.69
   0  -6   2  342.19    9.98
   0   6  -1  178.66    3.60
   0   6  -1  171.06    3.51
   0  -6   1  173.29    4.67
   0   6   0   10.56    0.30
   0  -6   0   11.65    0.59
   0   6   1   38.36    0.86
   0   6   1   38.40    0.85
   0  -6  -1   41.65    1.16
   0   6   2  616.45   15.59
   0   6   2  602.47   17.32
   0  -6  -2  614.25   18.80
   0   6   3   11.35    0.41
   0   6   3   11.70    0.56
   0  -6  -3   11.98    0.47
   0   6   4   70.73    1.61
   0   6   4   70.42    1.95
   0  -6  -4   69.88    1.91
   0   6   5  129.47    3.79
   0  -6  -5  131.71    3.13
   0  -6  -5  134.21    3.38
   0   6   6   56.95    1.85
   0  -6  -6   55.05    1.50
   0  -6  -6   55.86    1.36
   0   6   7   57.93    2.09
   0  -6  -7   58.07    1.56
   0  -6  -7   57.51    1.49
   0   6   8   36.24    1.53
   0  -6  -8   33.63    0.89
   0  -6  -8   36.44    1.08
   0   6   9   41.94    1.84
   0  -6  -9   38.58    0.98
   0  -6  -9   40.65    1.42
   0   6  10  101.11    4.00
   0  -6 -10   87.38    2.40
   0  -6 -10   95.49    2.92
   0   6  11   67.13    3.23
   0  -6 -11   64.32    2.60
   0   6  12    1.88    0.56
   0  -6 -12    1.12    0.39
   0   6  13    3.61    0.77
   0  -6 -13    2.57    0.48
   0   6  14   50.81    3.09
   0  -6 -14   44.50    2.49
   0   7 -16    3.43    0.78
   0   7 -15    3.78    0.72
   0  -7  15    2.10    0.48
   0   7 -14    1.95    0.61
   0  -7  14    1.58    0.47
   0   7 -13   49.16    2.53
   0  -7  13   47.97    2.23
   0   7 -12    8.99    0.86
   0  -7  12    8.09    0.61
   0  -7  12    8.84    0.62
   0   7 -11   15.90    1.03
   0  -7  11   14.73    1.00
   0  -7  11   15.05    0.76
   0   7 -10    1.37    0.42
   0  -7  10    0.97    0.45
   0  -7  10    0.67    0.26
   0   7  -9    1.31    0.39
   0  -7   9    0.96    0.45
   0  -7   9    1.29    0.21
   0   7  -8   22.81    1.20
   0   7  -8   20.81    0.58
   0  -7   8   21.10    0.97
   0   7  -7    1.46    0.23
   0   7  -7    1.13    0.33
   0  -7   7    1.19    0.38
   0   7  -6  107.22    2.39
   0   7  -6  115.20    3.27
   0  -7   6  107.73    3.54
   0   7  -5   47.61    1.03
   0   7  -5   46.82    1.34
   0  -7   5   47.28    1.67
   0   7  -4   57.32    1.23
   0   7  -4   60.84    1.56
   0  -7   4   57.53    1.90
   0   7  -3    8.50    0.34
   0   7  -3    8.55    0.37
   0  -7   3    7.60    0.57
   0   7  -2    3.60    0.24
   0   7  -2    3.46    0.25
   0  -7   2    3.95    0.41
   0   7  -1  125.16    2.85
   0   7  -1  125.09    2.74
   0  -7   1  127.27    3.88
   0   7   0    4.28    0.22
   0  -7   0    4.50    0.40
   0   7   1   71.28    1.72
   0   7   1   68.02    1.55
   0  -7  -1   73.28    2.15
   0   7   2   23.88    0.72
   0   7   2   23.91    0.90
   0  -7  -2   26.04    1.06
   0   7   3   70.55    1.72
   0   7   3   72.42    2.26
   0  -7  -3   75.21    2.31
   0   7   4   47.82    1.53
   0   7   4   49.68    1.34
   0  -7  -4   49.40    1.64
   0   7   5    2.62    0.39
   0  -7  -5    3.12    0.33
   0  -7  -5    3.66    0.31
   0   7   6  116.17    3.96
   0  -7  -6  117.18    3.15
   0  -7  -6  120.37    3.25
   0   7   7   28.46    1.30
   0  -7  -7   27.71    0.98
   0  -7  -7   30.04    1.13
   0   7   8   65.88    2.61
   0  -7  -8   61.62    1.74
   0  -7  -8   60.62    1.97
   0   7   9   12.03    0.93
   0  -7  -9   10.67    0.58
   0  -7  -9   10.72    0.57
   0   7  10    2.91    0.59
   0  -7 -10    3.76    0.45
   0  -7 -10    2.60    0.29
   0   7  11   77.53    4.16
   0  -7 -11   72.02    2.64
   0   7  12   17.30    1.33
   0  -7 -12   14.68    0.82
   0   7  13    6.77    0.98
   0  -7 -13    6.77    0.64
   0   8 -15    0.60    0.65
   0  -8  15   -0.39    0.41
   0   8 -14    7.92    0.93
   0  -8  14    7.42    0.80
   0   8 -13   24.63    1.61
   0  -8  13   21.76    1.37
   0   8 -12   30.65    1.73
   0   8 -11    0.68    0.52
   0  -8  11    0.45    0.40
   0   8 -10    2.88    0.58
   0   8 -10    1.54    0.27
   0  -8  10    1.56    0.44
   0   8  -9  105.54    2.93
   0   8  -9  114.37    4.06
   0  -8   9  110.58    4.10
   0   8  -8  113.82    3.01
   0   8  -8  135.99    4.96
   0  -8   8  124.16    4.64
   0   8  -7  143.65    4.48
   0   8  -7  138.40    3.23
   0  -8   7  143.25    5.07
   0   8  -6   21.72    0.85
   0   8  -6   18.87    0.51
   0  -8   6   20.81    1.05
   0   8  -5    1.08    0.20
   0   8  -5    1.08    0.36
   0  -8   5    1.08    0.38
   0   8  -4   39.44    1.04
   0   8  -4   41.28    1.24
   0  -8   4   41.77    1.63
   0   8  -3    0.42    0.16
   0   8  -3    0.70    0.27
   0  -8   3    0.87    0.34
   0   8  -2   25.75    0.76
   0   8  -2   25.08    0.75
   0  -8   2   26.86    1.20
   0   8  -1   31.43    0.99
   0   8  -1   29.87    0.82
   0  -8   1   29.81    1.29
   0   8   0  278.91    7.72
   0  -8   0  280.02    9.63
   0   8   1   17.38    0.61
   0   8   1   18.39    0.75
   0  -8  -1   18.24    0.85
   0   8   2    0.53    0.20
   0   8   2    1.83    0.27
   0  -8  -2    0.71    0.34
   0   8   3   15.03    0.50
   0   8   3   15.07    0.69
   0  -8  -3   15.44    0.88
   0   8   4   10.17    0.51
   0   8   4    9.45    0.57
   0  -8  -4    9.17    0.62
   0   8   5   63.51    2.61
   0  -8  -5   64.40    1.68
   0  -8  -5   65.78    2.03
   0   8   6    1.56    0.46
   0  -8  -6    1.16    0.38
   0  -8  -6    0.46    0.30
   0   8   7   11.17    0.84
   0  -8  -7   11.49    0.62
   0  -8  -7   10.71    0.51
   0   8   8  110.47    4.55
   0  -8  -8  105.53    3.49
   0  -8  -8  101.08    3.14
   0   8   9   20.15    1.55
   0  -8  -9   18.94    0.87
   0  -8  -9   17.76    0.98
   0   8  10    4.84    0.75
   0  -8 -10    4.63    0.56
   0   8  11    4.47    0.85
   0  -8 -11    2.30    0.49
   0   8  12   23.52    1.77
   0   9 -14    0.51    0.49
   0  -9  14    0.07    0.39
   0   9 -13    1.59    0.55
   0  -9  13    1.10    0.56
   0   9 -12    0.96    0.46
   0  -9  12    0.44    0.43
   0   9 -11    0.93    0.46
   0  -9  11    0.31    0.43
   0   9 -10   12.52    0.91
   0  -9  10   11.26    0.95
   0   9  -9   13.45    1.03
   0  -9   9   14.10    1.02
   0   9  -8   13.86    0.96
   0  -9   8   12.79    0.96
   0   9  -7   21.58    0.67
   0   9  -7   24.23    1.08
   0  -9   7   23.97    1.27
   0   9  -6   10.35    0.45
   0   9  -6   12.98    0.81
   0  -9   6   11.35    0.88
   0   9  -5    1.71    0.23
   0   9  -5    1.77    0.33
   0  -9   5    1.40    0.58
   0   9  -4    4.96    0.31
   0   9  -4    5.39    0.39
   0  -9   4    4.88    0.65
   0   9  -3   53.59    1.81
   0   9  -3   52.04    1.44
   0  -9   3   55.49    2.36
   0   9  -2   39.17    1.07
   0   9  -2   39.24    1.35
   0  -9   2   40.28    1.81
   0   9  -1    0.99    0.23
   0   9  -1    1.06    0.28
   0  -9   1    1.05    0.43
   0   9   0   90.43    2.48
   0  -9   0   92.44    3.30
   0   9   1    1.04    0.30
   0   9   1    1.65    0.24
   0  -9  -1    2.20    0.42
   0   9   2   64.76    1.91
   0   9   2   69.98    2.49
   0  -9  -2   67.81    2.43
   0   9   3   16.47    0.94
   0   9   3   15.05    0.58
   0  -9  -3   15.19    0.86
   0   9   4    8.64    0.53
   0   9   4    8.40    0.63
   0  -9  -4    9.18    0.77
   0   9   5   90.47    3.77
   0  -9  -5   88.85    2.75
   0   9   6   53.42    2.52
   0  -9  -6   53.80    1.96
   0  -9  -6   52.10    1.83
   0   9   7    7.36    0.71
   0  -9  -7    7.09    0.55
   0  -9  -7    6.26    0.44
   0   9   8    0.46    0.43
   0  -9  -8   -0.18    0.36
   0  -9  -8    0.41    0.30
   0   9   9   31.36    1.73
   0  -9  -9   26.31    1.10
   0   9  10    4.64    0.96
   0   9  11   16.21    1.45
   0  10 -13    3.59    0.70
   0 -10  13    3.09    0.75
   0  10 -12    4.03    0.74
   0 -10  12    2.97    0.63
   0  10 -11    6.51    0.72
   0 -10  11    6.62    0.78
   0  10 -10   20.61    1.45
   0 -10  10   20.94    1.38
   0  10  -9   10.70    0.85
   0 -10   9   10.40    0.98
   0  10  -8    4.15    0.57
   0 -10   8    5.36    0.69
   0  10  -7    0.35    0.34
   0 -10   7    0.53    0.46
   0  10  -6   19.62    0.98
   0 -10   6   20.83    1.32
   0  10  -5    0.15    0.35
   0 -10   5   -0.04    0.55
   0  10  -4   -0.18    0.26
   0  10  -4    0.01    0.20
   0 -10   4   -0.91    0.43
   0  10  -3   37.04    1.37
   0  10  -3   36.75    1.23
   0 -10   3   40.71    1.93
   0  10  -2    2.87    0.32
   0  10  -2    3.25    0.37
   0 -10   2    3.77    0.57
   0  10  -1    6.68    0.40
   0  10  -1    6.76    0.48
   0 -10   1    7.18    0.69
   0  10   0    1.53    0.32
   0 -10   0    1.68    0.53
   0  10   1   12.05    0.74
   0  10   1   10.33    0.49
   0 -10  -1   10.54    0.83
   0  10   2   79.36    2.35
   0  10   2   88.95    3.33
   0 -10  -2   89.29    3.40
   0  10   3   61.53    1.92
   0  10   3   72.02    2.81
   0 -10  -3   70.98    3.19
   0  10   4   19.33    0.93
   0  10   4   21.56    1.31
   0 -10  -4   23.01    1.20
   0  10   5    0.37    0.39
   0 -10  -5    0.69    0.29
   0 -10  -5    0.92    0.39
   0  10   6   21.37    1.25
   0 -10  -6   18.06    0.94
   0 -10  -6   23.03    1.11
   0  10   7    7.60    0.85
   0 -10  -7    7.86    0.79
   0  10   8    9.22    0.90
   0 -10  -8    7.05    0.73
   0  10   9    9.76    0.95
   0  11 -11    0.09    0.58
   0 -11  11    1.06    0.53
   0  11 -10    0.18    0.44
   0 -11  10    0.94    0.55
   0  11  -9    6.69    0.71
   0 -11   9    6.32    0.90
   0  11  -8    1.57    0.43
   0 -11   8    0.76    0.58
   0  11  -7    5.56    0.68
   0 -11   7    5.52    0.80
   0  11  -6   11.34    0.89
   0 -11   6   12.69    1.05
   0  11  -5    3.68    0.52
   0 -11   5    3.92    0.67
   0  11  -4   24.37    0.99
   0 -11   4   26.74    1.66
   0  11  -3    1.54    0.30
   0 -11   3    1.77    0.54
   0  11  -2   30.21    1.21
   0  11  -2   29.73    1.06
   0 -11   2   33.94    1.78
   0  11  -1    2.59    0.37
   0  11  -1    1.54    0.32
   0 -11   1    3.42    0.57
   0  11   0   42.36    1.48
   0  11   0   49.20    1.90
   0 -11   0   51.43    2.39
   0  11   1    6.22    0.50
   0  11   1    6.36    0.63
   0 -11  -1    6.88    0.71
   0  11   2    4.11    0.58
   0 -11  -2    4.42    0.63
   0  11   3    8.56    0.69
   0 -11  -3    9.62    0.96
   0  11   4    3.19    0.60
   0 -11  -4    2.63    0.54
   0  11   5    5.05    0.60
   0 -11  -5    4.51    0.76
   0  11   6    5.66    0.86
   0 -11  -6    5.39    0.64
   0  12  -8   12.94    1.06
   0 -12   8   13.43    1.58
   0  12  -7    0.17    0.34
   0 -12   7    0.27    0.50
   0  12  -6    0.40    0.43
   0 -12   6    0.88    0.58
   0  12  -5    4.32    0.61
   0 -12   5    6.40    0.86
   0  12  -4    2.09    0.34
   0 -12   4    1.71    0.59
   0 -12   3   19.48    1.41
   0 -12   2    1.92    0.62
   0 -12   1   18.90    1.35
   0 -12   0   37.81    2.09
   0 -12  -1   17.39    1.30
   0 -12  -2    0.27    0.46
   0 -12  -3    0.54    0.47
   1 -12  -4   30.74    1.89
  -1  12   4   31.12    1.70
   1 -12  -3    0.56    0.49
  -1  12   3    0.41    0.52
   1 -12  -2    0.53    0.44
  -1  12   2   -0.51    0.43
   1 -12  -1   14.87    1.22
  -1  12   1   15.59    1.12
   1 -12   0    3.70    0.71
  -1  12   0    3.33    0.48
   1 -12   1    6.92    0.89
  -1  12  -1    6.22    0.70
   1 -12   2    0.93    0.65
  -1  12  -2    1.01    0.43
   1 -12   3    9.10    0.91
  -1  12  -3    6.44    0.62
   1 -12   4   38.19    2.31
   1 -12   5   -0.19    0.60
   1 -12   6    1.07    0.64
   1 -12   7    1.66    0.60
   1 -12   8    3.18    0.68
   1 -12   9   -0.08    0.48
   1 -11  -7   57.43    3.10
  -1  11   7   60.15    3.25
   1 -11  -6    2.02    0.50
  -1  11   6    1.83    0.57
   1 -11  -5    3.87    0.59
  -1  11   5    2.64    0.75
   1 -11  -4   19.22    1.28
  -1  11   4   20.11    1.47
   1 -11  -3    1.31    0.57
  -1  11   3    0.35    0.50
   1 -11  -2   11.96    0.95
  -1  11   2   11.48    0.96
   1 -11  -1    7.82    0.78
  -1  11   1    6.22    0.60
   1 -11   0   26.82    1.88
  -1  11   0   25.51    1.18
   1 -11   1   11.05    1.23
  -1  11  -1   12.65    0.86
   1 -11   2    3.83    0.63
  -1  11  -2    3.19    0.40
   1 -11   3   10.53    0.95
  -1  11  -3   10.23    0.69
   1 -11   4    5.92    0.75
  -1  11  -4    5.18    0.45
   1 -11   5   55.12    2.99
  -1  11  -5   44.94    1.51
  -1  11  -5   50.79    1.92
   1 -11   6    3.38    0.71
  -1  11  -6    2.28    0.41
  -1  11  -6    2.06    0.41
   1 -11   7    1.29    0.50
  -1  11  -7    1.12    0.33
  -1  11  -7    0.38    0.32
   1 -11   8   24.21    1.49
  -1  11  -8   22.67    1.29
   1 -11   9    1.86    0.70
  -1  11  -9    2.26    0.46
   1 -11  10    0.27    0.54
  -1  11 -10    0.67    0.46
   1 -11  11    0.28    0.56
  -1  11 -11    0.60    0.39
   1 -10  -9    0.16    0.42
  -1  10   9    0.13    0.51
   1 -10  -8    0.96    0.41
  -1  10   8    0.81    0.54
   1 -10  -7   61.74    2.57
  -1  10   7   62.57    3.05
   1 -10  -6   22.83    1.20
  -1  10   6   22.22    1.39
   1 -10  -5    1.85    0.53
  -1  10   5    0.62    0.45
   1 -10  -4    1.86    0.46
  -1  10   4    1.31    0.46
   1 -10  -3    6.88    0.81
  -1  10   3    5.55    0.57
   1 -10  -2   36.59    1.85
  -1  10   2   39.24    1.87
   1 -10  -1   23.40    1.37
  -1  10   1   23.28    1.08
   1 -10   0    5.43    0.63
  -1  10   0    4.22    0.46
   1 -10   1   16.54    1.05
  -1  10  -1   12.85    0.54
  -1  10  -1   15.12    0.71
   1 -10   2  195.40    7.88
  -1  10  -2  193.25    6.50
   1 -10   3    0.82    0.43
  -1  10  -3    0.67    0.26
  -1  10  -3    1.12    0.35
   1 -10   4   22.24    1.26
  -1  10  -4   22.01    0.97
  -1  10  -4   18.65    0.77
   1 -10   5    3.22    0.72
  -1  10  -5    3.01    0.31
  -1  10  -5    3.20    0.35
   1 -10   6    5.37    0.77
  -1  10  -6    5.78    0.42
  -1  10  -6    4.13    0.37
   1 -10   7    0.24    0.38
  -1  10  -7    0.41    0.33
  -1  10  -7    0.19    0.29
   1 -10   8    0.28    0.46
  -1  10  -8    0.78    0.32
  -1  10  -8    0.58    0.33
   1 -10   9   16.43    1.37
  -1  10  -9   17.34    0.75
  -1  10  -9   18.38    0.93
   1 -10  10    7.94    0.79
  -1  10 -10    8.67    0.88
   1 -10  11   12.54    0.99
  -1  10 -11   14.01    0.96
   1 -10  12    1.22    0.56
  -1  10 -12    0.87    0.58
   1 -10  13    0.66    0.39
  -1  10 -13    0.30    0.47
  -1   9  11    1.20    0.60
   1  -9 -10   24.91    1.39
  -1   9  10   29.82    2.10
   1  -9  -9   24.45    1.14
  -1   9   9   22.56    1.47
   1  -9  -8   -0.14    0.32
  -1   9   8    0.69    0.41
   1  -9  -7    9.09    0.67
  -1   9   7    9.17    0.78
   1  -9  -6   37.11    1.51
  -1   9   6   38.18    2.17
   1  -9  -5   29.57    1.31
  -1   9   5   27.20    1.39
   1  -9  -4   66.21    2.43
  -1   9   4   63.94    2.55
   1  -9  -3  122.87    4.40
  -1   9   3  117.06    4.12
   1  -9  -2   89.29    3.35
  -1   9   2   87.34    3.36
   1  -9  -1   90.44    3.06
  -1   9   1   88.72    3.02
  -1   9   1   76.94    1.79
   1  -9   0    4.14    0.51
  -1   9   0    4.24    0.38
  -1   9   0    3.13    0.24
   1  -9   1    0.91    0.37
  -1   9  -1    1.14    0.26
  -1   9  -1    0.11    0.18
   1  -9   2   24.09    1.43
  -1   9  -2   23.29    1.01
  -1   9  -2   22.91    0.67
   1  -9   3  159.75    5.62
  -1   9  -3  143.98    3.81
  -1   9  -3  161.88    4.56
   1  -9   4   29.83    1.37
  -1   9  -4   26.72    0.81
  -1   9  -4   29.10    1.14
   1  -9   5    6.21    0.58
  -1   9  -5    5.70    0.39
  -1   9  -5    5.51    0.49
   1  -9   6   82.74    3.82
  -1   9  -6   80.03    2.39
  -1   9  -6   82.59    2.67
   1  -9   7    2.40    0.47
  -1   9  -7    1.72    0.33
  -1   9  -7    2.11    0.32
   1  -9   8    7.18    0.72
  -1   9  -8    8.05    0.47
  -1   9  -8    8.62    0.71
   1  -9   9    0.26    0.44
  -1   9  -9    0.45    0.33
   1  -9  10    5.55    0.72
  -1   9 -10    5.22    0.44
  -1   9 -10    6.14    0.60
   1  -9  11   14.42    1.15
  -1   9 -11   17.01    0.99
  -1   9 -11   15.15    0.76
   1  -9  12    0.04    0.38
  -1   9 -12    1.25    0.45
   1  -9  13    0.89    0.40
  -1   9 -13    1.02    0.63
  -1   9 -14    0.30    0.50
  -1   8  12   41.95    3.20
  -1   8  11    2.38    0.65
   1  -8 -10    0.35    0.30
  -1   8  10    1.20    0.50
   1  -8  -9   69.74    2.61
  -1   8   9   68.15    3.24
   1  -8  -8   28.07    1.07
   1  -8  -8   23.25    0.82
  -1   8   8   25.63    1.35
   1  -8  -7   40.45    1.42
   1  -8  -7   33.75    1.01
  -1   8   7   39.94    2.01
   1  -8  -6   30.61    1.17
  -1   8   6   30.07    1.36
   1  -8  -5   19.44    1.04
  -1   8   5   18.59    1.16
   1  -8  -4   90.23    2.67
   1  -8  -4   77.64    1.75
  -1   8   4   87.28    2.85
   1  -8  -3   32.49    1.20
  -1   8   3   29.50    0.65
  -1   8   3   32.19    1.19
   1  -8  -2    0.45    0.35
  -1   8   2    0.20    0.34
  -1   8   2    0.13    0.15
   1  -8  -1    9.52    0.65
  -1   8   1    8.82    0.30
  -1   8   1    8.75    0.51
   1  -8   0  191.70    6.09
  -1   8   0  181.23    3.81
  -1   8   0  178.31    5.16
   1  -8   1    1.75    0.38
  -1   8  -1    1.52    0.19
  -1   8  -1    1.64    0.34
   1  -8   2   15.88    0.77
  -1   8  -2   12.68    0.37
  -1   8  -2   13.87    0.56
   1  -8   3   43.82    1.64
  -1   8  -3   41.61    0.93
  -1   8  -3   45.31    1.23
   1  -8   4    8.64    0.70
  -1   8  -4    8.50    0.44
  -1   8  -4    8.46    0.42
   1  -8   5    2.43    0.41
  -1   8  -5    1.49    0.29
  -1   8  -5    1.72    0.32
   1  -8   6   16.55    0.89
  -1   8  -6   17.18    0.69
  -1   8  -6   16.95    0.63
   1  -8   7   23.93    1.14
  -1   8  -7   25.80    0.90
  -1   8  -7   24.75    0.92
   1  -8   8   48.25    1.87
  -1   8  -8   52.71    2.08
  -1   8  -8   51.74    1.55
   1  -8   9   35.19    1.53
   1  -8   9   38.29    1.39
  -1   8  -9   40.59    1.57
   1  -8  10   13.89    0.85
   1  -8  10   13.56    0.97
  -1   8 -10   14.15    0.88
   1  -8  11   16.41    1.03
   1  -8  11   17.14    1.00
  -1   8 -11   15.66    1.02
   1  -8  12   30.33    1.30
   1  -8  12   28.70    1.23
  -1   8 -12   31.44    1.63
   1  -8  13   17.42    1.08
   1  -8  13   20.85    1.07
  -1   8 -13   19.21    1.30
   1  -8  14    9.80    0.92
  -1   8 -14    9.65    1.22
  -1   8 -15    9.57    1.03
  -1   7  14    6.03    0.97
  -1   7  13    9.73    1.15
  -1   7  12   94.76    4.91
   1  -7 -11   22.76    0.85
   1  -7 -11   23.02    0.88
  -1   7  11   27.68    1.94
   1  -7 -10   47.05    1.66
   1  -7 -10   50.07    1.55
  -1   7  10   56.08    2.90
   1  -7  -9    7.35    0.55
   1  -7  -9    6.34    0.35
  -1   7   9    7.70    0.74
   1  -7  -8   86.81    2.49
   1  -7  -8   80.10    2.14
  -1   7   8   84.75    3.39
   1  -7  -7   40.23    1.06
   1  -7  -7   42.32    1.52
  -1   7   7   42.69    1.68
   1  -7  -6   20.64    0.56
   1  -7  -6   22.17    0.98
  -1   7   6   22.27    1.01
   1  -7  -5   77.08    2.40
   1  -7  -5   68.33    1.40
  -1   7   5   73.38    2.38
   1  -7  -4  122.55    3.34
   1  -7  -4  109.49    2.07
  -1   7   4  111.57    3.41
   1  -7  -3  436.02   13.44
  -1   7   3  444.06   14.81
  -1   7   3  419.83    9.32
   1  -7  -2   42.72    1.33
  -1   7   2   41.41    1.26
  -1   7   2   40.10    0.72
   1  -7  -1   26.51    0.90
  -1   7   1   25.65    0.80
  -1   7   1   26.04    0.51
   1  -7   0   40.65    1.30
  -1   7   0   35.98    0.67
  -1   7   0   39.07    1.10
   1  -7   1   35.68    1.21
  -1   7  -1   35.05    0.70
  -1   7  -1   36.34    1.12
   1  -7   2   48.46    1.54
  -1   7  -2   48.34    1.38
  -1   7  -2   46.28    0.97
   1  -7   3    4.14    0.41
  -1   7  -3    4.28    0.36
  -1   7  -3    4.42    0.27
   1  -7   4   72.14    2.24
  -1   7  -4   68.98    1.65
  -1   7  -4   75.22    1.85
   1  -7   5   13.33    0.67
  -1   7  -5   12.73    0.57
  -1   7  -5   12.48    0.52
   1  -7   6   39.58    1.39
  -1   7  -6   42.31    1.23
  -1   7  -6   40.81    1.31
   1  -7   7    4.29    0.40
   1  -7   7    3.93    0.44
  -1   7  -7    4.74    0.40
   1  -7   8   11.80    0.67
   1  -7   8   12.79    0.72
  -1   7  -8   12.17    0.62
   1  -7   9   57.85    1.97
   1  -7   9   58.83    2.18
  -1   7  -9   62.16    2.13
   1  -7  10    6.89    0.50
   1  -7  10    4.97    0.47
  -1   7 -10    6.00    0.57
   1  -7  11    4.29    0.57
   1  -7  11    3.60    0.42
  -1   7 -11    3.78    0.59
   1  -7  12   12.03    0.76
   1  -7  12   12.62    0.78
  -1   7 -12   13.31    0.95
   1  -7  13    0.72    0.33
   1  -7  13    0.86    0.47
  -1   7 -13    1.17    0.64
   1  -7  14   -0.06    0.37
  -1   7 -14    0.30    0.47
   1  -7  15    1.76    0.46
  -1   7 -15    1.11    0.62
  -1   7 -16    3.21    0.75
  -1   6  15   20.18    1.78
   1  -6 -14    5.46    0.56
  -1   6  14    6.20    0.91
   1  -6 -13    0.20    0.37
  -1   6  13    1.45    0.68
   1  -6 -12    7.19    0.60
  -1   6  12    6.74    0.89
   1  -6 -11  126.88    3.72
   1  -6 -11  127.96    4.23
  -1   6  11  136.91    5.62
   1  -6 -10   56.61    1.82
   1  -6 -10   58.57    1.72
  -1   6  10   59.42    2.92
   1  -6  -9   38.29    1.21
   1  -6  -9   36.89    1.01
  -1   6   9   39.48    1.68
   1  -6  -8   26.70    0.80
   1  -6  -8   29.48    0.90
  -1   6   8   28.76    1.25
   1  -6  -7   35.31    0.80
   1  -6  -7   38.75    1.07
  -1   6   7   38.08    1.50
   1  -6  -6  287.02    7.59
   1  -6  -6  258.11    5.97
  -1   6   6  280.81    9.16
   1  -6  -5   31.68    0.90
   1  -6  -5   30.39    0.60
  -1   6   5   31.58    1.09
   1  -6  -4    0.71    0.12
   1  -6  -4    0.56    0.23
  -1   6   4    0.05    0.30
   1  -6  -3  104.26    2.53
  -1   6   3  100.81    2.84
   1  -6  -2    5.44    0.33
  -1   6   2    5.32    0.34
  -1   6   2    5.47    0.16
   1  -6  -1   36.29    0.99
  -1   6   1   35.70    0.52
  -1   6   1   36.19    0.91
   1  -6   0    0.68    0.23
  -1   6   0    0.05    0.20
  -1   6   0    0.62    0.10
   1  -6   1  648.05   19.43
  -1   6  -1  634.10   13.71
  -1   6  -1  661.87   18.93
   1  -6   2  207.51    5.38
  -1   6  -2  199.30    4.78
  -1   6  -2  190.78    3.55
   1  -6   3  114.42    2.98
  -1   6  -3  115.36    2.26
  -1   6  -3  113.85    2.81
   1  -6   4    2.80    0.31
  -1   6  -4    2.68    0.24
  -1   6  -4    2.45    0.24
   1  -6   5   65.51    1.78
  -1   6  -5   65.44    1.59
  -1   6  -5   68.83    1.56
   1  -6   6  348.91   10.13
   1  -6   6  350.94   10.80
  -1   6  -6  363.89   10.58
   1  -6   7   32.94    1.30
   1  -6   7   35.49    1.26
  -1   6  -7   34.67    1.13
   1  -6   8    7.40    0.52
   1  -6   8    4.88    0.41
  -1   6  -8    5.49    0.56
   1  -6   9   58.17    1.78
   1  -6   9   63.45    1.96
  -1   6  -9   62.64    2.06
   1  -6  10   75.81    2.30
   1  -6  10   88.16    3.13
  -1   6 -10   84.86    3.36
   1  -6  11   88.88    2.92
   1  -6  11   95.08    3.34
  -1   6 -11   95.55    3.57
   1  -6  12   83.59    2.44
   1  -6  12   90.23    3.68
  -1   6 -12   92.09    3.65
   1  -6  13   17.55    0.72
   1  -6  13   20.34    1.07
  -1   6 -13   20.33    1.25
   1  -6  14    1.10    0.41
  -1   6 -14    0.77    0.52
   1  -6  15    6.74    0.66
  -1   6 -15    7.93    0.91
   1  -6  16    2.01    0.62
  -1   6 -16    3.13    0.72
   1  -6  17    0.41    0.54
  -1   6 -17    0.52    0.59
   1  -5 -15    6.76    0.64
  -1   5  15    6.54    0.99
   1  -5 -14   81.60    3.76
  -1   5  14   92.35    4.56
   1  -5 -13   54.90    2.10
  -1   5  13   60.42    2.92
   1  -5 -12   76.06    2.27
   1  -5 -12   83.62    2.95
  -1   5  12   89.80    3.89
   1  -5 -11    5.80    0.38
   1  -5 -11    5.89    0.41
  -1   5  11    7.17    0.70
   1  -5 -10   38.50    1.14
   1  -5 -10   39.57    1.03
  -1   5  10   42.39    1.81
   1  -5  -9   35.48    0.94
   1  -5  -9   35.72    0.94
  -1   5   9   37.78    1.53
   1  -5  -8    4.56    0.29
   1  -5  -8    4.36    0.32
  -1   5   8    5.28    0.49
   1  -5  -7    0.06    0.14
   1  -5  -7    1.16    0.20
  -1   5   7    0.47    0.30
   1  -5  -6  155.71    3.07
   1  -5  -6  161.48    3.66
  -1   5   6  163.63    4.67
   1  -5  -5  236.11    5.70
   1  -5  -5  226.07    4.10
  -1   5   5  231.05    6.38
   1  -5  -4   30.86    0.48
   1  -5  -4   31.15    0.77
  -1   5   4   31.93    0.88
   1  -5  -3    5.38    0.29
   1  -5  -3    4.88    0.13
  -1   5   3    4.92    0.28
   1  -5  -2  401.27    9.69
  -1   5   2  390.13    5.92
  -1   5   2  371.92    9.55
   1  -5  -1   11.75    0.41
  -1   5   1   10.61    0.17
  -1   5   1   11.55    0.40
   1  -5   0   54.52    1.19
  -1   5   0   54.20    1.11
  -1   5   0   54.66    0.66
   1  -5   1  306.71    7.21
  -1   5  -1  313.84    7.07
  -1   5  -1  310.39    5.11
   1  -5   2   58.51    1.31
  -1   5  -2   58.55    0.93
  -1   5  -2   59.09    1.21
   1  -5   3  117.33    2.64
  -1   5  -3  110.18    2.41
  -1   5  -3  111.69    2.14
   1  -5   4   38.97    0.92
   1  -5   4   40.33    0.98
  -1   5  -4   39.05    0.83
   1  -5   5    1.00    0.23
   1  -5   5    1.56    0.23
  -1   5  -5    1.72    0.21
   1  -5   6   55.29    1.55
   1  -5   6   61.73    1.48
  -1   5  -6   56.40    1.39
   1  -5   7  221.24    5.87
   1  -5   7  235.03    6.45
  -1   5  -7  232.87    6.56
   1  -5   8   20.12    0.73
   1  -5   8   18.82    0.72
  -1   5  -8   20.04    0.77
   1  -5   9    0.55    0.27
   1  -5   9    0.62    0.19
  -1   5  -9    0.10    0.36
   1  -5  10  135.83    3.57
   1  -5  10  150.46    4.67
  -1   5 -10  147.43    4.89
   1  -5  11   36.69    1.37
   1  -5  11   33.57    1.07
  -1   5 -11   35.35    1.82
   1  -5  12    8.62    0.45
   1  -5  12    9.36    0.64
  -1   5 -12    8.61    0.95
   1  -5  13    0.59    0.46
  -1   5 -13    0.89    0.44
   1  -5  14   65.34    2.79
  -1   5 -14   68.08    3.12
   1  -5  15   27.40    1.79
  -1   5 -15   28.64    1.81
   1  -5  16   26.22    1.92
  -1   5 -16   29.28    2.00
   1  -5  17    0.28    0.54
  -1   5 -17   -0.03    0.55
   1  -4 -16   11.63    1.07
  -1   4  16   12.92    1.53
   1  -4 -15    5.27    0.73
  -1   4  15    6.34    0.93
   1  -4 -14   16.22    1.11
  -1   4  14   16.95    1.26
   1  -4 -13   60.83    2.54
  -1   4  13   67.00    3.57
   1  -4 -12   81.14    2.25
   1  -4 -12   90.45    2.82
  -1   4  12   97.40    4.47
   1  -4 -11   35.87    1.21
   1  -4 -11   36.36    1.07
  -1   4  11   47.68    2.11
   1  -4 -10   12.26    0.62
   1  -4 -10   12.81    0.49
  -1   4  10   13.23    0.78
   1  -4  -9  157.28    3.57
   1  -4  -9  153.81    3.83
  -1   4   9  159.79    5.09
   1  -4  -8  325.50    7.75
   1  -4  -8  325.19    8.17
  -1   4   8  327.84   10.20
   1  -4  -7    1.37    0.17
   1  -4  -7    1.91    0.19
  -1   4   7    1.39    0.30
   1  -4  -6   22.84    0.50
   1  -4  -6   25.05    0.68
  -1   4   6   25.61    0.83
   1  -4  -5  487.74   11.57
   1  -4  -5  453.02    9.29
  -1   4   5  482.08   13.26
   1  -4  -4   43.54    0.59
   1  -4  -4   45.09    0.99
  -1   4   4   44.11    1.03
   1  -4  -3  444.28    6.51
   1  -4  -3  478.22   10.52
  -1   4   3  459.85   10.99
   1  -4  -2    6.24    0.25
  -1   4   2    5.58    0.24
  -1   4   1  416.03    5.03
  -1   4   1  420.33    9.49
   1  -4   0  239.15    4.57
  -1   4   0  227.40    2.60
  -1   4   0  239.65    4.58
   1  -4   1  283.53    5.65
  -1   4  -1  287.24    5.81
   1  -4   2   56.71    1.06
  -1   4  -2   57.65    0.83
  -1   4  -2   57.36    1.06
   1  -4   3  161.54    3.42
   1  -4   3  158.53    3.07
  -1   4  -3  165.42    2.86
   1  -4   4 1276.17   38.51
   1  -4   4 1252.75   42.01
  -1   4  -4 1302.05   37.33
   1  -4   5   14.47    0.58
   1  -4   5   15.42    0.41
  -1   4  -5   14.79    0.50
   1  -4   6  184.92    4.00
   1  -4   6  186.72    4.47
  -1   4  -6  186.57    4.44
   1  -4   7   17.42    0.52
   1  -4   7   17.07    0.59
  -1   4  -7   18.82    0.74
   1  -4   8    2.58    0.24
   1  -4   8    2.77    0.30
  -1   4  -8    2.27    0.31
   1  -4   9   22.96    0.56
   1  -4   9   25.29    0.89
  -1   4  -9   26.07    0.99
   1  -4  10   75.41    1.81
   1  -4  10   86.37    2.55
  -1   4 -10   82.17    2.72
   1  -4  11   80.02    2.92
   1  -4  11   71.23    1.72
  -1   4 -11   78.78    2.88
   1  -4  12   96.91    4.02
  -1   4 -12   91.62    3.56
   1  -4  13    3.11    0.54
  -1   4 -13    4.96    0.75
   1  -4  14   25.75    1.75
  -1   4 -14   25.60    1.55
   1  -4  15    0.26    0.60
  -1   4 -15    0.89    0.51
   1  -4  16   15.17    1.29
  -1   4 -16   15.04    1.28
   1  -4  17   14.11    1.30
  -1   4 -17   13.02    1.40
   1  -3 -17    1.35    0.61
  -1   3  17    1.76    0.62
   1  -3 -16    7.18    0.94
  -1   3  16    7.69    0.92
   1  -3 -15   60.61    2.67
  -1   3  15   70.95    3.46
   1  -3 -14   11.56    0.80
  -1   3  14   14.03    1.08
   1  -3 -13   39.45    1.62
  -1   3  13   41.80    2.02
   1  -3 -12   53.31    1.82
   1  -3 -12   52.30    1.40
  -1   3  12   57.38    2.65
   1  -3 -11   91.30    2.59
   1  -3 -11   88.34    1.98
  -1   3  11   93.13    3.35
   1  -3 -10   84.95    2.54
   1  -3 -10   82.16    1.73
  -1   3  10   85.99    2.85
   1  -3  -9   14.16    0.40
   1  -3  -9   13.59    0.62
  -1   3   9   15.47    0.70
   1  -3  -8  115.25    2.67
   1  -3  -8  115.96    2.32
  -1   3   8  117.96    3.22
   1  -3  -7  132.37    2.68
   1  -3  -7  134.83    2.69
  -1   3   7  140.07    3.71
   1  -3  -6   17.08    0.42
   1  -3  -6   16.83    0.46
  -1   3   6   18.89    0.58
   1  -3  -5  677.55   15.88
   1  -3  -5  655.57   13.82
  -1   3   5  654.80   18.18
   1  -3  -4 1508.37   42.39
   1  -3  -4 1519.02   34.87
  -1   3   4 1535.07   48.66
   1  -3  -3  197.58    2.31
   1  -3  -3  205.19    3.52
  -1   3   3  205.52    4.05
   1  -3  -2  923.50   20.81
  -1   3   2  897.10   22.42
   1  -3  -1   22.96    0.39
  -1   3   1   22.25    0.44
   1  -3   0   51.26    0.76
  -1   3   0   53.54    0.82
   1  -3   1  618.89   12.58
  -1   3  -1  615.08    9.53
  -1   3  -1  632.27   13.89
   1  -3   2    2.10    0.12
   1  -3   2    1.69    0.14
  -1   3  -2    1.47    0.08
   1  -3   3   12.27    0.32
   1  -3   3   12.43    0.30
  -1   3  -3   12.79    0.24
   1  -3   4  205.97    3.52
   1  -3   4  206.22    4.26
  -1   3  -4  203.49    3.83
   1  -3   5  282.43    5.32
   1  -3   5  283.24    6.57
  -1   3  -5  290.15    6.14
   1  -3   6   67.28    1.21
   1  -3   6   68.84    1.53
  -1   3  -6   68.47    1.46
   1  -3   7    0.09    0.13
   1  -3   7   -0.02    0.20
  -1   3  -7    1.43    0.24
   1  -3   8  277.66    5.87
   1  -3   8  317.30    9.40
  -1   3  -8  292.20    8.21
   1  -3   9   59.30    2.04
  -1   3  -9   54.58    1.75
   1  -3  10  175.94    5.21
   1  -3  10  153.64    3.05
  -1   3 -10  175.96    5.41
   1  -3  11    2.31    0.19
   1  -3  11    2.44    0.41
  -1   3 -11    3.05    0.52
   1  -3  12   38.84    1.67
  -1   3 -12   38.36    1.67
   1  -3  13   24.15    1.52
  -1   3 -13   23.05    1.38
   1  -3  14   35.34    1.82
  -1   3 -14   34.39    2.32
   1  -3  15   41.24    2.35
  -1   3 -15   41.04    2.28
   1  -3  16   10.94    1.25
  -1   3 -16    9.77    1.11
   1  -3  17   13.08    1.20
  -1   3 -17   13.08    1.38
   1  -3  18    1.59    0.63
  -1   3 -18    1.09    0.72
   1  -2 -17   20.56    1.56
  -1   2  17   17.32    1.43
   1  -2 -16   10.28    0.91
  -1   2  16   10.89    1.20
   1  -2 -15    6.13    0.66
  -1   2  15    7.14    0.76
   1  -2 -14   64.29    2.64
  -1   2  14   70.68    3.47
   1  -2 -13    1.83    0.39
   1  -2 -13    1.53    0.26
  -1   2  13    2.70    0.46
   1  -2 -12   38.05    1.03
   1  -2 -12   39.81    1.38
  -1   2  12   41.93    1.73
   1  -2 -11  108.66    2.36
   1  -2 -11  112.28    3.30
  -1   2  11  114.80    3.82
   1  -2 -10  167.38    4.69
   1  -2 -10  167.28    3.84
  -1   2  10  174.85    5.49
   1  -2  -9   10.11    0.36
   1  -2  -9    9.05    0.53
  -1   2   9    9.40    0.54
   1  -2  -8    4.41    0.28
   1  -2  -8    4.30    0.21
  -1   2   8    5.13    0.34
   1  -2  -7  835.35   20.64
   1  -2  -7  836.00   23.28
  -1   2   7  806.67   25.20
   1  -2  -6  107.72    1.89
   1  -2  -6  107.15    1.85
  -1   2   6  107.73    2.28
   1  -2  -5  255.03    4.44
   1  -2  -5  248.60    4.47
  -1   2   5  259.65    5.33
   1  -2  -4  345.71    5.50
   1  -2  -4  351.64    6.28
  -1   2   4  362.43    7.29
   1  -2  -3   62.21    0.85
   1  -2  -3   62.25    0.65
  -1   2   3   60.35    0.96
   1  -2  -2  785.35    9.50
   1  -2  -2  792.40   15.57
  -1   2   2  800.47   16.78
   1  -2  -1   24.88    0.35
  -1   2   1   25.24    0.38
   1  -2   0  183.23    2.49
  -1   2   0  197.75    2.97
   1  -2   1  467.18    7.20
   1  -2   1  458.23    8.58
  -1   2  -1  451.76    5.35
   1  -2   2 1342.23   27.13
   1  -2   2 1326.16   34.54
  -1   2  -2 1350.64   26.67
   1  -2   3   54.51    0.61
   1  -2   3   56.11    0.92
  -1   2  -3   55.98    0.82
   1  -2   4  197.52    2.64
   1  -2   4  202.59    3.98
  -1   2  -4  206.07    3.51
   1  -2   5   77.82    1.54
   1  -2   5   70.20    0.89
  -1   2  -5   73.80    1.44
   1  -2   6   31.45    0.75
   1  -2   6   29.01    0.43
  -1   2  -6   30.91    0.77
   1  -2   7   48.05    0.64
   1  -2   7   52.42    1.27
  -1   2  -7   49.34    1.17
   1  -2   8   96.66    1.41
   1  -2   8  105.48    2.66
  -1   2  -8  102.51    2.52
   1  -2   9  160.79    4.74
  -1   2  -9  165.63    4.70
   1  -2  10  322.79   10.88
  -1   2 -10  321.04   10.45
   1  -2  11   51.67    1.91
  -1   2 -11   49.21    1.90
   1  -2  12    6.94    0.65
  -1   2 -12    6.84    0.65
   1  -2  13    3.75    0.58
  -1   2 -13    3.10    0.57
   1  -2  14  123.24    5.33
  -1   2 -14  120.79    5.14
  -1   2 -15   23.16    1.58
   1  -2  16    0.08    0.48
  -1   2 -16    0.12    0.52
   1  -2  17   12.49    1.17
  -1   2 -17   12.49    1.19
   1  -2  18    4.55    0.88
  -1   2 -18    5.55    0.91
   1  -1 -17   27.65    1.84
  -1   1  17   31.45    1.97
   1  -1 -16    0.05    0.55
  -1   1  16    0.68    0.56
   1  -1 -15   31.44    1.66
  -1   1  15   31.06    1.62
   1  -1 -14   46.95    2.09
  -1   1  14   49.07    2.00
   1  -1 -13  117.38    4.26
  -1   1  13  122.89    4.38
   1  -1 -12    0.63    0.40
   1  -1 -12    0.49    0.17
  -1   1  12    1.88    0.43
   1  -1 -11    3.99    0.29
   1  -1 -11    4.30    0.50
  -1   1  11    3.68    0.43
   1  -1 -10  304.53    7.00
   1  -1 -10  300.60    9.02
  -1   1  10  305.37    9.10
   1  -1  -9  120.26    3.06
   1  -1  -9  119.84    2.29
  -1   1   9  124.14    3.14
   1  -1  -8   89.87    1.67
   1  -1  -8   87.60    2.05
  -1   1   8   91.42    2.12
   1  -1  -7  324.24    7.85
   1  -1  -7  325.25    6.41
  -1   1   7  326.35    7.93
   1  -1  -6  148.60    2.44
   1  -1  -6  144.93    2.74
  -1   1   6  146.57    3.05
   1  -1  -5  915.42   22.58
   1  -1  -5  906.48   20.35
  -1   1   5  902.81   23.05
   1  -1  -4 2115.07   55.35
   1  -1  -4 2109.68   57.19
  -1   1   4 2114.19   59.79
   1  -1  -3    5.46    0.14
   1  -1  -3    5.67    0.11
  -1   1   3    6.28    0.15
   1  -1  -2  105.74    1.33
  -1   1   2  109.14    1.34
   1  -1  -1    7.49    0.07
  -1   1   1    6.96    0.13
   1  -1   0    2.71    0.10
   1  -1   0    2.63    0.07
   1  -1   1   31.15    0.28
   1  -1   1   29.90    0.41
  -1   1  -1   29.34    0.25
   1  -1   2  642.30    8.36
   1  -1   2  649.81   13.02
  -1   1  -2  654.38   10.20
   1  -1   3   83.59    1.34
  -1   1  -3   75.96    1.06
   1  -1   4  386.10    3.91
   1  -1   4  406.58    8.63
  -1   1  -4  393.61    7.30
   1  -1   5   23.44    0.56
  -1   1  -5   21.97    0.47
   1  -1   6  129.98    2.87
  -1   1  -6  133.65    2.72
   1  -1   7  208.53    5.28
  -1   1  -7  204.84    4.75
   1  -1   8  184.82    5.15
  -1   1  -8  186.15    4.72
   1  -1   9    3.41    0.48
  -1   1  -9    3.11    0.35
   1  -1  10    0.68    0.39
  -1   1 -10    1.48    0.39
   1  -1  11  106.38    3.73
  -1   1 -11  100.82    3.37
   1  -1  12   10.72    0.78
  -1   1 -12    9.61    0.77
   1  -1  13   16.03    1.06
  -1   1 -13   15.61    1.06
   1  -1  14   21.60    1.39
  -1   1 -14   21.71    1.36
   1  -1  15    1.15    0.53
  -1   1 -15    1.57    0.54
   1  -1  16    8.76    0.96
  -1   1 -16    7.86    0.99
   1  -1  17    2.56    0.71
  -1   1 -17    1.89    0.87
   1   0 -18    3.07    0.70
  -1   0  18    3.53    0.81
   1   0 -17    4.16    0.96
  -1   0  17    6.29    0.72
   1   0 -16   49.02    2.54
  -1   0  16   51.23    2.40
   1   0 -15    2.88    0.55
  -1   0  15    2.38    0.53
   1   0 -14    2.86    0.46
  -1   0  14    1.82    0.39
  -1   0  14    1.11    0.24
   1   0 -13   95.23    3.83
  -1   0  13   83.69    2.23
  -1   0  13   91.41    3.37
   1   0 -12   39.79    1.52
  -1   0  12   33.99    0.98
  -1   0  12   38.31    1.27
   1   0 -11   28.97    1.19
  -1   0  11   31.72    1.29
   1   0 -10   19.69    0.79
  -1   0  10   17.71    0.69
   1   0  -9  153.38    4.21
   1   0  -9  161.39    3.41
  -1   0   9  156.75    3.87
   1   0  -8  166.62    3.32
   1   0  -8  163.52    3.98
  -1   0   8  161.51    3.61
   1   0  -7  218.86    5.10
   1   0  -7  221.11    4.24
  -1   0   7  218.31    4.55
   1   0  -6    0.58    0.15
   1   0  -6    0.66    0.11
  -1   0   6    0.73    0.15
   1   0  -5  198.52    3.23
   1   0  -5  191.16    3.52
  -1   0   5  191.58    3.19
   1   0  -4  899.58   20.93
   1   0  -4  906.25   19.53
  -1   0   4  896.26   18.03
   1   0  -3  265.62    4.15
   1   0  -3  261.66    3.94
  -1   0   3  262.57    3.37
   1   0  -2  132.34    1.58
   1   0  -2  131.59    1.65
  -1   0   2  131.29    1.29
   1   0  -1  432.38    6.44
   1   0  -1  440.86    5.65
  -1   0   1  457.20    5.70
   1   0   0  567.07    8.44
   1   0   0  579.01    8.14
   1   0   0  573.61    7.63
   1   0   1 1602.78   36.83
   1   0   1 1622.45   29.96
   1   0   2   47.05    0.34
   1   0   2   48.93    0.67
  -1   0  -2   46.87    0.53
   1   0   3 1017.58   24.90
   1   0   3 1001.53   10.72
  -1   0  -3 1028.85   20.96
   1   0   4 1469.28   44.22
  -1   0  -4 1474.81   37.27
   1   0   5  712.57   19.32
  -1   0  -5  704.22   16.72
   1   0   6   27.79    0.87
  -1   0  -6   28.90    0.68
   1   0   7   93.40    2.36
  -1   0  -7   91.23    2.00
   1   0   8  372.45   11.34
  -1   0  -8  370.86   10.07
   1   0   9  164.16    5.02
  -1   0  -9  164.36    4.55
   1   0  10    7.44    0.58
  -1   0 -10    6.43    0.49
   1   0  11   74.08    2.93
  -1   0 -11   72.61    2.75
   1   0  12   60.95    3.05
  -1   0 -12   61.31    2.39
   1   0  13  104.13    4.71
  -1   0 -13   96.09    3.92
   1   0  14   17.22    1.43
  -1   0 -14   16.91    1.16
   1   0  15   37.36    2.17
  -1   0 -15   34.94    1.98
   1   0  16   17.27    1.41
  -1   0 -16   14.25    1.61
   1   0  17   23.38    1.85
  -1   0 -17   23.89    2.09
   1   1 -18    8.40    1.21
  -1  -1  18    7.18    1.04
   1   1 -17    0.07    0.59
  -1  -1  17   -0.14    0.50
   1   1 -16   27.20    1.97
  -1  -1  16   27.38    1.60
   1   1 -15   14.63    1.11
  -1  -1  15   15.82    1.11
   1   1 -14   13.26    0.90
  -1  -1  14   13.68    0.83
  -1  -1  14   13.62    0.61
   1   1 -13   47.90    2.34
  -1  -1  13   49.11    1.69
  -1  -1  13   44.54    1.30
   1   1 -12  127.62    4.68
  -1  -1  12  128.43    3.09
  -1  -1  12  136.24    4.00
   1   1 -11   61.52    2.14
  -1  -1  11   61.48    1.68
  -1  -1  11   61.54    1.53
   1   1 -10  337.53   10.95
  -1  -1  10  332.44    8.28
  -1  -1  10  340.15    9.61
   1   1  -9    1.10    0.27
  -1  -1   9    1.41    0.25
  -1  -1   9    1.05    0.17
   1   1  -8    9.45    0.43
  -1  -1   8   10.39    0.33
  -1  -1   8    9.54    0.32
   1   1  -7   49.18    1.16
  -1  -1   7   49.02    0.95
  -1  -1   7   48.46    1.01
   1   1  -6   11.51    0.46
  -1  -1   6   11.76    0.30
  -1  -1   6   10.76    0.28
   1   1  -5    7.67    0.28
  -1  -1   5    7.50    0.18
   1   1  -4  180.79    3.30
  -1  -1   4  182.40    3.02
  -1  -1   4  184.72    2.23
   1   1  -3   25.64    0.40
  -1  -1   3   23.46    0.40
  -1  -1   3   25.63    0.22
   1   1  -2  590.12   10.18
   1   1  -2  545.11    5.74
  -1  -1   2  587.09   10.61
  -1  -1   2  573.38    5.14
   1   1  -1  209.82    2.75
  -1  -1   1  203.50    2.84
  -1  -1   1  196.59    1.80
   1   1   0 1483.60   29.50
   1   1   0 1460.99   25.22
  -1  -1   0 1465.13   30.79
   1   1   1  100.74    1.20
   1   1   1   98.94    1.15
  -1  -1  -1   96.55    1.06
   1   1   2  425.88    7.48
   1   1   2  428.19    7.09
  -1  -1  -2  414.71    5.73
   1   1   3  119.49    2.10
  -1  -1  -3  117.35    1.72
  -1  -1  -3  115.66    1.20
   1   1   4   17.10    0.42
  -1  -1  -4   16.13    0.35
  -1  -1  -4   16.56    0.14
   1   1   5  250.27    5.70
  -1  -1  -5  244.45    4.89
   1   1   6  127.15    3.06
  -1  -1  -6  125.42    2.54
   1   1   7   11.72    0.52
  -1  -1  -7   11.14    0.43
   1   1   8  199.78    5.89
  -1  -1  -8  193.42    5.09
   1   1   9  173.25    5.55
  -1  -1  -9  165.02    4.57
   1   1  10   17.98    0.96
  -1  -1 -10   18.83    0.82
   1   1  11   28.93    1.41
  -1  -1 -11   27.84    1.23
   1   1  12   40.43    2.20
  -1  -1 -12   41.21    1.78
   1   1  13    2.23    0.57
  -1  -1 -13    3.53    0.66
   1   1  14   32.74    2.03
  -1  -1 -14   33.34    1.80
   1   1  15    4.43    0.92
  -1  -1 -15    3.12    0.63
   1   1  16    4.11    0.79
  -1  -1 -16    2.74    0.89
   1   1  17   30.83    2.27
  -1  -1 -17   28.22    2.00
   1   2 -18   37.85    2.46
  -1  -2  18   33.66    1.88
   1   2 -17    2.72    0.87
  -1  -2  17    2.62    0.61
   1   2 -16    1.63    0.60
  -1  -2  16    1.44    0.42
   1   2 -15   24.95    1.58
  -1  -2  15   27.20    1.24
  -1  -2  15   24.18    0.87
   1   2 -14    5.84    0.72
  -1  -2  14    5.86    0.66
  -1  -2  14    6.79    0.48
   1   2 -13   66.26    2.79
  -1  -2  13   65.94    2.15
  -1  -2  13   69.99    1.93
   1   2 -12    2.69    0.52
  -1  -2  12    4.27    0.36
  -1  -2  12    3.92    0.40
   1   2 -11   46.99    1.87
  -1  -2  11   50.45    1.35
  -1  -2  11   48.58    1.54
   1   2 -10  236.07    7.68
  -1  -2  10  241.15    6.11
  -1  -2  10  243.62    6.49
   1   2  -9    5.94    0.48
  -1  -2   9    5.69    0.31
  -1  -2   9    5.79    0.33
   1   2  -8    6.39    0.41
  -1  -2   8    6.45    0.29
  -1  -2   8    6.22    0.29
   1   2  -7  340.06    9.38
  -1  -2   7  336.18    6.97
  -1  -2   7  335.57    7.99
   1   2  -6  723.97   21.85
  -1  -2   6  718.28   15.09
  -1  -2   6  728.27   19.63
   1   2  -5  155.83    3.32
  -1  -2   5  158.30    3.04
  -1  -2   5  156.08    2.07
   1   2  -4    1.69    0.17
  -1  -2   4    1.20    0.15
   1   2  -3  610.11   13.77
  -1  -2   3  598.21   13.64
   1   2  -2   15.80    0.32
  -1  -2   2   17.25    0.37
   1   2  -1 2459.13   67.79
  -1  -2   1 2367.73   73.27
   1   2   0    0.16    0.09
   1   2   0    0.55    0.06
  -1  -2   0    0.67    0.10
   1   2   1  995.46   21.26
   1   2   1  966.58   20.35
  -1  -2  -1  975.19   21.87
   1   2   2 1394.00   34.02
   1   2   2 1349.71   34.86
  -1  -2  -2 1351.98   33.60
   1   2   3  844.13   22.01
   1   2   3  846.25   19.77
  -1  -2  -3  856.32   17.00
   1   2   4  168.68    3.62
  -1  -2  -4  168.10    3.12
  -1  -2  -4  175.00    2.20
   1   2   5  191.62    4.43
  -1  -2  -5  202.22    3.95
  -1  -2  -5  197.10    2.36
   1   2   6   57.69    1.48
  -1  -2  -6   58.63    1.40
   1   2   7    1.61    0.28
  -1  -2  -7    1.64    0.24
   1   2   8    8.15    0.53
  -1  -2  -8    8.69    0.45
   1   2   9  178.29    6.01
  -1  -2  -9  184.91    5.14
   1   2  10   68.20    2.57
  -1  -2 -10   63.97    2.12
   1   2  11  230.71    8.88
  -1  -2 -11  214.11    7.18
   1   2  12    3.03    0.64
  -1  -2 -12    4.51    0.58
   1   2  13   44.12    2.37
  -1  -2 -13   43.44    2.03
   1   2  14   29.51    1.74
  -1  -2 -14   27.51    1.61
   1   2  15   28.89    1.97
  -1  -2 -15   27.59    1.97
   1   2  16    1.15    0.66
  -1  -2 -16    0.65    0.54
   1   2  17    0.36    0.62
  -1  -2 -17    0.54    0.68
   1   3 -18    2.54    0.96
   1   3 -17    2.86    0.67
  -1  -3  17    1.88    0.44
   1   3 -16   11.74    1.08
  -1  -3  16   10.19    0.74
   1   3 -15   34.63    1.91
  -1  -3  15   31.51    1.32
  -1  -3  15   33.74    1.33
   1   3 -14   33.06    1.73
  -1  -3  14   31.10    1.17
  -1  -3  14   32.82    1.26
   1   3 -13   40.91    2.05
  -1  -3  13   40.09    1.34
  -1  -3  13   42.30    1.50
   1   3 -12   30.19    1.54
  -1  -3  12   32.36    1.21
  -1  -3  12   30.62    1.13
   1   3 -11   21.95    1.03
  -1  -3  11   18.62    0.61
  -1  -3  11   20.95    0.90
   1   3 -10   40.27    1.59
  -1  -3  10   42.86    1.25
  -1  -3  10   39.25    0.92
   1   3  -9    3.33    0.42
  -1  -3   9    3.69    0.37
  -1  -3   9    2.79    0.24
   1   3  -8   37.08    1.16
  -1  -3   8   36.03    1.01
  -1  -3   8   33.09    0.69
   1   3  -7   23.66    0.82
  -1  -3   7   26.63    0.76
  -1  -3   7   24.88    0.50
   1   3  -6  687.57   21.64
  -1  -3   6  708.34   21.16
  -1  -3   6  691.30   13.90
   1   3  -5  180.28    4.13
  -1  -3   5  194.02    4.33
  -1  -3   5  180.25    2.25
   1   3  -4  298.47    7.06
  -1  -3   4  309.91    7.29
   1   3  -3   80.29    1.45
  -1  -3   3   84.36    1.87
   1   3  -2  495.40   11.03
  -1  -3   2  481.38   11.76
   1   3  -1   47.09    0.81
  -1  -3   1   48.23    0.95
   1   3   0  290.89    5.29
   1   3   0  268.32    3.98
  -1  -3   0  284.49    5.91
   1   3   1   74.33    1.17
   1   3   1   73.76    1.12
  -1  -3  -1   79.62    1.49
   1   3   2    2.27    0.16
   1   3   2    2.45    0.14
  -1  -3  -2    2.14    0.19
   1   3   3  269.74    5.81
   1   3   3  270.41    5.32
  -1  -3  -3  279.22    5.18
   1   3   4   89.59    1.72
   1   3   4   85.61    1.94
  -1  -3  -4   90.09    1.42
   1   3   5   -0.04    0.19
  -1  -3  -5   -0.02    0.09
  -1  -3  -5    0.41    0.16
   1   3   6  340.83    9.72
  -1  -3  -6  323.68    5.55
  -1  -3  -6  326.66    8.24
   1   3   7  170.94    4.81
  -1  -3  -7  150.70    2.22
  -1  -3  -7  164.96    3.88
   1   3   8  256.91    8.54
  -1  -3  -8  238.45    6.71
   1   3   9   16.35    1.07
  -1  -3  -9   16.90    0.75
   1   3  10   36.89    1.62
  -1  -3 -10   36.50    1.44
   1   3  11   21.72    1.22
  -1  -3 -11   21.99    1.07
   1   3  12   80.03    3.69
  -1  -3 -12   77.59    3.34
   1   3  13    7.89    0.93
  -1  -3 -13    7.70    0.93
   1   3  14    1.31    0.54
  -1  -3 -14   -1.06    0.53
   1   3  15   36.69    2.90
  -1  -3 -15   34.89    2.00
   1   3  16   11.94    1.38
  -1  -3 -16   11.69    1.11
   1   4 -18    0.61    0.62
   1   4 -17    7.76    1.07
   1   4 -16    3.60    0.74
   1   4 -15   25.87    1.74
  -1  -4  15   26.64    1.27
  -1  -4  15   24.37    1.18
   1   4 -14    0.11    0.51
  -1  -4  14    0.76    0.36
  -1  -4  14    0.46    0.26
   1   4 -13    8.84    0.85
  -1  -4  13    9.35    0.56
  -1  -4  13    7.39    0.44
   1   4 -12   78.48    3.33
  -1  -4  12   83.04    2.53
  -1  -4  12   74.04    2.22
   1   4 -11    2.05    0.43
  -1  -4  11    0.89    0.31
  -1  -4  11    0.89    0.26
   1   4 -10   28.01    1.30
  -1  -4  10   29.50    1.02
  -1  -4  10   27.48    0.79
   1   4  -9  140.86    4.66
  -1  -4   9  150.56    3.38
  -1  -4   9  147.80    4.37
   1   4  -8  187.86    5.72
  -1  -4   8  191.28    5.50
  -1  -4   8  185.43    3.69
   1   4  -7   54.08    1.61
  -1  -4   7   51.78    0.88
  -1  -4   7   54.08    1.52
   1   4  -6    0.90    0.30
  -1  -4   6    0.58    0.30
  -1  -4   6    0.71    0.08
   1   4  -5  135.72    3.39
  -1  -4   5  144.11    3.64
   1   4  -4   58.37    1.36
  -1  -4   4   64.76    1.60
   1   4  -3  670.15   18.50
  -1  -4   3  664.56   20.27
   1   4  -2    8.67    0.13
   1   4  -2    8.99    0.30
  -1  -4   2    9.02    0.38
   1   4  -1   46.68    1.01
   1   4  -1   45.01    0.54
  -1  -4   1   48.84    1.14
   1   4   0  111.37    2.01
   1   4   0  111.96    1.65
  -1  -4   0  123.65    2.69
   1   4   1    2.16    0.16
   1   4   1    1.90    0.18
  -1  -4  -1    2.11    0.25
   1   4   2   51.99    1.10
   1   4   2   51.12    0.93
  -1  -4  -2   50.04    0.98
   1   4   3  162.91    3.43
   1   4   3  163.98    3.52
  -1  -4  -3  167.13    3.44
   1   4   4  230.61    5.39
   1   4   4  236.32    6.23
  -1  -4  -4  251.39    4.98
   1   4   5   14.27    0.64
  -1  -4  -5   13.95    0.47
  -1  -4  -5   13.39    0.32
   1   4   6   10.53    0.65
  -1  -4  -6   10.42    0.56
  -1  -4  -6   10.56    0.30
   1   4   7  187.48    5.74
  -1  -4  -7  181.45    4.74
  -1  -4  -7  177.45    3.24
   1   4   8  108.95    3.68
  -1  -4  -8  104.46    2.92
   1   4   9  133.13    4.90
  -1  -4  -9  129.34    4.13
   1   4  10   -0.32    0.37
  -1  -4 -10   -0.31    0.32
   1   4  11    4.88    0.66
  -1  -4 -11    5.54    0.68
   1   4  12  156.17    6.96
  -1  -4 -12  158.88    6.13
   1   4  13   25.58    1.79
  -1  -4 -13   25.55    1.50
   1   4  14    5.06    0.85
  -1  -4 -14    3.29    0.63
   1   4  15    6.28    1.07
  -1  -4 -15    6.87    0.84
   1   5 -17    7.49    0.99
   1   5 -16    2.97    0.70
   1   5 -15   29.54    1.89
  -1  -5  15   28.11    1.36
   1   5 -14    1.68    0.61
  -1  -5  14    2.08    0.49
   1   5 -13   25.93    1.59
  -1  -5  13   26.79    1.37
  -1  -5  13   23.06    0.95
   1   5 -12   85.90    3.52
  -1  -5  12   93.78    3.56
  -1  -5  12   80.51    2.36
   1   5 -11  104.20    4.10
  -1  -5  11  113.76    4.13
  -1  -5  11   95.83    2.56
   1   5 -10   49.76    2.04
  -1  -5  10   53.54    1.82
  -1  -5  10   46.35    1.15
   1   5  -9   25.25    1.08
  -1  -5   9   25.12    1.04
  -1  -5   9   22.61    0.55
   1   5  -8   40.54    1.38
  -1  -5   8   40.33    1.39
  -1  -5   8   35.17    0.76
   1   5  -7   20.26    0.88
  -1  -5   7   22.18    0.92
   1   5  -6   80.79    2.29
  -1  -5   6   82.39    2.54
   1   5  -5   48.72    1.36
  -1  -5   5   52.70    1.55
   1   5  -4   45.71    1.20
  -1  -5   4   46.74    1.47
   1   5  -3  246.76    6.36
  -1  -5   3  252.90    7.40
   1   5  -2   90.18    1.93
   1   5  -2   87.67    1.14
  -1  -5   2  100.90    2.59
   1   5  -1   11.97    0.40
  -1  -5   1   12.01    0.51
   1   5   0   23.14    0.47
   1   5   0   21.49    0.56
  -1  -5   0   24.19    0.71
   1   5   1  189.67    3.68
   1   5   1  192.33    4.12
  -1  -5  -1  193.80    4.80
   1   5   2  100.33    2.19
   1   5   2  100.84    2.06
  -1  -5  -2   99.60    2.52
   1   5   3    0.90    0.20
   1   5   3    0.85    0.24
  -1  -5  -3    1.12    0.20
   1   5   4  122.52    3.21
   1   5   4  121.64    2.91
  -1  -5  -4  123.97    2.69
   1   5   5   18.70    0.76
   1   5   5   17.40    0.71
  -1  -5  -5   18.43    0.56
   1   5   6  226.09    7.22
  -1  -5  -6  230.33    5.23
  -1  -5  -6  227.12    6.23
   1   5   7    5.60    0.55
  -1  -5  -7    7.25    0.53
  -1  -5  -7    6.83    0.25
   1   5   8    2.35    0.41
  -1  -5  -8    1.35    0.18
  -1  -5  -8    2.20    0.33
   1   5   9  145.28    5.45
  -1  -5  -9  134.86    4.29
   1   5  10   88.06    3.70
  -1  -5 -10   83.14    2.99
   1   5  11    1.88    0.52
  -1  -5 -11    1.52    0.55
   1   5  12    0.76    0.52
  -1  -5 -12    0.70    0.40
   1   5  13    1.86    0.60
  -1  -5 -13    1.26    0.59
   1   5  14    3.03    0.89
  -1  -5 -14    1.88    0.60
   1   5  15   15.74    1.64
  -1  -5 -15   16.78    1.29
   1   6 -17    9.01    1.46
   1   6 -16    0.19    0.56
  -1  -6  16   -0.02    0.34
   1   6 -15   14.03    1.35
  -1  -6  15   14.76    1.16
   1   6 -14    9.49    1.43
  -1  -6  14   12.55    0.88
   1   6 -13    1.06    0.53
  -1  -6  13    0.66    0.42
   1   6 -12    3.08    0.63
  -1  -6  12    3.16    0.55
   1   6 -11   17.18    1.21
  -1  -6  11   19.98    1.08
   1   6 -10    8.85    0.74
  -1  -6  10   10.37    0.90
   1   6  -9   37.79    1.62
  -1  -6   9   43.69    2.05
   1   6  -8   33.73    1.59
  -1  -6   8   34.08    1.51
   1   6  -7  137.32    4.40
  -1  -6   7  139.86    4.98
   1   6  -6  204.40    6.15
  -1  -6   6  237.06    7.91
   1   6  -5   21.71    0.82
  -1  -6   5   24.84    1.24
   1   6  -4   11.66    0.21
   1   6  -4   12.86    0.56
  -1  -6   4   12.25    0.70
   1   6  -3    0.97    0.25
   1   6  -3    0.61    0.10
  -1  -6   3    1.60    0.31
   1   6  -2  178.73    4.42
   1   6  -2  175.91    3.00
  -1  -6   2  184.37    5.55
   1   6  -1    1.41    0.24
   1   6  -1    1.60    0.15
  -1  -6   1    1.94    0.31
   1   6   0   20.36    0.61
   1   6   0   20.47    0.51
  -1  -6   0   20.78    0.93
   1   6   1  338.15    8.88
   1   6   1  348.40    8.69
  -1  -6  -1  336.65   10.11
   1   6   2  213.43    5.42
   1   6   2  203.81    5.16
  -1  -6  -2  197.53    5.45
   1   6   3  294.07    8.27
   1   6   3  294.63    8.01
  -1  -6  -3  302.84    8.52
   1   6   4    4.82    0.34
   1   6   4    5.02    0.45
  -1  -6  -4    4.74    0.33
   1   6   5   18.52    0.73
   1   6   5   18.89    0.81
  -1  -6  -5   19.38    0.71
   1   6   6  181.83    6.11
  -1  -6  -6  184.51    5.29
  -1  -6  -6  181.28    4.78
   1   6   7   52.49    2.01
  -1  -6  -7   52.34    1.64
  -1  -6  -7   50.84    1.36
   1   6   8   13.96    0.88
  -1  -6  -8   13.43    0.68
  -1  -6  -8   11.70    0.47
   1   6   9    1.70    0.49
  -1  -6  -9    1.18    0.37
   1   6  10  126.26    5.73
  -1  -6 -10  121.28    4.41
   1   6  11   19.10    1.39
  -1  -6 -11   17.86    1.10
   1   6  12   23.43    1.66
  -1  -6 -12   24.18    1.31
   1   6  13    7.45    1.01
  -1  -6 -13    9.02    0.81
   1   6  14   56.15    3.57
  -1  -6 -14   51.14    3.31
   1   7 -16   -0.10    0.56
   1   7 -15   -0.56    0.54
  -1  -7  15    0.37    0.39
   1   7 -14    4.43    0.80
  -1  -7  14    4.10    0.64
   1   7 -13   34.41    2.15
  -1  -7  13   36.82    1.88
   1   7 -12   93.97    4.39
  -1  -7  12   96.80    4.21
   1   7 -11    1.86    0.53
  -1  -7  11    1.63    0.50
   1   7 -10    1.91    0.56
  -1  -7  10    1.30    0.50
   1   7  -9    1.02    0.40
  -1  -7   9    0.76    0.43
   1   7  -8    0.86    0.38
  -1  -7   8    1.07    0.43
   1   7  -7   27.30    1.15
  -1  -7   7   29.03    1.39
   1   7  -6   10.97    0.71
  -1  -7   6   12.51    0.80
   1   7  -5  154.04    4.97
  -1  -7   5  166.65    6.66
   1   7  -4   66.04    2.03
  -1  -7   4   66.21    2.46
   1   7  -3    1.39    0.14
   1   7  -3    1.46    0.30
  -1  -7   3    1.74    0.39
   1   7  -2  110.85    2.97
   1   7  -2  107.49    2.03
  -1  -7   2  111.76    3.69
   1   7  -1    4.86    0.34
   1   7  -1    4.72    0.25
  -1  -7   1    5.26    0.49
   1   7   0   67.73    1.97
   1   7   0   64.25    1.50
  -1  -7   0   66.06    2.17
   1   7   1   -0.22    0.20
   1   7   1    0.07    0.21
  -1  -7  -1   -0.13    0.27
   1   7   2   32.82    0.99
   1   7   2   32.84    0.94
  -1  -7  -2   34.07    1.40
   1   7   3   11.37    0.56
   1   7   3   12.44    0.69
  -1  -7  -3   15.21    0.76
   1   7   4   95.06    2.85
   1   7   4   92.88    2.64
  -1  -7  -4   93.66    2.61
   1   7   5    0.73    0.28
   1   7   5    0.61    0.31
  -1  -7  -5    0.58    0.25
   1   7   6    6.08    0.54
  -1  -7  -6    6.01    0.36
  -1  -7  -6    7.12    0.47
   1   7   7  130.61    5.22
  -1  -7  -7  126.45    4.13
  -1  -7  -7  121.35    3.56
   1   7   8   15.97    1.28
  -1  -7  -8   15.48    0.65
  -1  -7  -8   15.75    0.82
   1   7   9    0.97    0.62
  -1  -7  -9    0.55    0.34
   1   7  10    3.61    0.88
  -1  -7 -10    4.14    0.53
   1   7  11    8.70    0.97
  -1  -7 -11    8.14    0.73
   1   7  12    6.93    0.90
  -1  -7 -12    6.33    0.72
   1   7  13    1.25    0.66
  -1  -7 -13    2.09    0.61
   1   8 -15    5.14    0.93
  -1  -8  15    4.57    0.68
   1   8 -14    5.39    0.81
  -1  -8  14    3.31    0.65
   1   8 -13    3.11    0.66
  -1  -8  13    1.83    0.58
   1   8 -12    2.67    0.65
  -1  -8  12    3.08    0.62
   1   8 -11   23.58    1.58
  -1  -8  11   26.59    1.90
   1   8 -10   10.03    0.88
  -1  -8  10   11.85    1.19
   1   8  -9   19.22    1.12
  -1  -8   9   20.47    1.38
   1   8  -8  131.94    5.52
  -1  -8   8  136.71    5.72
   1   8  -7    6.96    0.66
  -1  -8   7    8.82    0.83
   1   8  -6    7.08    0.68
  -1  -8   6    3.42    0.69
   1   8  -5   55.41    1.94
  -1  -8   5   60.21    2.47
   1   8  -4  136.74    4.48
  -1  -8   4  155.69    6.37
   1   8  -3    9.79    0.57
  -1  -8   3    9.93    0.79
   1   8  -2    9.51    0.65
   1   8  -2    9.61    0.35
  -1  -8   2   10.32    0.71
   1   8  -1    0.37    0.18
   1   8  -1    0.33    0.24
  -1  -8   1    0.53    0.36
   1   8   0   31.46    0.95
   1   8   0   32.48    1.11
  -1  -8   0   32.81    1.31
   1   8   1  195.47    5.18
   1   8   1  191.38    5.52
  -1  -8  -1  195.59    6.68
   1   8   2   15.50    0.73
   1   8   2   14.62    0.79
  -1  -8  -2   14.97    0.83
   1   8   3   16.59    0.74
   1   8   3   18.20    0.71
  -1  -8  -3   16.59    0.84
   1   8   4  121.92    3.98
   1   8   4  118.04    3.62
  -1  -8  -4  117.71    3.69
   1   8   5   14.75    0.73
   1   8   5   13.50    0.80
  -1  -8  -5   14.03    0.80
   1   8   6    0.66    0.48
  -1  -8  -6    0.83    0.31
  -1  -8  -6    0.97    0.28
   1   8   7    3.31    0.69
  -1  -8  -7    4.38    0.36
  -1  -8  -7    4.22    0.46
   1   8   8   41.42    2.27
  -1  -8  -8   38.79    1.80
  -1  -8  -8   35.42    1.36
   1   8   9   36.06    1.96
  -1  -8  -9   31.94    1.50
   1   8  10    1.49    0.58
  -1  -8 -10    1.08    0.41
   1   8  11   22.91    1.54
  -1  -8 -11   17.89    1.15
   1   9 -14   11.67    1.52
  -1  -9  14   12.66    1.31
   1   9 -13   18.57    1.35
  -1  -9  13   18.85    1.40
   1   9 -12    0.22    0.47
  -1  -9  12    0.44    0.51
   1   9 -11    1.04    0.49
  -1  -9  11    0.84    0.67
   1   9 -10    0.15    0.46
  -1  -9  10   -0.74    0.58
   1   9  -9    1.54    0.58
  -1  -9   9    0.88    0.55
   1   9  -8    1.76    0.51
  -1  -9   8    2.69    0.61
   1   9  -7   28.97    1.73
  -1  -9   7   29.90    1.77
   1   9  -6    3.13    0.48
  -1  -9   6    2.91    0.62
   1   9  -5    5.17    0.53
  -1  -9   5    4.72    0.69
   1   9  -4   25.86    1.13
  -1  -9   4   26.53    1.70
   1   9  -3    2.28    0.38
  -1  -9   3    2.44    0.50
   1   9  -2   96.96    3.01
  -1  -9   2  106.28    4.02
   1   9  -1    2.96    0.37
   1   9  -1    2.36    0.28
  -1  -9   1    3.14    0.49
   1   9   0   34.99    1.39
   1   9   0   36.73    1.06
  -1  -9   0   36.86    1.72
   1   9   1   14.49    0.71
   1   9   1   13.92    0.68
  -1  -9  -1   14.46    1.08
   1   9   2   11.23    0.65
   1   9   2   12.37    0.72
  -1  -9  -2   12.34    0.93
   1   9   3    4.09    0.52
   1   9   3    4.30    0.51
  -1  -9  -3    3.91    0.48
   1   9   4    1.48    0.34
   1   9   4    0.78    0.32
  -1  -9  -4    1.21    0.45
   1   9   5   45.14    1.78
   1   9   5   42.85    1.68
  -1  -9  -5   45.52    1.93
   1   9   6   14.18    0.87
  -1  -9  -6   13.86    0.93
  -1  -9  -6   13.94    0.88
   1   9   7    0.66    0.44
  -1  -9  -7    1.33    0.37
  -1  -9  -7    0.99    0.31
   1   9   8   25.13    1.46
  -1  -9  -8   23.24    1.37
   1   9   9   12.89    1.09
  -1  -9  -9   10.82    0.80
   1   9  10   24.76    1.99
  -1  -9 -10   20.57    1.23
   1  10 -12    0.44    0.53
  -1 -10  12    0.69    0.52
   1  10 -11    4.90    0.88
  -1 -10  11    4.08    0.76
   1  10 -10   32.43    2.02
  -1 -10  10   34.87    2.17
   1  10  -9    0.62    0.47
  -1 -10   9    0.91    0.67
   1  10  -8   -0.29    0.42
  -1 -10   8   -0.52    0.50
   1  10  -7    8.86    0.80
  -1 -10   7    9.33    0.98
   1  10  -6   20.08    1.32
  -1 -10   6   21.18    1.44
   1  10  -5   37.47    1.73
  -1 -10   5   42.69    2.17
   1  10  -4    3.73    0.60
  -1 -10   4    4.43    0.70
   1  10  -3    2.25    0.39
  -1 -10   3    1.19    0.55
   1  10  -2    1.95    0.42
  -1 -10   2    1.75    0.55
   1  10  -1    2.01    0.39
  -1 -10   1    1.23    0.52
   1  10   0   22.42    0.97
  -1 -10   0   24.07    1.28
   1  10   1   14.61    0.67
   1  10   1   15.01    0.77
  -1 -10  -1   15.70    1.05
   1  10   2   68.25    2.39
   1  10   2   68.88    2.40
  -1 -10  -2   69.66    3.25
   1  10   3   17.10    0.88
   1  10   3   17.94    0.89
  -1 -10  -3   18.04    1.19
   1  10   4    4.62    0.49
   1  10   4    5.01    0.56
  -1 -10  -4    5.54    0.56
   1  10   5    7.89    0.61
   1  10   5    8.81    0.72
  -1 -10  -5    8.43    0.80
   1  10   6   12.05    0.93
  -1 -10  -6   12.98    0.94
  -1 -10  -6   11.55    0.90
   1  10   7   11.24    0.96
  -1 -10  -7   11.56    0.75
   1  10   8    1.45    0.59
  -1 -10  -8    0.82    0.46
   1  11 -10    3.83    0.71
  -1 -11  10    3.74    0.79
   1  11  -9    1.09    0.45
  -1 -11   9   -0.39    0.57
   1  11  -8    5.54    0.78
  -1 -11   8    4.96    0.83
   1  11  -7    0.81    0.54
  -1 -11   7    1.23    0.71
   1  11  -6    7.37    0.71
  -1 -11   6    8.38    0.97
   1  11  -5    5.42    0.75
  -1 -11   5    5.53    1.06
   1  11  -4    8.10    0.82
  -1 -11   4    9.23    0.99
   1  11  -3    0.17    0.36
  -1 -11   3   -0.20    0.48
   1  11  -2    0.65    0.34
  -1 -11   2   -0.23    0.49
   1  11  -1   27.96    1.45
  -1 -11   1   34.66    1.81
   1  11   0    3.33    0.46
  -1 -11   0    4.87    0.66
   1  11   1    1.95    0.39
  -1 -11  -1    3.39    0.67
   1  11   2    1.52    0.44
  -1 -11  -2    1.23    0.50
   1  11   3    2.98    0.43
  -1 -11  -3    3.12    0.52
   1  11   4    6.53    0.56
  -1 -11  -4    6.14    0.68
  -1 -11  -5    4.27    0.47
  -1 -11  -5    3.56    0.65
   1  12  -7    4.91    0.67
  -1 -12   7    6.56    0.97
   1  12  -6    4.39    0.64
  -1 -12   6    6.11    0.92
   1  12  -5    1.21    0.55
  -1 -12   5    1.26    0.65
   1  12  -4    5.49    0.70
  -1 -12   4    9.05    0.96
   1  12  -3    0.71    0.41
  -1 -12   3   -0.83    0.51
   1  12  -2    0.87    0.46
  -1 -12   2    2.44    0.60
   1  12  -1    7.35    0.64
  -1 -12   1    8.49    0.95
   1  12   0   12.06    0.77
  -1 -12   0   14.72    1.08
  -1 -12  -1    5.66    0.91
   2 -12  -4    2.95    0.66
  -2  12   4    3.01    0.78
   2 -12  -3   13.36    1.18
  -2  12   3   12.34    1.30
   2 -12  -2    5.13    0.89
  -2  12   2    3.73    0.78
   2 -12  -1    7.19    1.12
  -2  12   1    7.35    0.91
   2 -12   0   15.73    1.30
  -2  12   0   13.96    1.02
   2 -12   1    0.66    0.49
  -2  12  -1    0.12    0.38
   2 -12   2    2.58    0.74
  -2  12  -2    0.98    0.43
   2 -12   3    2.91    0.63
  -2  12  -3    2.44    0.49
   2 -12   4   19.81    1.38
  -2  12  -4   18.51    1.08
   2 -12   5    0.39    0.46
  -2  12  -5   -0.16    0.34
   2 -12   6    1.96    0.65
  -2  12  -6    2.43    0.45
   2 -12   7    7.78    0.93
  -2  12  -7    4.19    0.56
   2 -12   8   -0.05    0.45
   2 -11  -7    7.40    0.83
  -2  11   7    9.01    0.97
   2 -11  -6   36.33    1.99
  -2  11   6   36.84    2.16
   2 -11  -5    8.65    0.91
  -2  11   5    9.34    0.97
   2 -11  -4   24.94    1.82
  -2  11   4   27.01    1.47
   2 -11  -3   17.81    1.26
  -2  11   3   19.06    1.46
   2 -11  -2   12.69    1.09
  -2  11   2   12.37    0.99
   2 -11  -1    7.40    0.88
  -2  11   1    9.06    0.76
   2 -11   0    0.39    0.52
  -2  11   0    0.98    0.46
   2 -11   1   14.93    1.18
  -2  11  -1   14.75    0.92
   2 -11   2    0.57    0.44
  -2  11  -2    0.17    0.44
   2 -11   3    8.62    0.85
  -2  11  -3    7.71    0.68
   2 -11   4   45.16    2.29
  -2  11  -4   43.26    1.87
   2 -11   5    2.87    0.59
  -2  11  -5    2.29    0.54
   2 -11   6    4.98    0.72
  -2  11  -6    4.56    0.53
   2 -11   7    0.60    0.48
  -2  11  -7    0.71    0.35
   2 -11   8    6.49    0.72
  -2  11  -8    5.39    0.61
   2 -11   9    7.56    0.83
  -2  11  -9    8.48    0.79
   2 -11  10    2.72    0.53
  -2  11 -10    2.62    0.48
   2 -11  11    5.76    0.83
   2 -10  -9    5.01    0.77
  -2  10   9    4.92    0.81
   2 -10  -8   10.71    0.89
  -2  10   8   11.53    1.16
   2 -10  -7   68.43    3.03
  -2  10   7   69.43    3.73
   2 -10  -6   31.15    1.60
  -2  10   6   31.33    1.78
   2 -10  -5   27.46    1.41
  -2  10   5   23.82    1.45
   2 -10  -4    7.24    0.73
  -2  10   4    7.63    0.74
   2 -10  -3    4.58    0.57
  -2  10   3    3.02    0.72
   2 -10  -2   51.43    2.59
  -2  10   2   47.05    2.10
   2 -10  -1    0.61    0.47
  -2  10   1    0.96    0.40
   2 -10   0    0.89    0.45
  -2  10   0    0.33    0.43
   2 -10   1   17.13    1.14
  -2  10  -1   15.40    0.96
   2 -10   2   27.92    1.58
  -2  10  -2   25.85    1.26
   2 -10   3   29.72    1.56
  -2  10  -3   30.67    1.36
   2 -10   4    0.44    0.45
  -2  10  -4    1.01    0.43
   2 -10   5   14.14    0.98
  -2  10  -5   13.47    0.79
   2 -10   6   11.19    0.88
  -2  10  -6   11.63    0.77
   2 -10   7   20.86    1.21
  -2  10  -7   18.69    0.88
  -2  10  -7   22.66    1.08
   2 -10   8    5.48    0.89
  -2  10  -8    8.19    0.62
  -2  10  -8    7.34    0.62
   2 -10   9    2.33    0.52
  -2  10  -9    2.44    0.41
  -2  10  -9    3.42    0.50
   2 -10  10    8.27    0.72
  -2  10 -10    9.02    0.72
  -2  10 -10    8.62    0.82
   2 -10  11    7.45    0.88
  -2  10 -11    7.80    0.71
  -2  10 -11    8.84    0.84
   2 -10  12    1.11    0.44
  -2  10 -12    1.81    0.56
  -2  10 -12    2.44    0.48
   2  -9 -11   13.74    1.12
  -2   9  11   16.29    1.31
   2  -9 -10   59.19    2.38
  -2   9  10   58.06    3.06
   2  -9  -9   14.51    1.08
  -2   9   9   15.39    1.21
   2  -9  -8   45.03    2.02
  -2   9   8   43.65    2.98
   2  -9  -7   14.70    0.94
  -2   9   7   14.15    1.11
   2  -9  -6    3.33    0.64
  -2   9   6    3.87    0.63
   2  -9  -5   21.34    1.13
  -2   9   5   21.55    1.24
   2  -9  -4    4.14    0.52
  -2   9   4    3.82    0.69
   2  -9  -3   15.82    0.93
  -2   9   3   15.26    0.94
   2  -9  -2   78.87    2.86
  -2   9   2   73.70    2.80
   2  -9  -1   95.82    3.47
  -2   9   1   91.62    3.21
   2  -9   0   16.13    0.96
  -2   9   0   14.51    1.00
   2  -9   1   76.82    2.97
  -2   9  -1   75.21    2.63
   2  -9   2  141.61    5.20
  -2   9  -2  136.95    4.76
   2  -9   3    0.86    0.42
  -2   9  -3    0.69    0.33
   2  -9   4   73.27    2.94
  -2   9  -4   71.30    2.49
   2  -9   5    7.44    0.64
  -2   9  -5    6.66    0.31
  -2   9  -5    6.92    0.55
   2  -9   6   20.10    1.10
  -2   9  -6   21.11    0.81
  -2   9  -6   21.22    1.01
   2  -9   7   81.65    3.58
  -2   9  -7   84.79    2.59
  -2   9  -7   89.07    3.66
   2  -9   8    7.30    0.66
  -2   9  -8    7.87    0.65
  -2   9  -8    8.21    0.61
   2  -9   9    2.60    0.56
  -2   9  -9    2.35    0.47
  -2   9  -9    3.27    0.41
   2  -9  10    1.62    0.50
  -2   9 -10    1.47    0.45
  -2   9 -10    2.71    0.51
   2  -9  11   26.59    1.35
   2  -9  11   23.41    1.17
  -2   9 -11   26.46    1.30
   2  -9  12    0.99    0.42
   2  -9  12    0.64    0.43
  -2   9 -12    0.64    0.43
   2  -9  13    5.10    0.69
  -2   9 -13    5.23    0.67
   2  -9  14    2.79    0.78
  -2   9 -14    3.94    0.65
  -2   8  12    3.57    0.80
   2  -8 -11   17.49    1.09
  -2   8  11   18.51    1.40
   2  -8 -10   37.98    1.52
  -2   8  10   36.04    2.14
   2  -8  -9   19.47    0.99
  -2   8   9   19.50    1.34
   2  -8  -8   79.29    3.22
  -2   8   8   75.25    3.38
   2  -8  -7   41.10    1.62
  -2   8   7   37.32    1.81
   2  -8  -6    3.94    0.45
  -2   8   6    3.17    0.53
   2  -8  -5   39.96    1.56
  -2   8   5   41.61    1.81
   2  -8  -4   37.81    1.44
  -2   8   4   37.29    1.56
   2  -8  -3    0.69    0.35
  -2   8   3    0.82    0.35
   2  -8  -2    5.71    0.54
  -2   8   2    5.57    0.60
   2  -8  -1   82.38    2.83
  -2   8   1   79.83    2.73
   2  -8   0    2.77    0.42
  -2   8   0    1.90    0.37
   2  -8   1  154.38    5.02
  -2   8  -1  154.23    4.88
   2  -8   2   10.35    0.68
  -2   8  -2   10.97    0.63
   2  -8   3   42.86    1.65
  -2   8  -3   42.79    1.68
   2  -8   4   39.18    1.43
  -2   8  -4   32.32    0.81
  -2   8  -4   38.14    1.30
   2  -8   5   28.07    1.15
  -2   8  -5   24.29    0.75
  -2   8  -5   25.03    1.04
   2  -8   6    3.04    0.45
  -2   8  -6    2.88    0.44
  -2   8  -6    3.75    0.37
   2  -8   7    3.68    0.46
  -2   8  -7    4.42    0.46
  -2   8  -7    4.50    0.47
   2  -8   8   15.21    0.95
  -2   8  -8   16.21    0.88
   2  -8   9    0.84    0.39
   2  -8   9    0.89    0.47
  -2   8  -9    1.13    0.32
   2  -8  10    1.63    0.42
   2  -8  10    1.13    0.40
  -2   8 -10    0.83    0.50
   2  -8  11   36.45    2.06
   2  -8  11   33.15    1.54
  -2   8 -11   36.50    1.61
   2  -8  12    5.21    0.52
   2  -8  12    4.18    0.84
  -2   8 -12    4.87    0.76
   2  -8  13   19.49    1.37
  -2   8 -13   19.79    1.26
   2  -8  14    4.44    0.86
  -2   8 -14    3.77    0.85
   2  -8  15    8.88    0.97
  -2   8 -15    9.73    1.18
  -2   7  13   54.57    3.16
   2  -7 -12   45.67    1.72
  -2   7  12   52.02    2.78
   2  -7 -11   30.70    1.29
  -2   7  11   33.10    1.94
   2  -7 -10   23.26    1.03
  -2   7  10   23.73    1.46
   2  -7  -9   22.14    1.15
  -2   7   9   21.75    1.36
   2  -7  -8   45.54    1.64
  -2   7   8   43.67    2.01
   2  -7  -7   79.15    2.52
  -2   7   7   71.91    2.78
   2  -7  -6   24.13    0.99
  -2   7   6   22.02    1.14
   2  -7  -5    0.29    0.36
  -2   7   5    0.42    0.33
   2  -7  -4  321.44   10.04
  -2   7   4  310.85   10.84
   2  -7  -3  266.36    8.20
  -2   7   3  258.48    8.77
   2  -7  -2  128.41    4.20
  -2   7   2  128.01    4.06
   2  -7  -1  101.66    3.12
  -2   7   1  100.75    3.19
   2  -7   0  148.46    4.35
  -2   7   0  141.84    4.26
   2  -7   1   40.28    1.35
  -2   7  -1   39.96    1.27
   2  -7   2  218.18    6.10
  -2   7  -2  189.33    3.37
  -2   7  -2  217.24    6.04
   2  -7   3    0.91    0.31
  -2   7  -3    1.00    0.30
  -2   7  -3    1.27    0.16
   2  -7   4    1.65    0.31
  -2   7  -4    2.32    0.33
  -2   7  -4    1.46    0.20
   2  -7   5  135.16    3.82
  -2   7  -5  134.70    4.20
  -2   7  -5  138.23    3.40
   2  -7   6    6.93    0.49
  -2   7  -6    7.34    0.46
   2  -7   7    2.07    0.41
   2  -7   7    3.21    0.40
  -2   7  -7    3.16    0.40
   2  -7   8   26.46    1.36
   2  -7   8   24.69    0.95
  -2   7  -8   26.67    1.01
   2  -7   9   10.22    0.67
   2  -7   9   12.23    0.96
  -2   7  -9   11.02    0.79
   2  -7  10   10.24    0.54
   2  -7  10   13.41    0.86
  -2   7 -10   12.21    0.71
   2  -7  11   -0.05    0.37
   2  -7  11    0.31    0.28
  -2   7 -11   -0.65    0.41
   2  -7  12   18.03    1.09
   2  -7  12   13.60    0.59
  -2   7 -12   17.50    1.03
   2  -7  13    1.67    0.57
  -2   7 -13    2.40    0.51
   2  -7  14    8.69    0.84
  -2   7 -14    6.72    0.87
   2  -7  15    3.98    0.73
  -2   7 -15    5.54    0.78
  -2   6  14    2.00    0.66
   2  -6 -13    9.52    0.71
  -2   6  13   10.59    1.10
   2  -6 -12   29.41    1.24
  -2   6  12   31.11    1.83
   2  -6 -11   11.58    0.77
  -2   6  11   11.83    1.03
   2  -6 -10   94.65    3.28
  -2   6  10   93.68    3.88
   2  -6  -9    1.03    0.36
  -2   6   9    0.41    0.43
   2  -6  -8    2.98    0.33
  -2   6   8    1.92    0.60
   2  -6  -7  163.07    4.61
  -2   6   7  161.62    6.12
   2  -6  -6   67.30    2.04
  -2   6   6   65.25    2.24
   2  -6  -5   21.20    0.78
  -2   6   5   19.85    1.10
   2  -6  -4    3.39    0.35
  -2   6   4    2.49    0.38
   2  -6  -3  261.33    7.23
  -2   6   3  243.51    7.26
   2  -6  -2    9.26    0.49
  -2   6   2    8.96    0.51
   2  -6  -1  157.81    4.19
  -2   6   1  159.82    4.40
   2  -6   0    6.59    0.40
  -2   6   0    6.13    0.44
   2  -6   1   20.11    0.71
  -2   6  -1   18.66    0.76
   2  -6   2  141.86    3.61
  -2   6  -2  134.20    2.13
  -2   6  -2  141.47    3.73
   2  -6   3    1.03    0.23
  -2   6  -3    0.60    0.15
  -2   6  -3    1.32    0.28
   2  -6   4   26.12    0.83
  -2   6  -4   27.37    0.68
  -2   6  -4   26.38    0.90
   2  -6   5  206.06    5.86
   2  -6   5  199.51    6.23
  -2   6  -5  206.26    4.87
   2  -6   6  123.18    3.75
   2  -6   6  121.99    3.17
  -2   6  -6  125.03    3.26
   2  -6   7    2.03    0.32
   2  -6   7    2.41    0.38
  -2   6  -7    1.55    0.27
   2  -6   8   24.90    0.76
   2  -6   8   27.20    1.38
  -2   6  -8   25.88    1.08
   2  -6   9   69.93    1.88
   2  -6   9   81.14    3.32
  -2   6  -9   77.12    2.71
   2  -6  10  123.83    3.39
   2  -6  10  144.81    5.15
  -2   6 -10  135.26    4.55
   2  -6  11   32.87    1.14
   2  -6  11   41.77    1.86
  -2   6 -11   40.05    1.60
   2  -6  12   -0.07    0.48
  -2   6 -12    0.04    0.36
   2  -6  13   -0.20    0.42
  -2   6 -13    0.30    0.41
   2  -6  14   27.05    1.57
  -2   6 -14   25.67    1.60
   2  -6  15    8.41    1.07
  -2   6 -15    7.08    0.90
   2  -6  16    5.75    0.78
  -2   6 -16    4.87    0.81
  -2   5  15   28.49    1.97
  -2   5  14   23.58    1.70
   2  -5 -13   77.95    2.56
   2  -5 -13   74.65    2.76
  -2   5  13   91.34    3.93
   2  -5 -12    0.99    0.33
   2  -5 -12    3.52    0.37
  -2   5  12    1.23    0.53
   2  -5 -11   21.30    0.83
   2  -5 -11   22.01    0.91
  -2   5  11   23.47    1.28
   2  -5 -10   67.92    2.00
   2  -5 -10   66.08    1.92
  -2   5  10   69.53    2.63
   2  -5  -9  238.59    6.74
   2  -5  -9  250.35    7.37
  -2   5   9  259.57    9.90
   2  -5  -8   33.41    0.82
   2  -5  -8   35.47    1.08
  -2   5   8   35.65    1.41
   2  -5  -7    3.32    0.20
   2  -5  -7    3.44    0.33
  -2   5   7    2.56    0.43
   2  -5  -6  152.62    4.03
  -2   5   6  153.96    4.49
   2  -5  -5   33.24    0.95
  -2   5   5   31.53    1.14
   2  -5  -4   55.88    1.34
  -2   5   4   51.41    1.43
   2  -5  -3   95.75    2.19
  -2   5   3   94.80    2.50
   2  -5  -2   52.42    1.30
  -2   5   2   52.30    1.46
   2  -5  -1  454.37   12.22
  -2   5   1  460.20   13.18
   2  -5   0  166.94    3.81
  -2   5   0  173.09    4.31
   2  -5   1    0.82    0.20
  -2   5  -1    0.39    0.06
  -2   5  -1    0.69    0.22
   2  -5   2    2.10    0.23
  -2   5  -2    2.31    0.26
  -2   5  -2    1.63    0.13
   2  -5   3   48.68    1.12
  -2   5  -3   50.56    0.87
  -2   5  -3   47.44    1.32
   2  -5   4   39.38    1.26
   2  -5   4   39.55    1.04
  -2   5  -4   40.52    0.77
   2  -5   5   61.22    1.41
   2  -5   5   67.31    2.01
  -2   5  -5   67.11    1.52
   2  -5   6   86.76    1.97
   2  -5   6   95.27    2.71
  -2   5  -6   89.48    2.09
   2  -5   7   43.19    1.02
   2  -5   7   45.03    1.79
  -2   5  -7   46.12    1.42
   2  -5   8  145.67    3.53
   2  -5   8  156.54    5.25
  -2   5  -8  159.30    4.43
   2  -5   9   29.59    0.82
   2  -5   9   32.64    1.54
  -2   5  -9   31.24    1.18
   2  -5  10   36.78    1.56
   2  -5  10   33.06    0.88
  -2   5 -10   38.50    1.49
   2  -5  11   19.61    0.62
   2  -5  11   24.11    1.39
  -2   5 -11   24.37    1.37
   2  -5  12    2.54    0.48
  -2   5 -12    1.50    0.48
   2  -5  13    2.70    0.53
  -2   5 -13    1.67    0.51
   2  -5  14    3.73    0.84
  -2   5 -14    5.96    0.89
   2  -5  15    7.96    0.99
  -2   5 -15   10.76    1.17
   2  -5  16    1.60    0.61
  -2   5 -16    0.60    0.73
  -2   4  16   11.19    1.18
   2  -4 -15    0.71    0.44
  -2   4  15    1.21    0.56
   2  -4 -14   29.06    1.29
   2  -4 -14   27.33    1.03
  -2   4  14   32.98    1.76
   2  -4 -13   27.06    0.95
   2  -4 -13   25.17    1.12
  -2   4  13   29.35    1.60
   2  -4 -12   80.44    2.33
   2  -4 -12   76.75    2.51
  -2   4  12   85.52    3.94
   2  -4 -11    3.05    0.33
   2  -4 -11    3.00    0.32
  -2   4  11    2.93    0.52
   2  -4 -10    1.41    0.28
   2  -4 -10    1.43    0.29
  -2   4  10    1.60    0.39
   2  -4  -9  326.85    9.08
   2  -4  -9  305.93    9.01
  -2   4   9  328.26   11.07
   2  -4  -8   90.19    2.15
   2  -4  -8   96.03    2.69
  -2   4   8   94.05    2.93
   2  -4  -7   82.21    1.99
   2  -4  -7   79.39    1.57
  -2   4   7   83.58    2.33
   2  -4  -6    1.26    0.22
  -2   4   6    1.24    0.29
   2  -4  -5   97.47    1.41
   2  -4  -5  102.01    2.28
  -2   4   5  101.38    2.57
   2  -4  -4  387.67    9.65
  -2   4   4  358.85    9.78
   2  -4  -3   49.13    1.15
  -2   4   3   47.71    1.31
   2  -4  -2    4.84    0.27
  -2   4   2    4.39    0.30
   2  -4  -1   13.47    0.40
  -2   4   1   13.60    0.46
   2  -4   0  370.26    8.39
  -2   4   0  370.15    9.45
   2  -4   1    8.39    0.30
  -2   4  -1    9.56    0.39
  -2   4  -1    9.07    0.16
   2  -4   2    6.33    0.24
  -2   4  -2    5.11    0.16
   2  -4   3  432.64    9.88
   2  -4   3  424.36   12.12
  -2   4  -3  429.46    8.62
   2  -4   4  444.92   13.63
   2  -4   4  440.88   10.23
  -2   4  -4  443.30   10.00
   2  -4   5  615.73   15.65
   2  -4   5  639.62   21.44
  -2   4  -5  628.65   17.24
   2  -4   6   63.61    1.21
   2  -4   6   70.13    2.02
  -2   4  -6   68.25    1.54
   2  -4   7   43.36    1.45
   2  -4   7   39.61    0.83
  -2   4  -7   44.11    1.14
   2  -4   8  109.11    2.20
   2  -4   8  122.99    3.80
  -2   4  -8  122.87    3.19
   2  -4   9    0.95    0.15
   2  -4   9    1.58    0.37
  -2   4  -9    0.77    0.32
   2  -4  10    5.36    0.53
  -2   4 -10    3.95    0.47
   2  -4  11  114.29    4.42
  -2   4 -11  114.36    4.14
   2  -4  12  146.71    5.93
  -2   4 -12  146.09    5.78
   2  -4  13   12.99    1.26
  -2   4 -13   13.31    1.00
   2  -4  14    0.65    0.50
  -2   4 -14    0.72    0.58
   2  -4  15   12.14    1.15
  -2   4 -15   12.15    1.12
   2  -4  16    7.06    0.96
  -2   4 -16    7.72    0.97
   2  -4  17    1.29    0.65
  -2   4 -17    1.44    0.66
   2  -3 -16    5.05    0.75
  -2   3  16    5.90    0.79
   2  -3 -15   38.10    2.16
  -2   3  15   44.16    2.26
   2  -3 -14    0.01    0.30
   2  -3 -14    0.34    0.40
  -2   3  14    0.54    0.42
   2  -3 -13    1.13    0.44
   2  -3 -13    1.41    0.34
  -2   3  13    2.09    0.59
   2  -3 -12   69.70    2.28
   2  -3 -12   72.73    2.02
  -2   3  12   77.52    2.88
   2  -3 -11  217.08    6.16
   2  -3 -11  207.65    7.07
  -2   3  11  222.16    8.17
   2  -3 -10   29.93    1.03
   2  -3 -10   27.86    0.88
  -2   3  10   30.36    1.17
   2  -3  -9  135.82    3.43
   2  -3  -9  127.62    3.47
  -2   3   9  136.30    4.07
   2  -3  -8    7.58    0.38
   2  -3  -8    7.33    0.35
  -2   3   8    7.71    0.47
   2  -3  -7    2.20    0.30
   2  -3  -7    2.60    0.20
  -2   3   7    2.41    0.29
   2  -3  -6   58.55    1.07
   2  -3  -6   61.52    1.41
  -2   3   6   60.70    1.54
   2  -3  -5  395.84    7.57
   2  -3  -5  391.84    9.55
  -2   3   5  390.90   10.13
   2  -3  -4  203.81    2.77
   2  -3  -4  206.46    4.36
  -2   3   4  199.96    4.47
   2  -3  -3 1053.36   29.44
  -2   3   3 1028.49   31.09
   2  -3  -2    0.75    0.16
  -2   3   2    0.55    0.17
   2  -3  -1   26.53    0.54
  -2   3   1   26.43    0.62
   2  -3   0  265.79    5.13
  -2   3   0  267.98    5.99
   2  -3   1  161.54    2.88
  -2   3  -1  163.44    1.97
   2  -3   2   92.16    1.56
   2  -3   2   89.85    2.04
  -2   3  -2   94.56    1.25
   2  -3   3  208.43    3.77
   2  -3   3  209.32    5.15
  -2   3  -3  208.94    3.60
   2  -3   4  359.14    6.97
   2  -3   4  367.77   10.20
  -2   3  -4  369.97    7.47
   2  -3   5   69.60    1.84
   2  -3   5   67.04    1.12
  -2   3  -5   73.07    1.39
   2  -3   6  225.28    6.20
   2  -3   6  210.50    3.58
  -2   3  -6  222.16    5.07
   2  -3   7   24.00    0.87
   2  -3   7   20.55    0.40
  -2   3  -7   23.11    0.68
   2  -3   8    1.00    0.30
   2  -3   8    0.81    0.10
  -2   3  -8    0.64    0.26
   2  -3   9  298.76   10.43
  -2   3  -9  290.39    8.94
   2  -3  10   20.57    1.04
  -2   3 -10   18.99    0.92
   2  -3  11   22.81    1.26
  -2   3 -11   18.95    1.08
   2  -3  12   38.78    2.10
  -2   3 -12   35.53    1.65
   2  -3  13   25.74    1.57
  -2   3 -13   24.50    1.40
   2  -3  14    2.71    0.67
  -2   3 -14    2.05    0.55
   2  -3  15   12.66    1.23
  -2   3 -15   10.94    1.36
   2  -3  16   15.57    1.76
  -2   3 -16   13.56    1.35
   2  -3  17   15.23    1.50
  -2   3 -17   13.14    1.37
   2  -2 -17    1.62    0.68
  -2   2  17    3.49    0.66
   2  -2 -16    4.73    0.76
  -2   2  16    6.38    0.78
   2  -2 -15   91.23    4.29
  -2   2  15  101.33    4.22
   2  -2 -14   73.95    2.97
   2  -2 -14   78.37    2.65
  -2   2  14   83.77    3.33
   2  -2 -13   28.43    1.49
   2  -2 -13   28.14    0.99
  -2   2  13   31.97    1.38
   2  -2 -12    4.03    0.41
   2  -2 -12    3.35    0.40
  -2   2  12    3.89    0.59
   2  -2 -11   13.80    0.56
   2  -2 -11   13.14    0.66
  -2   2  11   14.48    0.78
   2  -2 -10    9.86    0.55
   2  -2 -10    9.29    0.50
  -2   2  10    9.55    0.58
   2  -2  -9  293.64    7.90
   2  -2  -9  270.48    7.79
  -2   2   9  289.05    8.90
   2  -2  -8    2.29    0.25
   2  -2  -8    1.90    0.28
  -2   2   8    2.54    0.30
   2  -2  -7  101.80    2.26
   2  -2  -7  100.45    2.27
  -2   2   7  100.80    2.38
   2  -2  -6  671.72   18.55
   2  -2  -6  663.55   17.45
  -2   2   6  658.82   18.60
   2  -2  -5   96.09    1.98
   2  -2  -5   98.14    1.63
  -2   2   5   95.97    1.95
   2  -2  -4    0.35    0.16
   2  -2  -4    0.53    0.09
  -2   2   4    1.23    0.15
   2  -2  -3    5.55    0.13
   2  -2  -3    5.06    0.23
  -2   2   3    6.19    0.23
   2  -2  -2  588.54    7.93
   2  -2  -2  589.34   13.22
  -2   2   2  583.65   13.71
   2  -2  -1   92.43    0.81
   2  -2  -1   92.20    1.50
  -2   2   1   94.28    1.72
   2  -2   0  153.30    1.59
   2  -2   0  148.59    2.42
  -2   2   0  149.61    2.84
   2  -2   1  153.79    2.47
   2  -2   1  154.00    3.16
  -2   2  -1  158.26    1.96
   2  -2   2  164.46    2.54
   2  -2   2  164.71    3.62
  -2   2  -2  161.68    2.28
   2  -2   3  484.96   12.71
   2  -2   3  475.76    8.98
  -2   2  -3  482.28    9.37
   2  -2   4   74.98    1.73
   2  -2   4   73.79    1.04
  -2   2  -4   75.31    1.26
   2  -2   5    1.25    0.10
   2  -2   5    1.00    0.29
  -2   2  -5    1.21    0.17
   2  -2   6  243.26    6.76
   2  -2   6  226.57    3.24
  -2   2  -6  235.34    5.23
   2  -2   7   34.14    1.20
  -2   2  -7   33.69    0.95
   2  -2   8    0.97    0.30
  -2   2  -8    0.45    0.26
   2  -2   9   19.30    1.00
  -2   2  -9   19.32    1.01
   2  -2  10   86.12    3.58
  -2   2 -10   82.55    2.71
   2  -2  11    1.56    0.46
  -2   2 -11    1.59    0.41
   2  -2  12    7.06    0.91
  -2   2 -12    5.72    0.66
   2  -2  13   76.16    3.59
  -2   2 -13   71.97    3.19
   2  -2  14   55.47    3.51
  -2   2 -14   53.65    2.74
   2  -2  15   25.59    1.92
  -2   2 -15   25.52    2.05
   2  -2  16    0.46    0.56
  -2   2 -16   -0.44    0.60
   2  -2  17    1.49    0.72
  -2   2 -17    1.28    0.70
   2  -1 -17   11.92    1.04
  -2   1  17   11.91    0.98
   2  -1 -16    2.87    0.59
  -2   1  16    3.69    0.55
   2  -1 -15    2.51    0.48
  -2   1  15    1.86    0.62
  -2   1  15    2.42    0.39
   2  -1 -14   35.10    1.63
  -2   1  14   34.85    1.87
   2  -1 -13   11.59    0.93
   2  -1 -13   13.02    0.70
  -2   1  13   12.27    0.74
   2  -1 -12   27.25    1.34
   2  -1 -12   28.81    1.16
  -2   1  12   28.94    1.12
   2  -1 -11  307.40   10.81
   2  -1 -11  329.89   10.14
  -2   1  11  318.83   10.33
   2  -1 -10   73.38    2.05
   2  -1 -10   71.34    2.47
  -2   1  10   74.91    2.40
   2  -1  -9  233.62    6.37
   2  -1  -9  240.89    7.17
  -2   1   9  239.43    6.45
   2  -1  -8   46.62    1.33
   2  -1  -8   45.81    1.13
  -2   1   8   47.00    1.13
   2  -1  -7  184.95    4.27
   2  -1  -7  189.33    4.43
  -2   1   7  187.26    4.24
   2  -1  -6  118.89    2.49
   2  -1  -6  114.81    2.39
  -2   1   6  114.89    2.50
   2  -1  -5  621.51   15.88
   2  -1  -5  630.83   15.39
  -2   1   5  629.04   15.06
   2  -1  -4   38.45    0.57
   2  -1  -4   37.81    0.73
  -2   1   4   36.94    0.73
   2  -1  -3    2.75    0.11
   2  -1  -3    3.00    0.18
  -2   1   3    3.31    0.18
   2  -1  -2  944.59   23.11
   2  -1  -2  951.15   18.13
  -2   1   2  954.35   22.83
   2  -1  -1  513.28   10.60
   2  -1  -1  520.63    8.10
  -2   1   1  554.27   11.46
   2  -1   0  982.58   21.87
   2  -1   0  959.62   18.05
   2  -1   0  971.27   25.26
   2  -1   1  100.51    1.42
   2  -1   1  106.20    1.91
   2  -1   1  104.54    1.31
   2  -1   2   17.65    0.27
   2  -1   2   18.66    0.44
  -2   1  -2   18.41    0.30
   2  -1   3    8.65    0.17
   2  -1   3    9.43    0.34
  -2   1  -3    8.87    0.23
   2  -1   4  193.62    2.55
   2  -1   4  193.35    4.61
  -2   1  -4  197.16    3.71
   2  -1   5    2.84    0.28
  -2   1  -5    2.35    0.21
   2  -1   6   93.64    2.49
  -2   1  -6   90.55    2.03
   2  -1   7  384.32   12.32
  -2   1  -7  378.31   10.28
   2  -1   8    1.96    0.38
  -2   1  -8    2.29    0.31
   2  -1   9    3.31    0.40
  -2   1  -9    0.89    0.39
   2  -1  10   55.64    2.18
  -2   1 -10   55.67    2.07
   2  -1  11   70.69    3.04
  -2   1 -11   71.11    2.67
   2  -1  12   72.47    3.45
  -2   1 -12   76.52    2.98
   2  -1  13    3.16    0.70
  -2   1 -13    3.08    0.72
   2  -1  14    0.68    0.52
  -2   1 -14   -0.24    0.47
   2  -1  15    4.70    0.83
  -2   1 -15    4.24    0.75
   2  -1  16   11.12    1.24
  -2   1 -16   10.28    1.19
   2  -1  17    0.81    0.75
  -2   1 -17   -0.14    0.55
   2   0 -17   70.89    3.75
  -2   0  17   73.85    3.81
   2   0 -16    8.64    1.02
  -2   0  16    6.86    0.67
   2   0 -15   28.49    1.55
  -2   0  15   25.82    1.17
  -2   0  15   28.57    1.50
   2   0 -14    0.76    0.40
  -2   0  14    0.61    0.40
  -2   0  14   -0.21    0.32
   2   0 -13    1.88    0.42
  -2   0  13    0.78    0.43
  -2   0  13    1.33    0.36
   2   0 -12   22.78    1.06
  -2   0  12   23.76    1.03
  -2   0  12   18.71    0.81
   2   0 -11   29.18    1.36
   2   0 -11   29.16    0.98
  -2   0  11   27.45    0.94
   2   0 -10   78.13    2.55
   2   0 -10   82.84    2.23
  -2   0  10   78.73    2.11
   2   0  -9   31.03    1.09
   2   0  -9   31.99    1.08
  -2   0   9   32.33    0.84
   2   0  -8  292.48    7.61
   2   0  -8  299.58    9.00
  -2   0   8  288.53    6.81
   2   0  -7    0.72    0.19
   2   0  -7    0.20    0.24
  -2   0   7    0.81    0.17
   2   0  -6    2.14    0.27
   2   0  -6    2.85    0.22
  -2   0   6    3.14    0.16
   2   0  -5  297.86    6.67
   2   0  -5  306.36    6.62
  -2   0   5  309.95    5.71
   2   0  -4  247.15    4.71
   2   0  -4  259.51    5.49
  -2   0   4  253.21    4.17
   2   0  -3  261.17    4.53
   2   0  -3  246.53    4.82
  -2   0   3  263.31    4.13
   2   0  -2   22.14    0.35
   2   0  -2   21.79    0.43
  -2   0   2   22.23    0.32
   2   0  -1  117.16    1.73
   2   0  -1  115.11    2.02
   2   0  -1  116.79    1.72
   2   0   0   25.69    0.43
   2   0   0   23.73    0.36
   2   0   0   25.38    0.48
   2   0   1   35.84    0.53
   2   0   1   34.39    0.49
   2   0   1   34.13    0.62
   2   0   2  259.90    4.13
   2   0   2  254.81    4.47
   2   0   2  254.02    5.41
   2   0   3  265.93    3.99
   2   0   3  272.34    6.38
  -2   0  -3  262.53    5.06
   2   0   4 1272.35   25.51
   2   0   4 1259.71   43.74
  -2   0  -4 1252.84   37.33
   2   0   5  168.49    4.25
  -2   0  -5  164.42    3.43
   2   0   6   16.34    0.72
  -2   0  -6   15.73    0.49
   2   0   7   36.71    1.26
  -2   0  -7   38.88    1.07
   2   0   8   56.15    1.96
  -2   0  -8   58.08    1.72
   2   0   9   70.92    2.89
  -2   0  -9   71.42    2.30
   2   0  10    3.16    0.52
  -2   0 -10    4.18    0.47
   2   0  11  107.34    4.41
  -2   0 -11  114.73    4.21
   2   0  12   71.92    3.40
  -2   0 -12   73.30    3.08
   2   0  13   97.30    4.71
  -2   0 -13   93.92    4.18
   2   0  14   12.83    1.28
  -2   0 -14   12.82    1.09
   2   0  15    0.45    0.68
  -2   0 -15   -0.06    0.50
   2   0  16   47.76    3.71
  -2   0 -16   43.31    2.76
   2   1 -17    0.66    0.54
  -2  -1  17    0.45    0.40
   2   1 -16   13.97    1.09
  -2  -1  16   10.38    0.76
  -2  -1  16   13.52    0.82
   2   1 -15   11.56    0.99
  -2  -1  15   12.19    0.77
  -2  -1  15   11.85    0.91
   2   1 -14   21.58    1.34
  -2  -1  14   21.05    0.86
  -2  -1  14   19.37    0.87
   2   1 -13  136.76    5.29
  -2  -1  13  133.38    4.53
  -2  -1  13  125.49    3.87
   2   1 -12   80.50    3.08
  -2  -1  12   77.95    2.36
  -2  -1  12   83.58    2.58
   2   1 -11  171.30    5.75
  -2  -1  11  157.81    4.81
  -2  -1  11  173.64    4.90
   2   1 -10   37.35    1.37
  -2  -1  10   32.03    1.07
  -2  -1  10   37.25    0.92
   2   1  -9   13.06    0.62
  -2  -1   9   11.28    0.53
  -2  -1   9   13.49    0.48
   2   1  -8  162.58    4.39
  -2  -1   8  158.17    4.16
  -2  -1   8  161.21    3.17
   2   1  -7  198.93    4.81
   2   1  -7  202.32    5.21
  -2  -1   7  196.33    3.66
   2   1  -6   38.97    0.93
   2   1  -6   36.70    0.92
  -2  -1   6   38.61    0.61
   2   1  -5   35.64    0.94
   2   1  -5   36.46    0.98
  -2  -1   5   36.02    0.54
   2   1  -4   89.38    1.79
   2   1  -4   94.57    1.93
  -2  -1   4   90.28    1.07
   2   1  -3  129.33    2.30
   2   1  -3  132.59    2.61
  -2  -1   3  127.70    1.54
   2   1  -2  134.89    2.32
   2   1  -2  145.86    2.73
  -2  -1   2  140.76    1.77
   2   1  -1   43.03    0.58
   2   1  -1   42.53    0.76
   2   1  -1   41.26    0.78
   2   1   0    3.38    0.17
   2   1   0    3.78    0.13
  -2  -1   0    3.67    0.17
   2   1   1  172.28    2.97
   2   1   1  166.66    2.84
  -2  -1  -1  164.70    2.76
   2   1   2    4.08    0.20
   2   1   2    4.23    0.23
  -2  -1  -2    4.07    0.14
   2   1   3   42.73    0.81
   2   1   3   43.17    0.89
  -2  -1  -3   40.83    0.60
   2   1   4  291.00    7.29
  -2  -1  -4  293.67    6.34
  -2  -1  -4  279.34    4.42
   2   1   5   98.30    2.37
  -2  -1  -5   90.70    1.12
  -2  -1  -5   98.94    2.09
   2   1   6   35.39    1.10
  -2  -1  -6   35.46    0.94
   2   1   7   34.47    1.20
  -2  -1  -7   35.95    1.08
   2   1   8  140.47    4.57
  -2  -1  -8  144.26    4.20
   2   1   9   46.34    1.83
  -2  -1  -9   47.71    1.65
   2   1  10   78.48    3.19
  -2  -1 -10   79.18    2.90
   2   1  11    0.32    0.57
  -2  -1 -11    1.07    0.36
   2   1  12   -0.19    0.48
  -2  -1 -12   -0.77    0.51
   2   1  13   41.49    2.52
  -2  -1 -13   45.60    2.18
   2   1  14    1.32    0.62
  -2  -1 -14    0.83    0.52
   2   1  15    3.17    0.99
  -2  -1 -15    2.91    0.68
   2   1  16    5.88    0.97
  -2  -1 -16    3.88    0.86
   2   2 -17    9.79    1.30
   2   2 -16    6.58    0.75
  -2  -2  16    4.83    0.51
  -2  -2  16    5.11    0.61
   2   2 -15   22.71    1.44
  -2  -2  15   23.65    1.16
  -2  -2  15   20.51    1.10
   2   2 -14   42.95    2.53
  -2  -2  14   44.12    1.54
  -2  -2  14   42.53    1.59
   2   2 -13    0.03    0.42
  -2  -2  13    0.85    0.30
  -2  -2  13    0.91    0.30
   2   2 -12    0.17    0.37
  -2  -2  12   -0.08    0.26
  -2  -2  12    0.47    0.25
   2   2 -11   34.67    1.43
  -2  -2  11   35.22    1.33
  -2  -2  11   31.35    0.81
   2   2 -10  191.63    6.34
  -2  -2  10  194.88    5.57
  -2  -2  10  178.46    4.25
   2   2  -9    8.82    0.60
  -2  -2   9    9.82    0.34
  -2  -2   9    9.92    0.52
   2   2  -8    1.09    0.31
  -2  -2   8    1.33    0.25
  -2  -2   8    1.03    0.15
   2   2  -7  144.49    4.02
  -2  -2   7  146.64    3.60
  -2  -2   7  137.93    2.21
   2   2  -6   92.80    2.26
  -2  -2   6   93.90    2.43
  -2  -2   6   87.27    1.18
   2   2  -5  281.38    6.80
  -2  -2   5  286.19    7.05
  -2  -2   5  273.23    3.45
   2   2  -4   58.25    1.30
  -2  -2   4   57.24    1.30
   2   2  -3  435.35   10.31
  -2  -2   3  454.06   11.43
   2   2  -2  468.59   10.96
  -2  -2   2  476.25   11.69
   2   2  -1    1.11    0.18
   2   2  -1    1.56    0.09
  -2  -2   1    1.69    0.17
   2   2   0  101.09    1.91
   2   2   0  105.72    1.63
  -2  -2   0   99.74    1.91
   2   2   1  115.43    2.23
   2   2   1  118.30    2.04
  -2  -2  -1  120.36    2.26
   2   2   2  871.59   23.42
   2   2   2  872.67   23.56
  -2  -2  -2  902.54   22.86
   2   2   3  261.59    5.87
   2   2   3  261.04    6.17
  -2  -2  -3  258.33    4.94
   2   2   4  191.13    4.50
   2   2   4  192.24    4.27
  -2  -2  -4  185.58    3.29
   2   2   5  332.35    9.57
  -2  -2  -5  340.27    8.89
  -2  -2  -5  331.44    6.17
   2   2   6   61.01    1.81
  -2  -2  -6   61.14    1.64
   2   2   7  121.30    3.89
  -2  -2  -7  120.72    3.11
   2   2   8   26.49    1.18
  -2  -2  -8   26.58    0.96
   2   2   9    1.60    0.43
  -2  -2  -9    1.22    0.36
   2   2  10   73.11    3.62
  -2  -2 -10   75.00    2.72
   2   2  11   19.07    1.33
  -2  -2 -11   19.83    1.12
   2   2  12    0.61    0.48
  -2  -2 -12    0.09    0.41
   2   2  13    1.14    0.60
  -2  -2 -13    1.39    0.62
   2   2  14   76.11    4.30
  -2  -2 -14   73.75    3.70
   2   2  15    9.57    1.24
  -2  -2 -15    9.56    1.06
   2   2  16   16.19    1.65
  -2  -2 -16   16.27    1.42
   2   3 -17   12.66    1.47
   2   3 -16   -0.35    0.68
  -2  -3  16    0.95    0.35
   2   3 -15    0.02    0.60
  -2  -3  15    0.63    0.34
   2   3 -14    5.49    0.73
  -2  -3  14    7.31    0.56
  -2  -3  14    4.54    0.45
   2   3 -13   39.91    1.94
  -2  -3  13   34.88    1.18
  -2  -3  13   43.24    1.59
   2   3 -12    4.20    0.51
  -2  -3  12    2.80    0.43
  -2  -3  12    2.21    0.28
   2   3 -11    2.29    0.50
  -2  -3  11    4.38    0.54
  -2  -3  11    2.83    0.25
   2   3 -10  131.07    4.42
  -2  -3  10  131.13    3.86
  -2  -3  10  113.15    2.52
   2   3  -9   88.83    2.93
  -2  -3   9   96.00    3.26
   2   3  -8   96.26    3.05
  -2  -3   8  102.56    2.95
   2   3  -7    2.83    0.32
  -2  -3   7    1.24    0.30
   2   3  -6    7.39    0.41
  -2  -3   6    7.07    0.43
   2   3  -5    2.47    0.28
  -2  -3   5    2.18    0.29
   2   3  -4  130.80    3.11
  -2  -3   4  127.32    3.17
   2   3  -3   91.52    2.12
  -2  -3   3   99.72    2.48
   2   3  -2   89.15    1.98
  -2  -3   2   97.06    2.31
   2   3  -1 1413.21   46.56
   2   3  -1 1424.40   32.81
  -2  -3   1 1465.06   52.63
   2   3   0    6.18    0.29
   2   3   0    6.02    0.18
  -2  -3   0    6.90    0.31
   2   3   1    7.56    0.32
   2   3   1    7.80    0.25
  -2  -3  -1    7.82    0.31
   2   3   2  270.63    5.81
   2   3   2  270.61    6.32
  -2  -3  -2  272.35    6.13
   2   3   3   13.91    0.42
   2   3   3   13.99    0.50
  -2  -3  -3   13.72    0.38
   2   3   4   56.60    1.40
   2   3   4   57.77    1.65
  -2  -3  -4   58.81    1.17
   2   3   5    9.16    0.47
   2   3   5    8.74    0.46
  -2  -3  -5    9.30    0.28
   2   3   6   42.57    1.40
  -2  -3  -6   42.27    0.76
  -2  -3  -6   42.50    1.28
   2   3   7   69.81    2.32
  -2  -3  -7   70.85    2.06
   2   3   8  102.58    3.47
  -2  -3  -8   99.72    3.12
   2   3   9   18.74    1.01
  -2  -3  -9   17.63    0.92
   2   3  10   31.25    1.85
  -2  -3 -10   31.08    1.46
   2   3  11  103.11    5.27
  -2  -3 -11  109.13    4.90
   2   3  12    5.30    0.93
  -2  -3 -12    4.26    0.65
   2   3  13   13.45    1.55
  -2  -3 -13   13.92    1.03
   2   3  14    4.20    0.85
  -2  -3 -14    3.43    0.75
   2   3  15    4.73    0.99
  -2  -3 -15    5.26    0.86
   2   4 -17   20.70    1.64
   2   4 -16   42.12    2.55
  -2  -4  16   38.43    1.92
   2   4 -15    0.69    0.58
  -2  -4  15    0.89    0.39
   2   4 -14   11.79    1.30
  -2  -4  14   12.79    0.98
   2   4 -13   13.01    1.08
  -2  -4  13   13.86    0.86
   2   4 -12   14.38    1.38
  -2  -4  12   16.61    0.94
   2   4 -11   24.05    1.33
  -2  -4  11   26.47    1.26
   2   4 -10    0.40    0.37
  -2  -4  10    1.17    0.37
   2   4  -9   29.44    1.41
  -2  -4   9   32.85    1.36
   2   4  -8   71.89    2.50
  -2  -4   8   78.83    2.54
   2   4  -7   64.73    2.09
  -2  -4   7   74.58    2.27
   2   4  -6   28.17    1.07
  -2  -4   6   31.02    1.18
   2   4  -5   98.02    2.83
  -2  -4   5  104.15    3.46
   2   4  -4  647.68   21.47
  -2  -4   4  696.44   24.05
   2   4  -3    3.59    0.33
  -2  -4   3    4.42    0.37
   2   4  -2  247.70    6.29
  -2  -4   2  264.51    7.26
   2   4  -1    5.46    0.33
   2   4  -1    4.92    0.12
  -2  -4   1    5.50    0.36
   2   4   0  159.08    3.71
   2   4   0  147.26    2.58
  -2  -4   0  160.40    3.89
   2   4   1   23.60    0.80
   2   4   1   22.52    0.46
  -2  -4  -1   26.33    0.71
   2   4   2   43.40    1.01
   2   4   2   43.21    1.20
  -2  -4  -2   46.13    1.29
   2   4   3  126.16    3.40
   2   4   3  127.33    3.14
  -2  -4  -3  125.25    2.90
   2   4   4   59.21    1.61
   2   4   4   59.80    1.60
  -2  -4  -4   58.44    1.36
   2   4   5  101.97    2.81
   2   4   5   98.85    2.86
  -2  -4  -5   98.83    2.13
   2   4   6    3.83    0.39
  -2  -4  -6    3.51    0.22
  -2  -4  -6    2.94    0.39
   2   4   7   11.05    0.70
  -2  -4  -7   12.19    0.67
   2   4   8  111.58    4.32
  -2  -4  -8  104.12    3.77
   2   4   9   17.23    1.03
  -2  -4  -9   15.45    0.88
   2   4  10    1.12    0.42
  -2  -4 -10   -0.49    0.37
   2   4  11    4.04    0.68
  -2  -4 -11    3.33    0.56
   2   4  12  141.56    7.86
  -2  -4 -12  146.30    6.24
   2   4  13   49.15    2.85
  -2  -4 -13   46.23    2.48
   2   4  14    3.19    0.77
  -2  -4 -14    2.57    0.65
   2   5 -17    0.11    0.59
   2   5 -16    0.88    0.58
  -2  -5  16    0.69    0.53
   2   5 -15    5.42    0.99
  -2  -5  15    5.67    0.67
   2   5 -14    2.80    0.67
  -2  -5  14    2.52    0.65
   2   5 -13   13.07    1.13
  -2  -5  13   12.81    1.15
   2   5 -12   67.03    3.72
  -2  -5  12   72.27    3.47
   2   5 -11  102.12    4.47
  -2  -5  11  111.58    4.34
   2   5 -10   30.82    1.57
  -2  -5  10   33.21    1.61
   2   5  -9   76.96    3.02
  -2  -5   9   82.26    3.18
   2   5  -8   18.46    0.96
  -2  -5   8   20.81    1.11
   2   5  -7   35.29    1.72
  -2  -5   7   39.67    1.62
   2   5  -6    4.96    0.48
  -2  -5   6    5.76    0.55
   2   5  -5   12.19    0.68
  -2  -5   5   13.45    0.76
   2   5  -4  172.37    5.63
  -2  -5   4  182.31    5.91
   2   5  -3  467.93   15.00
  -2  -5   3  504.76   17.32
   2   5  -2   20.24    0.89
  -2  -5   2   19.47    0.83
   2   5  -1    5.69    0.42
  -2  -5   1    5.93    0.44
   2   5   0   46.22    1.31
   2   5   0   45.17    0.83
  -2  -5   0   48.65    1.66
   2   5   1   13.35    0.54
   2   5   1   13.14    0.41
  -2  -5  -1   15.11    0.62
   2   5   2  117.51    3.16
   2   5   2  115.52    2.82
  -2  -5  -2  121.47    3.43
   2   5   3    1.67    0.29
   2   5   3    1.73    0.27
  -2  -5  -3    1.92    0.25
   2   5   4   24.63    0.89
   2   5   4   22.65    0.74
  -2  -5  -4   23.17    0.66
   2   5   5  106.62    3.25
   2   5   5  105.53    3.22
  -2  -5  -5  105.77    2.65
   2   5   6   22.55    1.00
  -2  -5  -6   22.05    0.67
  -2  -5  -6   22.14    0.91
   2   5   7   -0.46    0.41
  -2  -5  -7    0.22    0.16
  -2  -5  -7   -0.01    0.39
   2   5   8    4.90    0.69
  -2  -5  -8    7.62    0.57
   2   5   9   62.57    2.77
  -2  -5  -9   58.76    2.29
   2   5  10   57.89    3.37
  -2  -5 -10   55.41    2.36
   2   5  11   18.36    1.44
  -2  -5 -11   20.28    1.27
   2   5  12   16.48    1.42
  -2  -5 -12   15.88    1.23
   2   5  13    1.41    0.57
  -2  -5 -13   -0.25    0.51
   2   5  14    3.22    0.76
  -2  -5 -14    1.40    0.62
   2   6 -16    5.43    1.02
  -2  -6  16    3.63    0.65
   2   6 -15    9.90    1.18
  -2  -6  15   10.18    1.15
   2   6 -14    1.81    0.72
  -2  -6  14    4.60    0.77
   2   6 -13    8.83    1.00
  -2  -6  13   10.90    1.10
   2   6 -12    8.82    0.96
  -2  -6  12   10.79    0.91
   2   6 -11    3.49    0.65
  -2  -6  11    3.64    0.64
   2   6 -10    7.53    0.76
  -2  -6  10    9.47    0.85
   2   6  -9   26.44    1.62
  -2  -6   9   29.06    1.53
   2   6  -8    6.87    0.73
  -2  -6   8    9.99    0.76
   2   6  -7   71.47    3.24
  -2  -6   7   73.37    2.97
   2   6  -6  188.03    6.74
  -2  -6   6  203.02    7.38
   2   6  -5   16.03    0.84
  -2  -6   5   17.79    0.98
   2   6  -4   11.71    0.66
  -2  -6   4   11.23    0.80
   2   6  -3   16.28    0.74
  -2  -6   3   16.87    0.93
   2   6  -2   66.57    2.09
  -2  -6   2   73.14    2.61
   2   6  -1   82.08    2.17
   2   6  -1   76.63    1.29
  -2  -6   1   92.41    2.88
   2   6   0   -0.22    0.27
   2   6   0   -0.16    0.13
  -2  -6   0    0.06    0.29
   2   6   1   18.22    0.72
   2   6   1   16.28    0.50
  -2  -6  -1   18.71    0.82
   2   6   2   52.04    1.58
   2   6   2   47.64    1.16
  -2  -6  -2   50.10    1.53
   2   6   3    5.38    0.43
   2   6   3    5.65    0.34
  -2  -6  -3    5.38    0.48
   2   6   4   20.53    0.84
   2   6   4   19.76    0.82
  -2  -6  -4   19.75    0.69
   2   6   5   47.00    1.75
   2   6   5   47.11    1.60
  -2  -6  -5   49.62    1.52
   2   6   6  171.48    5.81
  -2  -6  -6  173.23    4.64
   2   6   7   35.37    1.43
  -2  -6  -7   31.09    0.90
  -2  -6  -7   35.92    1.64
   2   6   8   18.63    1.17
  -2  -6  -8   18.69    1.04
   2   6   9   44.65    2.31
  -2  -6  -9   41.33    1.83
   2   6  10   36.36    2.06
  -2  -6 -10   32.16    1.72
   2   6  11   22.71    1.98
  -2  -6 -11   21.83    1.33
   2   6  12    0.58    0.56
  -2  -6 -12    0.71    0.49
   2   6  13    0.47    0.59
  -2  -6 -13    0.15    0.49
   2   7 -15    4.41    0.97
  -2  -7  15    6.82    0.86
   2   7 -14    4.15    0.87
  -2  -7  14    4.57    0.76
   2   7 -13    8.28    0.95
  -2  -7  13    8.30    0.99
   2   7 -12    7.49    0.91
  -2  -7  12   10.72    1.14
   2   7 -11    2.48    0.60
  -2  -7  11    2.96    0.65
   2   7 -10    2.18    0.61
  -2  -7  10    3.05    0.63
   2   7  -9   86.29    4.30
  -2  -7   9   97.35    4.28
   2   7  -8   17.14    1.12
  -2  -7   8   17.28    1.20
   2   7  -7    0.84    0.51
  -2  -7   7    1.47    0.50
   2   7  -6    2.18    0.44
  -2  -7   6    2.53    0.55
   2   7  -5    8.87    0.70
  -2  -7   5   11.61    0.88
   2   7  -4   31.09    1.26
  -2  -7   4   34.48    1.61
   2   7  -3    1.10    0.39
  -2  -7   3    2.73    0.49
   2   7  -2   80.80    3.10
  -2  -7   2   83.62    3.15
   2   7  -1   40.77    1.72
  -2  -7   1   44.54    1.82
   2   7   0   38.49    1.32
   2   7   0   32.39    0.81
  -2  -7   0   38.56    1.46
   2   7   1    2.07    0.33
   2   7   1    1.34    0.22
  -2  -7  -1    2.17    0.37
   2   7   2    3.71    0.45
   2   7   2    4.11    0.34
  -2  -7  -2    4.90    0.43
   2   7   3   49.57    1.73
   2   7   3   48.09    1.59
  -2  -7  -3   48.32    1.85
   2   7   4    5.53    0.44
   2   7   4    5.85    0.55
  -2  -7  -4    6.40    0.43
   2   7   5   13.55    0.71
   2   7   5   13.76    0.79
  -2  -7  -5   12.19    0.60
   2   7   6   22.47    1.08
  -2  -7  -6   22.06    0.86
   2   7   7    3.88    0.50
  -2  -7  -7    2.85    0.50
   2   7   8   19.75    1.29
  -2  -7  -8   19.98    1.14
   2   7   9    7.16    0.85
  -2  -7  -9    8.08    0.86
   2   7  10   12.68    1.32
  -2  -7 -10   10.51    0.90
   2   7  11    4.13    0.78
  -2  -7 -11    4.02    0.68
   2   8 -14   -0.16    0.74
  -2  -8  14   -1.30    0.62
   2   8 -13    7.03    0.95
  -2  -8  13    7.74    1.27
   2   8 -12   16.73    1.44
  -2  -8  12   23.96    1.72
   2   8 -11   -0.15    0.48
  -2  -8  11    0.45    0.57
   2   8 -10    3.47    0.67
  -2  -8  10    3.29    0.73
   2   8  -9   19.40    1.72
  -2  -8   9   22.30    1.60
   2   8  -8   10.00    0.88
  -2  -8   8   10.25    1.13
   2   8  -7    4.95    0.68
  -2  -8   7    5.91    0.85
   2   8  -6    0.80    0.39
  -2  -8   6    0.71    0.54
   2   8  -5   69.27    2.87
  -2  -8   5   79.96    3.62
   2   8  -4   81.78    3.21
  -2  -8   4   94.28    3.98
   2   8  -3   54.42    2.17
  -2  -8   3   61.68    2.68
   2   8  -2   -0.42    0.32
  -2  -8   2   -0.42    0.39
   2   8  -1    0.47    0.36
  -2  -8   1    0.99    0.40
   2   8   0   26.53    1.36
  -2  -8   0   26.83    1.31
   2   8   1    0.45    0.23
   2   8   1    0.41    0.34
  -2  -8  -1    1.22    0.37
   2   8   2    1.92    0.41
   2   8   2    2.13    0.33
  -2  -8  -2    1.93    0.38
   2   8   3   37.88    1.59
   2   8   3   39.95    1.35
  -2  -8  -3   40.79    1.82
   2   8   4  119.76    4.43
   2   8   4  117.11    4.33
  -2  -8  -4  121.09    4.61
   2   8   5   68.60    2.70
   2   8   5   69.34    2.82
  -2  -8  -5   67.14    2.35
   2   8   6   10.80    0.91
  -2  -8  -6   10.84    0.56
   2   8   7   25.50    1.56
  -2  -8  -7   25.28    1.32
   2   8   8    0.63    0.42
  -2  -8  -8    0.30    0.41
   2   8   9   16.95    1.30
  -2  -8  -9   16.50    1.16
   2   8  10    0.37    0.54
  -2  -8 -10   -0.03    0.41
   2   9 -13    2.34    0.83
  -2  -9  13    1.33    0.70
   2   9 -12    6.43    0.96
  -2  -9  12    6.66    1.29
   2   9 -11    2.11    0.61
  -2  -9  11    1.87    0.75
   2   9 -10    0.61    0.52
  -2  -9  10   -0.10    0.58
   2   9  -9    0.18    0.53
  -2  -9   9   -0.31    0.66
   2   9  -8    6.18    0.80
  -2  -9   8    9.80    0.98
   2   9  -7    6.68    0.74
  -2  -9   7    6.72    0.99
   2   9  -6    2.06    0.53
  -2  -9   6    3.99    0.85
   2   9  -5   10.08    0.82
  -2  -9   5    9.07    0.98
   2   9  -4   20.45    1.20
  -2  -9   4   22.43    1.46
   2   9  -3   25.51    1.25
  -2  -9   3   29.22    1.59
   2   9  -2    6.59    0.62
  -2  -9   2    9.13    0.94
   2   9  -1    3.41    0.49
  -2  -9   1    3.28    0.56
   2   9   0    5.25    0.58
  -2  -9   0    6.97    0.66
   2   9   1   35.49    1.57
  -2  -9  -1   35.84    1.68
   2   9   2    1.78    0.39
  -2  -9  -2    1.00    0.43
   2   9   3    1.47    0.41
   2   9   3    1.03    0.29
  -2  -9  -3    2.26    0.41
   2   9   4   24.44    1.32
   2   9   4   22.97    1.18
  -2  -9  -4   24.56    1.16
   2   9   5    2.43    0.51
   2   9   5    3.61    0.55
  -2  -9  -5    3.23    0.41
   2   9   6   14.52    1.07
  -2  -9  -6   14.00    0.94
   2   9   7    9.56    0.82
  -2  -9  -7    9.93    0.95
   2   9   8   11.01    0.97
  -2  -9  -8   11.43    0.91
   2  10 -11    0.83    0.62
  -2 -10  11    0.86    0.66
   2  10 -10    9.06    1.05
  -2 -10  10    9.29    1.41
   2  10  -9   18.88    1.40
  -2 -10   9   19.17    1.70
   2  10  -8    0.98    0.51
  -2 -10   8    1.90    0.70
   2  10  -7    7.77    0.85
  -2 -10   7    8.75    1.07
   2  10  -6   10.86    0.99
  -2 -10   6   11.91    1.21
   2  10  -5   17.64    1.23
  -2 -10   5   23.44    1.55
   2  10  -4    0.23    0.40
  -2 -10   4    0.41    0.51
   2  10  -3    2.76    0.52
  -2 -10   3    2.98    0.65
   2  10  -2   12.87    0.95
  -2 -10   2   15.12    1.15
   2  10  -1    0.36    0.38
  -2 -10   1    0.58    0.45
   2  10   0   12.50    0.87
  -2 -10   0   13.15    0.98
   2  10   1    7.27    0.70
  -2 -10  -1    7.96    0.73
   2  10   2   12.59    1.08
  -2 -10  -2   13.44    1.15
   2  10   3   12.09    0.87
  -2 -10  -3   12.10    1.05
   2  10   4   -0.05    0.38
  -2 -10  -4   -0.35    0.34
   2  10   5   19.73    1.18
  -2 -10  -5   17.78    0.99
  -2 -10  -6    6.39    0.83
   2  11  -8    1.23    0.56
  -2 -11   8    1.10    0.71
   2  11  -7    0.84    0.64
  -2 -11   7    1.04    0.66
   2  11  -6    3.06    0.59
  -2 -11   6    1.00    0.75
   2  11  -5    9.77    0.96
  -2 -11   5   12.27    1.17
   2  11  -4    1.05    0.42
  -2 -11   4   -0.24    0.56
   2  11  -3    2.74    0.58
  -2 -11   3    2.69    0.67
   2  11  -2    1.39    0.41
  -2 -11   2    0.75    0.57
   2  11  -1   12.06    1.07
  -2 -11   1   14.50    1.18
   2  11   0    5.88    0.73
  -2 -11   0    4.58    0.75
   2  11   1    0.90    0.44
  -2 -11  -1   -0.51    0.42
   2  11   2    6.34    0.80
  -2 -11  -2    6.27    0.73
   3 -12  -2    0.40    0.54
  -3  12   2    0.64    0.60
   3 -12  -1    4.83    0.90
  -3  12   1    5.49    0.92
   3 -12   0   22.65    1.62
  -3  12   0   19.59    1.76
   3 -12   1    3.37    0.74
  -3  12  -1    2.27    0.74
   3 -12   2    0.28    0.52
  -3  12  -2   -0.71    0.53
   3 -12   3    4.35    0.84
  -3  12  -3    5.48    0.85
   3 -12   4    3.99    0.75
  -3  12  -4    3.66    0.77
   3 -12   5   10.91    1.06
  -3  12  -5   10.61    0.96
   3 -12   6    7.58    1.00
  -3  12  -6    9.20    0.86
   3 -11  -6    5.92    0.84
  -3  11   6    5.22    0.88
   3 -11  -5    2.24    0.60
  -3  11   5    1.65    0.62
   3 -11  -4    4.72    0.69
  -3  11   4    3.12    0.75
   3 -11  -3   66.09    3.18
  -3  11   3   62.69    3.78
   3 -11  -2    0.82    0.48
  -3  11   2    0.53    0.49
   3 -11  -1    0.71    0.50
  -3  11   1    0.88    0.47
   3 -11   0   40.96    2.67
  -3  11   0   40.97    2.14
   3 -11   1    6.21    0.77
  -3  11  -1    3.73    0.68
   3 -11   2   16.63    1.37
  -3  11  -2   17.63    1.17
   3 -11   3    0.28    0.45
  -3  11  -3    0.07    0.40
   3 -11   4    8.76    0.93
  -3  11  -4    7.61    0.83
   3 -11   5    2.20    0.72
  -3  11  -5    2.17    0.53
   3 -11   6    4.84    0.72
  -3  11  -6    4.09    0.63
   3 -11   7    0.21    0.53
  -3  11  -7   -0.07    0.40
   3 -11   8   -0.08    0.44
  -3  11  -8   -0.10    0.52
   3 -11   9   20.84    1.33
  -3  11  -9   23.06    1.40
   3 -10  -8   54.85    3.22
  -3  10   8   56.81    3.78
   3 -10  -7   23.31    1.53
  -3  10   7   21.73    1.68
   3 -10  -6   65.02    3.16
  -3  10   6   63.40    3.33
   3 -10  -5    1.66    0.48
  -3  10   5    0.91    0.66
   3 -10  -4    0.57    0.55
  -3  10   4    0.03    0.46
   3 -10  -3   54.99    2.64
  -3  10   3   55.31    3.06
   3 -10  -2   19.65    1.30
  -3  10   2   18.54    1.19
   3 -10  -1    3.90    0.62
  -3  10   1    4.32    0.64
   3 -10   0    1.54    0.47
  -3  10   0    1.50    0.50
   3 -10   1   22.16    1.30
  -3  10  -1   22.31    1.29
   3 -10   2    7.79    0.77
  -3  10  -2    7.78    0.76
   3 -10   3   12.42    1.14
  -3  10  -3   13.11    0.94
   3 -10   4   13.21    1.24
  -3  10  -4   13.55    0.93
   3 -10   5    1.76    0.66
  -3  10  -5    1.84    0.51
   3 -10   6   18.55    1.22
  -3  10  -6   20.10    1.19
   3 -10   7    9.75    0.95
  -3  10  -7    7.08    0.82
   3 -10   8    0.22    0.39
  -3  10  -8    0.74    0.45
   3 -10   9   11.63    0.90
  -3  10  -9   14.27    1.29
   3 -10  10   -0.16    0.37
  -3  10 -10   -0.23    0.44
  -3  10 -11    0.05    0.44
   3  -9 -10   16.07    1.14
  -3   9  10   18.83    1.51
   3  -9  -9   53.35    2.60
  -3   9   9   56.41    3.24
   3  -9  -8    1.66    0.48
  -3   9   8    1.30    0.60
   3  -9  -7    0.66    0.39
  -3   9   7   -0.70    0.46
   3  -9  -6   22.36    1.38
  -3   9   6   23.97    1.44
   3  -9  -5   58.41    2.72
  -3   9   5   55.84    2.70
   3  -9  -4    0.11    0.48
  -3   9   4    0.07    0.38
   3  -9  -3    0.37    0.41
  -3   9   3    0.97    0.42
   3  -9  -2   60.25    2.52
  -3   9   2   60.33    2.63
   3  -9  -1    2.61    0.51
  -3   9   1    3.01    0.52
   3  -9   0    6.26    0.61
  -3   9   0    6.00    0.67
   3  -9   1   18.17    1.08
  -3   9  -1   18.25    1.07
   3  -9   2   32.30    1.47
  -3   9  -2   30.32    1.48
   3  -9   3   69.00    2.78
  -3   9  -3   68.33    3.16
   3  -9   4    0.14    0.39
  -3   9  -4    0.82    0.40
   3  -9   5   13.97    0.93
  -3   9  -5   14.32    1.14
   3  -9   6   28.14    1.54
  -3   9  -6   25.45    1.38
   3  -9   7   21.47    1.15
  -3   9  -7   22.54    1.30
   3  -9   8    1.30    0.42
  -3   9  -8    1.88    0.61
   3  -9   9    0.36    0.37
  -3   9  -9    0.79    0.45
  -3   9  -9    1.26    0.37
   3  -9  10   21.70    1.05
  -3   9 -10   21.43    1.12
   3  -9  11    8.93    0.75
   3  -9  11   10.13    1.13
  -3   9 -11    8.26    0.87
   3  -9  12    8.93    0.96
  -3   9 -12    7.52    0.91
   3  -8 -11    1.03    0.45
  -3   8  11    1.91    0.62
   3  -8 -10   15.49    1.20
  -3   8  10   13.42    1.20
   3  -8  -9   28.04    1.65
  -3   8   9   27.56    1.76
   3  -8  -8   74.68    2.99
  -3   8   8   75.11    3.53
   3  -8  -7    6.64    0.64
  -3   8   7    5.84    0.74
   3  -8  -6    1.97    0.43
  -3   8   6    0.63    0.51
   3  -8  -5  113.77    4.78
  -3   8   5  108.10    4.35
   3  -8  -4   14.57    0.90
  -3   8   4   13.78    0.92
   3  -8  -3   48.09    1.86
  -3   8   3   40.56    1.90
   3  -8  -2    1.98    0.45
  -3   8   2    1.77    0.55
   3  -8  -1   16.71    0.91
  -3   8   1   18.09    1.03
   3  -8   0   11.27    0.75
  -3   8   0   10.97    0.76
   3  -8   1   -0.09    0.32
  -3   8  -1    0.36    0.34
   3  -8   2    3.39    0.57
  -3   8  -2    3.36    0.51
   3  -8   3   28.58    1.19
  -3   8  -3   27.51    1.32
   3  -8   4   59.14    2.12
  -3   8  -4   60.33    2.36
   3  -8   5   -0.35    0.29
  -3   8  -5    0.51    0.35
   3  -8   6   20.29    1.12
  -3   8  -6   19.73    1.11
  -3   8  -6   19.49    0.74
   3  -8   7   45.84    1.72
  -3   8  -7   47.50    1.68
  -3   8  -7   49.46    2.12
   3  -8   8    1.77    0.51
   3  -8   8    2.23    0.36
  -3   8  -8    1.45    0.32
   3  -8   9    5.17    0.45
   3  -8   9    4.91    0.69
  -3   8  -9    4.63    0.56
   3  -8  10    1.24    0.40
   3  -8  10    2.10    0.54
  -3   8 -10    1.68    0.37
   3  -8  11    4.66    0.47
   3  -8  11    4.75    0.73
  -3   8 -11    4.93    0.64
   3  -8  12    1.29    0.54
  -3   8 -12    1.39    0.43
   3  -8  13    1.60    0.60
  -3   8 -13    0.64    0.56
   3  -7 -13    5.24    0.61
  -3   7  13    6.14    0.87
   3  -7 -12   26.38    1.57
  -3   7  12   27.84    2.26
   3  -7 -11   67.56    2.74
  -3   7  11   68.98    3.44
   3  -7 -10    4.90    0.57
  -3   7  10    5.45    0.94
   3  -7  -9    0.73    0.36
  -3   7   9    0.31    0.42
   3  -7  -8  130.16    4.55
  -3   7   8  125.78    5.27
   3  -7  -7   65.17    2.35
  -3   7   7   60.07    2.62
   3  -7  -6    5.16    0.62
  -3   7   6    3.44    0.58
   3  -7  -5   24.90    1.09
  -3   7   5   22.24    1.16
   3  -7  -4   15.67    0.88
  -3   7   4   15.47    0.93
   3  -7  -3   25.15    1.07
  -3   7   3   22.96    1.20
   3  -7  -2    2.59    0.37
  -3   7   2    1.62    0.44
   3  -7  -1   61.09    2.06
  -3   7   1   57.18    2.19
   3  -7   0  253.41    8.10
  -3   7   0  239.25    8.56
   3  -7   1  708.74   25.95
  -3   7  -1  676.37   28.26
   3  -7   2    3.91    0.50
  -3   7  -2    2.32    0.48
   3  -7   3    2.04    0.34
  -3   7  -3    1.12    0.48
   3  -7   4    6.63    0.50
  -3   7  -4    7.43    0.61
   3  -7   5   21.03    0.80
  -3   7  -5   20.00    1.01
  -3   7  -5   20.17    0.67
   3  -7   6   95.89    3.45
   3  -7   6   91.85    3.02
  -3   7  -6   93.11    2.35
   3  -7   7    0.26    0.26
   3  -7   7    0.24    0.39
  -3   7  -7    0.55    0.27
   3  -7   8   64.56    2.72
   3  -7   8   58.26    1.78
  -3   7  -8   60.20    1.80
   3  -7   9    2.78    0.73
   3  -7   9    3.39    0.38
  -3   7  -9    3.26    0.38
   3  -7  10   13.69    0.58
   3  -7  10   16.56    1.17
  -3   7 -10   15.37    0.96
   3  -7  11    1.67    0.54
  -3   7 -11    1.20    0.40
   3  -7  12    2.08    0.58
  -3   7 -12    1.08    0.45
   3  -7  13   22.07    1.88
  -3   7 -13   21.26    1.54
   3  -7  14   -0.19    0.68
  -3   7 -14   -0.88    0.49
  -3   6  14   23.60    1.76
   3  -6 -13    0.97    0.39
  -3   6  13    0.95    0.61
   3  -6 -12    4.97    0.54
  -3   6  12    6.44    0.91
   3  -6 -11   55.11    2.53
  -3   6  11   55.86    2.82
   3  -6 -10   12.89    0.79
  -3   6  10   12.92    1.05
   3  -6  -9   -0.45    0.32
  -3   6   9    0.73    0.37
   3  -6  -8    4.79    0.50
  -3   6   8    4.36    0.58
   3  -6  -7   54.62    1.92
  -3   6   7   53.72    2.16
   3  -6  -6   26.99    1.08
  -3   6   6   24.15    1.44
   3  -6  -5   64.17    2.18
  -3   6   5   62.45    2.15
   3  -6  -4   49.23    1.86
  -3   6   4   47.54    1.75
   3  -6  -3   37.48    1.35
  -3   6   3   38.46    1.40
   3  -6  -2  118.54    3.59
  -3   6   2  114.04    3.72
   3  -6  -1   45.68    1.45
  -3   6   1   45.31    1.63
   3  -6   0   10.70    0.60
  -3   6   0   10.46    0.67
   3  -6   1   56.73    1.68
  -3   6  -1   56.88    1.95
   3  -6   2   48.77    1.63
  -3   6  -2   48.24    1.75
   3  -6   3    8.40    0.47
  -3   6  -3    7.78    0.28
  -3   6  -3    8.62    0.60
   3  -6   4   25.75    0.87
  -3   6  -4   25.25    1.13
  -3   6  -4   25.34    0.62
   3  -6   5  231.43    8.44
   3  -6   5  225.09    6.44
  -3   6  -5  236.01    5.92
   3  -6   6   23.90    0.74
   3  -6   6   24.79    1.17
  -3   6  -6   24.38    0.83
   3  -6   7    0.44    0.25
   3  -6   7    0.05    0.38
  -3   6  -7    0.58    0.27
   3  -6   8    5.77    0.68
   3  -6   8    5.59    0.39
  -3   6  -8    6.03    0.43
   3  -6   9    0.08    0.22
   3  -6   9    0.41    0.41
  -3   6  -9    0.10    0.27
   3  -6  10   54.10    2.55
   3  -6  10   42.90    1.29
  -3   6 -10   51.10    1.81
   3  -6  11    0.82    0.52
  -3   6 -11    0.84    0.48
   3  -6  12    0.79    0.56
  -3   6 -12   -0.32    0.37
   3  -6  13    5.13    0.80
  -3   6 -13    4.62    0.65
   3  -6  14   50.29    2.89
  -3   6 -14   46.63    2.75
   3  -6  15    0.13    0.58
  -3   6 -15    1.01    0.62
   3  -5 -14   32.67    1.52
  -3   5  14   37.48    2.17
   3  -5 -13   84.91    3.33
  -3   5  13   85.85    4.06
   3  -5 -12    1.51    0.47
  -3   5  12    1.00    0.51
   3  -5 -11   17.04    0.94
  -3   5  11   16.83    1.11
   3  -5 -10   95.40    3.40
  -3   5  10   95.87    3.93
   3  -5  -9   51.38    1.80
  -3   5   9   52.48    2.13
   3  -5  -8   76.82    2.49
  -3   5   8   76.56    2.74
   3  -5  -7   87.13    2.99
  -3   5   7   83.03    2.91
   3  -5  -6   14.49    0.69
  -3   5   6   13.39    0.73
   3  -5  -5  205.58    6.05
  -3   5   5  195.11    5.86
   3  -5  -4    9.10    0.50
  -3   5   4    8.29    0.55
   3  -5  -3   22.73    0.79
  -3   5   3   24.37    0.90
   3  -5  -2  178.09    4.92
  -3   5   2  178.11    5.18
   3  -5  -1  578.74   18.13
  -3   5   1  551.92   19.26
   3  -5   0   34.49    1.06
  -3   5   0   32.18    1.15
   3  -5   1   79.80    2.00
  -3   5  -1   79.80    2.46
   3  -5   2   33.04    0.87
  -3   5  -2   30.95    1.14
  -3   5  -2   29.88    0.45
   3  -5   3    7.55    0.39
  -3   5  -3    8.08    0.24
   3  -5   4   48.14    1.16
   3  -5   4   46.64    1.66
  -3   5  -4   47.12    1.02
   3  -5   5   55.87    1.98
   3  -5   5   52.51    1.28
  -3   5  -5   54.50    1.17
   3  -5   6    0.96    0.24
   3  -5   6    2.24    0.39
  -3   5  -6    1.17    0.20
   3  -5   7    2.25    0.26
   3  -5   7    1.88    0.46
  -3   5  -7    2.16    0.28
   3  -5   8   23.34    0.69
   3  -5   8   27.28    1.33
  -3   5  -8   25.99    1.05
   3  -5   9   16.38    0.53
   3  -5   9   19.84    1.17
  -3   5  -9   18.99    0.79
   3  -5  10   45.05    2.14
  -3   5 -10   42.49    1.61
   3  -5  11   46.85    2.79
  -3   5 -11   43.63    1.76
   3  -5  12    1.55    0.60
  -3   5 -12    1.96    0.46
   3  -5  13    0.49    0.51
  -3   5 -13    0.43    0.44
   3  -5  14    8.61    1.26
  -3   5 -14    8.02    0.84
   3  -5  15   -0.74    0.54
  -3   5 -15    0.65    0.49
  -3   4  15    5.04    0.78
   3  -4 -14    7.77    0.73
  -3   4  14    7.81    0.87
   3  -4 -13  101.90    3.85
  -3   4  13  104.97    4.49
   3  -4 -12    3.04    0.42
  -3   4  12    2.78    0.52
   3  -4 -11   17.73    0.85
   3  -4 -11   14.54    0.64
  -3   4  11   16.93    1.01
   3  -4 -10   10.37    0.61
   3  -4 -10    8.49    0.46
  -3   4  10    9.26    0.69
   3  -4  -9   80.29    2.46
   3  -4  -9   67.59    1.83
  -3   4   9   78.07    2.57
   3  -4  -8  130.50    3.79
   3  -4  -8  111.75    2.46
  -3   4   8  129.91    4.39
   3  -4  -7    9.15    0.54
  -3   4   7   10.18    0.74
   3  -4  -6   74.82    2.15
  -3   4   6   71.12    2.17
   3  -4  -5   82.19    2.20
  -3   4   5   75.66    2.17
   3  -4  -4  238.65    6.51
  -3   4   4  234.96    6.62
   3  -4  -3    1.30    0.27
  -3   4   3    1.86    0.28
   3  -4  -2   47.54    1.25
  -3   4   2   46.71    1.34
   3  -4  -1  212.55    5.33
  -3   4   1  214.51    5.87
   3  -4   0  110.20    2.58
  -3   4   0  110.17    2.93
   3  -4   1   49.71    1.20
  -3   4  -1   47.07    1.41
   3  -4   2    6.19    0.31
   3  -4   2    6.85    0.45
  -3   4  -2    5.99    0.18
   3  -4   3   99.13    2.13
   3  -4   3   96.19    2.85
  -3   4  -3   95.76    1.72
   3  -4   4   60.12    2.01
   3  -4   4   57.79    1.25
  -3   4  -4   56.35    1.18
   3  -4   5   42.20    1.57
   3  -4   5   41.55    0.88
  -3   4  -5   40.96    0.91
   3  -4   6   11.77    0.34
   3  -4   6   12.88    0.76
  -3   4  -6   13.39    0.54
   3  -4   7   50.80    1.11
   3  -4   7   55.12    2.14
  -3   4  -7   54.13    1.45
   3  -4   8  235.12    5.37
   3  -4   8  270.07   10.03
  -3   4  -8  264.79    7.53
   3  -4   9   55.67    2.73
  -3   4  -9   52.41    1.66
   3  -4  10   20.59    1.27
  -3   4 -10   19.84    0.94
   3  -4  11    6.49    0.74
  -3   4 -11    5.10    0.58
   3  -4  12    3.34    0.62
  -3   4 -12    2.14    0.54
   3  -4  13   10.58    1.38
  -3   4 -13   11.35    0.91
   3  -4  14    5.44    0.90
  -3   4 -14    5.00    0.90
   3  -4  15   -0.36    0.58
  -3   4 -15    0.31    0.49
   3  -4  16   10.32    1.33
  -3   4 -16   11.54    1.15
  -3   3  16   33.65    1.97
   3  -3 -15    7.83    0.80
  -3   3  15   10.88    0.89
   3  -3 -14    2.99    0.44
   3  -3 -14    3.02    0.45
  -3   3  14    3.53    0.74
   3  -3 -13    5.61    0.52
   3  -3 -13    5.13    0.47
  -3   3  13    6.59    0.63
   3  -3 -12   30.35    1.25
   3  -3 -12   29.20    1.31
  -3   3  12   34.10    1.49
   3  -3 -11   59.35    2.02
   3  -3 -11   53.24    1.68
  -3   3  11   58.42    2.13
   3  -3 -10   44.27    1.59
   3  -3 -10   40.39    1.33
  -3   3  10   42.45    1.65
   3  -3  -9  146.84    4.78
   3  -3  -9  140.30    3.80
  -3   3   9  141.28    4.44
   3  -3  -8   41.93    1.40
   3  -3  -8   37.14    0.95
  -3   3   8   42.56    1.31
   3  -3  -7  195.40    4.12
   3  -3  -7  212.23    5.96
  -3   3   7  208.30    5.89
   3  -3  -6   17.59    0.36
   3  -3  -6   20.47    0.73
  -3   3   6   19.38    0.70
   3  -3  -5    5.88    0.39
   3  -3  -5    6.10    0.17
  -3   3   5    5.67    0.36
   3  -3  -4   45.04    1.26
   3  -3  -4   45.72    0.57
  -3   3   4   46.69    1.21
   3  -3  -3   27.42    0.80
   3  -3  -3   26.32    0.31
  -3   3   3   27.22    0.80
   3  -3  -2   32.41    0.88
  -3   3   2   32.00    0.93
   3  -3  -1  118.24    1.41
   3  -3  -1  121.26    2.83
  -3   3   1  119.54    2.94
   3  -3   0  308.30    7.38
  -3   3   0  320.26    8.76
  -3   3   0  306.00    4.72
   3  -3   1   10.79    0.37
   3  -3   1   10.86    0.49
  -3   3  -1   10.84    0.22
   3  -3   2  121.50    2.47
   3  -3   2  121.20    3.26
  -3   3  -2  125.44    2.05
   3  -3   3   27.82    0.94
   3  -3   3   25.05    0.59
  -3   3  -3   26.81    0.55
   3  -3   4   87.05    2.52
   3  -3   4   81.58    1.64
  -3   3  -4   85.23    1.74
   3  -3   5  107.48    1.96
   3  -3   5  115.48    3.54
  -3   3  -5  115.00    2.57
   3  -3   6    6.96    0.56
   3  -3   6    6.25    0.24
  -3   3  -6    6.58    0.34
   3  -3   7   31.28    1.34
  -3   3  -7   30.55    0.99
   3  -3   8  128.06    4.69
  -3   3  -8  124.71    3.69
   3  -3   9   44.59    2.11
  -3   3  -9   46.59    1.66
   3  -3  10   83.34    3.66
  -3   3 -10   83.51    2.98
   3  -3  11    1.75    0.54
  -3   3 -11    1.25    0.42
   3  -3  12   48.28    2.73
  -3   3 -12   52.36    2.22
   3  -3  13    4.14    0.84
  -3   3 -13    5.63    0.72
   3  -3  14   17.24    1.42
  -3   3 -14   16.41    1.23
   3  -3  15   17.44    1.66
  -3   3 -15   17.78    1.48
   3  -3  16    1.15    0.71
  -3   3 -16    0.94    0.62
   3  -2 -16    8.34    0.92
  -3   2  16    8.45    0.83
   3  -2 -15   77.15    3.08
   3  -2 -15   71.37    3.51
  -3   2  15   79.49    3.83
   3  -2 -14   29.23    1.61
   3  -2 -14   28.53    1.34
  -3   2  14   31.56    1.48
   3  -2 -13   61.40    2.33
   3  -2 -13   57.65    2.35
  -3   2  13   64.54    2.43
   3  -2 -12   16.33    1.00
   3  -2 -12   14.67    0.75
  -3   2  12   15.15    1.02
   3  -2 -11   55.45    1.90
   3  -2 -11   56.39    2.07
  -3   2  11   56.68    1.92
   3  -2 -10   64.46    2.08
   3  -2 -10   62.85    1.86
  -3   2  10   65.28    2.31
   3  -2  -9    2.57    0.36
   3  -2  -9    1.62    0.31
  -3   2   9    2.45    0.32
   3  -2  -8   16.52    0.72
   3  -2  -8   15.54    0.56
  -3   2   8   16.34    0.77
   3  -2  -7   75.55    1.58
   3  -2  -7   81.63    2.26
  -3   2   7   79.36    2.23
   3  -2  -6  125.58    2.40
   3  -2  -6  135.57    3.48
  -3   2   6  130.76    3.05
   3  -2  -5  105.57    1.79
   3  -2  -5  106.55    2.64
  -3   2   5  100.80    2.29
   3  -2  -4    1.57    0.25
   3  -2  -4    1.45    0.13
  -3   2   4    1.58    0.26
   3  -2  -3  347.21    9.04
   3  -2  -3  350.39    6.25
  -3   2   3  349.97    9.10
   3  -2  -2   10.45    0.40
   3  -2  -2    9.69    0.20
  -3   2   2   11.09    0.44
   3  -2  -1   81.19    1.80
   3  -2  -1   80.96    1.14
  -3   2   1   84.20    1.91
   3  -2   0    0.52    0.16
   3  -2   0    0.65    0.09
  -3   2   0    0.53    0.20
   3  -2   1    7.25    0.27
   3  -2   1    7.94    0.38
  -3   2  -1    7.05    0.19
   3  -2   2  261.41    5.54
   3  -2   2  275.49    7.74
  -3   2  -2  275.37    5.12
   3  -2   3    7.53    0.29
   3  -2   3    8.35    0.46
  -3   2  -3    7.43    0.25
   3  -2   4    0.34    0.13
   3  -2   4   -0.22    0.26
  -3   2  -4    0.45    0.19
   3  -2   5   50.44    0.91
   3  -2   5   52.07    1.67
  -3   2  -5   56.94    1.41
   3  -2   6  192.40    3.57
   3  -2   6  202.69    6.58
  -3   2  -6  221.46    5.46
   3  -2   7  196.00    6.90
  -3   2  -7  200.05    5.55
   3  -2   8   48.17    2.01
  -3   2  -8   48.48    1.59
   3  -2   9   38.32    1.74
  -3   2  -9   37.38    1.31
   3  -2  10   67.75    3.10
  -3   2 -10   71.80    2.63
   3  -2  11    4.09    0.70
  -3   2 -11    4.14    0.57
   3  -2  12    0.62    0.55
  -3   2 -12    0.53    0.53
   3  -2  13    4.60    0.98
  -3   2 -13    5.97    0.75
   3  -2  14   29.43    2.32
  -3   2 -14   29.06    1.74
   3  -2  15   10.92    1.26
  -3   2 -15    8.41    1.04
   3  -2  16    5.20    1.00
  -3   2 -16    4.27    0.81
   3  -1 -16    5.51    0.81
  -3   1  16    4.52    0.54
  -3   1  16    7.06    0.66
   3  -1 -15   22.97    1.50
  -3   1  15   20.82    1.12
  -3   1  15   23.27    1.49
   3  -1 -14   20.54    1.23
   3  -1 -14   19.17    1.14
  -3   1  14   20.86    1.07
   3  -1 -13    9.49    0.70
   3  -1 -13    9.07    0.80
  -3   1  13   10.88    0.79
   3  -1 -12    2.90    0.43
   3  -1 -12    3.08    0.51
  -3   1  12    3.33    0.47
   3  -1 -11    1.98    0.38
   3  -1 -11    1.65    0.34
  -3   1  11    2.26    0.39
   3  -1 -10  182.52    5.63
   3  -1 -10  180.30    5.64
  -3   1  10  179.58    5.59
   3  -1  -9  133.11    4.27
   3  -1  -9  121.75    3.65
  -3   1   9  130.32    3.68
   3  -1  -8    6.00    0.33
   3  -1  -8    7.37    0.56
  -3   1   8    5.22    0.33
   3  -1  -7    8.73    0.35
   3  -1  -7    9.43    0.51
  -3   1   7    9.70    0.46
   3  -1  -6  234.52    5.27
   3  -1  -6  254.62    6.85
  -3   1   6  241.81    5.51
   3  -1  -5    5.59    0.27
   3  -1  -5    5.44    0.36
  -3   1   5    5.68    0.25
   3  -1  -4  117.31    2.19
   3  -1  -4  115.96    2.87
  -3   1   4  119.93    2.57
   3  -1  -3  235.56    5.77
   3  -1  -3  238.20    4.37
  -3   1   3  236.22    5.28
   3  -1  -2  299.96    7.43
   3  -1  -2  301.43    5.60
  -3   1   2  311.24    7.03
   3  -1  -1  378.74    9.26
   3  -1  -1  371.68    7.33
  -3   1   1  380.98    9.44
   3  -1   0  240.43    5.31
   3  -1   0  237.31    4.41
   3  -1   0  243.71    5.68
   3  -1   1    3.71    0.26
   3  -1   1    3.54    0.17
   3  -1   1    3.76    0.27
   3  -1   2  264.00    5.48
   3  -1   2  271.31    5.54
   3  -1   2  258.79    7.49
   3  -1   3  276.27    5.57
   3  -1   3  262.19    7.41
  -3   1  -3  268.69    5.76
   3  -1   4    1.16    0.13
   3  -1   4    1.39    0.28
  -3   1  -4    1.83    0.25
   3  -1   5   17.22    0.36
   3  -1   5   16.51    0.78
  -3   1  -5   17.17    0.55
   3  -1   6  148.42    2.50
   3  -1   6  155.86    4.87
  -3   1  -6  160.46    3.93
   3  -1   7   11.01    0.72
  -3   1  -7   10.92    0.55
   3  -1   8  137.39    5.70
  -3   1  -8  130.07    4.09
   3  -1   9    3.10    0.60
  -3   1  -9    3.10    0.44
   3  -1  10   66.99    3.15
  -3   1 -10   59.36    2.25
   3  -1  11   34.49    2.04
  -3   1 -11   33.60    1.81
   3  -1  12   28.82    2.08
  -3   1 -12   27.04    1.58
   3  -1  13   15.46    1.54
  -3   1 -13   15.91    1.17
   3  -1  14    2.38    0.77
  -3   1 -14    0.88    0.57
   3  -1  15   10.19    1.50
  -3   1 -15    7.90    1.03
   3   0 -17   15.63    1.48
   3   0 -16   29.08    2.01
  -3   0  16   25.10    1.34
  -3   0  16   28.92    1.44
   3   0 -15    7.05    0.74
  -3   0  15    6.88    0.70
  -3   0  15    5.55    0.75
   3   0 -14   -0.11    0.37
  -3   0  14   -0.01    0.34
  -3   0  14    0.37    0.33
   3   0 -13   30.66    1.45
  -3   0  13   27.52    1.58
  -3   0  13   29.68    1.11
   3   0 -12   49.24    2.00
  -3   0  12   50.33    1.58
   3   0 -11    0.83    0.34
   3   0 -11    1.43    0.44
  -3   0  11    0.58    0.25
   3   0 -10   56.62    1.95
   3   0 -10   55.04    2.02
  -3   0  10   52.95    1.41
   3   0  -9   23.68    0.88
   3   0  -9   23.68    0.97
  -3   0   9   23.69    0.66
   3   0  -8    1.21    0.33
   3   0  -8    1.63    0.32
  -3   0   8    1.53    0.20
   3   0  -7   92.89    2.55
   3   0  -7  104.98    3.22
  -3   0   7   97.95    1.99
   3   0  -6   60.74    1.54
   3   0  -6   63.68    1.81
  -3   0   6   62.73    1.20
   3   0  -5  293.63    6.90
   3   0  -5  283.43    7.57
  -3   0   5  274.76    5.72
   3   0  -4   11.89    0.42
   3   0  -4   11.88    0.48
  -3   0   4   12.21    0.36
   3   0  -3   88.16    1.62
   3   0  -3   84.65    2.00
  -3   0   3   84.78    1.60
   3   0  -2   12.54    0.39
   3   0  -2   13.53    0.46
  -3   0   2   13.42    0.34
   3   0  -1   46.36    0.88
   3   0  -1   45.26    1.10
   3   0  -1   48.04    1.04
   3   0   0  265.96    6.52
   3   0   0  257.98    5.38
   3   0   0  271.69    6.53
   3   0   1    1.07    0.17
   3   0   1    1.10    0.20
   3   0   1    0.43    0.23
   3   0   2  138.39    2.85
   3   0   2  129.41    2.83
   3   0   2  127.12    3.11
   3   0   3   92.62    2.61
   3   0   3   94.75    1.80
   3   0   3   92.62    2.05
   3   0   4   74.26    1.33
   3   0   4   70.02    2.03
  -3   0  -4   70.55    1.61
   3   0   5   47.33    1.51
  -3   0  -5   48.33    1.27
   3   0   6    1.67    0.38
  -3   0  -6    1.19    0.27
   3   0   7  143.96    5.14
  -3   0  -7  134.30    4.00
   3   0   8    3.08    0.51
  -3   0  -8    2.80    0.38
   3   0   9   41.71    2.01
  -3   0  -9   43.01    1.66
   3   0  10   -0.50    0.43
  -3   0 -10    0.49    0.44
   3   0  11   21.94    1.50
  -3   0 -11   20.96    1.18
   3   0  12   49.68    2.87
  -3   0 -12   50.81    2.79
   3   0  13    4.55    0.88
  -3   0 -13    5.34    0.72
   3   0  14    0.47    0.68
  -3   0 -14    1.16    0.54
   3   0  15   17.17    2.10
  -3   0 -15   15.39    1.81
   3   1 -17   11.60    1.10
   3   1 -16    4.46    0.74
  -3  -1  16    4.76    0.57
   3   1 -15   24.50    1.58
  -3  -1  15   24.34    1.24
   3   1 -14    1.68    0.49
  -3  -1  14    1.32    0.51
  -3  -1  14    1.23    0.31
   3   1 -13    6.55    0.73
  -3  -1  13    7.09    0.56
  -3  -1  13    8.07    0.75
   3   1 -12  129.68    4.87
  -3  -1  12  128.33    5.07
  -3  -1  12  124.40    3.57
   3   1 -11   21.10    1.19
  -3  -1  11   19.11    0.72
  -3  -1  11   17.39    0.94
   3   1 -10    4.70    0.57
  -3  -1  10    5.14    0.49
  -3  -1  10    4.34    0.33
   3   1  -9   31.68    1.21
  -3  -1   9   31.48    1.31
  -3  -1   9   32.16    0.78
   3   1  -8  358.22   11.24
  -3  -1   8  380.52    9.03
   3   1  -7  213.32    6.05
   3   1  -7  232.65    6.98
  -3  -1   7  220.12    4.30
   3   1  -6  234.80    6.35
   3   1  -6  254.20    7.11
  -3  -1   6  233.15    4.46
   3   1  -5    1.06    0.20
   3   1  -5    1.06    0.27
  -3  -1   5    0.66    0.12
   3   1  -4    8.96    0.36
   3   1  -4   10.04    0.49
  -3  -1   4    9.54    0.24
   3   1  -3  196.64    4.38
   3   1  -3  204.64    5.13
  -3  -1   3  191.06    3.31
   3   1  -2   14.93    0.46
   3   1  -2   14.87    0.65
  -3  -1   2   15.28    0.37
   3   1  -1    0.43    0.18
   3   1  -1    0.70    0.20
   3   1  -1    0.58    0.16
   3   1   0  210.07    4.60
   3   1   0  192.99    4.63
   3   1   1  282.61    6.58
   3   1   1  272.33    6.35
  -3  -1  -1  256.92    6.24
   3   1   2    2.80    0.24
   3   1   2    2.83    0.23
  -3  -1  -2    2.43    0.20
   3   1   3    3.05    0.27
   3   1   3    3.18    0.27
  -3  -1  -3    2.98    0.22
   3   1   4   22.66    0.74
   3   1   4   24.87    0.85
  -3  -1  -4   22.48    0.50
   3   1   5    1.67    0.40
  -3  -1  -5    1.37    0.15
  -3  -1  -5    2.55    0.27
   3   1   6   89.44    2.98
  -3  -1  -6   93.46    2.92
   3   1   7   28.21    1.25
  -3  -1  -7   27.01    0.99
   3   1   8   59.43    2.39
  -3  -1  -8   59.69    2.08
   3   1   9   56.21    2.46
  -3  -1  -9   60.07    2.58
   3   1  10    9.79    1.08
  -3  -1 -10    8.82    0.76
   3   1  11   -0.83    0.51
  -3  -1 -11   -0.38    0.41
   3   1  12    5.24    1.04
  -3  -1 -12    5.35    0.75
   3   1  13   20.24    1.62
  -3  -1 -13   18.37    1.38
   3   1  14   13.10    1.42
  -3  -1 -14   13.72    1.29
   3   1  15    2.05    0.80
  -3  -1 -15    2.71    0.71
   3   2 -17   -0.00    0.49
   3   2 -16    0.18    0.65
  -3  -2  16    0.95    0.42
   3   2 -15   30.33    1.78
  -3  -2  15   31.58    1.56
   3   2 -14   14.42    1.34
  -3  -2  14   13.70    0.95
   3   2 -13    0.67    0.50
  -3  -2  13    0.38    0.48
   3   2 -12   15.98    1.04
  -3  -2  12   16.14    0.94
   3   2 -11   29.19    1.67
  -3  -2  11   31.27    1.42
   3   2 -10    0.53    0.45
  -3  -2  10    0.62    0.38
  -3  -2  10    0.91    0.18
   3   2  -9   14.39    0.74
  -3  -2   9   13.84    0.39
  -3  -2   9   15.60    0.83
   3   2  -8   97.42    2.91
  -3  -2   8   90.26    1.64
  -3  -2   8  105.34    3.26
   3   2  -7   85.87    2.61
  -3  -2   7   84.70    3.10
   3   2  -6  103.46    2.80
  -3  -2   6   96.36    1.40
  -3  -2   6   96.88    2.93
   3   2  -5   80.71    1.91
  -3  -2   5   80.95    2.40
  -3  -2   5   73.17    0.97
   3   2  -4    0.93    0.29
  -3  -2   4    1.43    0.09
  -3  -2   4    1.43    0.28
   3   2  -3  140.65    3.55
  -3  -2   3  131.62    1.95
  -3  -2   3  140.88    3.78
   3   2  -2  231.85    5.72
  -3  -2   2  225.51    6.19
  -3  -2   2  223.08    3.69
   3   2  -1    9.86    0.41
   3   2  -1   10.17    0.29
  -3  -2   1    9.74    0.44
   3   2   0   20.85    0.64
   3   2   0   22.13    0.54
  -3  -2   0   21.50    0.63
   3   2   1  120.46    2.88
   3   2   1  117.87    2.44
  -3  -2  -1  120.92    2.73
   3   2   2   13.62    0.55
   3   2   2   13.77    0.45
  -3  -2  -2   14.93    0.51
   3   2   3   94.46    2.49
   3   2   3  103.00    2.89
  -3  -2  -3  100.67    2.10
   3   2   4   -0.16    0.22
   3   2   4    0.24    0.24
  -3  -2  -4    0.04    0.16
   3   2   5  145.22    4.05
  -3  -2  -5  127.69    2.63
  -3  -2  -5  136.54    3.32
   3   2   6  267.07    9.28
  -3  -2  -6  275.66    8.50
   3   2   7   36.84    1.61
  -3  -2  -7   40.13    1.67
   3   2   8   13.77    0.87
  -3  -2  -8   12.58    0.74
   3   2   9    1.83    0.58
  -3  -2  -9    0.96    0.39
   3   2  10   56.05    2.76
  -3  -2 -10   57.42    2.41
   3   2  11   11.80    1.20
  -3  -2 -11    9.55    0.88
   3   2  12    2.66    0.69
  -3  -2 -12    2.17    0.59
   3   2  13   21.50    1.71
  -3  -2 -13   20.21    1.49
   3   2  14   12.82    1.47
  -3  -2 -14   12.08    1.20
   3   3 -16    0.32    0.52
  -3  -3  16   -0.73    0.41
   3   3 -15    4.13    0.99
  -3  -3  15    6.68    0.70
   3   3 -14   19.91    1.46
  -3  -3  14   21.88    1.61
   3   3 -13   17.12    1.43
  -3  -3  13   17.28    1.09
   3   3 -12    2.69    0.55
  -3  -3  12    2.64    0.52
   3   3 -11   51.47    2.68
  -3  -3  11   52.08    2.51
   3   3 -10   35.23    1.58
  -3  -3  10   38.93    1.66
   3   3  -9   85.00    3.00
  -3  -3   9   92.69    3.17
   3   3  -8  101.73    3.58
  -3  -3   8  106.47    3.71
   3   3  -7    3.08    0.40
  -3  -3   7    2.83    0.43
   3   3  -6    2.03    0.36
  -3  -3   6    2.56    0.38
   3   3  -5   54.12    1.65
  -3  -3   5   54.42    1.79
   3   3  -4   11.86    0.55
  -3  -3   4   12.60    0.65
   3   3  -3   36.50    1.32
  -3  -3   3   38.88    1.27
   3   3  -2   53.97    1.55
   3   3  -2   54.68    0.77
  -3  -3   2   57.17    1.68
   3   3  -1    5.32    0.37
   3   3  -1    6.19    0.22
  -3  -3   1    5.92    0.39
   3   3   0   51.56    1.45
   3   3   0   54.03    1.09
  -3  -3   0   59.61    1.75
   3   3   1   39.26    1.20
   3   3   1   36.29    0.91
  -3  -3  -1   41.00    1.26
   3   3   2   76.92    2.04
   3   3   2   81.47    1.94
  -3  -3  -2   79.86    1.96
   3   3   3  170.37    4.59
   3   3   3  170.38    4.58
  -3  -3  -3  165.93    4.03
   3   3   4   28.31    1.04
   3   3   4   27.73    1.06
  -3  -3  -4   29.04    0.80
   3   3   5  109.53    3.28
   3   3   5  109.19    3.68
  -3  -3  -5  102.85    2.53
   3   3   6    0.56    0.32
  -3  -3  -6    1.04    0.34
   3   3   7   38.11    1.62
  -3  -3  -7   39.70    1.59
   3   3   8   41.57    1.84
  -3  -3  -8   41.80    1.70
   3   3   9    5.27    0.69
  -3  -3  -9    6.80    0.62
   3   3  10   48.81    2.59
  -3  -3 -10   50.50    2.28
   3   3  11    9.07    0.94
  -3  -3 -11    8.29    0.84
   3   3  12   18.56    1.85
  -3  -3 -12   18.35    1.69
   3   3  13   -0.73    0.54
  -3  -3 -13    0.00    0.53
   3   3  14    7.12    1.07
  -3  -3 -14    5.37    0.89
   3   4 -16    5.98    0.98
  -3  -4  16    7.14    0.79
   3   4 -15   15.95    1.73
  -3  -4  15   18.32    1.30
   3   4 -14   10.88    1.05
  -3  -4  14   11.88    1.02
   3   4 -13   28.14    2.13
  -3  -4  13   30.37    1.96
   3   4 -12    0.15    0.49
  -3  -4  12    1.19    0.56
   3   4 -11   23.96    1.41
  -3  -4  11   29.27    1.81
   3   4 -10    0.99    0.40
  -3  -4  10    0.58    0.45
   3   4  -9   32.17    1.54
  -3  -4   9   35.10    1.71
   3   4  -8   95.03    3.70
  -3  -4   8  108.98    3.95
   3   4  -7    3.76    0.49
  -3  -4   7    3.37    0.54
   3   4  -6    8.15    0.58
  -3  -4   6    9.51    0.69
   3   4  -5   39.16    1.74
  -3  -4   5   44.55    1.73
   3   4  -4   45.84    1.62
  -3  -4   4   54.35    1.84
   3   4  -3   97.67    3.01
  -3  -4   3  112.87    3.58
   3   4  -2   12.49    0.62
  -3  -4   2   15.41    0.89
   3   4  -1  111.04    3.19
  -3  -4   1  123.77    3.60
   3   4   0   47.74    1.60
  -3  -4   0   55.33    1.63
   3   4   1  166.37    4.91
   3   4   1  159.87    3.83
  -3  -4  -1  172.18    4.82
   3   4   2    2.91    0.39
  -3  -4  -2    3.04    0.33
   3   4   3    5.94    0.50
   3   4   3    5.89    0.35
  -3  -4  -3    5.85    0.43
   3   4   4   91.91    3.24
   3   4   4   91.75    2.86
  -3  -4  -4   91.85    2.41
   3   4   5   11.18    0.70
   3   4   5    9.80    0.55
  -3  -4  -5    9.80    0.46
   3   4   6   15.78    0.81
  -3  -4  -6   16.93    0.86
   3   4   7   15.32    1.04
  -3  -4  -7   15.72    0.93
   3   4   8   58.82    2.58
  -3  -4  -8   62.66    2.42
   3   4   9    5.54    0.70
  -3  -4  -9    6.02    0.68
   3   4  10    1.25    0.63
  -3  -4 -10    1.25    0.49
   3   4  11    6.53    0.89
  -3  -4 -11    7.22    1.02
   3   4  12    1.90    0.63
  -3  -4 -12    0.59    0.54
   3   4  13   22.16    1.85
  -3  -4 -13   21.50    1.62
   3   5 -15    1.86    0.71
  -3  -5  15    1.87    0.62
   3   5 -14    1.15    0.56
  -3  -5  14    1.50    0.58
   3   5 -13    3.17    0.63
  -3  -5  13    2.80    0.65
   3   5 -12    2.17    0.55
  -3  -5  12    1.62    0.57
   3   5 -11   44.06    2.18
  -3  -5  11   51.08    2.43
   3   5 -10    3.00    0.57
  -3  -5  10    2.88    0.61
   3   5  -9   38.33    2.35
  -3  -5   9   42.04    2.43
   3   5  -8   65.61    2.76
  -3  -5   8   69.64    3.04
   3   5  -7   14.95    1.14
  -3  -5   7   15.73    1.10
   3   5  -6   15.95    0.94
  -3  -5   6   16.05    1.06
   3   5  -5    3.39    0.46
  -3  -5   5    3.30    0.56
   3   5  -4   15.22    0.82
  -3  -5   4   16.57    1.02
   3   5  -3    6.79    0.54
  -3  -5   3    6.89    0.65
   3   5  -2   72.97    2.40
  -3  -5   2   85.65    2.92
   3   5  -1  121.17    3.98
  -3  -5   1  133.96    4.44
   3   5   0  123.65    3.85
   3   5   0  130.82    2.87
  -3  -5   0  136.58    4.41
   3   5   1  207.23    6.60
   3   5   1  194.52    5.04
  -3  -5  -1  214.84    6.74
   3   5   2   48.62    1.69
   3   5   2   46.68    1.22
  -3  -5  -2   49.46    1.80
   3   5   3    0.31    0.33
   3   5   3    0.25    0.28
  -3  -5  -3    1.75    0.34
   3   5   4    0.89    0.36
   3   5   4    0.35    0.33
  -3  -5  -4    0.98    0.30
   3   5   5   36.61    1.47
   3   5   5   35.11    1.56
  -3  -5  -5   32.54    1.17
   3   5   6   10.60    0.54
  -3  -5  -6    0.09    0.34
   3   5   7    0.07    0.46
  -3  -5  -7    1.23    0.41
   3   5   8   25.74    1.43
  -3  -5  -8   26.92    1.42
   3   5   9    0.83    0.57
  -3  -5  -9    0.33    0.44
   3   5  10   46.90    2.47
  -3  -5 -10   44.78    2.24
   3   5  11    1.28    0.62
  -3  -5 -11   -0.29    0.44
   3   5  12    9.91    1.18
  -3  -5 -12   11.10    1.05
   3   6 -15    0.70    0.70
  -3  -6  15    0.75    0.56
   3   6 -14    5.91    0.99
  -3  -6  14    3.58    0.81
   3   6 -13   14.31    1.23
  -3  -6  13   13.94    1.23
   3   6 -12    0.39    0.57
  -3  -6  12    1.28    0.56
   3   6 -11   24.25    1.72
  -3  -6  11   30.89    2.15
   3   6 -10    0.23    0.46
  -3  -6  10    0.34    0.47
   3   6  -9    3.57    0.62
  -3  -6   9    3.64    0.70
   3   6  -8   34.01    1.75
  -3  -6   8   37.48    2.05
   3   6  -7   18.24    1.18
  -3  -6   7   22.06    1.33
   3   6  -6   27.48    1.49
  -3  -6   6   32.71    1.71
   3   6  -5   81.04    3.64
  -3  -6   5   88.75    3.75
   3   6  -4   41.68    1.85
  -3  -6   4   44.53    2.14
   3   6  -3   44.55    1.80
  -3  -6   3   48.36    2.15
   3   6  -2   15.35    0.81
  -3  -6   2   18.10    1.01
   3   6  -1   46.02    2.26
  -3  -6   1   52.89    2.06
   3   6   0   15.26    0.85
  -3  -6   0   17.76    0.93
   3   6   1   15.16    0.85
   3   6   1   13.17    0.49
  -3  -6  -1   15.63    0.99
   3   6   2   37.38    1.50
   3   6   2   35.98    1.13
  -3  -6  -2   40.45    1.47
   3   6   3    0.02    0.35
   3   6   3    0.16    0.27
  -3  -6  -3    0.30    0.27
   3   6   4    5.92    0.69
   3   6   4    5.06    0.43
  -3  -6  -4    5.56    0.49
   3   6   5   44.05    1.79
   3   6   5   42.77    1.87
  -3  -6  -5   40.05    1.46
   3   6   6   19.98    1.01
   3   6   6   20.76    1.18
   3   6   7   38.80    1.86
  -3  -6  -7   39.22    1.81
   3   6   8    0.94    0.44
  -3  -6  -8    0.43    0.42
   3   6   9   15.13    1.17
  -3  -6  -9   14.91    1.09
   3   6  10   10.40    1.00
  -3  -6 -10    8.65    0.93
   3   6  11   14.41    1.54
  -3  -6 -11   12.12    1.08
   3   7 -14    3.64    0.81
  -3  -7  14    3.61    0.82
   3   7 -13    6.10    0.99
  -3  -7  13    7.69    1.18
   3   7 -12   -0.38    0.65
  -3  -7  12    0.45    0.52
   3   7 -11   -0.06    0.51
  -3  -7  11    0.47    0.53
   3   7 -10   31.58    2.43
  -3  -7  10   37.26    2.72
   3   7  -9   15.47    1.24
  -3  -7   9   16.30    1.68
   3   7  -8   26.75    1.92
  -3  -7   8   28.25    1.76
   3   7  -7    4.72    0.70
  -3  -7   7    6.04    0.81
   3   7  -6    5.50    0.72
  -3  -7   6    9.14    0.82
   3   7  -5    0.43    0.46
  -3  -7   5    1.69    0.54
   3   7  -4   21.99    1.28
  -3  -7   4   24.74    1.49
   3   7  -3   14.76    0.93
  -3  -7   3   17.96    1.11
   3   7  -2   14.03    0.90
  -3  -7   2   18.24    1.27
   3   7  -1   65.46    2.70
  -3  -7   1   72.97    3.14
   3   7   0   22.32    1.11
  -3  -7   0   22.37    1.26
   3   7   1    2.58    0.47
  -3  -7  -1    2.29    0.45
   3   7   2   11.76    0.82
  -3  -7  -2   13.24    0.91
   3   7   3    2.12    0.57
   3   7   3    2.50    0.37
  -3  -7  -3    2.62    0.37
   3   7   4    4.55    0.58
   3   7   4    3.64    0.48
  -3  -7  -4    5.25    0.51
   3   7   5    0.78    0.40
   3   7   5    0.17    0.32
  -3  -7  -5    0.70    0.25
   3   7   6   11.89    0.96
   3   7   6   11.63    0.90
   3   7   7    8.72    0.77
  -3  -7  -7    8.23    0.83
   3   7   8   11.54    0.93
  -3  -7  -8    9.44    0.98
   3   7   9   -0.97    0.63
  -3  -7  -9   -1.01    0.53
   3   8 -12    5.11    0.92
  -3  -8  12    4.90    0.95
   3   8 -11    1.79    0.69
  -3  -8  11    1.51    0.72
   3   8 -10    1.23    0.59
  -3  -8  10    0.43    0.68
   3   8  -9    5.65    0.86
  -3  -8   9    6.22    1.19
   3   8  -8    3.93    0.72
  -3  -8   8    5.67    0.89
   3   8  -7   21.84    1.80
  -3  -8   7   25.52    1.79
   3   8  -6    5.04    0.81
  -3  -8   6    4.61    0.89
   3   8  -5    5.33    0.69
  -3  -8   5    5.52    0.86
   3   8  -4   15.66    1.12
  -3  -8   4   18.63    1.69
   3   8  -3    4.56    0.62
  -3  -8   3    5.67    0.79
   3   8  -2    2.54    0.54
  -3  -8   2    2.76    0.61
   3   8  -1   10.66    0.88
  -3  -8   1   12.96    0.97
   3   8   0   26.61    1.42
  -3  -8   0   28.10    1.78
   3   8   1    2.56    0.52
  -3  -8  -1    2.80    0.47
   3   8   2   -0.32    0.35
  -3  -8  -2    0.25    0.31
   3   8   3    6.07    0.68
  -3  -8  -3    6.26    0.56
   3   8   4    9.72    0.87
  -3  -8  -4   10.70    0.65
   3   8   5   21.65    1.62
   3   8   6    2.95    0.46
   3   8   7    3.84    0.74
  -3  -8  -7    4.29    0.66
   3   8   8   30.61    2.29
  -3  -8  -8   34.58    1.89
   3   9 -11    0.36    0.58
  -3  -9  11    0.74    0.70
   3   9 -10   -0.24    0.57
  -3  -9  10   -0.24    0.66
   3   9  -9    2.30    0.73
  -3  -9   9    4.64    0.88
   3   9  -8    5.03    0.80
  -3  -9   8    5.92    1.04
   3   9  -7   12.60    1.60
  -3  -9   7   17.69    1.62
   3   9  -6    0.77    0.62
  -3  -9   6    0.83    0.64
   3   9  -5    0.33    0.52
  -3  -9   5    1.58    0.61
   3   9  -4    0.90    0.42
  -3  -9   4    0.68    0.72
   3   9  -3    6.50    0.92
  -3  -9   3    7.62    0.93
   3   9  -2    1.20    0.52
  -3  -9   2    1.90    0.56
   3   9  -1    1.48    0.50
  -3  -9   1    1.88    0.54
   3   9   0   14.00    1.06
  -3  -9   0   14.56    1.04
   3   9   1    3.38    0.61
  -3  -9  -1    4.04    0.59
   3   9   2   15.01    1.31
  -3  -9  -2   15.36    0.96
   3   9   3    0.05    0.54
  -3  -9  -3    0.47    0.36
   3   9   4    1.62    0.60
  -3  -9  -4    1.27    0.39
   3   9   5    9.61    0.91
  -3  -9  -6    0.54    0.35
   3  10  -8    0.10    0.56
  -3 -10   8   -0.93    0.65
   3  10  -7   -0.43    0.51
  -3 -10   7   -0.00    0.62
   3  10  -6    7.88    1.18
  -3 -10   6    7.10    1.12
   3  10  -5    3.93    0.89
  -3 -10   5    5.49    0.86
   3  10  -4    1.52    0.50
  -3 -10   4    1.38    0.65
   3  10  -3   14.96    1.13
  -3 -10   3   15.64    1.36
   3  10  -2    8.91    1.06
  -3 -10   2    8.46    0.95
   3  10  -1    6.23    0.78
  -3 -10   1    8.16    0.87
   3  10   0    0.57    0.46
  -3 -10   0    0.55    0.48
   3  10   1    0.46    0.51
  -3 -10  -1   -0.48    0.41
   3  10   2    0.76    0.46
  -3 -10  -2    0.23    0.42
   4 -11  -3    0.79    0.57
  -4  11   3    1.54    0.68
   4 -11  -2   21.91    1.60
  -4  11   2   19.37    1.48
   4 -11  -1    6.89    0.85
  -4  11   1    6.49    0.88
   4 -11   0   18.17    1.36
  -4  11   0   16.23    1.36
   4 -11   1    8.75    0.92
  -4  11  -1    7.74    0.93
   4 -11   2    8.67    0.97
  -4  11  -2    8.95    0.96
   4 -11   3    1.17    0.54
  -4  11  -3    0.45    0.50
   4 -11   4   13.90    1.17
  -4  11  -4   15.16    1.25
   4 -11   5   28.05    1.70
  -4  11  -5   27.65    2.18
   4 -11   6    1.69    0.54
  -4  11  -6    1.14    0.56
   4 -10  -6    1.44    0.72
  -4  10   6    1.95    0.64
   4 -10  -5    0.56    0.60
  -4  10   5    0.12    0.52
   4 -10  -4   38.23    2.52
  -4  10   4   36.93    2.13
   4 -10  -3   48.11    2.53
  -4  10   3   41.20    2.54
   4 -10  -2    3.03    0.69
  -4  10   2    3.45    0.68
   4 -10  -1   24.03    1.84
  -4  10   1   20.89    1.52
   4 -10   0   14.21    1.13
  -4  10   0   12.38    1.37
   4 -10   1    6.47    0.80
  -4  10  -1    7.48    0.80
   4 -10   2   11.43    0.96
  -4  10  -2   11.01    1.01
   4 -10   3    1.02    0.47
  -4  10  -3    1.20    0.52
   4 -10   4    3.08    0.60
  -4  10  -4    2.94    0.63
   4 -10   5   17.39    1.38
  -4  10  -5   15.97    1.22
   4 -10   6    5.56    0.67
  -4  10  -6    4.47    0.77
   4 -10   7    1.62    0.52
  -4  10  -7    3.69    0.61
   4 -10   8   -0.02    0.38
  -4  10  -8    0.63    0.52
   4 -10   9   17.14    1.15
  -4  10  -9   21.82    1.50
   4  -9  -8    1.31    0.63
  -4   9   8    0.31    0.57
   4  -9  -7    1.80    0.60
  -4   9   7    3.41    0.69
   4  -9  -6   40.60    2.19
  -4   9   6   38.34    2.37
   4  -9  -5    3.79    0.65
  -4   9   5    3.10    0.72
   4  -9  -4   34.02    1.84
  -4   9   4   28.93    1.88
   4  -9  -3    3.02    0.62
  -4   9   3    4.31    0.67
   4  -9  -2    1.71    0.54
  -4   9   2    2.16    0.54
   4  -9  -1   70.68    3.20
  -4   9   1   67.05    3.79
   4  -9   0    1.85    0.65
  -4   9   0    2.87    0.58
   4  -9   1   11.48    0.91
  -4   9  -1   10.98    0.96
   4  -9   2    8.50    0.76
  -4   9  -2    7.58    0.80
   4  -9   3   33.39    1.64
  -4   9  -3   30.37    2.12
   4  -9   4    0.52    0.52
  -4   9  -4    1.00    0.49
   4  -9   5    1.32    0.40
  -4   9  -5    0.04    0.48
   4  -9   6   12.67    1.02
  -4   9  -6   13.96    1.34
   4  -9   7    0.85    0.44
  -4   9  -7    0.64    0.50
   4  -9   8    1.22    0.49
  -4   9  -8    1.82    0.71
   4  -9   9   11.63    0.74
  -4   9  -9   12.56    1.14
  -4   9 -10    3.38    0.51
   4  -8 -10    1.67    0.70
  -4   8  10    2.68    0.66
   4  -8  -9   61.50    2.94
  -4   8   9   56.23    3.08
   4  -8  -8    0.60    0.55
  -4   8   8   -0.21    0.50
   4  -8  -7   15.01    1.14
  -4   8   7   15.74    1.19
   4  -8  -6   50.92    2.28
  -4   8   6   46.15    2.44
   4  -8  -5   45.32    2.19
  -4   8   5   43.92    2.24
   4  -8  -4   86.16    3.65
  -4   8   4   81.08    3.58
   4  -8  -3   44.83    2.08
  -4   8   3   42.74    2.20
   4  -8  -2    8.27    0.74
  -4   8   2    9.15    0.85
   4  -8  -1    2.94    0.52
  -4   8   1    3.76    0.59
   4  -8   0    6.71    0.64
  -4   8   0    5.57    0.70
   4  -8   1    0.11    0.39
  -4   8  -1    0.91    0.42
   4  -8   2   20.74    1.14
  -4   8  -2   18.44    1.25
   4  -8   3   62.85    2.37
  -4   8  -3   60.18    2.73
   4  -8   4    5.90    0.67
  -4   8  -4    4.69    0.66
   4  -8   5    0.33    0.33
  -4   8  -5    0.44    0.48
   4  -8   6    1.60    0.38
  -4   8  -6    1.61    0.53
   4  -8   7    4.07    0.49
  -4   8  -7    4.85    0.69
   4  -8   8   10.05    0.50
  -4   8  -8    0.23    0.50
   4  -8   9    2.60    0.48
   4  -8   9    5.80    0.89
   4  -8  10   -0.49    0.68
   4  -8  11    0.84    0.61
   4  -8  12    9.00    1.11
   4  -7 -11    2.99    0.74
  -4   7  11    4.20    0.71
   4  -7 -10    4.32    0.63
  -4   7  10    3.39    0.71
   4  -7  -9   21.23    1.52
  -4   7   9   19.72    1.36
   4  -7  -8   34.03    1.80
  -4   7   8   33.68    1.82
   4  -7  -7   42.45    2.05
  -4   7   7   41.42    2.10
   4  -7  -6   22.39    1.55
  -4   7   6   21.43    1.35
   4  -7  -5   26.83    1.36
  -4   7   5   27.18    1.48
   4  -7  -4    6.25    0.77
  -4   7   4    6.32    0.67
   4  -7  -3   69.55    2.76
  -4   7   3   68.85    2.91
   4  -7  -2   19.38    1.08
  -4   7   2   20.55    1.15
   4  -7  -1    9.10    0.82
  -4   7   1    8.09    0.72
   4  -7   0   27.07    1.23
  -4   7   0   24.07    1.59
   4  -7   1   97.97    3.39
  -4   7  -1   91.99    4.34
   4  -7   2   35.42    1.44
  -4   7  -2   34.30    1.97
   4  -7   3   82.28    2.80
  -4   7  -3   81.80    3.52
   4  -7   4   49.66    2.05
  -4   7  -4   50.18    2.33
   4  -7   5   25.95    1.10
  -4   7  -5   27.87    1.52
   4  -7   6   28.97    0.92
  -4   7  -6   12.52    0.92
   4  -7   7    7.22    0.51
   4  -7   7    7.20    0.83
  -4   7  -7    6.87    0.48
   4  -7   8    0.19    0.31
   4  -7   8    0.83    0.50
  -4   7  -8    0.49    0.31
   4  -7   9   40.52    1.50
   4  -7   9   47.90    2.41
  -4   7  -9   42.20    1.76
   4  -7  10    5.40    0.85
  -4   7 -10    5.65    0.50
   4  -7  11    2.50    0.75
  -4   7 -11    2.25    0.52
   4  -7  12    6.41    1.20
  -4   7 -12    5.71    0.60
   4  -7  13    2.22    0.89
  -4   7 -13    1.36    0.58
   4  -6 -12   12.14    0.92
  -4   6  12   10.31    1.06
   4  -6 -11   44.05    2.52
  -4   6  11   42.50    2.41
   4  -6 -10   11.85    0.93
  -4   6  10   13.45    1.02
   4  -6  -9   40.33    2.22
  -4   6   9   38.07    1.97
   4  -6  -8   26.43    1.39
  -4   6   8   26.56    1.45
   4  -6  -7    8.87    0.77
  -4   6   7    9.39    0.94
   4  -6  -6   41.09    1.75
  -4   6   6   39.39    1.87
   4  -6  -5    0.79    0.37
  -4   6   5    0.03    0.40
   4  -6  -4    5.74    0.54
  -4   6   4    4.51    0.58
   4  -6  -3   14.29    0.83
  -4   6   3   16.63    1.09
   4  -6  -2   22.63    1.05
  -4   6   2   20.41    1.08
   4  -6  -1    7.92    0.56
  -4   6   1    7.82    0.65
   4  -6   0   49.34    1.70
  -4   6   0   46.08    1.97
   4  -6   1   65.25    2.36
  -4   6  -1   62.27    2.42
   4  -6   2    5.13    0.46
  -4   6  -2    6.28    0.64
   4  -6   3   12.17    0.63
  -4   6  -3   11.49    0.83
   4  -6   4    1.83    0.39
  -4   6  -4    2.41    0.48
   4  -6   5    1.07    0.48
   4  -6   5    1.67    0.36
  -4   6  -5    1.29    0.23
   4  -6   6   98.03    2.99
   4  -6   6  105.76    4.17
  -4   6  -6   98.69    2.77
   4  -6   7   -0.30    0.45
   4  -6   7    0.84    0.21
  -4   6  -7   -0.18    0.26
   4  -6   8    4.40    0.71
   4  -6   8    3.11    0.35
  -4   6  -8    3.63    0.43
   4  -6   9    6.41    0.89
  -4   6  -9    6.33    0.50
   4  -6  10    8.28    1.01
  -4   6 -10    7.74    0.57
   4  -6  11    0.64    0.55
  -4   6 -11   -0.05    0.40
   4  -6  12    0.77    0.58
  -4   6 -12    0.18    0.45
   4  -6  13    1.19    0.64
  -4   6 -13    0.38    0.53
   4  -5 -13   18.20    1.40
  -4   5  13   17.95    1.26
   4  -5 -12   30.49    1.62
  -4   5  12   30.30    2.10
   4  -5 -11   54.14    2.31
  -4   5  11   53.16    2.53
   4  -5 -10   18.03    1.29
  -4   5  10   15.53    1.05
   4  -5  -9   66.84    2.71
  -4   5   9   64.19    3.04
   4  -5  -8    2.38    0.49
  -4   5   8    3.25    0.49
   4  -5  -7   16.46    0.94
  -4   5   7   16.69    1.09
   4  -5  -6   62.06    2.20
  -4   5   6   57.62    2.12
   4  -5  -5  106.12    3.81
  -4   5   5  110.39    3.77
   4  -5  -4    6.99    0.61
  -4   5   4    7.16    0.63
   4  -5  -3   18.55    0.94
  -4   5   3   20.33    0.94
   4  -5  -2   70.45    2.31
  -4   5   2   66.72    2.36
   4  -5  -1   16.26    0.76
  -4   5   1   15.83    0.88
   4  -5   0  197.88    5.80
  -4   5   0  190.86    6.75
   4  -5   1   83.23    2.39
  -4   5  -1   83.34    2.96
   4  -5   2   67.38    2.24
  -4   5  -2   69.77    2.50
   4  -5   3  190.68    5.05
  -4   5  -3  189.52    6.48
  -4   5  -3  166.79    3.70
   4  -5   4   67.63    2.73
   4  -5   4   66.27    1.84
  -4   5  -4   64.48    1.49
   4  -5   5    2.33    0.26
   4  -5   5    4.49    0.60
  -4   5  -5    1.60    0.26
   4  -5   6   10.11    0.51
   4  -5   6   10.40    0.83
  -4   5  -6    9.59    0.42
   4  -5   7   14.83    1.04
   4  -5   7   11.70    0.52
  -4   5  -7   12.30    0.52
   4  -5   8    1.61    0.55
   4  -5   8    1.27    0.23
  -4   5  -8    1.14    0.35
   4  -5   9    3.16    0.64
  -4   5  -9    2.87    0.46
   4  -5  10   14.77    1.23
  -4   5 -10   12.14    0.73
   4  -5  11    2.90    0.69
  -4   5 -11    2.52    0.49
   4  -5  12   34.15    2.33
  -4   5 -12   33.93    1.69
   4  -5  13    8.66    1.19
  -4   5 -13    8.93    0.83
   4  -5  14   13.98    1.59
  -4   5 -14   15.21    1.50
   4  -4 -14   37.88    1.89
  -4   4  14   38.06    2.10
   4  -4 -13   23.28    1.40
  -4   4  13   23.07    1.35
   4  -4 -12   16.58    1.31
  -4   4  12   14.84    1.03
   4  -4 -11    3.08    0.51
  -4   4  11    2.12    0.47
   4  -4 -10    8.25    0.74
  -4   4  10    8.67    0.68
   4  -4  -9    9.14    0.86
  -4   4   9    7.95    0.81
   4  -4  -8    9.51    0.72
  -4   4   8    8.82    0.67
   4  -4  -7    3.78    0.45
  -4   4   7    2.28    0.41
   4  -4  -6    1.22    0.37
  -4   4   6    1.14    0.34
   4  -4  -5  229.99    8.22
  -4   4   5  227.85    7.38
   4  -4  -4   19.76    0.90
  -4   4   4   20.54    0.90
   4  -4  -3   16.15    0.79
  -4   4   3   17.92    0.78
   4  -4  -2  106.41    3.21
  -4   4   2  105.14    3.27
   4  -4  -1   38.23    1.32
  -4   4   1   37.47    1.63
   4  -4   0   45.34    1.45
  -4   4   0   44.65    1.56
   4  -4   1   51.98    1.52
  -4   4  -1   50.22    1.80
   4  -4   2   22.46    0.78
  -4   4  -2   21.48    0.96
  -4   4  -2   20.71    0.49
   4  -4   3    2.36    0.41
   4  -4   3    1.52    0.32
  -4   4  -3    1.34    0.15
   4  -4   4   98.54    3.57
   4  -4   4   96.72    2.37
  -4   4  -4   94.50    2.24
   4  -4   5    0.39    0.42
   4  -4   5    0.55    0.24
  -4   4  -5    0.96    0.25
   4  -4   6    0.21    0.21
   4  -4   6    0.18    0.42
  -4   4  -6    0.11    0.21
   4  -4   7   74.51    3.45
  -4   4  -7   75.09    2.22
   4  -4   8   21.31    1.62
  -4   4  -8   20.35    0.87
   4  -4   9   21.51    1.70
  -4   4  -9   17.95    0.89
   4  -4  10    0.44    0.56
  -4   4 -10    0.97    0.45
   4  -4  11   13.18    1.53
  -4   4 -11   14.21    1.13
   4  -4  12    2.97    0.93
  -4   4 -12    2.78    0.56
   4  -4  13    7.90    1.21
  -4   4 -13   10.71    0.92
   4  -4  14    0.62    0.63
  -4   4 -14   -0.03    0.48
   4  -3 -14   11.70    0.87
  -4   3  14   10.17    1.05
   4  -3 -13    9.87    0.88
  -4   3  13   10.48    0.77
   4  -3 -12    3.76    0.54
  -4   3  12    3.29    0.60
   4  -3 -11   63.37    2.97
  -4   3  11   58.47    2.28
   4  -3 -10   -0.06    0.36
  -4   3  10    0.16    0.31
   4  -3  -9    0.46    0.36
  -4   3   9    0.41    0.30
   4  -3  -8  133.20    3.36
   4  -3  -8  159.22    5.36
  -4   3   8  154.11    4.62
   4  -3  -7   43.56    1.03
   4  -3  -7   51.69    1.86
  -4   3   7   49.38    1.76
   4  -3  -6   19.34    0.95
  -4   3   6   17.65    0.75
   4  -3  -5   19.89    0.93
  -4   3   5   19.85    0.81
   4  -3  -4   31.13    1.16
  -4   3   4   31.07    1.08
   4  -3  -3   22.52    0.90
   4  -3  -3   20.55    0.40
  -4   3   3   22.24    0.82
   4  -3  -2  252.69    7.34
   4  -3  -2  226.41    4.18
  -4   3   2  248.55    7.49
   4  -3  -1   52.87    1.80
   4  -3  -1   49.05    0.86
  -4   3   1   51.17    1.60
   4  -3   0   24.13    0.80
  -4   3   0   22.33    0.47
  -4   3   0   24.72    0.97
   4  -3   1   99.55    2.78
  -4   3  -1   93.84    2.82
  -4   3  -1   92.87    1.63
   4  -3   2    1.23    0.29
   4  -3   2    1.05    0.33
  -4   3  -2    0.98    0.18
   4  -3   3    6.20    0.42
   4  -3   3    5.66    0.68
  -4   3  -3    6.59    0.27
   4  -3   4   21.52    0.70
   4  -3   4   23.43    1.13
  -4   3  -4   22.67    0.74
   4  -3   5   11.23    0.46
   4  -3   5   12.65    0.84
  -4   3  -5   12.56    0.47
   4  -3   6   11.64    0.46
   4  -3   6   13.63    0.93
  -4   3  -6   14.00    0.56
   4  -3   7   14.47    0.46
   4  -3   7   16.35    1.11
  -4   3  -7   17.14    0.84
   4  -3   8   52.12    2.51
  -4   3  -8   50.73    1.77
   4  -3   9   28.77    1.75
  -4   3  -9   31.53    1.32
   4  -3  10   23.88    1.68
  -4   3 -10   25.10    1.27
   4  -3  11   16.92    1.64
  -4   3 -11   15.28    1.09
   4  -3  12   11.38    1.59
  -4   3 -12   11.95    1.15
   4  -3  13   19.17    1.60
  -4   3 -13   19.53    1.61
   4  -3  14    4.70    1.18
  -4   3 -14    4.11    0.75
   4  -2 -15    1.77    0.53
  -4   2  15    1.80    0.56
   4  -2 -14   27.82    1.50
  -4   2  14   25.79    1.35
   4  -2 -13    5.29    0.57
   4  -2 -13    6.28    0.70
  -4   2  13    5.00    0.55
   4  -2 -12   15.07    0.90
   4  -2 -12   17.22    1.08
  -4   2  12   16.82    1.03
   4  -2 -11   55.35    2.00
   4  -2 -11   70.77    3.04
  -4   2  11   63.54    2.21
   4  -2 -10   35.36    1.17
   4  -2 -10   42.44    2.04
  -4   2  10   39.40    1.50
   4  -2  -9   14.84    0.53
   4  -2  -9   17.44    0.92
  -4   2   9   16.14    0.70
   4  -2  -8    1.64    0.26
   4  -2  -8    1.40    0.43
  -4   2   8    1.93    0.30
   4  -2  -7   99.08    2.33
   4  -2  -7  109.64    3.51
  -4   2   7  101.19    2.75
   4  -2  -6    6.90    0.30
   4  -2  -6    7.05    0.54
  -4   2   6    7.37    0.38
   4  -2  -5   56.89    1.90
   4  -2  -5   54.40    1.16
  -4   2   5   57.12    1.57
   4  -2  -4   40.71    1.33
   4  -2  -4   36.28    0.75
  -4   2   4   38.72    1.32
   4  -2  -3   34.32    1.21
   4  -2  -3   33.23    0.69
  -4   2   3   34.90    1.03
   4  -2  -2  159.80    4.80
   4  -2  -2  151.92    2.85
  -4   2   2  155.78    4.26
   4  -2  -1   13.63    0.55
   4  -2  -1   12.75    0.38
  -4   2   1   13.44    0.72
   4  -2   0    0.60    0.24
   4  -2   0    0.89    0.14
  -4   2   0    0.57    0.26
   4  -2   1    9.95    0.46
   4  -2   1   10.37    0.31
   4  -2   1    9.23    0.70
   4  -2   2   90.08    2.37
   4  -2   2   87.90    2.80
  -4   2  -2   88.61    1.98
   4  -2   3    5.04    0.37
   4  -2   3    4.91    0.50
  -4   2  -3    4.91    0.34
   4  -2   4    0.35    0.21
   4  -2   4    0.52    0.32
  -4   2  -4    0.58    0.25
   4  -2   5   55.83    1.19
   4  -2   5   57.49    2.19
  -4   2  -5   59.01    1.74
   4  -2   6   14.05    0.91
   4  -2   6   13.30    0.43
  -4   2  -6   13.79    0.61
   4  -2   7   60.70    2.65
  -4   2  -7   65.54    2.35
   4  -2   8    3.37    0.54
  -4   2  -8    2.58    0.51
   4  -2   9   12.03    1.08
  -4   2  -9   12.46    0.78
   4  -2  10   43.05    2.50
  -4   2 -10   43.73    1.89
   4  -2  11    1.51    0.65
  -4   2 -11    2.44    0.64
   4  -2  12    4.62    0.94
  -4   2 -12    5.59    0.75
   4  -2  13    1.07    0.70
  -4   2 -13    1.42    0.68
   4  -2  14    1.90    0.64
  -4   2 -14   -0.90    0.51
  -4   1  15    3.08    0.59
   4  -1 -14   11.48    1.01
   4  -1 -14   14.46    1.01
  -4   1  14   12.35    0.79
   4  -1 -13   18.54    1.17
   4  -1 -13   20.28    1.24
  -4   1  13   18.34    0.90
   4  -1 -12    2.01    0.43
   4  -1 -12    1.91    0.50
  -4   1  12    2.54    0.44
   4  -1 -11    2.57    0.42
   4  -1 -11    2.65    0.54
  -4   1  11    2.83    0.34
   4  -1 -10   66.14    2.04
   4  -1 -10   77.27    2.91
  -4   1  10   71.23    2.08
   4  -1  -9   23.06    0.95
   4  -1  -9   25.02    1.23
  -4   1   9   23.32    0.95
   4  -1  -8    4.04    0.38
   4  -1  -8    4.15    0.50
  -4   1   8    4.64    0.37
   4  -1  -7   58.38    1.39
   4  -1  -7   65.54    2.63
  -4   1   7   59.99    1.44
   4  -1  -6   60.48    1.52
   4  -1  -6   63.81    2.13
  -4   1   6   59.89    1.66
   4  -1  -5  151.66    3.58
   4  -1  -5  146.17    4.53
  -4   1   5  145.63    3.49
   4  -1  -4   16.00    0.53
   4  -1  -4   16.84    0.71
  -4   1   4   16.03    0.64
   4  -1  -3    0.54    0.29
   4  -1  -3    1.18    0.21
  -4   1   3    1.00    0.22
   4  -1  -2    5.17    0.50
   4  -1  -2    5.36    0.29
  -4   1   2    5.41    0.33
   4  -1  -1  105.77    3.07
   4  -1  -1  104.90    2.14
  -4   1   1  107.96    2.79
   4  -1   0   24.80    0.79
   4  -1   0   25.62    0.71
   4  -1   0   26.74    0.82
   4  -1   1   39.55    1.19
   4  -1   1   38.21    0.92
   4  -1   1   39.51    1.27
   4  -1   2  165.86    4.37
   4  -1   2  170.57    4.09
   4  -1   2  168.65    5.28
   4  -1   3  101.29    2.34
   4  -1   3  100.08    3.26
  -4   1  -3  102.39    2.47
   4  -1   4   83.12    2.04
   4  -1   4   77.52    2.85
  -4   1  -4   86.30    2.35
   4  -1   5   13.75    0.47
   4  -1   5   13.64    0.81
  -4   1  -5   14.56    0.59
   4  -1   6   50.80    1.17
   4  -1   6   51.47    2.07
  -4   1  -6   55.68    1.83
   4  -1   7   96.09    4.27
  -4   1  -7   97.06    3.07
   4  -1   8    1.32    0.56
  -4   1  -8    0.10    0.41
   4  -1   9    2.26    0.58
  -4   1  -9    2.90    0.48
   4  -1  10    1.47    0.53
  -4   1 -10    0.54    0.43
   4  -1  11   56.07    3.40
  -4   1 -11   61.20    3.00
   4  -1  12    8.66    1.40
  -4   1 -12    9.22    0.90
   4  -1  13    3.32    0.89
  -4   1 -13    3.90    0.75
   4  -1  14   19.43    1.82
  -4   1 -14   19.49    1.53
   4   0 -15    2.27    0.59
  -4   0  15    4.12    0.60
   4   0 -14    1.63    0.47
  -4   0  14    1.79    0.50
   4   0 -13   33.43    1.44
  -4   0  13   28.82    1.68
   4   0 -12   71.16    2.72
  -4   0  12   71.22    2.28
   4   0 -11   56.80    2.08
   4   0 -11   64.50    2.60
  -4   0  11   56.62    1.86
   4   0 -10    2.76    0.44
   4   0 -10    4.51    0.55
  -4   0  10    2.56    0.28
   4   0  -9    1.57    0.35
   4   0  -9    2.54    0.44
  -4   0   9    1.66    0.28
   4   0  -8    2.50    0.31
   4   0  -8    3.14    0.46
  -4   0   8    2.35    0.27
   4   0  -7    5.28    0.35
   4   0  -7    5.04    0.52
  -4   0   7    5.00    0.33
   4   0  -6    1.99    0.24
   4   0  -6    2.09    0.38
  -4   0   6    1.58    0.19
   4   0  -5   11.95    0.47
   4   0  -5   12.82    0.78
  -4   0   5   12.70    0.45
   4   0  -4  183.62    4.48
   4   0  -4  182.32    5.70
  -4   0   4  173.41    3.99
   4   0  -3    0.67    0.19
   4   0  -3    0.36    0.28
  -4   0   3    0.35    0.17
   4   0  -2    0.10    0.18
   4   0  -2    0.28    0.26
  -4   0   2    0.30    0.22
   4   0  -1   83.21    1.96
   4   0  -1   85.62    2.37
  -4   0   1   85.53    2.25
   4   0   0    7.08    0.35
   4   0   0    7.57    0.42
   4   0   0    7.15    0.40
   4   0   1   37.65    1.21
   4   0   1   34.51    1.13
   4   0   1   36.17    1.14
   4   0   2    0.84    0.24
   4   0   2    0.85    0.23
   4   0   2    0.17    0.28
   4   0   3   34.36    1.08
   4   0   3   34.01    0.99
   4   0   3   32.28    1.45
   4   0   4   24.36    1.13
  -4   0  -4   26.71    1.01
  -4   0  -4   21.26    0.61
   4   0   5   11.53    0.66
  -4   0  -5    9.23    0.39
  -4   0  -5   12.61    0.60
   4   0   6    0.72    0.42
  -4   0  -6    0.25    0.29
   4   0   7    0.79    0.49
  -4   0  -7    0.85    0.33
   4   0   8  122.83    5.09
  -4   0  -8  122.61    4.25
   4   0   9    1.13    0.58
  -4   0  -9    0.77    0.41
   4   0  10    1.13    0.75
  -4   0 -10    2.30    0.52
   4   0  11    2.49    0.70
  -4   0 -11    2.56    0.60
   4   0  12    0.21    0.65
  -4   0 -12    0.72    0.51
   4   0  13    0.88    0.72
  -4   0 -13    1.92    0.55
   4   1 -15   15.67    1.46
  -4  -1  15   16.97    1.48
   4   1 -14    0.30    0.49
  -4  -1  14   -0.82    0.44
   4   1 -13    8.73    0.76
  -4  -1  13    8.84    0.85
   4   1 -12    4.93    0.69
  -4  -1  12    4.48    0.64
   4   1 -11   23.72    1.32
  -4  -1  11   21.40    1.30
   4   1 -10   12.09    0.68
  -4  -1  10    6.62    0.80
   4   1  -9   35.18    1.37
  -4  -1   9   30.30    1.86
   4   1  -8   34.60    1.19
  -4  -1   8   30.97    0.79
  -4  -1   8   31.78    1.52
   4   1  -7  244.61    7.19
  -4  -1   7  223.73    5.19
   4   1  -6    2.71    0.31
   4   1  -6    1.95    0.44
  -4  -1   6    2.86    0.19
   4   1  -5    1.86    0.27
   4   1  -5    1.59    0.38
  -4  -1   5    1.55    0.17
   4   1  -4   57.04    1.53
   4   1  -4   60.23    1.96
  -4  -1   4   53.40    1.11
   4   1  -3   96.33    2.48
   4   1  -3  111.51    3.34
  -4  -1   3   97.93    1.96
   4   1  -2    3.02    0.31
  -4  -1   2    3.79    0.23
   4   1  -1   -0.12    0.21
   4   1  -1    0.31    0.17
  -4  -1   1    0.05    0.19
   4   1   0   17.80    0.67
   4   1   0   19.18    0.61
  -4  -1   0   15.79    0.74
   4   1   1  160.52    4.35
   4   1   1  168.18    4.78
  -4  -1  -1  153.85    4.83
   4   1   2  165.29    4.37
   4   1   2  165.75    4.79
  -4  -1  -2  156.56    4.30
   4   1   3   98.73    2.74
   4   1   3   95.67    2.82
  -4  -1  -3   92.87    2.40
   4   1   4    2.91    0.38
   4   1   4    3.79    0.38
  -4  -1  -4    2.57    0.29
   4   1   5   48.52    1.91
  -4  -1  -5   52.78    1.69
  -4  -1  -5   48.63    1.17
   4   1   6    1.43    0.40
  -4  -1  -6    1.40    0.45
   4   1   7    2.38    0.48
  -4  -1  -7    2.40    0.43
   4   1   8   -0.25    0.41
  -4  -1  -8   -0.12    0.37
   4   1   9   53.29    2.68
  -4  -1  -9   50.31    2.60
   4   1  10    5.38    0.99
  -4  -1 -10    4.68    0.67
   4   1  11    0.97    0.57
  -4  -1 -11   -0.07    0.46
   4   1  12   23.62    1.96
  -4  -1 -12   22.17    1.57
   4   1  13    3.35    0.93
  -4  -1 -13    3.18    0.75
   4   2 -15    6.66    1.01
  -4  -2  15    8.38    1.08
   4   2 -14    2.71    0.72
  -4  -2  14    3.58    0.66
   4   2 -13   11.10    0.93
  -4  -2  13   12.97    1.00
   4   2 -12   14.53    1.25
  -4  -2  12   15.40    1.12
   4   2 -11    3.37    0.64
  -4  -2  11    2.79    0.58
   4   2 -10   10.03    0.74
  -4  -2  10    8.55    0.94
   4   2  -9    0.73    0.47
  -4  -2   9    1.41    0.44
   4   2  -8    0.65    0.30
  -4  -2   8   -0.22    0.36
   4   2  -7   20.46    0.93
  -4  -2   7   21.84    1.35
   4   2  -6   43.29    1.43
  -4  -2   6   46.69    1.99
   4   2  -5    2.71    0.41
  -4  -2   5    2.50    0.47
   4   2  -4    0.18    0.25
  -4  -2   4   -0.16    0.38
   4   2  -3   82.60    2.24
  -4  -2   3   77.83    1.50
  -4  -2   3   88.14    2.81
   4   2  -2   35.72    1.16
  -4  -2   2   33.57    0.77
  -4  -2   2   34.92    1.31
   4   2  -1  107.33    3.13
   4   2  -1  119.98    2.69
  -4  -2   1  107.97    3.50
   4   2   0   38.28    1.31
   4   2   0   42.53    1.18
  -4  -2   0   39.13    1.34
   4   2   1   30.38    1.06
   4   2   1   30.50    1.01
  -4  -2  -1   29.49    1.01
   4   2   2   10.71    0.59
   4   2   2   11.93    0.62
  -4  -2  -2   11.90    0.52
   4   2   3    4.92    0.46
   4   2   3    4.72    0.40
  -4  -2  -3    5.62    0.40
   4   2   4   31.51    1.25
   4   2   4   31.06    1.36
  -4  -2  -4   29.82    0.99
   4   2   5    1.51    0.42
  -4  -2  -5    0.92    0.35
  -4  -2  -5    1.06    0.23
   4   2   6  145.46    5.54
  -4  -2  -6  153.03    5.19
   4   2   7    3.46    0.63
  -4  -2  -7    1.52    0.44
   4   2   8    3.22    0.60
  -4  -2  -8    2.43    0.52
   4   2   9   17.25    1.65
  -4  -2  -9   16.94    1.06
   4   2  10   10.96    1.10
  -4  -2 -10   11.08    0.92
   4   2  11    9.65    1.45
  -4  -2 -11   10.99    1.01
   4   2  12    1.73    0.75
  -4  -2 -12    2.29    0.65
   4   3 -15    5.59    0.82
  -4  -3  15    7.25    0.95
   4   3 -14    4.06    0.68
  -4  -3  14    4.60    0.71
   4   3 -13   44.58    2.47
  -4  -3  13   48.53    2.58
   4   3 -12   20.54    1.39
  -4  -3  12   22.89    1.52
   4   3 -11   17.15    1.15
  -4  -3  11   19.23    1.31
   4   3 -10    8.96    0.79
  -4  -3  10    9.20    0.90
   4   3  -9   48.05    2.45
  -4  -3   9   48.57    2.23
   4   3  -8    5.48    0.67
  -4  -3   8    3.92    0.58
   4   3  -7    0.20    0.34
  -4  -3   7    1.10    0.42
   4   3  -6   62.98    2.51
  -4  -3   6   68.82    2.74
   4   3  -5   65.85    2.20
  -4  -3   5   69.48    2.78
   4   3  -4   93.31    3.08
  -4  -3   4  100.48    3.64
   4   3  -3    3.01    0.39
  -4  -3   3    2.74    0.45
   4   3  -2    2.94    0.40
  -4  -3   2    4.12    0.46
   4   3  -1    1.14    0.31
   4   3  -1    0.63    0.17
  -4  -3   1    1.57    0.41
   4   3   0   -0.30    0.27
   4   3   0    0.24    0.20
  -4  -3   0   -0.02    0.33
   4   3   1   74.82    2.59
   4   3   1   77.92    2.15
  -4  -3  -1   83.41    2.53
   4   3   2   14.04    0.89
   4   3   2   14.84    0.67
  -4  -3  -2   14.89    0.66
   4   3   3  123.23    4.21
   4   3   3  122.59    3.98
  -4  -3  -3  125.15    3.89
   4   3   4   13.80    0.76
   4   3   4   12.36    0.68
  -4  -3  -4   12.77    0.61
   4   3   5    2.75    0.42
   4   3   5    1.86    0.39
  -4  -3  -5    1.03    0.27
   4   3   6   19.69    1.13
  -4  -3  -6   20.68    1.12
   4   3   7    3.61    0.59
  -4  -3  -7    3.99    0.54
   4   3   8    6.38    0.71
  -4  -3  -8    5.70    0.68
   4   3   9    1.42    0.58
  -4  -3  -9    2.16    0.54
   4   3  10    9.53    1.20
  -4  -3 -10    9.57    0.88
   4   3  11    7.94    1.08
  -4  -3 -11   10.02    0.98
   4   3  12   11.01    1.45
  -4  -3 -12    9.87    1.07
   4   4 -14    9.80    1.13
  -4  -4  14   11.05    1.40
   4   4 -13   15.75    1.36
  -4  -4  13   19.20    1.81
   4   4 -12   10.43    1.02
  -4  -4  12   10.96    1.35
   4   4 -11    3.83    0.66
  -4  -4  11    3.59    0.77
   4   4 -10    5.18    0.73
  -4  -4  10    7.45    0.83
   4   4  -9   13.54    1.00
  -4  -4   9   13.67    1.12
   4   4  -8   15.91    1.21
  -4  -4   8   13.82    1.10
   4   4  -7    5.90    0.75
  -4  -4   7    6.35    0.76
   4   4  -6    0.27    0.38
  -4  -4   6    1.07    0.46
   4   4  -5   51.39    1.99
  -4  -4   5   62.69    2.68
   4   4  -4   27.94    1.51
  -4  -4   4   32.77    1.60
   4   4  -3   28.77    1.21
  -4  -4   3   36.70    1.59
   4   4  -2    0.48    0.35
  -4  -4   2    0.99    0.41
   4   4  -1    1.75    0.38
  -4  -4   1    3.14    0.45
   4   4   0   65.45    2.44
   4   4   0   61.39    1.59
  -4  -4   0   75.34    2.55
   4   4   1    9.01    0.63
   4   4   1    8.36    0.45
  -4  -4  -1   10.13    0.62
   4   4   2    5.40    0.59
   4   4   2    6.17    0.44
  -4  -4  -2    6.11    0.49
   4   4   3   14.02    0.88
   4   4   3   14.80    0.62
  -4  -4  -3   15.75    0.70
   4   4   4   10.88    0.81
   4   4   4   11.79    0.67
  -4  -4  -4   11.70    0.64
   4   4   5    6.59    0.71
   4   4   5    7.95    0.73
   4   4   6    3.91    0.51
  -4  -4  -6    4.02    0.54
   4   4   7   11.41    1.13
  -4  -4  -7   14.11    1.03
   4   4   8   15.12    1.33
  -4  -4  -8   14.83    1.10
   4   4   9   20.56    1.34
  -4  -4  -9   19.08    1.39
   4   4  10    0.77    0.59
  -4  -4 -10    1.62    0.53
   4   4  11   -0.10    0.61
  -4  -4 -11    1.43    0.51
   4   5 -14    0.44    0.71
  -4  -5  14    0.35    0.57
   4   5 -13    0.56    0.57
  -4  -5  13    1.01    0.59
   4   5 -12    0.06    0.63
  -4  -5  12    0.61    0.51
   4   5 -11    8.89    0.98
  -4  -5  11    9.59    1.09
   4   5 -10    2.05    0.74
  -4  -5  10    2.60    0.81
   4   5  -9    1.25    0.49
  -4  -5   9    0.80    0.60
   4   5  -8   28.59    1.93
  -4  -5   8   31.49    1.94
   4   5  -7   16.28    1.30
  -4  -5   7   16.77    1.63
   4   5  -6   14.24    1.06
  -4  -5   6   16.21    1.24
   4   5  -5    5.32    0.67
  -4  -5   5    5.81    0.96
   4   5  -4    1.05    0.39
  -4  -5   4    0.80    0.63
   4   5  -3    2.65    0.48
  -4  -5   3    4.56    0.58
   4   5  -2    6.45    0.63
  -4  -5   2    7.22    0.72
   4   5  -1   11.22    0.80
  -4  -5   1   11.13    0.81
   4   5   0   61.53    2.43
  -4  -5   0   63.89    2.51
   4   5   1   44.98    1.98
  -4  -5  -1   51.02    1.91
   4   5   2   10.61    0.84
   4   5   2   10.54    0.55
  -4  -5  -2   12.80    0.68
   4   5   3    2.13    0.61
   4   5   3    2.95    0.40
  -4  -5  -3    2.07    0.38
   4   5   4   52.10    2.74
   4   5   4   54.84    2.20
  -4  -5  -4   49.15    2.09
   4   5   5    8.96    1.00
   4   5   5    8.95    0.74
   4   5   6   10.21    0.77
  -4  -5  -6    9.89    0.64
   4   5   7    0.95    0.54
  -4  -5  -7    1.09    0.49
   4   5   8   -0.34    0.45
  -4  -5  -8    1.38    0.46
   4   5   9   10.19    1.28
  -4  -5  -9   12.53    1.06
   4   5  10    0.93    0.57
  -4  -5 -10    1.29    0.54
   4   6 -13    0.23    0.53
  -4  -6  13   -0.19    0.57
   4   6 -12    0.05    0.54
  -4  -6  12   -0.04    0.69
   4   6 -11   12.59    1.22
  -4  -6  11   13.44    1.34
   4   6 -10    6.96    0.92
  -4  -6  10    8.59    1.09
   4   6  -9    4.19    0.78
  -4  -6   9    7.39    0.92
   4   6  -8    0.30    0.46
  -4  -6   8    0.12    0.54
   4   6  -7    0.59    0.48
  -4  -6   7    0.34    0.53
   4   6  -6    3.31    0.62
  -4  -6   6    4.21    0.73
   4   6  -5    3.07    0.60
  -4  -6   5    2.85    0.82
   4   6  -4   16.28    1.06
  -4  -6   4   19.98    1.58
   4   6  -3   10.56    0.90
  -4  -6   3   13.28    1.03
   4   6  -2   60.82    2.77
  -4  -6   2   74.84    3.69
   4   6  -1    2.68    0.55
  -4  -6   1    4.23    0.68
   4   6   0    0.72    0.46
  -4  -6   0    2.15    0.46
   4   6   1    9.79    0.98
  -4  -6  -1    9.77    0.95
   4   6   2    1.49    0.61
  -4  -6  -2    2.31    0.54
   4   6   3   27.02    1.78
  -4  -6  -3   26.08    1.41
   4   6   4    2.39    0.53
   4   6   4    1.60    0.41
  -4  -6  -4    2.15    0.43
   4   6   5    1.18    0.51
   4   6   5    0.84    0.43
   4   6   6    2.06    0.47
  -4  -6  -6    0.01    0.32
   4   6   7    3.11    0.63
  -4  -6  -7    3.20    0.61
   4   6   8    0.58    0.42
  -4  -6  -8   -1.18    0.47
   4   7 -11    0.40    0.66
  -4  -7  11   -0.67    0.62
   4   7 -10    0.10    0.61
  -4  -7  10   -0.02    0.61
   4   7  -9    7.74    0.98
  -4  -7   9    8.36    1.14
   4   7  -8    0.51    0.49
  -4  -7   8   -0.01    0.59
   4   7  -7    7.64    0.92
  -4  -7   7    9.46    1.09
   4   7  -6   13.86    1.24
  -4  -7   6   15.51    1.44
   4   7  -5   36.71    2.25
  -4  -7   5   44.72    2.55
   4   7  -4    3.07    0.61
  -4  -7   4    3.48    0.74
   4   7  -3    2.85    0.61
  -4  -7   3    4.48    0.69
   4   7  -2    5.27    0.67
  -4  -7   2    6.95    0.80
   4   7  -1    5.24    0.67
  -4  -7   1    5.91    0.78
   4   7   0    9.90    1.10
  -4  -7   0   10.83    0.93
   4   7   1   -0.08    0.42
  -4  -7  -1   -0.00    0.48
   4   7   2   35.78    1.97
  -4  -7  -2   35.82    1.98
   4   7   3    7.94    0.86
  -4  -7  -3    7.76    0.61
   4   7   4    8.47    0.91
   4   7   5    2.34    0.63
  -4  -7  -6    0.10    0.32
  -4  -7  -7    9.67    1.06
   4   8  -9    0.09    0.58
  -4  -8   9    0.59    0.68
   4   8  -8   -0.05    0.52
  -4  -8   8    0.06    0.59
   4   8  -7    0.28    0.55
  -4  -8   7    0.70    0.64
   4   8  -6   11.31    1.19
  -4  -8   6   13.69    1.75
   4   8  -5   10.02    1.05
  -4  -8   5   12.21    1.55
   4   8  -4   21.54    1.53
  -4  -8   4   25.30    1.90
   4   8  -3    0.72    0.53
  -4  -8   3    0.50    0.58
   4   8  -2    0.55    0.45
  -4  -8   2    0.05    0.52
   4   8  -1    6.53    0.82
  -4  -8   1    7.36    0.90
   4   8   0   -0.35    0.46
  -4  -8   0    0.47    0.44
   4   8   1    8.92    0.89
  -4  -8  -1   10.05    0.88
   4   8   2    0.48    0.52
  -4  -8  -2    1.22    0.50
   4   8   3    0.62    0.47
   4   8   4    3.88    0.70
   4   9  -6    1.65    0.78
  -4  -9   6    2.15    0.86
   4   9  -5    0.37    0.51
  -4  -9   5   -0.11    0.77
   4   9  -4    0.93    0.65
  -4  -9   4    3.29    0.78
   4   9  -3   -0.35    0.49
  -4  -9   3   -0.05    0.56
   4   9  -2    1.38    0.53
  -4  -9   2    1.71    0.63
   4   9  -1    0.03    0.49
  -4  -9   1    0.17    0.52
   4   9   0    0.64    0.50
  -4  -9   0    0.32    0.47
   4   9   1   10.09    1.06
   5 -10  -2   11.08    1.34
  -5  10   2   10.38    1.12
   5 -10  -1    3.75    0.75
  -5  10   1    4.45    0.82
   5 -10   0    0.68    0.47
  -5  10   0   -0.49    0.53
   5 -10   1   12.26    1.12
  -5  10  -1   13.34    1.20
   5 -10   2    4.12    0.84
  -5  10  -2    3.39    0.79
   5 -10   3    1.25    0.52
  -5  10  -3    1.17    0.60
   5 -10   4    6.10    0.92
  -5  10  -4    7.93    1.01
   5  -9  -6    7.38    0.95
  -5   9   6    7.50    0.98
   5  -9  -5   26.27    1.73
  -5   9   5   22.85    1.76
   5  -9  -4   16.93    1.37
  -5   9   4   15.70    1.28
   5  -9  -3    5.10    0.90
  -5   9   3    3.78    0.80
   5  -9  -2    1.47    0.53
  -5   9   2    1.85    0.62
   5  -9  -1   42.79    2.22
  -5   9   1   37.93    2.44
   5  -9   0   -0.47    0.42
  -5   9   0   -0.14    0.61
   5  -9   1    1.65    0.54
  -5   9  -1    2.69    0.63
   5  -9   2    8.56    0.83
  -5   9  -2    8.81    1.02
   5  -9   3    8.35    0.80
  -5   9  -3    8.09    1.00
   5  -9   4   15.82    1.21
  -5   9  -4   13.67    1.59
   5  -9   5    6.97    0.71
  -5   9  -5    9.30    0.96
   5  -9   6    0.28    0.45
  -5   9  -6    0.37    0.56
   5  -9   7    7.52    0.80
  -5   9  -7    8.47    1.08
   5  -8  -8   10.81    1.02
  -5   8   8   10.92    1.16
   5  -8  -7    1.69    0.64
  -5   8   7    3.25    0.64
   5  -8  -6   10.93    0.99
  -5   8   6    9.80    1.05
   5  -8  -5   15.87    1.30
  -5   8   5   16.69    1.51
   5  -8  -4   34.16    2.04
  -5   8   4   34.42    2.14
   5  -8  -3    0.12    0.47
  -5   8   3   -0.54    0.46
   5  -8  -2   -0.59    0.50
  -5   8   2    0.57    0.46
   5  -8  -1   97.01    4.09
  -5   8   1   89.71    4.39
   5  -8   0    2.40    0.53
  -5   8   0    2.32    0.58
   5  -8   1    5.96    0.77
  -5   8  -1    4.96    0.76
   5  -8   2    2.78    0.53
  -5   8  -2    3.04    0.67
   5  -8   3   -0.03    0.46
  -5   8  -3    0.49    0.58
   5  -8   4    4.03    0.53
  -5   8  -4    4.09    0.90
   5  -8   5    4.90    0.57
  -5   8  -5    7.41    0.87
   5  -8   6    0.65    0.34
  -5   8  -6    0.59    0.59
   5  -8   7    5.21    0.49
  -5   8  -7    5.67    0.83
  -5   8  -8   15.27    1.44
  -5   8  -9    0.71    0.46
   5  -7  -9   12.18    1.10
  -5   7   9   11.15    1.09
   5  -7  -8    1.85    0.60
  -5   7   8    1.18    0.58
   5  -7  -7   36.51    1.96
  -5   7   7   33.69    2.03
   5  -7  -6    8.07    0.83
  -5   7   6    6.67    0.83
   5  -7  -5    0.11    0.43
  -5   7   5   -0.20    0.41
   5  -7  -4   55.46    2.67
  -5   7   4   55.77    3.21
   5  -7  -3   14.10    1.26
  -5   7   3   14.83    1.37
   5  -7  -2    4.53    0.62
  -5   7   2    4.28    0.67
   5  -7  -1    2.88    0.53
  -5   7   1    2.67    0.59
   5  -7   0    4.19    0.57
  -5   7   0    3.95    0.66
   5  -7   1    6.96    0.68
  -5   7  -1    8.52    1.01
   5  -7   2   11.92    0.79
  -5   7  -2   11.04    0.98
   5  -7   3   35.48    1.48
  -5   7  -3   34.92    1.89
   5  -7   4    7.93    0.74
  -5   7  -4    7.60    0.91
   5  -7   5   36.98    1.49
  -5   7  -5   39.81    2.25
   5  -7   6    0.51    0.29
  -5   7  -6    0.50    0.51
   5  -7   7    0.43    0.27
  -5   7  -7    0.01    0.38
   5  -7   8    2.33    0.89
   5  -7   9    1.41    0.80
   5  -7  10    3.55    0.84
   5  -6 -10   28.74    2.05
  -5   6  10   24.58    1.61
   5  -6  -9    0.64    0.62
  -5   6   9    0.49    0.46
   5  -6  -8    0.78    0.51
  -5   6   8    0.78    0.45
   5  -6  -7   63.69    2.97
  -5   6   7   57.41    2.74
   5  -6  -6   22.49    1.44
  -5   6   6   21.18    1.26
   5  -6  -5    2.76    0.54
  -5   6   5    1.68    0.65
   5  -6  -4    0.89    0.43
  -5   6   4    1.21    0.49
   5  -6  -3   33.38    1.63
  -5   6   3   32.68    1.73
   5  -6  -2    1.41    0.45
  -5   6   2    1.17    0.48
   5  -6  -1   26.20    1.32
  -5   6   1   23.84    1.37
   5  -6   0    4.45    0.53
  -5   6   0    3.78    0.62
   5  -6   1    0.62    0.45
  -5   6  -1    0.97    0.46
   5  -6   2    6.16    0.56
  -5   6  -2    5.93    0.68
   5  -6   3    2.45    0.42
  -5   6  -3    2.84    0.60
   5  -6   4    5.14    0.48
  -5   6  -4    4.13    0.68
   5  -6   5   14.81    0.90
  -5   6  -5   14.36    1.19
   5  -6   6    0.71    0.29
   5  -6   6    1.11    0.53
   5  -6   7    0.52    0.25
   5  -6   7    0.43    0.54
   5  -6   8    1.35    0.64
   5  -6   9   21.02    2.05
   5  -6  10    1.63    0.74
   5  -6  11    2.27    0.82
   5  -5 -11    0.28    0.46
  -5   5  11   -0.41    0.41
   5  -5 -10   19.36    1.40
  -5   5  10   17.76    1.21
   5  -5  -9   40.07    2.16
  -5   5   9   37.37    2.24
   5  -5  -8    2.17    0.57
  -5   5   8    1.75    0.49
   5  -5  -7    3.39    0.73
  -5   5   7    3.21    0.52
   5  -5  -6   58.46    2.66
  -5   5   6   52.52    2.60
   5  -5  -5   10.06    1.04
  -5   5   5    9.44    0.77
   5  -5  -4   47.04    2.17
  -5   5   4   47.99    1.99
   5  -5  -3   19.09    1.18
  -5   5   3   18.58    1.10
   5  -5  -2   42.96    1.79
  -5   5   2   41.23    1.84
   5  -5  -1   15.16    0.92
  -5   5   1   14.82    1.00
   5  -5   0    0.28    0.41
  -5   5   0    0.59    0.40
   5  -5   1    0.17    0.30
  -5   5  -1    0.27    0.38
   5  -5   2   44.74    1.67
  -5   5  -2   47.41    2.17
   5  -5   3   92.00    3.00
  -5   5  -3   94.71    4.03
   5  -5   4    7.48    0.49
  -5   5  -4    0.54    0.45
   5  -5   5    0.96    0.27
   5  -5   5    1.54    0.54
   5  -5   6   24.09    0.85
   5  -5   6   26.97    1.67
  -5   5  -6   23.66    0.98
   5  -5   7    2.42    0.33
   5  -5   7    2.54    0.64
  -5   5  -7    2.24    0.42
   5  -5   8   15.95    1.68
  -5   5  -8   13.67    0.73
   5  -5   9    0.60    0.80
  -5   5  -9    0.79    0.43
   5  -5  10    1.55    0.75
  -5   5 -10    2.76    0.44
   5  -5  11    3.43    1.05
  -5   5 -11    3.13    0.64
   5  -4 -12   13.96    1.33
  -5   4  12   11.63    1.13
   5  -4 -11    5.21    0.90
  -5   4  11    4.05    0.69
   5  -4 -10   -0.44    0.44
  -5   4  10    0.17    0.35
   5  -4  -9   64.41    3.08
  -5   4   9   59.96    2.85
   5  -4  -8    4.26    0.61
  -5   4   8    3.65    0.50
   5  -4  -7   12.88    1.14
  -5   4   7   11.57    0.77
   5  -4  -6    0.24    0.41
  -5   4   6    0.27    0.40
   5  -4  -5    2.68    0.54
  -5   4   5    2.58    0.56
   5  -4  -4    1.01    0.42
  -5   4   4    0.41    0.46
   5  -4  -3    3.57    0.54
  -5   4   3    4.53    0.60
   5  -4  -2    7.32    0.62
  -5   4   2    7.61    0.65
   5  -4  -1   42.51    1.74
  -5   4   1   43.04    1.83
   5  -4   0   72.31    2.58
  -5   4   0   73.34    3.22
   5  -4   1   14.63    0.78
  -5   4  -1   15.82    1.01
   5  -4   2    6.48    0.50
  -5   4  -2    6.10    0.64
   5  -4   3   47.62    1.57
  -5   4  -3   46.86    1.33
   5  -4   4    1.04    0.27
   5  -4   4    1.33    0.47
  -5   4  -4    1.16    0.26
   5  -4   5   30.67    1.01
   5  -4   5   31.22    1.77
  -5   4  -5   30.93    1.13
   5  -4   6    0.11    0.24
   5  -4   6    0.21    0.47
  -5   4  -6    0.25    0.28
   5  -4   7   30.40    1.93
  -5   4  -7   27.45    1.04
   5  -4   8    2.77    0.70
  -5   4  -8    3.05    0.42
   5  -4   9    3.36    0.74
  -5   4  -9    2.49    0.44
   5  -4  10    2.37    0.71
  -5   4 -10    1.06    0.42
   5  -4  11    4.78    1.02
  -5   4 -11    5.92    0.67
   5  -3 -13    7.24    1.06
   5  -3 -12   26.63    1.99
  -5   3  12   24.22    1.27
   5  -3 -11   11.69    1.18
  -5   3  11    8.03    0.78
   5  -3 -10    2.80    0.59
  -5   3  10    2.00    0.41
   5  -3  -9    1.12    0.53
  -5   3   9    1.53    0.36
   5  -3  -8   19.36    1.22
  -5   3   8   18.60    0.92
   5  -3  -7   33.65    1.66
  -5   3   7   30.61    1.24
   5  -3  -6   13.81    0.89
  -5   3   6   11.59    0.73
   5  -3  -5   23.40    1.26
  -5   3   5   23.95    1.27
   5  -3  -4   41.11    1.83
  -5   3   4   38.56    1.47
   5  -3  -3   81.84    3.24
  -5   3   3   81.32    3.14
   5  -3  -2    3.82    0.64
  -5   3   2    3.28    0.46
   5  -3  -1   39.64    1.68
  -5   3   1   39.58    1.57
   5  -3   0   40.79    1.46
  -5   3   0   34.78    0.92
  -5   3   0   39.79    1.84
   5  -3   1   32.78    1.20
  -5   3  -1   31.20    1.45
  -5   3  -1   29.80    0.86
   5  -3   2   13.28    0.80
  -5   3  -2   12.73    0.52
   5  -3   3    3.03    0.41
   5  -3   3    3.23    0.53
  -5   3  -3    2.73    0.32
   5  -3   4   30.23    1.12
   5  -3   4   30.36    1.56
  -5   3  -4   30.20    1.00
   5  -3   5    6.29    0.47
   5  -3   5    6.34    0.76
  -5   3  -5    8.17    0.54
   5  -3   6    7.26    0.42
   5  -3   6    7.78    0.85
  -5   3  -6    9.30    0.64
   5  -3   7    6.75    0.80
  -5   3  -7    6.62    0.61
   5  -3   8    0.31    0.52
  -5   3  -8    0.21    0.32
   5  -3   9    3.91    0.85
  -5   3  -9    4.80    0.65
   5  -3  10    9.97    1.13
  -5   3 -10    7.88    0.79
   5  -3  11   -1.25    0.77
  -5   3 -11    0.03    0.43
   5  -3  12    5.38    1.27
  -5   3 -12    4.98    0.90
   5  -2 -13    1.88    0.72
   5  -2 -12   15.61    1.22
   5  -2 -11   49.78    2.34
  -5   2  11   42.64    1.74
   5  -2 -10   13.35    0.99
  -5   2  10   10.78    0.78
   5  -2  -9    9.63    0.84
  -5   2   9    8.81    0.56
   5  -2  -8   16.02    1.35
  -5   2   8   16.39    0.73
   5  -2  -7    2.34    0.26
   5  -2  -7    2.81    0.52
  -5   2   7    1.92    0.33
   5  -2  -6   15.54    0.55
   5  -2  -6   18.66    1.02
  -5   2   6   18.80    0.90
   5  -2  -5    0.83    0.41
   5  -2  -5    1.46    0.23
  -5   2   5    2.08    0.38
   5  -2  -4    5.42    0.64
   5  -2  -4    3.81    0.27
  -5   2   4    3.80    0.40
   5  -2  -3  140.03    4.87
   5  -2  -3  125.91    3.09
  -5   2   3  136.58    4.11
   5  -2  -2   56.93    2.15
   5  -2  -2   53.09    1.25
  -5   2   2   57.88    1.88
   5  -2  -1    0.14    0.30
   5  -2  -1    0.01    0.19
  -5   2   1   -0.19    0.35
   5  -2   0    5.31    0.47
   5  -2   0    5.05    0.36
  -5   2   0    6.84    0.65
   5  -2   1   60.38    2.18
  -5   2  -1   59.22    1.44
  -5   2  -1   57.82    2.10
   5  -2   2    3.20    0.36
   5  -2   2    4.27    0.50
  -5   2  -2    4.37    0.36
   5  -2   3   38.45    1.36
   5  -2   3   40.89    1.74
  -5   2  -3   39.94    1.38
   5  -2   4    3.41    0.32
   5  -2   4    4.41    0.58
  -5   2  -4    3.21    0.33
   5  -2   5    4.10    0.36
   5  -2   5    4.36    0.75
  -5   2  -5    3.87    0.50
   5  -2   6    5.75    0.74
  -5   2  -6    5.59    0.47
   5  -2   7    0.80    0.69
  -5   2  -7    1.74    0.38
   5  -2   8   -0.02    0.60
  -5   2  -8    0.10    0.34
   5  -2   9    8.09    1.00
  -5   2  -9    8.15    0.88
   5  -2  10   22.08    1.77
  -5   2 -10   22.44    1.29
   5  -2  11    2.75    0.69
  -5   2 -11    1.13    0.53
   5  -2  12    1.79    0.96
  -5   2 -12    1.71    0.75
   5  -1 -13    0.80    0.55
   5  -1 -12    1.18    0.56
   5  -1 -11    4.93    0.97
   5  -1 -10    0.88    0.27
   5  -1 -10    0.35    0.48
  -5   1  10    0.71    0.31
   5  -1  -9   38.44    1.44
   5  -1  -9   45.06    2.12
  -5   1   9   40.46    1.47
   5  -1  -8    2.24    0.29
   5  -1  -8    3.34    0.55
  -5   1   8    2.52    0.36
   5  -1  -7    6.51    0.45
   5  -1  -7    6.67    0.68
  -5   1   7    5.69    0.43
   5  -1  -6   41.83    1.29
   5  -1  -6   48.37    1.88
  -5   1   6   46.20    1.33
   5  -1  -5   62.09    1.83
   5  -1  -5   66.72    2.48
  -5   1   5   64.16    2.11
   5  -1  -4   18.81    0.70
   5  -1  -4   20.23    1.04
  -5   1   4   19.67    0.71
   5  -1  -3   21.57    0.81
   5  -1  -3   22.43    1.30
  -5   1   3   22.61    0.95
   5  -1  -2   16.46    1.05
   5  -1  -2   17.01    0.59
  -5   1   2   18.26    0.72
   5  -1  -1   37.90    1.45
   5  -1  -1   36.70    1.05
  -5   1   1   39.29    1.33
   5  -1   0   29.99    1.21
   5  -1   0   30.98    0.91
  -5   1   0   33.72    1.41
   5  -1   1   23.70    0.97
   5  -1   1   24.65    0.95
   5  -1   1   25.23    1.27
   5  -1   2    9.27    0.61
   5  -1   2    9.20    0.65
   5  -1   3    4.96    0.37
   5  -1   3    4.32    0.55
  -5   1  -3    4.50    0.39
   5  -1   4    1.72    0.31
   5  -1   4    0.71    0.43
  -5   1  -4    0.53    0.30
   5  -1   5   19.19    0.77
   5  -1   5   20.31    1.21
  -5   1  -5   20.41    1.04
   5  -1   6   10.59    0.94
  -5   1  -6   11.08    0.66
   5  -1   7   44.56    2.46
  -5   1  -7   47.48    2.16
   5  -1   8    1.45    0.59
  -5   1  -8    1.86    0.56
   5  -1   9    2.69    0.86
  -5   1  -9    3.70    0.70
   5  -1  10   19.99    1.59
  -5   1 -10   22.93    1.65
   5  -1  11   10.86    1.28
  -5   1 -11   10.84    1.01
  -5   0  13    5.19    0.79
   5   0 -12    7.98    0.64
  -5   0  12    7.49    0.95
   5   0 -11    9.43    0.59
  -5   0  11    6.05    0.67
   5   0 -10   13.17    0.70
   5   0 -10   14.08    1.10
   5   0  -9    5.58    0.48
   5   0  -9    8.55    0.80
   5   0  -8   36.49    1.49
   5   0  -8   39.50    1.99
   5   0  -7   -0.11    0.24
   5   0  -7    0.91    0.40
  -5   0   7    0.26    0.22
   5   0  -6    1.66    0.30
   5   0  -6    2.87    0.52
  -5   0   6    2.38    0.27
   5   0  -5    7.15    0.51
   5   0  -5    7.01    0.73
  -5   0   5    7.43    0.34
   5   0  -4    0.94    0.25
   5   0  -4    0.27    0.37
  -5   0   4    0.01    0.25
   5   0  -3   33.66    1.10
   5   0  -3   37.38    1.55
  -5   0   3   35.80    1.22
   5   0  -2    3.25    0.42
   5   0  -2    3.17    0.58
  -5   0   2    3.82    0.40
   5   0  -1   88.40    2.55
   5   0  -1   94.62    3.31
  -5   0   1   95.62    3.01
   5   0   0    1.53    0.27
   5   0   0    0.92    0.34
  -5   0   0    0.24    0.19
   5   0   1    6.00    0.53
   5   0   1    6.31    0.50
   5   0   1    6.16    0.59
   5   0   2    0.99    0.28
   5   0   2    1.05    0.39
  -5   0  -2    0.17    0.20
   5   0   3    1.34    0.43
  -5   0  -3    0.10    0.20
  -5   0  -3    1.15    0.27
   5   0   4   28.47    1.34
  -5   0  -4   23.32    0.89
  -5   0  -4   29.03    1.13
   5   0   5    0.57    0.36
  -5   0  -5   -0.51    0.38
   5   0   6    0.65    0.42
  -5   0  -6   -0.06    0.33
   5   0   7    9.16    0.88
  -5   0  -7   10.17    0.74
   5   0   8    0.91    0.52
  -5   0  -8    0.87    0.43
   5   0   9    7.80    0.95
  -5   0  -9    7.92    0.85
   5   0  10    1.08    0.77
  -5   0 -10    1.22    0.52
   5   0  11    1.02    0.68
  -5   0 -11    1.70    0.56
   5   1 -13    9.71    0.82
  -5  -1  13    9.98    1.05
   5   1 -12    6.31    0.78
  -5  -1  12    7.74    1.11
   5   1 -11   21.94    1.13
  -5  -1  11   18.89    1.58
   5   1 -10    0.24    0.36
  -5  -1  10   -0.43    0.47
   5   1  -9   -0.29    0.28
  -5  -1   9    0.32    0.46
   5   1  -8   14.08    0.74
  -5  -1   8   11.67    1.02
   5   1  -7   15.03    0.73
  -5  -1   7   12.74    1.06
   5   1  -6    4.40    0.50
  -5  -1   6    3.36    0.57
   5   1  -5    5.07    0.48
  -5  -1   5    4.32    0.60
   5   1  -4   81.84    2.73
  -5  -1   4   72.99    1.90
  -5  -1   4   66.96    2.97
   5   1  -3   44.04    1.42
  -5  -1   3   43.00    1.23
  -5  -1   3   38.50    1.83
   5   1  -2   19.55    0.81
  -5  -1   2   15.79    1.27
  -5  -1   2   19.42    0.60
   5   1  -1    7.75    0.54
  -5  -1   1    8.70    0.53
  -5  -1   1    9.44    0.82
   5   1   0    5.13    0.45
   5   1   0    6.12    0.50
  -5  -1   0    5.62    0.53
   5   1   1   21.23    1.10
   5   1   1   19.94    0.95
  -5  -1  -1   19.06    1.04
   5   1   2    3.32    0.43
   5   1   2    4.36    0.51
  -5  -1  -2    2.93    0.48
   5   1   3   13.00    0.74
   5   1   3   12.22    0.88
  -5  -1  -3   11.33    0.59
   5   1   4   56.84    2.31
  -5  -1  -4   59.78    2.19
  -5  -1  -4   54.41    1.89
   5   1   5   48.62    2.60
  -5  -1  -5   49.68    2.32
   5   1   6   30.80    1.67
  -5  -1  -6   33.73    1.57
   5   1   7    1.69    0.49
  -5  -1  -7    0.98    0.43
   5   1   8    7.10    1.00
  -5  -1  -8    8.03    0.76
   5   1   9   -0.09    0.51
  -5  -1  -9    0.58    0.45
   5   1  10   19.03    1.51
  -5  -1 -10   18.45    1.62
   5   2 -13    0.77    0.46
  -5  -2  13    0.47    0.69
   5   2 -12   -0.35    0.41
  -5  -2  12    0.60    0.50
   5   2 -11   14.91    0.99
  -5  -2  11   14.16    1.36
   5   2 -10    3.85    0.52
  -5  -2  10    4.47    0.91
   5   2  -9    2.64    0.48
  -5  -2   9    3.21    0.64
   5   2  -8    2.20    0.45
  -5  -2   8    3.32    0.60
   5   2  -7    3.75    0.48
  -5  -2   7    3.80    0.62
   5   2  -6    9.57    0.77
  -5  -2   6    8.87    0.88
   5   2  -5    3.06    0.41
  -5  -2   5    3.53    0.59
   5   2  -4   31.63    1.30
  -5  -2   4   31.81    1.70
   5   2  -3   19.03    0.95
  -5  -2   3   19.18    1.18
   5   2  -2   13.17    0.73
  -5  -2   2   14.53    0.90
   5   2  -1   14.96    0.79
  -5  -2   1   15.80    0.93
  -5  -2   1   14.57    0.52
   5   2   0    2.63    0.51
   5   2   0    2.62    0.27
  -5  -2   0    3.32    0.53
   5   2   1   35.52    1.77
   5   2   1   37.08    1.28
  -5  -2  -1   37.61    1.70
   5   2   2   17.68    1.23
   5   2   2   17.99    0.83
  -5  -2  -2   19.73    0.88
   5   2   3    1.97    0.53
   5   2   3    1.29    0.46
  -5  -2  -3    1.95    0.32
   5   2   4    1.55    0.47
   5   2   4    0.62    0.34
  -5  -2  -4   -0.07    0.30
   5   2   5    4.72    0.57
  -5  -2  -5    5.88    0.62
   5   2   6    3.63    0.69
  -5  -2  -6    4.18    0.58
   5   2   7   30.07    2.02
  -5  -2  -7   33.51    1.73
   5   2   8   -0.03    0.45
  -5  -2  -8    0.14    0.43
   5   2   9   13.23    1.19
  -5  -2  -9   12.47    1.11
   5   2  10    5.87    0.92
  -5  -2 -10    7.00    0.85
   5   3 -12    1.88    0.52
  -5  -3  12    0.49    0.60
   5   3 -11    5.17    0.72
  -5  -3  11    6.51    1.07
   5   3 -10   12.26    0.98
  -5  -3  10   13.36    1.23
   5   3  -9    7.70    0.75
  -5  -3   9   11.18    0.97
   5   3  -8   15.79    1.25
  -5  -3   8   16.66    1.21
   5   3  -7   23.70    1.44
  -5  -3   7   24.80    1.67
   5   3  -6   13.85    0.91
  -5  -3   6   16.91    1.27
   5   3  -5   10.77    0.75
  -5  -3   5   15.64    1.05
   5   3  -4   27.62    1.33
  -5  -3   4   29.82    1.68
   5   3  -3    0.16    0.34
  -5  -3   3   -0.03    0.48
   5   3  -2    5.53    0.69
  -5  -3   2    6.12    0.80
   5   3  -1   10.95    0.77
  -5  -3   1   12.36    0.86
   5   3   0    0.68    0.36
  -5  -3   0    0.34    0.35
   5   3   1    5.64    0.62
   5   3   1    6.00    0.50
  -5  -3  -1    6.10    0.60
   5   3   2   22.01    1.16
   5   3   2   21.10    1.02
  -5  -3  -2   24.55    1.28
   5   3   3    8.51    0.77
   5   3   3    9.01    0.60
  -5  -3  -3   10.19    0.60
   5   3   4   20.42    1.10
   5   3   4   16.87    1.10
   5   3   5    6.20    0.69
  -5  -3  -5    6.56    0.71
   5   3   6   12.45    0.87
  -5  -3  -6   12.84    0.95
   5   3   7   -0.50    0.48
  -5  -3  -7    0.65    0.45
   5   3   8    6.58    0.83
  -5  -3  -8    8.42    0.87
   5   3   9    1.91    0.60
  -5  -3  -9    1.44    0.60
   5   4 -12    0.39    0.50
  -5  -4  12    0.22    0.64
   5   4 -11    0.50    0.58
  -5  -4  11   -0.25    0.72
   5   4 -10   10.50    1.01
  -5  -4  10   10.66    1.09
   5   4  -9   10.62    0.97
  -5  -4   9   10.77    1.08
   5   4  -8   -0.10    0.45
  -5  -4   8    1.91    0.71
   5   4  -7    5.32    0.79
  -5  -4   7    6.66    1.00
   5   4  -6    1.67    0.46
  -5  -4   6    2.34    0.60
   5   4  -5    4.94    0.59
  -5  -4   5    6.66    0.87
   5   4  -4   26.82    1.58
  -5  -4   4   34.40    1.87
   5   4  -3    0.13    0.38
  -5  -4   3   -0.17    0.45
   5   4  -2    3.43    0.53
  -5  -4   2    4.56    0.64
   5   4  -1   14.01    0.99
  -5  -4   1   16.13    1.06
   5   4   0   13.10    0.94
  -5  -4   0   15.35    0.98
   5   4   1    2.96    0.52
  -5  -4  -1    3.42    0.50
   5   4   2    0.66    0.44
  -5  -4  -2    0.85    0.37
   5   4   3    5.36    0.67
  -5  -4  -3    5.66    0.62
   5   4   4    0.99    0.50
   5   4   4    1.76    0.42
   5   4   5   27.17    1.51
   5   4   5   23.15    1.44
   5   4   6    0.05    0.43
  -5  -4  -6   -0.15    0.42
   5   4   7    3.86    0.75
  -5  -4  -7    5.33    0.75
   5   4   8    3.78    0.74
  -5  -4  -8    3.14    0.71
   5   5 -11    1.72    0.62
  -5  -5  11    2.53    0.99
   5   5 -10    4.87    1.05
  -5  -5  10    7.36    1.03
   5   5  -9    1.95    0.64
  -5  -5   9    3.97    0.83
   5   5  -8    0.17    0.45
  -5  -5   8   -0.20    0.55
   5   5  -7   10.33    1.03
  -5  -5   7   13.43    1.25
   5   5  -6    0.85    0.43
  -5  -5   6    0.19    0.71
   5   5  -5    3.26    0.57
  -5  -5   5    4.75    0.80
   5   5  -4   10.23    0.94
  -5  -5   4   13.72    1.14
   5   5  -3    4.78    0.63
  -5  -5   3    6.30    0.79
   5   5  -2    1.34    0.48
  -5  -5   2    1.43    0.65
   5   5  -1    3.61    0.63
  -5  -5   1    3.96    0.63
   5   5   0    8.22    0.84
  -5  -5   0    9.79    0.83
   5   5   1   -0.32    0.52
  -5  -5  -1   -0.09    0.38
   5   5   2    0.46    0.45
  -5  -5  -2    0.17    0.44
   5   5   3    7.97    0.86
   5   5   4   14.03    1.16
   5   5   5   28.94    1.79
  -5  -5  -6    5.71    0.76
   5   6  -9    4.07    1.06
  -5  -6   9    6.54    1.07
   5   6  -8    0.54    0.50
  -5  -6   8   -0.51    0.62
   5   6  -7    1.41    0.58
  -5  -6   7    1.82    0.91
   5   6  -6    3.33    0.65
  -5  -6   6    4.01    0.78
   5   6  -5   -0.05    0.44
  -5  -6   5   -0.19    0.55
   5   6  -4    1.92    0.56
  -5  -6   4    2.41    0.70
   5   6  -3    3.51    0.61
  -5  -6   3    4.31    0.77
   5   6  -2    2.50    0.65
  -5  -6   2    2.00    0.77
   5   6  -1    7.31    0.87
  -5  -6   1    8.20    0.92
   5   6   0    1.12    0.51
  -5  -6   0    1.41    0.63
   5   6   1    0.42    0.53
  -5  -6  -1    1.31    0.44
   5   6   2    4.00    0.73
  -5  -6  -2    4.66    0.59
   5   6   3    3.29    0.70
   5   6   4   -0.38    0.54
   5   7  -6    5.29    0.81
  -5  -7   6    5.24    1.01
   5   7  -5    3.88    0.82
  -5  -7   5    1.49    0.80
   5   7  -4    1.31    0.55
  -5  -7   4    0.46    0.64
   5   7  -3    5.37    0.78
  -5  -7   3    5.47    1.18
   5   7  -2    2.08    0.76
  -5  -7   2    2.07    0.68
   5   7  -1    3.02    0.69
  -5  -7   1    3.66    0.73
   5   7   0    2.74    0.65
  -5  -7   0    3.42    0.66
   5   7   1    3.16    0.69
  -5  -7  -1    4.10    0.78
   6  -8  -2   18.88    1.36
  -6   8   2   16.89    1.52
   6  -8  -1   10.96    1.05
  -6   8   1    9.89    1.09
   6  -8   0    5.98    0.88
  -6   8   0    4.06    0.81
   6  -8   1    3.04    0.60
  -6   8  -1    3.78    0.75
   6  -8   2    5.56    0.71
  -6   8  -2    6.39    0.88
   6  -8   3   10.51    0.88
  -6   8  -3   10.93    1.19
   6  -7  -5   14.35    1.30
  -6   7   5   14.75    1.21
   6  -7  -4    7.82    0.96
  -6   7   4    6.38    0.87
   6  -7  -3    0.95    0.55
  -6   7   3    1.40    0.71
   6  -7  -2    4.82    0.70
  -6   7   2    4.30    0.76
   6  -7  -1    4.32    0.71
  -6   7   1    4.94    0.75
   6  -7   0    1.99    0.53
  -6   7   0    2.22    0.62
   6  -7   1    9.19    0.81
  -6   7  -1    7.88    0.98
   6  -7   2    1.10    0.42
  -6   7  -2    0.98    0.55
   6  -7   3    3.32    0.54
  -6   7  -3    3.88    0.78
   6  -7   4    8.16    0.88
  -6   7  -4   10.99    1.13
   6  -7   5    6.12    0.60
  -6   7  -5    8.40    0.99
   6  -6  -7   24.66    2.03
  -6   6   7   22.74    1.59
   6  -6  -6    6.93    0.86
  -6   6   6    4.77    0.76
   6  -6  -5   11.25    1.16
  -6   6   5   11.76    1.03
   6  -6  -4   11.74    1.11
  -6   6   4   11.50    1.02
   6  -6  -3    1.10    0.53
  -6   6   3    0.47    0.50
   6  -6  -2   30.93    1.78
  -6   6   2   29.57    2.11
   6  -6  -1    1.61    0.53
  -6   6   1    1.27    0.54
   6  -6   0    1.50    0.56
  -6   6   0    0.81    0.54
   6  -6   1   14.38    1.00
  -6   6  -1   13.97    1.19
   6  -6   2    1.46    0.42
  -6   6  -2    1.41    0.69
   6  -6   3   -0.12    0.45
  -6   6  -3   -1.04    0.65
   6  -6   4    0.04    0.32
  -6   6  -4   -0.00    0.50
   6  -6   5    4.16    0.49
  -6   6  -5    5.00    0.78
  -6   6  -6    0.32    0.51
   6  -5  -8    3.49    0.74
  -6   5   8    3.97    0.61
   6  -5  -7   30.82    2.02
  -6   5   7   29.07    1.68
   6  -5  -6    4.94    0.80
  -6   5   6    4.69    0.63
   6  -5  -5   18.85    1.41
  -6   5   5   18.39    1.20
   6  -5  -4    1.75    0.53
  -6   5   4    0.77    0.58
   6  -5  -3    2.29    0.57
  -6   5   3    2.09    0.52
   6  -5  -2   16.55    1.19
  -6   5   2   17.03    1.14
   6  -5  -1   16.92    1.11
  -6   5   1   15.19    1.12
   6  -5   0    0.76    0.46
  -6   5   0    1.60    0.58
   6  -5   1    6.54    0.67
  -6   5  -1    7.47    0.79
   6  -5   2   16.62    0.96
  -6   5  -2   16.05    1.29
   6  -5   3    4.24    0.64
  -6   5  -3    5.93    0.94
   6  -5   4    3.12    0.42
  -6   5  -4    4.09    0.85
   6  -5   5    3.95    0.53
  -6   5  -5    4.82    0.77
   6  -5   6    8.12    0.95
   6  -5   7    8.50    1.06
   6  -4  -9    5.34    0.84
  -6   4   9    5.17    0.76
   6  -4  -8   13.56    1.22
  -6   4   8   12.14    0.86
   6  -4  -7   10.90    1.07
  -6   4   7   10.22    0.94
   6  -4  -6    4.26    0.84
  -6   4   6    2.77    0.52
   6  -4  -5   -0.42    0.47
  -6   4   5   -0.10    0.48
   6  -4  -4   14.08    1.07
  -6   4   4   13.26    0.93
   6  -4  -3    4.56    0.68
  -6   4   3    5.35    0.72
   6  -4  -2    0.23    0.42
  -6   4   2   -0.41    0.39
   6  -4  -1    4.42    0.70
  -6   4   1    3.05    0.58
   6  -4   0    0.65    0.46
  -6   4   0   -0.14    0.40
   6  -4   1    2.39    0.48
  -6   4  -1    2.56    0.54
   6  -4   2   16.27    0.91
  -6   4  -2   15.22    1.13
   6  -4   3   15.31    0.86
  -6   4  -3   17.22    1.38
   6  -4   4    1.44    0.35
  -6   4  -4    1.97    0.39
   6  -4   5   -0.37    0.52
   6  -4   6    6.79    0.91
   6  -4   7   -0.74    0.59
   6  -4   8    4.73    0.88
   6  -3  -9    5.12    0.88
   6  -3  -8    5.54    0.91
  -6   3   8    6.63    0.59
   6  -3  -7   36.44    2.08
  -6   3   7   29.75    1.60
   6  -3  -6    2.74    0.56
  -6   3   6    0.78    0.48
   6  -3  -5    2.00    0.53
  -6   3   5    1.23    0.51
   6  -3  -4    4.79    0.85
  -6   3   4    5.07    0.56
   6  -3  -3   31.63    1.73
  -6   3   3   32.30    1.47
   6  -3  -2    6.63    0.71
  -6   3   2    5.20    0.74
   6  -3  -1    7.70    0.68
  -6   3   1    7.56    0.70
   6  -3   0    8.39    0.71
  -6   3   0    8.41    0.74
   6  -3   1    5.64    0.69
  -6   3  -1    6.73    0.66
   6  -3   2    5.37    0.49
  -6   3  -2    5.95    0.67
   6  -3   3    0.47    0.39
  -6   3  -3    0.17    0.45
   6  -3   4    0.54    0.30
   6  -3   4    0.58    0.59
  -6   3  -4    0.42    0.26
   6  -3   5   36.02    2.04
  -6   3  -5   34.66    1.35
   6  -3   6    0.01    0.50
  -6   3  -6    0.25    0.38
   6  -3   7    0.43    0.59
  -6   3  -7    0.78    0.35
   6  -3   8    1.42    0.69
  -6   3  -8    1.25    0.50
   6  -2 -10   17.27    1.45
   6  -2  -9   -0.16    0.53
   6  -2  -8   15.18    1.31
   6  -2  -7    5.09    0.73
  -6   2   7    3.23    0.42
   6  -2  -6    0.37    0.60
  -6   2   6    0.69    0.38
   6  -2  -5    2.88    0.63
  -6   2   5    3.70    0.44
   6  -2  -4    2.23    0.69
  -6   2   4    2.26    0.38
   6  -2  -3    5.59    0.69
  -6   2   3    5.81    0.65
   6  -2  -2   -0.17    0.39
  -6   2   2    0.54    0.33
   6  -2  -1    4.03    0.67
   6  -2  -1    3.71    0.38
  -6   2   1    4.22    0.51
   6  -2   0   44.51    1.85
  -6   2   0   37.92    1.21
  -6   2   0   46.96    2.17
   6  -2   1   17.16    0.93
  -6   2  -1   17.15    1.07
  -6   2  -1   15.95    0.83
   6  -2   2   33.65    1.36
  -6   2  -2   33.17    1.92
  -6   2  -2   31.01    1.14
   6  -2   3    1.64    0.38
   6  -2   3    0.46    0.44
  -6   2  -3    0.34    0.28
   6  -2   4    0.96    0.28
   6  -2   4    0.01    0.55
  -6   2  -4    0.03    0.36
   6  -2   5    2.95    0.61
  -6   2  -5    2.46    0.46
   6  -2   6    7.74    0.92
  -6   2  -6    8.88    0.79
   6  -2   7    0.19    0.51
  -6   2  -7   -0.32    0.43
   6  -2   8    0.13    0.52
  -6   2  -8    0.12    0.38
   6  -1 -10    3.40    0.80
   6  -1  -9    0.63    0.53
   6  -1  -8   -0.20    0.54
   6  -1  -7   10.25    1.08
   6  -1  -6   18.87    1.70
   6  -1  -5   23.82    1.00
   6  -1  -5   29.03    1.58
  -6   1   5   24.58    1.17
   6  -1  -4    1.76    0.33
   6  -1  -4    2.01    0.50
  -6   1   4    0.75    0.36
   6  -1  -3   42.88    1.41
   6  -1  -3   52.69    2.27
  -6   1   3   48.62    1.64
   6  -1  -2    1.33    0.49
   6  -1  -2    1.57    0.28
  -6   1   2    2.46    0.45
   6  -1  -1   14.84    1.06
   6  -1  -1   11.64    0.60
  -6   1   1   13.78    0.77
   6  -1   0   19.12    1.10
   6  -1   0   18.10    0.94
  -6   1   0   19.30    1.21
   6  -1   1    0.69    0.43
  -6   1  -1    1.05    0.37
   6  -1   2    1.20    0.36
   6  -1   2    0.28    0.40
  -6   1  -2    0.60    0.32
   6  -1   3   19.97    1.22
  -6   1  -3   22.89    1.17
   6  -1   4    2.36    0.53
  -6   1  -4    2.47    0.40
   6  -1   5    0.48    0.55
  -6   1  -5    1.87    0.39
   6  -1   6    3.83    0.96
  -6   1  -6    5.06    0.57
   6  -1   7    2.55    0.73
  -6   1  -7    0.85    0.45
   6  -1   8    4.05    0.88
  -6   1  -8    3.01    0.61
  -6   0  10    1.00    0.61
  -6   0   9   20.05    1.63
  -6   0   8    2.62    0.66
   6   0  -7    7.13    0.45
  -6   0   7    3.06    0.59
   6   0  -6    9.32    0.51
  -6   0   6    0.10    0.50
   6   0  -5    0.37    0.25
   6   0  -4    1.66    0.31
   6   0  -3   13.66    0.57
  -6   0   3   -0.15    0.51
   6   0  -2    8.66    0.61
  -6   0   2    5.22    0.52
  -6   0   2    8.18    0.60
   6   0  -1   13.60    0.86
  -6   0   1   14.03    0.74
  -6   0   1   12.38    0.98
   6   0   0   36.81    1.41
  -6   0   0   40.25    1.68
  -6   0   0   28.74    1.68
   6   0   1    0.19    0.29
  -6   0  -1    0.06    0.31
  -6   0  -1   -0.06    0.32
   6   0   2    0.97    0.49
  -6   0  -2    1.42    0.37
   6   0   3    2.42    0.53
  -6   0  -3    3.14    0.45
  -6   0  -3    2.60    0.41
   6   0   4    0.03    0.49
  -6   0  -4    0.05    0.40
   6   0   5    0.64    0.57
  -6   0  -5    0.59    0.40
   6   0   6    1.20    0.52
  -6   0  -6    0.97    0.43
   6   0   7    3.66    0.68
  -6   0  -7    2.81    0.55
  -6  -1  10    0.49    0.58
   6   1  -9    0.23    0.34
  -6  -1   9    1.63    0.58
   6   1  -8    6.14    0.52
  -6  -1   8    6.33    1.03
   6   1  -7    2.47    0.40
  -6  -1   7    3.26    0.70
   6   1  -6    6.36    0.55
  -6  -1   6    6.44    0.87
   6   1  -5   10.18    0.75
  -6  -1   5    9.35    0.94
   6   1  -4    1.20    0.36
  -6  -1   4    1.27    0.53
   6   1  -3   25.55    1.32
  -6  -1   3   23.19    1.52
   6   1  -2    0.33    0.31
  -6  -1   2   -0.86    0.40
   6   1  -1   -0.26    0.31
  -6  -1   1   -0.25    0.41
   6   1   0    2.77    0.54
  -6  -1   0    2.08    0.62
   6   1   1    6.84    0.59
   6   1   1    7.18    0.55
  -6  -1  -1    6.30    0.64
   6   1   2    0.40    0.35
   6   1   2    0.38    0.41
  -6  -1  -2    0.13    0.32
   6   1   3    0.18    0.36
  -6  -1  -3   -0.61    0.25
   6   1   4    6.53    0.84
  -6  -1  -4    5.37    0.76
   6   1   5    6.48    0.89
  -6  -1  -5    7.08    0.72
   6   1   6    5.16    0.72
  -6  -1  -6    4.71    0.67
   6   1   7    7.30    0.85
  -6  -1  -7    7.17    0.79
   6   2  -9    1.43    0.45
  -6  -2   9    1.96    0.65
   6   2  -8    0.99    0.46
  -6  -2   8    0.96    0.61
   6   2  -7    0.80    0.45
  -6  -2   7    1.56    0.70
   6   2  -6    5.35    0.74
  -6  -2   6    6.81    1.04
   6   2  -5   -0.04    0.33
  -6  -2   5   -0.42    0.60
   6   2  -4   -0.06    0.32
  -6  -2   4    0.46    0.45
   6   2  -3    0.01    0.46
  -6  -2   3    0.79    0.49
   6   2  -2    5.98    0.64
  -6  -2   2    6.68    0.88
   6   2  -1    1.07    0.38
  -6  -2   1    0.73    0.48
   6   2   0   -0.51    0.36
  -6  -2   0    0.21    0.38
   6   2   1    5.51    0.68
  -6  -2  -1    7.57    0.66
   6   2   2    0.64    0.39
  -6  -2  -2    0.26    0.42
   6   2   3    4.79    0.64
  -6  -2  -4    0.58    0.55
   6   2   5    2.91    0.68
  -6  -2  -5    3.53    0.60
   6   2   6    0.86    0.48
  -6  -2  -6    1.02    0.50
   6   3  -8    3.24    0.56
  -6  -3   8    3.94    0.77
   6   3  -7    0.66    0.49
  -6  -3   7    0.60    0.57
   6   3  -6    0.78    0.52
  -6  -3   6    0.75    0.55
   6   3  -5    8.94    0.89
  -6  -3   5    8.58    1.08
   6   3  -4    0.67    0.50
  -6  -3   4    0.39    0.52
   6   3  -3   -0.12    0.37
  -6  -3   3   -0.09    0.60
   6   3  -2   17.91    1.10
  -6  -3   2   21.04    1.69
   6   3  -1    6.16    0.68
  -6  -3   1    6.42    0.76
   6   3   0    1.35    0.48
  -6  -3   0    1.41    0.64
   6   3   1   -0.23    0.41
  -6  -3  -1    0.56    0.41
   6   3   2   -0.20    0.53
   6   3   3    2.73    0.58
  -6  -3  -4   -0.43    0.33
   6   4  -6    0.70    0.46
  -6  -4   6    0.29    0.65
   6   4  -5    1.27    0.57
  -6  -4   5    1.33    0.69
   6   4  -4    2.47    0.66
  -6  -4   4    2.83    0.92
   6   4  -3    0.13    0.54
  -6  -4   3    0.40    0.54
   6   4  -2    2.21    0.57
  -6  -4   2    2.62    0.81
   6   4  -1    0.78    0.49
  -6  -4   1    1.43    0.56
   6   4   0    7.01    0.78
  -6  -4   0    5.87    0.76
   6   4   1   13.47    1.12
   6   4   2    2.45    0.62
   7  -2  -2    0.51    0.57
   7  -2  -1    2.26    0.57
   0   0   0    0.00    0.00
;
_shelx_hkl_checksum              99436
_olex2_submission_special_instructions 'No special instructions were received'
loop_
_space_group_symop_operation_xyz
'x, y, z'
'-x, -y, -z'
loop_
_atom_site_label
_atom_site_type_symbol
_atom_site_fract_x
_atom_site_fract_y
_atom_site_fract_z
_atom_site_U_iso_or_equiv
_atom_site_adp_type
_atom_site_occupancy
_atom_site_site_symmetry_order
_atom_site_calc_flag
_atom_site_refinement_flags_posn
Br1 Br 0.50887(5) 0.87186(2) 0.62173(2) 0.04700(9) Uani 1 1 d .
Cl2 Cl 1.16294(11) 0.22167(6) 0.04759(4) 0.04534(14) Uani 1 1 d .
F1 F 0.2963(2) 0.61824(12) 0.48037(8) 0.0385(3) Uani 1 1 d .
F2 F 0.3596(2) 0.79041(12) 0.40089(8) 0.0401(3) Uani 1 1 d .
F3 F 0.7902(3) 0.68754(13) 0.55774(9) 0.0469(3) Uani 1 1 d .
C4 C 0.6646(3) 0.63258(17) 0.28363(12) 0.0255(3) Uani 1 1 d .
F5 F 0.8323(3) 0.86625(14) 0.48604(10) 0.0522(3) Uani 1 1 d .
C6 C 0.6402(3) 0.75922(18) 0.24006(12) 0.0254(3) Uani 1 1 d .
C7 C 0.5920(4) 0.60831(19) 0.36852(13) 0.0296(4) Uani 1 1 d .
H7 H 0.6169 0.5245 0.3858 0.036 Uiso 1 1 calc R
C8 C 0.7865(3) 0.52909(18) 0.22547(12) 0.0260(3) Uani 1 1 d .
C9 C 0.6652(4) 0.77764(19) 0.52108(14) 0.0333(4) Uani 1 1 d .
C10 C 0.4760(4) 0.69808(19) 0.43934(13) 0.0289(4) Uani 1 1 d .
C11 C 0.4259(4) 0.7686(2) 0.18374(13) 0.0323(4) Uani 1 1 d .
H11 H 0.2886 0.6978 0.1758 0.039 Uiso 1 1 calc R
C12 C 0.7359(4) 0.5009(2) 0.12678(13) 0.0346(4) Uani 1 1 d .
H12 H 0.6264 0.5481 0.0966 0.042 Uiso 1 1 calc R
C13 C 1.0723(4) 0.3646(2) 0.21427(14) 0.0357(4) Uani 1 1 d .
H13 H 1.1874 0.3197 0.2435 0.043 Uiso 1 1 calc R
C14 C 0.9556(4) 0.45847(19) 0.26807(13) 0.0328(4) Uani 1 1 d .
H14 H 0.9905 0.4749 0.3340 0.039 Uiso 1 1 calc R
C15 C 0.8300(4) 0.9812(2) 0.20788(15) 0.0372(4) Uani 1 1 d .
H15 H 0.9656 1.0530 0.2165 0.045 Uiso 1 1 calc R
C16 C 0.8422(4) 0.8668(2) 0.25210(14) 0.0316(4) Uani 1 1 d .
H16 H 0.9862 0.8619 0.2901 0.038 Uiso 1 1 calc R
C17 C 0.8455(4) 0.4041(2) 0.07298(14) 0.0375(4) Uani 1 1 d .
H17 H 0.8046 0.3834 0.0074 0.045 Uiso 1 1 calc R
C18 C 0.6177(4) 0.9895(2) 0.15099(15) 0.0379(5) Uani 1 1 d .
H18 H 0.6110 1.0661 0.1208 0.046 Uiso 1 1 calc R
C19 C 1.0159(4) 0.33825(19) 0.11684(13) 0.0312(4) Uani 1 1 d .
C20 C 0.4162(4) 0.8838(2) 0.13925(14) 0.0374(4) Uani 1 1 d .
H20 H 0.2725 0.8894 0.1013 0.045 Uiso 1 1 calc R
loop_
_atom_site_aniso_label
_atom_site_aniso_U_11
_atom_site_aniso_U_22
_atom_site_aniso_U_33
_atom_site_aniso_U_23
_atom_site_aniso_U_13
_atom_site_aniso_U_12
Br1 0.06137(16) 0.04449(14) 0.03339(13) -0.00808(9) 0.00602(10) 0.01446(11)
Cl2 0.0492(3) 0.0457(3) 0.0426(3) -0.0030(2) 0.0096(2) 0.0180(2)
F1 0.0425(6) 0.0404(6) 0.0304(6) 0.0044(5) 0.0101(5) -0.0022(5)
F2 0.0521(7) 0.0463(7) 0.0281(6) 0.0104(5) 0.0041(5) 0.0232(6)
F3 0.0559(8) 0.0507(7) 0.0357(6) 0.0005(6) -0.0089(6) 0.0238(6)
C4 0.0278(8) 0.0251(8) 0.0219(8) 0.0024(6) -0.0012(7) 0.0013(7)
F5 0.0526(8) 0.0470(7) 0.0497(8) 0.0027(6) 0.0108(6) -0.0130(6)
C6 0.0294(9) 0.0285(9) 0.0199(8) 0.0053(7) 0.0054(7) 0.0064(7)
C7 0.0389(10) 0.0268(9) 0.0237(9) 0.0051(7) 0.0031(7) 0.0058(8)
C8 0.0297(9) 0.0252(8) 0.0225(8) 0.0043(7) 0.0015(7) 0.0018(7)
C9 0.0412(11) 0.0306(9) 0.0282(9) 0.0037(7) 0.0034(8) 0.0068(8)
C10 0.0365(10) 0.0293(9) 0.0222(8) 0.0080(7) 0.0033(7) 0.0060(8)
C11 0.0308(9) 0.0391(10) 0.0271(9) 0.0058(8) 0.0014(7) 0.0056(8)
C12 0.0404(10) 0.0423(11) 0.0234(9) 0.0050(8) 0.0003(8) 0.0143(9)
C13 0.0398(11) 0.0337(10) 0.0340(10) 0.0034(8) -0.0038(8) 0.0117(8)
C14 0.0406(10) 0.0334(9) 0.0233(9) 0.0023(7) -0.0044(8) 0.0074(8)
C15 0.0394(11) 0.0311(10) 0.0418(11) 0.0096(8) 0.0082(9) 0.0029(8)
C16 0.0294(9) 0.0341(9) 0.0315(10) 0.0079(8) 0.0003(7) 0.0045(8)
C17 0.0458(11) 0.0455(11) 0.0211(9) 0.0002(8) 0.0022(8) 0.0119(9)
C18 0.0504(12) 0.0360(10) 0.0347(10) 0.0148(8) 0.0120(9) 0.0182(9)
C19 0.0330(9) 0.0291(9) 0.0307(9) 0.0003(7) 0.0074(8) 0.0048(8)
C20 0.0379(10) 0.0504(12) 0.0287(10) 0.0108(9) 0.0019(8) 0.0181(9)
loop_
_atom_type_symbol
_atom_type_description
_atom_type_scat_dispersion_real
_atom_type_scat_dispersion_imag
_atom_type_scat_source
C C 0.0033 0.0016 'International Tables Vol C Tables 4.2.6.8 and 6.1.1.4'
H H 0.0000 0.0000 'International Tables Vol C Tables 4.2.6.8 and 6.1.1.4'
Br Br -0.2901 2.4595 'International Tables Vol C Tables 4.2.6.8 and 6.1.1.4'
Cl Cl 0.1484 0.1585 'International Tables Vol C Tables 4.2.6.8 and 6.1.1.4'
F F 0.0171 0.0103 'International Tables Vol C Tables 4.2.6.8 and 6.1.1.4'
loop_
_geom_angle_atom_site_label_1
_geom_angle_atom_site_label_2
_geom_angle_atom_site_label_3
_geom_angle
C7 C4 C6 125.43(16)
C7 C4 C8 119.15(16)
C8 C4 C6 115.41(14)
C11 C6 C4 121.59(16)
C11 C6 C16 119.14(17)
C16 C6 C4 119.17(16)
C4 C7 C10 128.33(17)
C12 C8 C4 120.89(16)
C12 C8 C14 117.94(17)
C14 C8 C4 121.17(16)
F3 C9 Br1 108.47(13)
F3 C9 C10 108.10(15)
F5 C9 Br1 109.92(13)
F5 C9 F3 107.65(17)
F5 C9 C10 109.22(15)
C10 C9 Br1 113.31(13)
F1 C10 C7 108.84(15)
F1 C10 C9 106.69(14)
F2 C10 F1 106.43(15)
F2 C10 C7 113.77(14)
F2 C10 C9 107.37(15)
C7 C10 C9 113.30(16)
C6 C11 C20 120.09(19)
C17 C12 C8 121.05(18)
C19 C13 C14 119.19(17)
C13 C14 C8 121.30(17)
C18 C15 C16 120.41(19)
C15 C16 C6 120.28(18)
C19 C17 C12 119.62(18)
C20 C18 C15 119.65(18)
C13 C19 Cl2 119.96(15)
C17 C19 Cl2 119.21(15)
C17 C19 C13 120.83(18)
C18 C20 C11 120.41(18)
loop_
_geom_bond_atom_site_label_1
_geom_bond_atom_site_label_2
_geom_bond_distance
Br1 C9 1.9157(19)
Cl2 C19 1.7396(19)
F1 C10 1.366(2)
F2 C10 1.348(2)
F3 C9 1.345(2)
C4 C6 1.500(2)
C4 C7 1.330(2)
C4 C8 1.493(2)
F5 C9 1.328(2)
C6 C11 1.388(3)
C6 C16 1.389(3)
C7 C10 1.488(3)
C8 C12 1.392(3)
C8 C14 1.394(3)
C9 C10 1.539(3)
C11 C20 1.390(3)
C12 C17 1.379(3)
C13 C14 1.382(3)
C13 C19 1.378(3)
C15 C16 1.383(3)
C15 C18 1.380(3)
C17 C19 1.377(3)
C18 C20 1.376(3)
