#------------------------------------------------------------------------------
#$Date: 2017-05-05 00:51:42 +0300 (Fri, 05 May 2017) $
#$Revision: 196154 $
#$URL: file:///home/coder/svn-repositories/cod/cif/4/03/24/4032401.cif $
#------------------------------------------------------------------------------
#
# This file is available in the Crystallography Open Database (COD),
# http://www.crystallography.net/
#
# All data on this site have been placed in the public domain by the
# contributors.
#
data_4032401
loop_
_publ_author_name
'Maier, Luk\'a\<s'
'Khirsariya, Prashant'
'Hylse, Ond\<rej'
'Adla, Santosh Kumar'
'\<Cernov\'a, Lenka'
'Poljak, Michal'
'Kraj\<covi\<cov\'a, So\<na'
'Weis, Erik'
'Dr\'apela, Stanislav'
'Sou\<cek, Karel'
'Paruch, Kamil'
_publ_section_title
;
 Diastereoselective Flexible Synthesis of Carbocyclic C-Nucleosides.
;
_journal_issue                   7
_journal_name_full               'The Journal of organic chemistry'
_journal_page_first              3382
_journal_page_last               3402
_journal_paper_doi               10.1021/acs.joc.6b02594
_journal_volume                  82
_journal_year                    2017
_chemical_formula_sum            'C10 H16 N2 O3'
_chemical_formula_weight         212.25
_space_group_crystal_system      triclinic
_space_group_IT_number           2
_space_group_name_Hall           '-P 1'
_space_group_name_H-M_alt        'P -1'
_symmetry_space_group_name_Hall  '-P 1'
_symmetry_space_group_name_H-M   'P -1'
_atom_sites_solution_hydrogens   mixed
_audit_creation_method
;
by MiB
;
_cell_angle_alpha                80.466(4)
_cell_angle_beta                 79.403(4)
_cell_angle_gamma                77.127(4)
_cell_formula_units_Z            2
_cell_length_a                   7.2069(4)
_cell_length_b                   7.7420(3)
_cell_length_c                   9.5826(4)
_cell_measurement_reflns_used    3894
_cell_measurement_temperature    120(2)
_cell_measurement_theta_max      29.7400
_cell_measurement_theta_min      2.1580
_cell_volume                     507.99(4)
_computing_cell_refinement
;
CrysAlisPro, Agilent Technologies,
Version 1.171.37.35 (release 13-08-2014 CrysAlis171 .NET)
(compiled Aug 13 2014,18:06:01)
;
_computing_data_collection
;
CrystalClear-SM Expert 2.0 r15 (Rigaku, 2011)
;
_computing_data_reduction
;
CrysAlisPro, Agilent Technologies,
Version 1.171.37.35 (release 13-08-2014 CrysAlis171 .NET)
(compiled Aug 13 2014,18:06:01)
;
_computing_structure_refinement  'SHELXL-2014/7 (Sheldrick, 2014)'
_diffrn_ambient_temperature      120(2)
_diffrn_measured_fraction_theta_full 0.999
_diffrn_measured_fraction_theta_max 0.998
_diffrn_measurement_device_type  'AFC11 (Right): Eulerian 3 circle'
_diffrn_measurement_method       'Profile data from \w-scans'
_diffrn_radiation_type           'Molybdenum K\a'
_diffrn_radiation_wavelength     0.71075
_diffrn_reflns_av_R_equivalents  0.0178
_diffrn_reflns_av_unetI/netI     0.0201
_diffrn_reflns_Laue_measured_fraction_full 0.999
_diffrn_reflns_Laue_measured_fraction_max 0.998
_diffrn_reflns_limit_h_max       8
_diffrn_reflns_limit_h_min       -8
_diffrn_reflns_limit_k_max       9
_diffrn_reflns_limit_k_min       -9
_diffrn_reflns_limit_l_max       11
_diffrn_reflns_limit_l_min       -11
_diffrn_reflns_number            4995
_diffrn_reflns_point_group_measured_fraction_full 0.999
_diffrn_reflns_point_group_measured_fraction_max 0.998
_diffrn_reflns_theta_full        25.242
_diffrn_reflns_theta_max         25.680
_diffrn_reflns_theta_min         2.181
_diffrn_source                   'Rotating Anode MicroMax-007HF DW 1.2 kW'
_diffrn_standards_decay_%        0(infinity)
_diffrn_standards_interval_count infinity
_diffrn_standards_number         0
_exptl_absorpt_coefficient_mu    0.103
_exptl_absorpt_correction_T_max  1.00000
_exptl_absorpt_correction_T_min  0.96543
_exptl_absorpt_correction_type   multi-scan
_exptl_absorpt_process_details
;
CrysAlisPro, Agilent Technologies,
Version 1.171.37.35 (release 13-08-2014 CrysAlis171 .NET)
(compiled Aug 13 2014,18:06:01)
Empirical absorption correction using spherical harmonics,
 implemented in SCALE3 ABSPACK scaling algorithm.
;
_exptl_crystal_colour            colourless
_exptl_crystal_density_diffrn    1.388
_exptl_crystal_description       block
_exptl_crystal_F_000             228
_exptl_crystal_size_max          0.150
_exptl_crystal_size_mid          0.060
_exptl_crystal_size_min          0.060
_refine_diff_density_max         0.383
_refine_diff_density_min         -0.210
_refine_diff_density_rms         0.047
_refine_ls_extinction_method     none
_refine_ls_goodness_of_fit_ref   1.035
_refine_ls_hydrogen_treatment    mixed
_refine_ls_matrix_type           full
_refine_ls_number_parameters     146
_refine_ls_number_reflns         1929
_refine_ls_number_restraints     3
_refine_ls_restrained_S_all      1.036
_refine_ls_R_factor_all          0.0455
_refine_ls_R_factor_gt           0.0409
_refine_ls_shift/su_max          0.000
_refine_ls_shift/su_mean         0.000
_refine_ls_structure_factor_coef Fsqd
_refine_ls_weighting_details
'w=1/[\s^2^(Fo^2^)+(0.0423P)^2^+0.4153P] where P=(Fo^2^+2Fc^2^)/3'
_refine_ls_weighting_scheme      calc
_refine_ls_wR_factor_gt          0.0995
_refine_ls_wR_factor_ref         0.1027
_reflns_Friedel_coverage         0.000
_reflns_number_gt                1757
_reflns_number_total             1929
_reflns_threshold_expression     'I > 2\s(I)'
_cod_data_source_file            jo6b02594_si_003.cif
_cod_data_source_block           Prashant_PK-04-67
_cod_depositor_comments
'Adding full bibliography for 4032399--4032401.cif.'
_cod_database_code               4032401
_shelx_shelxl_version_number     2014/7
_shelx_space_group_comment
;
The symmetry employed for this shelxl refinement is uniquely defined
by the following loop, which should always be used as a source of
symmetry information in preference to the above space-group names.
They are only intended as comments.
;
_shelx_estimated_absorpt_t_min   0.985
_shelx_estimated_absorpt_t_max   0.994
_shelx_res_file
;

    a.res created by SHELXL-2014/7


TITL Prashant_PK-04-67 in P-1
CELL  0.71073   7.2069   7.7420   9.5826   80.466   79.403   77.127
ZERR    2.000   0.0004   0.0003   0.0004    0.004    0.004    0.004
LATT  1
SFAC C H N O
UNIT 20 32 4 6

FMAP 2
PLAN 20
L.S. 12

SHEL 999 0.82
OMIT -2  1 0 ! 364.04 2146.99 15.87 0.616 2.93

BOND
BOND $H
CONF

ACTA
LIST 4
TEMP -153
SIZE 0.15 0.06 0.06

DFIX 0.84 O1 H1O O2 H2O O3 H3O
HTAB
EQIV $1 x, y-1, z
HTAB O1 O3_$1
EQIV $2 -x+2, -y, -z+1
HTAB O2 O1_$2
EQIV $3 -x+1, -y+1, -z
HTAB O3 N2_$3

WGHT    0.042300    0.415300
FVAR       1.26772
O1    4    0.829039    0.002674    0.372743    11.00000    0.02816    0.01370 =
         0.02504   -0.00255   -0.01242    0.00008
H1O   2    0.811347   -0.061100    0.312885    11.00000   -1.50000
O2    4    0.855512    0.247639    0.541673    11.00000    0.02841    0.02154 =
         0.01955   -0.00248   -0.01137    0.00132
H2O   2    0.939582    0.150290    0.561174    11.00000   -1.50000
O3    4    0.817478    0.766194    0.196289    11.00000    0.03368    0.01484 =
         0.02495   -0.00115   -0.01539   -0.00416
H3O   2    0.780398    0.773383    0.121225    11.00000   -1.50000
N1    3    0.315401    0.058946    0.152685    11.00000    0.01670    0.01655 =
         0.01894   -0.00084   -0.00404   -0.00347
N2    3    0.289771    0.219775    0.071515    11.00000    0.02213    0.01885 =
         0.02107    0.00132   -0.00785   -0.00318
C1    1    0.580825    0.280565    0.336877    11.00000    0.01737    0.01771 =
         0.01700   -0.00178   -0.00390   -0.00174
AFIX  13
H1    2    0.525483    0.256139    0.440113    11.00000   -1.20000
AFIX   0
C2    1    0.793394    0.186126    0.315535    11.00000    0.01950    0.01512 =
         0.01805   -0.00134   -0.00547   -0.00021
AFIX  13
H2    2    0.845226    0.198137    0.210921    11.00000   -1.20000
AFIX   0
C3    1    0.890590    0.293939    0.389999    11.00000    0.01819    0.01836 =
         0.02067   -0.00282   -0.00606   -0.00097
AFIX  13
H3    2    1.031801    0.277382    0.353575    11.00000   -1.20000
AFIX   0
C4    1    0.788593    0.487413    0.351861    11.00000    0.01908    0.01789 =
         0.02184   -0.00622   -0.00750   -0.00032
AFIX  13
H4    2    0.757791    0.549168    0.439482    11.00000   -1.20000
AFIX   0
C5    1    0.598078    0.477898    0.302903    11.00000    0.01809    0.01713 =
         0.02549   -0.00180   -0.00689   -0.00064
AFIX  23
H5A   2    0.487176    0.553935    0.355526    11.00000   -1.20000
H5B   2    0.602412    0.518607    0.199030    11.00000   -1.20000
AFIX   0
C6    1    0.915430    0.587929    0.235694    11.00000    0.02453    0.01595 =
         0.02598   -0.00364   -0.01081   -0.00238
AFIX  23
H6A   2    1.035061    0.591123    0.271223    11.00000   -1.20000
H6B   2    0.951744    0.523908    0.150390    11.00000   -1.20000
AFIX   0
C7    1    0.461125    0.223010    0.247651    11.00000    0.01573    0.01844 =
         0.01781   -0.00088   -0.00359   -0.00310
C8    1    0.415053    0.056637    0.258854    11.00000    0.01955    0.01946 =
         0.02066    0.00197   -0.00760   -0.00387
AFIX  43
H8    2    0.448040   -0.042034    0.329251    11.00000   -1.20000
AFIX   0
C9    1    0.378287    0.318286    0.129430    11.00000    0.02035    0.01689 =
         0.02030    0.00052   -0.00600   -0.00413
AFIX  43
H9    2    0.384349    0.439394    0.094341    11.00000   -1.20000
AFIX   0
C10   1    0.243222   -0.086689    0.117532    11.00000    0.02265    0.02168 =
         0.02497   -0.00466   -0.00514   -0.00788
AFIX 137
H10A  2    0.270079   -0.191873    0.188732    11.00000   -1.50000
H10B  2    0.306942   -0.115754    0.022405    11.00000   -1.50000
H10C  2    0.103914   -0.050764    0.117724    11.00000   -1.50000
AFIX   0
HKLF 4

REM  Prashant_PK-04-67 in P-1
REM R1 =  0.0409 for    1757 Fo > 4sig(Fo)  and  0.0455 for all    1929 data
REM    146 parameters refined using      3 restraints

END

WGHT      0.0404      0.4098

REM Instructions for potential hydrogen bonds
HTAB O1 O3_$1
HTAB O2 O1_$2
HTAB O3 N2_$3
EQIV $4 -x+1, -y, -z+1
HTAB C10 O2_$4

REM Highest difference peak  0.383,  deepest hole -0.210,  1-sigma level  0.047
Q1    1   0.8632  0.4391  0.5089  11.00000  0.05    0.38
Q2    1   0.7879  0.3600  0.1520  11.00000  0.05    0.35
Q3    1   0.6974  0.2202  0.2623  11.00000  0.05    0.34
Q4    1   0.8433  0.1072  0.4739  11.00000  0.05    0.32
Q5    1   0.9030  0.4194  0.2532  11.00000  0.05    0.29
Q6    1   0.7092  0.4885  0.3287  11.00000  0.05    0.27
Q7    1   0.7169  0.2470  0.3977  11.00000  0.05    0.26
Q8    1   0.4123  0.2900  0.2077  11.00000  0.05    0.26
Q9    1   0.8060  0.3997  0.3916  11.00000  0.05    0.22
Q10   1   0.5014  0.1422  0.2153  11.00000  0.05    0.22
Q11   1   0.5239  0.2478  0.2777  11.00000  0.05    0.22
Q12   1   0.4663  0.5773  0.2987  11.00000  0.05    0.19
Q13   1   0.3049  0.2761  0.1134  11.00000  0.05    0.19
Q14   1   0.8357  0.2353  0.3558  11.00000  0.05    0.19
Q15   1   0.3275  0.0528  0.2167  11.00000  0.05    0.18
Q16   1   0.3068  0.1462  0.1193  11.00000  0.05    0.18
Q17   1   0.8440  0.5377  0.3026  11.00000  0.05    0.18
Q18   1   0.5900  0.3635  0.3128  11.00000  0.05    0.17
Q19   1   0.2836 -0.0087  0.1306  11.00000  0.05    0.17
Q20   1   0.2310  0.2357  0.0218  11.00000  0.05    0.16
;
_shelx_res_checksum              84823
_shelx_hkl_file
;
   0   0  -1  287.47    2.00
   0   0  -1  285.17    2.90
   0   0  -2 3557.14   14.50
   0   0  -2 3643.94   10.00
   0   0  -3    4.50    0.80
   0   0  -3    3.60    0.50
   0   0  -3    3.30    1.00
   0   0   3    3.70    0.70
   0   0   4  668.83    7.50
   0   0  -4  663.83    9.00
   0   0  -4  666.93    6.20
   0   0  -4  668.43    7.60
   0   0  -5   39.50    2.60
   0   0  -5   35.50    1.70
   0   0  -5   40.10    2.10
   0   0   5   36.80    2.10
   0   0  -6   10.40    1.60
   0   0  -6    7.50    0.90
   0   0   6    9.10    1.20
   0   0  -6    8.90    1.10
   0   0   7   40.90    2.50
   0   0  -7   42.50    2.20
   0   0  -7   46.10    2.70
   0   0  -7   41.40    3.30
   0   0  -8   36.80    2.30
   0   0  -8   42.20    2.70
   0   0   8   35.80    2.50
   0   0  -8   42.00    3.60
   0   0  -9   29.80    2.50
   0   0  -9   31.00    3.50
   0   0   9   28.80    2.40
   0   0  -9   28.30    2.20
   0   0 -10   78.09    5.70
   0   0 -10   76.89    3.90
   0   0 -10   79.89    4.20
   0   0 -11    1.00    1.00
   0   0 -11    1.50    0.90
   0   1 -11   25.80    2.90
   0   1 -11   24.50    2.50
   0   1 -10    2.00    2.10
   0   1 -10   -0.80    0.90
   0  -1  10   -1.90    1.40
   0   1 -10    0.80    1.10
   0  -1   9   15.80    2.20
   0   1  -9   19.60    2.20
   0   1  -9   19.50    2.90
   0   1  -9   16.00    1.80
   0  -1   8  151.38    5.80
   0   1  -8  152.38    4.70
   0   1  -8  156.98    5.90
   0   1  -8  162.08    6.90
   0   1  -7   42.00    2.90
   0   1  -7   42.00    2.30
   0  -1   7   40.70    2.90
   0   1  -7   40.30    3.20
   0   1  -6    0.00    0.80
   0  -1   6    1.00    0.80
   0   1  -6   -0.60    0.50
   0   1  -6    0.00    0.80
   0   1  -5   96.59    4.10
   0   1  -5  106.79    3.90
   0   1  -5   99.79    2.90
   0  -1   5   98.79    3.90
   0   1  -4  823.02   10.00
   0  -1   4  839.32    7.10
   0  -1   4  824.12   10.00
   0   1  -4  818.82    7.30
   0  -1   3   14.10    0.80
   0   1  -3   13.20    1.30
   0   1  -3   14.30    0.90
   0  -1   3   16.20    1.40
   0  -1   2  115.79    2.00
   0   1  -2  112.99    2.00
   0  -1   2  113.09    3.10
   0   1  -2  116.69    3.10
   0   1  -1 2460.65    7.40
   0  -1   1 2484.95    7.40
   0   1   0  345.17    3.60
   0  -1   0  332.57    2.30
   0  -1   0  325.17    3.50
   0   1   0  329.37    2.40
   0   1   1  311.47    3.50
   0  -1  -1  343.77    3.60
   0  -1  -2  441.56    5.40
   0   1   2  427.56    5.30
   0  -1  -3  503.85    6.90
   0   1   3  500.45    6.60
   0  -1  -4 2927.41   19.60
   0   1   4 2949.80   18.70
   0   1   4 2908.91   11.20
   0  -1  -5  252.87    4.20
   0   1   5  265.57    4.10
   0  -1  -5  267.27    4.10
   0  -1  -5  260.47    6.60
   0  -1  -6   15.00    1.20
   0  -1  -6   17.60    1.20
   0   1   6   17.40    1.30
   0  -1  -6   18.20    2.00
   0  -1  -7  241.18    4.90
   0  -1  -7  228.68    7.50
   0  -1  -7  233.08    5.00
   0   1   7  244.38    5.00
   0  -1  -8    0.50    0.70
   0  -1  -8    0.70    0.60
   0   1   8    0.10    0.70
   0  -1  -8   -0.90    1.20
   0  -1  -9   67.79    3.10
   0  -1  -9   64.09    3.10
   0  -1  -9   64.09    4.80
   0  -1 -10   18.10    2.90
   0  -1 -10   20.30    2.00
   0  -1 -11  137.29    5.40
   0  -2  11   42.30    4.20
   0   2 -11   44.30    3.40
   0   2 -11   41.70    4.00
   0  -2  10   20.70    2.70
   0   2 -10   19.10    2.70
   0   2 -10   21.60    2.20
   0   2  -9   19.70    2.00
   0   2  -9   16.90    2.70
   0   2  -9   15.90    2.30
   0  -2   9   22.20    2.80
   0  -2   8  215.78    7.60
   0   2  -8  206.98    7.90
   0   2  -8  226.88    6.00
   0   2  -8  222.08    7.70
   0   2  -7   37.50    3.10
   0   2  -7   41.60    3.20
   0   2  -7   39.90    2.30
   0  -2   7   43.80    3.30
   0   2  -6   70.79    2.80
   0   2  -6   68.99    4.00
   0  -2   6   66.79    3.80
   0   2  -5  157.28    5.50
   0  -2   5  159.68    3.60
   0   2  -5  163.38    3.90
   0  -2   5  153.28    5.40
   0  -2   4  191.28    5.60
   0  -2   4  189.08    3.60
   0   2  -4  193.08    5.60
   0   2  -4  192.48    3.80
   0   2  -3   21.60    1.20
   0  -2   3   22.30    1.80
   0  -2   3   24.00    1.20
   0   2  -2  320.57    3.90
   0  -2   2  322.87    3.80
   0  -2   2  334.97    6.30
   0   2  -1   51.09    2.30
   0   2  -1   49.60    1.40
   0  -2   1   47.40    1.30
   0  -2   1   52.79    2.30
   0   2   0  408.16    3.90
   0  -2   0  412.06    3.60
   0  -2   0  394.56    5.50
   0   2   1  115.79    2.50
   0   2   1  116.59    2.50
   0  -2  -1  112.29    2.50
   0  -2  -1  115.49    2.40
   0   2   2  268.87    4.50
   0  -2  -2  284.27    4.70
   0  -2  -3 2525.55   16.30
   0   2   3 2464.85   15.70
   0  -2  -4  240.88    5.80
   0   2   4  239.88    5.50
   0  -2  -5  359.06    8.00
   0   2   5  358.66    7.40
   0  -2  -6   13.40    1.90
   0  -2  -6   11.80    1.10
   0  -2  -7   28.30    2.90
   0  -2  -7   26.70    1.70
   0  -2  -8  175.98    7.30
   0  -2  -8  167.78    4.60
   0  -2  -9   70.29    5.10
   0  -2  -9   66.59    3.20
   0  -2 -10    0.50    0.60
   0  -2 -10    0.30    1.40
   0  -2 -11   87.39    4.20
   0  -3  11    7.70    2.40
   0   3 -10   96.99    6.20
   0   3 -10   98.39    4.70
   0  -3  10  104.99    6.50
   0   3  -9   18.30    1.90
   0  -3   9   20.20    3.00
   0   3  -9   21.50    3.10
   0   3  -9   18.40    2.90
   0   3  -8  379.76   11.00
   0  -3   8  376.76   11.00
   0   3  -8  364.06   10.60
   0   3  -8  384.06    8.00
   0   3  -7  306.47    6.70
   0   3  -7  331.17    9.30
   0   3  -7  322.07    9.70
   0  -3   7  314.37    9.50
   0   3  -6   53.19    3.80
   0   3  -6   50.69    2.50
   0  -3   6   53.09    2.40
   0  -3   6   50.09    3.60
   0   3  -5   94.09    3.10
   0  -3   5   90.89    4.60
   0   3  -5   91.99    4.60
   0  -3   5   91.39    2.90
   0  -3   4 1885.11   19.50
   0  -3   4 1866.41   12.10
   0   3  -4 1908.01   13.00
   0   3  -4 1894.91   19.80
   0   3  -3  145.19    3.30
   0  -3   3  143.79    5.20
   0   3  -3  153.18    5.40
   0  -3   3  149.59    3.10
   0   3  -2  148.19    4.90
   0   3  -2  150.28    3.10
   0  -3   2  152.18    4.90
   0  -3   2  146.59    2.90
   0  -3   1  218.78    5.50
   0   3  -1  223.58    3.50
   0  -3   1  214.18    3.20
   0   3  -1  220.48    5.60
   0  -3   0   16.10    0.90
   0   3   0   14.30    1.00
   0   3   0   13.00    1.40
   0  -3   0   13.80    1.30
   0   3   1   24.10    1.50
   0  -3  -1   23.30    1.20
   0   3   1   23.40    1.40
   0  -3  -1   22.70    1.50
   0  -3  -2    9.10    0.90
   0   3   2    9.90    0.90
   0   3   2   10.70    1.20
   0  -3  -2    9.00    1.00
   0   3   3    6.60    1.10
   0   3   3    6.30    0.60
   0  -3  -3    6.40    1.00
   0  -3  -4   51.69    2.70
   0   3   4   52.59    2.80
   0   3   5  129.79    4.60
   0  -3  -5  121.69    4.70
   0  -3  -6   17.40    2.00
   0   3   6   13.10    1.70
   0  -3  -7  187.48    7.00
   0  -3  -8  151.68    6.80
   0  -3  -8  150.48    4.30
   0  -3  -9   31.40    2.20
   0  -3  -9   21.40    2.90
   0  -3 -10   27.10    2.20
   0  -3 -10   31.00    3.80
   0  -3 -11    6.50    1.40
   0  -4  11   17.30    3.60
   0  -4  10   21.20    3.50
   0   4 -10   17.60    2.20
   0   4  -9   57.39    4.80
   0   4  -9   59.99    3.60
   0  -4   9   67.09    5.50
   0   4  -9   56.39    4.90
   0   4  -8    1.90    1.70
   0  -4   8    1.90    1.70
   0   4  -8    1.80    1.00
   0   4  -8   -0.20    1.30
   0  -4   7  206.28    5.20
   0  -4   7  198.58    8.30
   0   4  -7  202.28    5.70
   0   4  -7  209.78    8.50
   0   4  -6   60.79    4.30
   0   4  -6   55.99    2.80
   0  -4   6   57.39    2.60
   0  -4   6   58.89    4.50
   0   4  -5    2.50    1.30
   0   4  -5    2.70    0.70
   0  -4   5    5.10    1.70
   0  -4   5    2.50    0.60
   0  -4   4  741.03    8.00
   0  -4   4  729.93   13.50
   0   4  -4  754.82   13.80
   0   4  -4  741.13    8.80
   0  -4   3   45.90    1.90
   0   4  -3   45.30    2.10
   0  -4   3   40.40    3.00
   0   4  -3   42.30    3.20
   0   4  -2    2.00    0.90
   0  -4   2    2.50    0.50
   0  -4   2    3.60    1.10
   0   4  -2    2.20    0.50
   0  -4   1   41.40    2.80
   0   4  -1   40.30    1.80
   0  -4   1   41.80    1.60
   0   4  -1   43.70    2.90
   0   4   0 3485.55   17.10
   0   4   0 3545.95   23.50
   0  -4   0 3503.75   23.10
   0  -4   0 3513.65   14.50
   0   4   1 1434.86   13.80
   0   4   1 1417.46   11.60
   0  -4  -1 1406.56    9.90
   0  -4  -1 1426.16   13.60
   0   4   2  113.59    3.60
   0   4   2  112.09    3.60
   0  -4  -2  114.29    3.60
   0  -4  -2  120.69    3.30
   0   4   3  146.59    4.50
   0  -4  -3  153.58    4.20
   0   4   3  152.58    3.60
   0   4   4  227.88    3.50
   0  -4  -4  233.08    5.80
   0   4   4  234.98    6.20
   0  -4  -5  147.49    5.30
   0   4   5  148.59    5.20
   0  -4  -6    2.80    1.10
   0   4   6    1.20    1.10
   0  -4  -7   50.59    3.70
   0   4   7   47.00    3.40
   0  -4  -8  125.39    4.00
   0  -4  -8  118.99    6.10
   0  -4  -9  113.79    4.10
   0  -4  -9  120.69    6.60
   0  -4 -10    6.00    2.20
   0  -4 -10    6.60    1.20
   0  -4 -11   88.69    4.30
   0   5  -9    1.90    1.20
   0  -5   9   -0.90    1.90
   0   5  -8    5.90    1.30
   0   5  -8    4.70    1.70
   0  -5   8    1.90    1.90
   0   5  -7  210.18    6.20
   0  -5   7  221.08    9.40
   0   5  -7  197.58    8.90
   0  -5   7  219.68    5.60
   0   5  -6   33.30    3.70
   0  -5   6   29.50    2.00
   0   5  -6   30.70    2.30
   0  -5   6   31.10    3.60
   0   5  -5   28.80    3.40
   0  -5   5   26.20    3.10
   0   5  -5   29.00    2.10
   0  -5   5   27.10    1.80
   0  -5   4  714.93    8.40
   0  -5   4  723.13   14.70
   0   5  -4  731.43   15.00
   0   5  -4  737.23    9.70
   0   5  -3   15.00    1.40
   0  -5   3   15.90    1.20
   0  -5   3   15.20    2.30
   0   5  -3   16.70    2.30
   0   5  -2   82.49    4.60
   0   5  -2   76.49    2.90
   0  -5   2   69.29    4.20
   0  -5   2   75.69    2.40
   0   5  -1   44.10    3.30
   0  -5   1   45.40    1.80
   0  -5   1   42.00    3.20
   0   5  -1   46.90    2.20
   0  -5   0   10.20    0.90
   0   5   0    9.20    1.10
   0  -5   0    9.40    1.50
   0   5   0    9.00    1.60
   0   5   1   20.00    2.00
   0   5   1   22.20    1.70
   0  -5  -1   19.80    1.30
   0  -5  -1   25.40    2.20
   0  -5  -2    2.30    1.00
   0  -5  -2    3.10    0.70
   0   5   2    2.90    1.10
   0   5   2    2.60    1.00
   0   5   3   10.80    1.40
   0   5   3    9.90    1.30
   0  -5  -3   12.60    1.30
   0   5   4    0.80    0.50
   0  -5  -4    2.90    0.90
   0   5   4    1.30    1.00
   0   5   5   99.49    4.50
   0  -5  -5  105.39    4.40
   0   5   5  102.39    2.30
   0   5   6  184.48    6.40
   0  -5  -6  181.98    6.30
   0  -5  -7    9.60    1.90
   0   5   7   10.50    2.00
   0   5   8  130.69    6.10
   0  -5  -8  150.28    6.90
   0  -5  -9   39.30    2.50
   0  -5  -9   38.80    3.80
   0  -5 -10    6.30    1.20
   0  -5 -10    9.40    2.70
   0  -5 -11  116.39    4.80
   0   6  -9    1.00    1.10
   0  -6   8   16.90    3.30
   0   6  -8   18.60    2.20
   0  -6   7    7.20    2.60
   0  -6   7    8.40    1.30
   0   6  -7    8.20    1.50
   0   6  -6   20.10    2.00
   0  -6   6   21.90    1.80
   0   6  -6   19.50    3.10
   0  -6   6   16.30    2.90
   0   6  -5   57.39    4.90
   0   6  -5   59.09    3.20
   0  -6   5   58.19    4.90
   0  -6   5   58.79    2.70
   0  -6   4  114.59    3.60
   0   6  -4  111.89    4.10
   0   6  -4  110.59    6.40
   0  -6   4  114.19    6.40
   0  -6   3  210.48    8.20
   0   6  -3  210.98    8.40
   0   6  -3  200.08    5.30
   0  -6   3  214.28    4.70
   0   6  -2  119.29    6.00
   0  -6   2  116.39    6.00
   0   6  -2  122.09    4.00
   0  -6   2  122.09    3.40
   0   6  -1   63.39    4.20
   0   6  -1   57.59    2.80
   0  -6   1   59.59    4.00
   0  -6   1   59.19    2.30
   0  -6   0  145.89    6.00
   0   6   0  146.59    6.00
   0  -6   0  144.39    3.50
   0   6   0  142.59    4.50
   0  -6  -1   47.50    3.30
   0  -6  -1   51.49    2.20
   0   6   1   56.59    2.90
   0   6   1   50.19    3.40
   0   6   2   75.99    3.90
   0  -6  -2   80.49    4.00
   0   6   2   75.39    3.60
   0  -6  -2   83.39    3.00
   0   6   3  611.94   10.40
   0  -6  -3  600.74    8.60
   0   6   3  597.44   10.00
   0   6   4  289.47    7.70
   0   6   4  297.97    6.30
   0  -6  -4  299.67    6.80
   0  -6  -5  127.99    4.90
   0   6   5  135.29    3.50
   0   6   5  124.39    5.20
   0  -6  -6  159.08    5.90
   0   6   6  160.48    6.20
   0   6   7    6.50    1.60
   0  -6  -7    6.80    1.70
   0  -6  -8    7.20    1.60
   0   6   8    4.30    1.50
   0  -6  -9   41.00    3.90
   0  -6  -9   45.10    2.70
   0  -6 -10   50.79    3.00
   0  -6 -11   26.60    2.40
   0   7  -8    7.80    1.90
   0  -7   7    1.00    0.80
   0   7  -7    2.60    1.30
   0  -7   6   28.60    4.00
   0  -7   6   28.60    2.20
   0   7  -6   32.10    2.70
   0  -7   5   21.70    3.30
   0  -7   5   22.90    1.80
   0   7  -5   24.10    2.30
   0  -7   4   69.69    2.90
   0   7  -4   65.59    5.40
   0  -7   4   76.89    5.70
   0   7  -4   69.99    3.60
   0  -7   3   55.09    2.60
   0   7  -3   51.79    3.00
   0  -7   3   56.89    4.70
   0   7  -3   59.59    5.00
   0  -7   2   55.89    2.50
   0   7  -2   56.59    4.70
   0   7  -2   55.69    3.10
   0  -7   2   50.79    4.40
   0  -7   1   38.00    2.00
   0   7  -1   40.10    2.60
   0   7  -1   38.60    3.60
   0  -7   1   38.40    3.60
   0  -7   0  106.09    3.20
   0   7   0  107.09    5.60
   0   7   0  103.09    4.20
   0  -7   0  103.79    5.60
   0   7   1 1020.50   16.60
   0  -7  -1 1014.90   16.50
   0   7   1 1027.00   13.40
   0  -7  -1 1015.90   10.30
   0  -7  -2   33.30    2.00
   0   7   2   28.80    2.90
   0   7   2   30.30    2.60
   0   7   3   66.29    3.80
   0  -7  -3   66.49    3.00
   0   7   3   68.49    3.80
   0   7   4    4.70    1.10
   0  -7  -4    6.40    1.20
   0   7   4    6.20    1.70
   0   7   5  125.69    5.50
   0  -7  -5  130.59    4.90
   0   7   5  133.59    4.20
   0   7   6   53.99    3.80
   0   7   6   52.29    1.90
   0  -7  -6   51.29    3.40
   0  -7  -7   58.99    4.00
   0   7   7   60.99    4.20
   0   7   8   40.80    3.60
   0  -7  -8   42.70    3.70
   0  -7  -9    4.60    2.00
   0  -7 -10    0.10    0.80
   0   8  -7   32.20    3.10
   0   8  -6    5.50    1.60
   0   8  -5    5.10    1.40
   0  -8   5    7.40    1.20
   0  -8   4   20.90    1.80
   0  -8   4   14.80    3.00
   0   8  -4   17.40    2.10
   0   8  -3   67.49    3.80
   0  -8   3   61.99    5.40
   0  -8   3   66.49    2.90
   0  -8   2   13.70    2.90
   0  -8   2   10.50    1.20
   0   8  -2   11.60    1.80
   0   8  -2   12.20    2.80
   0   8  -1   88.09    4.30
   0   8  -1   85.89    5.90
   0  -8   1   85.69    5.80
   0  -8   1   85.89    3.10
   0   8   0    0.60    1.40
   0  -8   0    0.10    0.50
   0  -8   0    1.30    1.40
   0   8   0    1.10    1.10
   0   8   1   63.39    4.70
   0  -8  -1   70.09    2.80
   0   8   1   68.39    3.90
   0   8   2   44.00    3.70
   0  -8  -2   36.10    2.10
   0   8   2   39.60    3.10
   0   8   3    4.10    1.50
   0  -8  -3    3.70    0.80
   0   8   3    4.60    1.50
   0  -8  -4   54.69    3.00
   0   8   4   53.99    3.70
   0   8   4   55.59    3.70
   0  -8  -5  230.18    6.50
   0   8   5  229.38    6.40
   0   8   5  220.58    7.60
   0   8   6    0.30    1.20
   0   8   6    1.10    0.60
   0  -8  -6    1.60    1.30
   0   8   7  116.39    5.90
   0  -8  -7  118.49    5.50
   0   8   8   16.00    2.50
   0  -8  -8    9.90    2.00
   0   9  -4   24.40    2.70
   0   9  -3   86.09    4.70
   0   9  -2   22.60    2.60
   0  -9   2   20.90    1.70
   0  -9   2   19.70    3.40
   0   9  -1   15.70    2.10
   0  -9   1   16.60    1.60
   0  -9   1   19.70    3.30
   0  -9   0    0.30    0.50
   0   9   0   -2.50    1.80
   0   9   0   -1.50    1.40
   0   9   1   20.30    3.10
   0  -9  -1   24.50    1.80
   0   9   2   10.50    1.90
   0   9   2   11.80    2.20
   0  -9  -2   12.10    1.40
   0   9   3    0.50    1.20
   0  -9  -3    0.90    0.70
   0   9   3    0.70    1.30
   0   9   4   12.30    2.10
   0  -9  -4   12.20    1.50
   0   9   4   15.20    2.40
   0  -9  -5    8.40    1.50
   0   9   5    9.30    1.90
   0   9   6   49.90    4.00
   0   9   7    0.40    1.40
  -1   9   3   35.90    3.40
  -1   9   3   41.00    2.80
  -1   9   2  105.69    6.10
  -1   9   2  107.09    4.30
   1  -9  -1    4.90    1.80
  -1   9   1    5.00    2.20
  -1   9   1    3.60    1.20
  -1   9   0    4.90    1.30
   1  -9   0   -0.10    1.70
  -1   9   0    5.20    2.30
   1  -9   1    1.10    1.90
   1  -9   2   10.60    2.70
   1  -8  -7  106.69    3.60
   1  -8  -6    1.10    0.90
  -1   8   6   -0.80    1.20
  -1   8   5   15.90    2.00
   1  -8  -5   16.60    1.70
   1  -8  -4    0.60    0.60
  -1   8   4    1.20    1.00
  -1   8   4    1.00    0.90
   1  -8  -3   51.89    2.30
  -1   8   3   54.49    3.20
  -1   8   3   57.49    3.90
  -1   8   2   41.40    3.60
   1  -8  -2   34.80    3.30
  -1   8   2   37.70    2.60
   1  -8  -2   36.90    1.80
   1  -8  -1  124.09    6.50
   1  -8  -1  125.19    3.10
  -1   8   1  125.79    4.60
  -1   8   1  120.49    6.30
   1  -8   0   14.90    2.70
  -1   8   0   15.40    1.80
  -1   8   0   13.80    2.70
   1  -8   0   14.80    1.10
   1  -8   1   85.59    2.70
   1  -8   1   84.39    5.70
  -1   8  -1   81.29    5.80
  -1   8  -1   87.69    3.80
   1  -8   2   11.00    2.60
  -1   8  -2   11.60    1.60
  -1   8  -2   13.90    2.90
   1  -8   2   13.20    1.10
   1  -8   3    3.80    0.70
   1  -8   3    4.60    2.20
  -1   8  -3    2.70    1.00
   1  -8   4   10.30    2.80
  -1   8  -4    8.90    1.60
   1  -8   4    6.30    0.90
  -1   8  -5   94.99    4.40
  -1   8  -6   20.10    2.30
   1  -7 -10    4.80    1.10
   1  -7  -9   92.49    3.80
   1  -7  -9   79.89    5.30
   1  -7  -8  222.48    5.50
   1  -7  -8  212.18    7.80
   1  -7  -7  211.48    5.00
   1  -7  -7  210.28    7.10
  -1   7   6  248.08    7.40
   1  -7  -6  266.87    7.20
   1  -7  -5   25.50    2.10
  -1   7   5   23.30    2.20
   1  -7  -4   23.90    1.80
  -1   7   4   22.30    2.10
  -1   7   4   24.40    2.10
   1  -7  -3  294.67    7.90
  -1   7   3  302.97    8.00
  -1   7   3  297.37    6.90
   1  -7  -3  294.07    5.40
  -1   7   2   28.10    2.10
   1  -7  -2   25.30    1.50
   1  -7  -2   26.70    2.50
  -1   7   2   28.70    2.80
  -1   7   1   61.89    4.20
   1  -7  -1   60.09    4.10
   1  -7  -1   60.59    2.10
  -1   7   1   65.99    3.10
  -1   7   0   63.19    3.00
   1  -7   0   62.29    2.10
  -1   7   0   61.29    4.30
   1  -7   0   66.59    4.60
  -1   7  -1   61.29    2.90
   1  -7   1   63.99    4.70
   1  -7   1   58.19    2.10
  -1   7  -1   68.19    4.80
  -1   7  -2    0.00    0.70
   1  -7   2    0.80    0.40
   1  -7   2    0.90    1.20
  -1   7  -3    1.80    1.90
  -1   7  -3    0.10    0.70
   1  -7   3    0.20    0.50
  -1   7  -4    0.10    0.80
   1  -7   4    0.60    0.50
  -1   7  -4    0.00    1.70
   1  -7   4    1.70    1.60
   1  -7   5   17.10    3.10
   1  -7   5   19.40    1.60
  -1   7  -5   18.00    1.90
  -1   7  -6   15.60    2.40
   1  -7   6   22.10    3.60
  -1   7  -6   20.70    2.10
  -1   7  -7    2.80    1.60
  -1   7  -7    3.10    1.20
  -1   7  -8   69.59    4.20
   1  -6 -10   29.10    2.40
   1  -6  -9   60.39    4.70
   1  -6  -9   63.39    3.20
   1  -6  -8   51.19    4.00
   1  -6  -8   55.29    2.80
   1  -6  -7  225.18    7.50
   1  -6  -7  221.48    5.10
   1  -6  -6   80.29    4.10
  -1   6   6   77.39    4.10
  -1   6   5  222.88    6.30
   1  -6  -5  235.18    6.30
  -1   6   4  421.56    8.30
   1  -6  -4  432.76    7.50
  -1   6   4  428.06    7.50
  -1   6   3   28.90    2.10
  -1   6   3   32.70    2.40
   1  -6  -3   29.60    2.30
   1  -6  -3   25.10    1.60
   1  -6  -2   66.89    2.30
  -1   6   2   69.49    3.80
   1  -6  -2   69.59    3.80
  -1   6   2   65.09    2.90
  -1   6   1   10.80    1.30
   1  -6  -1    9.40    0.80
  -1   6   1    9.50    1.60
   1  -6  -1    9.70    1.70
  -1   6   0  156.58    4.20
   1  -6   0  161.88    3.10
  -1   6   0  164.58    6.40
   1  -6   1   42.30    1.70
  -1   6  -1   41.80    2.20
   1  -6   1   43.20    3.60
  -1   6  -1   48.40    3.80
  -1   6  -2  265.47    9.10
  -1   6  -2  251.27    5.30
   1  -6   2  260.07    8.90
   1  -6   2  259.97    4.30
  -1   6  -3  424.06    7.10
  -1   6  -3  433.06   12.10
   1  -6   3  408.46   11.60
   1  -6   3  433.56    5.90
   1  -6   4   46.50    2.10
   1  -6   4   49.90    4.40
  -1   6  -4   45.50    4.10
  -1   6  -4   48.00    2.60
   1  -6   5   51.89    2.30
   1  -6   5   48.10    4.50
  -1   6  -5   51.69    4.60
  -1   6  -5   52.09    2.80
   1  -6   6  103.59    6.80
  -1   6  -6  104.39    6.90
  -1   6  -6  101.29    4.10
  -1   6  -7    4.70    1.70
   1  -6   7    7.90    2.70
  -1   6  -7    6.20    1.30
   1  -6   8    6.40    2.60
  -1   6  -8    4.10    1.80
  -1   6  -8    3.60    1.10
  -1   6  -9   37.90    3.20
   1  -5 -11  123.89    5.10
   1  -5 -10   24.10    2.10
   1  -5 -10   26.50    3.60
   1  -5  -9    0.70    1.50
   1  -5  -9    0.60    0.50
   1  -5  -8   69.69    4.70
   1  -5  -8   67.69    3.00
   1  -5  -7   27.60    1.80
   1  -5  -7   27.40    2.80
  -1   5   6   25.10    2.40
   1  -5  -6   19.50    2.10
  -1   5   5  243.08    6.30
   1  -5  -5  243.78    6.50
  -1   5   4   49.70    2.80
  -1   5   4   52.39    2.20
   1  -5  -4   50.49    2.20
   1  -5  -4   53.59    2.70
   1  -5  -3   83.59    3.20
   1  -5  -3   88.99    3.00
  -1   5   3   88.49    3.30
  -1   5   3   80.19    3.20
  -1   5   2  741.33    8.90
  -1   5   2  744.53   10.80
   1  -5  -2  742.93    7.30
   1  -5  -2  762.42   10.90
   1  -5  -1  436.86    8.90
   1  -5  -1  449.46    5.00
  -1   5   0  331.97    8.40
   1  -5   0  337.77    8.30
  -1   5   0  351.26    5.40
   1  -5   0  343.57    4.10
   1  -5   1   25.50    2.60
  -1   5  -1   26.20    2.70
   1  -5   1   26.60    1.20
  -1   5  -1   26.00    1.50
  -1   5  -2  153.48    6.30
   1  -5   2  162.78    3.20
  -1   5  -2  163.08    3.80
   1  -5   2  155.98    6.40
   1  -5   3   -0.90    1.40
  -1   5  -3    0.30    0.40
   1  -5   3    0.30    0.30
  -1   5  -3    0.60    1.20
  -1   5  -4   10.30    1.10
   1  -5   4    9.90    0.90
   1  -5   4    9.90    2.20
  -1   5  -4    8.10    2.00
   1  -5   5  122.99    3.40
  -1   5  -5  128.59    4.10
  -1   5  -5  132.09    6.70
   1  -5   5  125.09    6.70
  -1   5  -6   19.90    2.30
   1  -5   6   21.90    3.10
  -1   5  -6   23.90    3.30
  -1   5  -6   23.80    1.90
  -1   5  -7   43.00    4.40
   1  -5   7   43.70    4.40
  -1   5  -7   39.10    2.60
  -1   5  -7   35.60    3.40
   1  -5   8    2.40    2.20
  -1   5  -8    2.20    1.00
  -1   5  -8    0.70    1.40
   1  -5   9   -0.50    1.90
  -1   5  -9    0.80    1.00
  -1   5 -10   24.40    2.60
   1  -4 -11   29.10    2.50
   1  -4 -10    2.20    1.00
   1  -4 -10   -1.40    1.80
   1  -4  -9    0.80    0.70
   1  -4  -9    0.70    1.50
   1  -4  -8   -0.20    1.20
   1  -4  -8    0.20    0.50
   1  -4  -7  189.28    4.50
   1  -4  -7  196.78    7.20
   1  -4  -6   10.80    1.80
   1  -4  -6   11.20    1.00
  -1   4   5  165.98    5.10
   1  -4  -5  174.08    5.60
  -1   4   4   54.09    2.70
   1  -4  -4   60.59    3.00
   1  -4  -4   53.89    1.70
  -1   4   3   13.10    1.10
   1  -4  -3   12.70    1.10
  -1   4   3   12.50    1.20
   1  -4  -3   12.30    1.20
  -1   4   2  368.36    6.50
  -1   4   2  379.76    5.80
   1  -4  -2  374.06    6.60
   1  -4  -2  384.76    5.10
   1  -4  -1  920.71   11.50
   1  -4  -1  913.11    6.60
  -1   4   1  914.51   11.30
  -1   4   1  944.61    8.20
  -1   4   0    3.00    1.10
  -1   4   0    0.90    0.40
   1  -4   0    1.80    0.80
   1  -4   0    1.80    0.30
   1  -4   1   77.69    3.90
  -1   4  -1   71.59    3.70
   1  -4   1   73.89    1.70
  -1   4  -1   75.49    2.10
   1  -4   2  145.49    5.70
  -1   4  -2  156.38    5.70
  -1   4  -2  148.09    3.10
   1  -4   2  154.38    2.70
   1  -4   3   80.09    2.20
  -1   4  -3   90.59    4.70
   1  -4   3   85.99    4.70
  -1   4  -3   80.19    2.50
  -1   4  -4  102.89    3.00
   1  -4   4  104.09    2.80
  -1   4  -4  107.29    5.40
  -1   4  -5   91.49    5.20
   1  -4   5   83.59    2.70
  -1   4  -5   81.79    3.00
   1  -4   5   80.39    4.90
  -1   4  -6  962.30   14.60
  -1   4  -6  954.00   11.00
   1  -4   6  995.20   17.70
  -1   4  -6  984.20   17.70
  -1   4  -7   14.90    1.60
   1  -4   7   10.70    2.30
  -1   4  -7   12.90    2.00
  -1   4  -7   13.70    2.60
  -1   4  -8    4.00    1.10
  -1   4  -8    1.30    1.10
  -1   4  -8    0.20    1.60
   1  -4   8    2.60    1.60
  -1   4  -9   32.90    2.60
  -1   4  -9   30.90    3.70
   1  -4   9   34.60    4.10
  -1   4  -9   29.40    3.80
   1  -4  10   10.30    2.90
  -1   4 -10    6.90    1.50
   1  -3 -11    0.60    0.80
   1  -3 -10    4.30    1.10
   1  -3 -10    3.10    1.70
   1  -3  -9   46.20    4.20
   1  -3  -9   44.60    2.60
   1  -3  -8  116.89    6.00
   1  -3  -8  115.09    3.90
   1  -3  -7   26.30    2.80
   1  -3  -7   25.20    1.70
   1  -3  -6  197.68    4.20
   1  -3  -6  199.48    6.50
   1  -3  -5    8.20    0.80
   1  -3  -5    8.20    1.50
  -1   3   4  147.29    4.30
   1  -3  -4  153.78    4.70
   1  -3  -3  108.59    2.40
  -1   3   3  110.19    3.30
   1  -3  -3  104.09    3.30
  -1   3   2  152.28    3.30
   1  -3  -2  155.18    3.30
   1  -3  -2  150.28    3.50
  -1   3   2  145.69    3.40
   1  -3  -1  348.37    6.00
  -1   3   1  355.46    6.00
  -1   3   1  362.06    4.30
   1  -3  -1  358.16    3.70
  -1   3   0    7.70    1.20
  -1   3   0   10.40    0.70
   1  -3   0    9.50    0.50
   1  -3   0    9.60    1.30
  -1   3  -1 2492.85   19.10
   1  -3   1 2548.45    8.70
   1  -3   1 2512.55   19.20
  -1   3  -2   89.99    2.10
   1  -3   2   86.69    3.90
   1  -3   2   88.89    1.90
  -1   3  -2   91.89    4.00
  -1   3  -3  996.10    7.80
  -1   3  -3 1015.30   14.00
   1  -3   3 1016.60    7.20
   1  -3   4   10.50    0.90
  -1   3  -4    8.80    1.60
  -1   3  -4   11.70    1.00
  -1   3  -5  195.68    5.80
  -1   3  -5  191.38    4.20
   1  -3   5  192.28    7.00
  -1   3  -5  196.78    6.90
  -1   3  -6   68.49    2.80
  -1   3  -6   65.29    3.80
   1  -3   6   68.09    4.40
  -1   3  -6   70.69    4.40
  -1   3  -7   22.90    2.80
  -1   3  -7   20.00    1.70
   1  -3   7   19.10    2.70
  -1   3  -7   20.80    2.40
   1  -3   8   30.70    3.40
  -1   3  -8   31.30    3.40
  -1   3  -8   27.60    2.10
  -1   3  -8   26.90    3.10
   1  -3   9   16.20    2.70
  -1   3  -9   17.30    2.70
  -1   3  -9   14.90    1.70
  -1   3  -9   17.30    3.00
  -1   3 -10   94.99    4.50
   1  -3  10  100.39    6.40
  -1   3 -10   91.39    6.10
  -1   3 -11    0.30    1.00
   1  -3  11    0.50    2.10
   1  -3  12    7.00    2.60
   1  -2 -11    4.30    1.20
   1  -2 -10   79.29    5.80
   1  -2 -10   66.99    3.60
   1  -2  -9   96.29    5.90
   1  -2  -9  100.19    4.00
   1  -2  -8  300.27    9.50
   1  -2  -8  276.87    6.00
   1  -2  -7  119.89    3.70
   1  -2  -7  111.49    5.40
   1  -2  -6    0.30    0.40
   1  -2  -6   -1.30    1.10
   1  -2  -5    3.40    1.10
   1  -2  -5    4.90    0.70
   1  -2  -4  444.06    7.70
   1  -2  -4  454.35    5.00
   1  -2  -3   77.39    2.90
   1  -2  -3   74.69    1.50
   1  -2  -2  326.07    4.70
   1  -2  -2  336.87    4.00
  -1   2   2  327.27    4.40
   1  -2  -1   21.80    1.30
   1  -2  -1   25.00    0.90
  -1   2   1   25.60    1.40
  -1   2   1   23.80    1.00
   1  -2   0   52.59    2.20
  -1   2   0   50.99    2.20
   1  -2   1   29.40    0.70
  -1   2  -1   30.10    0.80
   1  -2   1   29.20    1.90
  -1   2  -1   33.20    2.00
   1  -2   2  708.53    9.80
  -1   2  -2  733.63    5.10
   1  -2   2  723.23    4.80
  -1   2  -2  725.53    9.70
   1  -2   3  997.10    6.60
  -1   2  -3  974.10   12.20
  -1   2  -3  997.00    7.10
   1  -2   3 1000.10   12.50
  -1   2  -4  116.29    2.80
  -1   2  -4  114.29    4.50
   1  -2   4  110.79    4.50
  -1   2  -4  103.99    3.70
  -1   2  -5  176.78    3.90
   1  -2   5  180.88    6.10
  -1   2  -5  183.28    6.10
  -1   2  -5  173.28    5.30
  -1   2  -6   23.50    1.60
   1  -2   6   23.80    2.40
  -1   2  -6   24.40    2.40
  -1   2  -6   27.10    2.60
  -1   2  -7   69.29    2.90
  -1   2  -7   71.09    4.30
  -1   2  -7   74.59    4.30
   1  -2   7   71.19    4.40
   1  -2   8   27.70    3.10
  -1   2  -8   33.00    3.10
  -1   2  -8   33.00    2.20
  -1   2  -8   33.10    3.20
  -1   2  -9    4.40    1.70
  -1   2  -9    5.90    1.10
  -1   2  -9    6.40    1.80
   1  -2   9    6.20    1.70
  -1   2 -10   79.59    5.70
   1  -2  10   85.49    5.50
  -1   2 -10   91.89    4.20
  -1   2 -10   87.39    5.50
   1  -2  11    2.20    1.80
  -1   2 -11    1.10    1.00
  -1   2 -11   -0.30    1.50
   1  -2  12   37.30    4.20
   1  -1 -11   96.59    4.70
   1  -1 -10  105.69    4.50
   1  -1 -10  110.19    3.80
   1  -1  -9   34.00    2.40
   1  -1  -9   30.50    2.00
   1  -1  -9   36.90    3.90
   1  -1  -8  132.39    4.30
   1  -1  -8  127.09    6.10
   1  -1  -8  138.89    3.80
   1  -1  -7    9.60    1.10
   1  -1  -7   11.90    2.00
   1  -1  -7    9.90    1.10
   1  -1  -6  270.47    7.40
   1  -1  -6  265.07    4.60
   1  -1  -6  264.47    5.00
   1  -1  -5  144.29    3.30
   1  -1  -5  157.68    5.10
   1  -1  -5  150.78    3.00
   1  -1  -4  315.77    4.30
   1  -1  -4  316.87    3.90
   1  -1  -3  362.16    5.80
   1  -1  -3  359.06    4.00
   1  -1  -2  932.21    5.20
   1  -1  -2  924.21    7.60
  -1   1   0   15.70    1.10
   1  -1   0   13.70    1.00
  -1   1  -1  872.21    3.40
   1  -1   1  875.71    8.20
  -1   1  -1  897.71    5.10
  -1   1  -1  900.41    8.20
  -1   1  -2 1194.78    8.50
   1  -1   2 1204.98   10.90
  -1   1  -2 1195.18   10.60
  -1   1  -2 1186.28    5.70
  -1   1  -3    1.30    0.80
   1  -1   3    1.80    0.80
  -1   1  -3    0.70    0.30
  -1   1  -3    0.60    0.60
  -1   1  -4   36.20    2.20
  -1   1  -4   35.10    1.40
  -1   1  -4   34.80    2.30
   1  -1   4   33.70    2.20
   1  -1   5   73.59    3.50
  -1   1  -5   71.19    3.40
  -1   1  -5   77.99    3.60
  -1   1  -5   71.79    2.30
   1  -1   6  330.87    8.00
  -1   1  -6  340.07    8.30
  -1   1  -6  323.87    5.50
  -1   1  -6  341.77    7.90
  -1   1  -7   98.89    5.00
  -1   1  -7  104.99    4.70
  -1   1  -7   98.69    3.30
   1  -1   7   98.59    4.70
   1  -1   8    1.60    1.20
  -1   1  -8    0.00    0.60
  -1   1  -8   -1.40    1.30
  -1   1  -8   -0.50    0.90
  -1   1  -9  210.78    7.40
  -1   1  -9  230.08    6.00
  -1   1  -9  208.28    8.40
   1  -1   9  219.28    7.50
  -1   1 -10    0.20    1.20
  -1   1 -10    1.20    0.70
   1  -1  10    0.20    1.20
  -1   1 -10   -0.10    1.50
  -1   1 -11  129.99    5.30
  -1   1 -11  117.49    6.20
   1  -1  11  127.59    6.40
   1  -1  12   21.00    3.00
   1   0 -11    2.00    0.80
   1   0 -11    2.10    1.20
   1   0 -10   13.50    1.80
   1   0 -10   14.80    2.90
   1   0 -10   11.10    1.60
   1   0  -9   49.80    3.00
   1   0  -9   50.29    3.10
   1   0  -9   54.49    4.50
   1   0  -8   12.90    2.30
   1   0  -8   14.50    1.50
   1   0  -8   12.20    1.60
   1   0  -7  199.58    5.00
   1   0  -7  198.88    7.10
   1   0  -7  204.18    5.40
   1   0  -6  803.92    9.10
   1   0  -6  784.42    9.90
   1   0  -6  782.92   12.50
   1   0  -5 1659.93   11.80
   1   0  -5 1642.44   13.20
  -1   0   4  101.59    2.50
   1   0  -4   97.69    2.60
   1   0  -4  104.39    3.00
   1   0  -3  325.97    4.10
  -1   0   3  323.37    3.90
   1   0  -3  320.47    4.70
   1   0  -2 9353.66   18.60
  -1   0   2 9999.00   18.50
  -1   0   1 3051.79    8.40
   1   0  -1 3063.69    8.50
  -1   0   0   63.89    1.10
   1   0   0   64.19    1.10
   1   0   1    1.60    0.50
  -1   0  -1    0.90    0.50
  -1   0  -2 2796.92   13.70
  -1   0  -2 2878.71   13.70
   1   0   2 2810.62   13.50
   1   0   2 2849.61   13.70
   1   0   3 1607.14   11.90
   1   0   3 1614.14   11.60
  -1   0  -3 1630.34   11.70
   1   0   4    0.20    0.80
  -1   0  -4    0.90    0.70
   1   0   4    0.70    0.60
  -1   0  -5   -0.20    0.90
  -1   0  -5    0.80    0.50
  -1   0  -5    1.00    0.70
   1   0   5    0.90    0.70
  -1   0  -6 1011.30   11.90
  -1   0  -6 1013.60    9.40
   1   0   6 1001.20   12.10
  -1   0  -6  976.20   14.10
  -1   0  -7   15.30    1.30
  -1   0  -7   14.40    2.10
   1   0   7   15.80    1.80
  -1   0  -7   14.80    1.60
  -1   0  -8   41.20    2.90
   1   0   8   42.50    2.90
  -1   0  -8   39.80    3.50
  -1   0  -8   40.80    2.30
  -1   0  -9   81.89    4.30
  -1   0  -9   80.69    3.50
  -1   0  -9   75.79    5.30
   1   0   9   75.99    4.10
   1   0  10   37.20    3.00
  -1   0 -10   39.60    3.20
  -1   0 -10   34.80    3.90
  -1   0 -10   45.00    2.90
   1   0  11   83.89    4.70
  -1   0 -11   96.19    5.00
  -1   0 -11   96.99    4.50
   1   0  12   26.90    3.10
   1   1 -11   -0.80    0.90
   1   1 -11   -1.20    1.40
   1   1 -10   23.20    2.30
   1   1 -10   26.40    2.90
   1   1  -9   15.70    2.10
   1   1  -9   13.60    2.40
   1   1  -9   17.50    1.90
   1   1  -8    3.20    0.90
   1   1  -8    2.40    0.90
   1   1  -8    2.50    1.10
   1   1  -7    9.20    1.50
   1   1  -7   10.10    1.20
   1   1  -7   10.50    1.90
  -1  -1   6  219.58    4.70
   1   1  -6  218.58    6.10
   1   1  -6  218.98    4.90
  -1  -1   6  214.48    6.00
   1   1  -5  542.75    7.10
   1   1  -5  563.44    9.20
  -1  -1   5  548.15    6.70
  -1  -1   5  552.24    9.00
  -1  -1   4   84.89    2.40
   1   1  -4   82.39    2.50
  -1  -1   4   90.39    3.40
   1   1  -4   89.89    3.50
  -1  -1   3 1292.27    8.40
   1   1  -3 1294.17   11.50
   1   1  -3 1288.37    8.80
  -1  -1   2  971.30    6.70
   1   1  -2  988.90    9.10
   1   1  -2  991.50    6.80
   1   1  -1 4350.86   13.20
  -1  -1   1 4322.57   12.60
  -1  -1   0   54.49    1.40
   1   1   0   56.49    1.50
  -1  -1  -1 2439.56   11.00
   1   1   1 2524.25   11.30
   1   1   2  552.54    6.50
  -1  -1  -2  552.64    6.50
   1   1   3  788.72    9.00
  -1  -1  -3  803.22    9.30
   1   1   4  781.62   10.00
  -1  -1  -4  800.12   10.50
   1   1   4  785.42    7.60
  -1  -1  -5    2.00    1.10
   1   1   5    1.50    0.90
   1   1   5    2.50    0.60
   1   1   6  284.07    5.60
  -1  -1  -6  299.77    7.90
   1   1   6  295.77    7.50
  -1  -1  -7   82.89    2.90
  -1  -1  -7   85.49    4.70
   1   1   7   87.79    3.50
   1   1   8  249.38    6.10
  -1  -1  -8  239.78    5.50
  -1  -1  -8  234.78    8.40
  -1  -1  -9  120.19    4.20
  -1  -1  -9  122.99    6.60
   1   1   9  113.99    4.40
  -1  -1 -10   49.60    4.70
  -1  -1 -10   48.10    2.90
   1   1  10   45.90    3.00
  -1  -1 -11    4.10    1.10
   1   1  11    2.80    1.10
   1   2 -11    4.00    1.80
   1   2 -10   57.59    4.40
   1   2 -10   50.19    3.40
   1   2  -9   23.80    2.30
   1   2  -9   22.90    3.00
   1   2  -9   21.70    2.80
   1   2  -8  181.38    7.00
   1   2  -8  167.58    7.30
   1   2  -8  166.38    5.30
   1   2  -7    0.10    0.60
  -1  -2   7    0.80    1.00
  -1  -2   7    0.40    0.50
   1   2  -7    0.60    1.00
  -1  -2   6   38.50    2.90
  -1  -2   6   38.80    2.10
   1   2  -6   42.10    2.30
   1   2  -6   43.30    3.10
  -1  -2   5  401.36    8.70
   1   2  -5  399.36    8.70
   1   2  -5  408.36    6.50
  -1  -2   5  404.56    6.10
  -1  -2   4  174.28    3.70
   1   2  -4  176.88    5.50
   1   2  -4  177.68    3.90
  -1  -2   4  179.78    5.50
   1   2  -3  337.07    5.00
  -1  -2   3  358.36    7.10
  -1  -2   3  340.57    4.80
   1   2  -3  343.57    7.00
  -1  -2   2  625.74    8.80
  -1  -2   2  634.84    6.00
   1   2  -2  627.34    8.70
   1   2  -2  625.54    6.20
  -1  -2   1  352.26    4.20
   1   2  -1  349.87    4.40
   1   2  -1  339.67    5.90
   1   2   0    0.40    0.70
  -1  -2   0    0.40    0.40
   1   2   0    0.80    0.50
  -1  -2  -1  112.39    2.70
   1   2   1  112.29    2.80
   1   2   2 1028.10    9.80
  -1  -2  -2 1015.50    9.30
   1   2   3 1321.07   12.40
  -1  -2  -3 1321.47   12.30
   1   2   4    3.50    0.80
   1   2   4    4.90    0.60
  -1  -2  -4    6.10    1.10
   1   2   5   35.20    2.60
  -1  -2  -5   37.80    2.80
   1   2   5   36.80    1.60
  -1  -2  -6    2.00    0.80
   1   2   6    2.50    1.10
   1   2   6    1.80    0.50
   1   2   7   98.49    4.70
   1   2   7  101.29    3.00
  -1  -2  -7  101.29    5.20
  -1  -2  -8   69.89    3.00
  -1  -2  -8   74.99    4.70
   1   2   8   67.49    2.60
  -1  -2  -9  498.15    8.40
   1   2   9  510.85    7.50
  -1  -2  -9  501.55   13.10
  -1  -2 -10  266.87   10.30
   1   2  10  273.47    5.70
  -1  -2 -10  266.47    6.70
  -1  -2 -11   98.69    4.40
   1   3 -10  282.97    8.20
   1   3 -10  267.17   10.10
   1   3  -9   22.40    3.00
   1   3  -9   20.00    2.10
   1   3  -9   19.90    3.10
   1   3  -8   58.99    4.40
   1   3  -8   63.09    3.40
  -1  -3   8   58.39    4.50
  -1  -3   7   24.30    1.80
   1   3  -7   27.20    3.00
   1   3  -7   25.00    2.00
  -1  -3   7   24.60    2.90
  -1  -3   6  445.86    7.20
   1   3  -6  453.15   10.80
   1   3  -6  458.95    8.00
  -1  -3   6  465.15   11.00
  -1  -3   5    5.80    1.50
  -1  -3   5    7.20    0.90
   1   3  -5    5.70    0.90
   1   3  -5    7.60    1.50
   1   3  -4   34.10    1.90
   1   3  -4   33.40    2.70
  -1  -3   4   31.80    1.70
  -1  -3   4   33.50    2.80
   1   3  -3   12.60    1.20
  -1  -3   3   10.30    1.00
   1   3  -3    8.70    1.50
  -1  -3   3    9.40    1.50
  -1  -3   2   26.20    1.40
   1   3  -2   27.00    2.20
   1   3  -2   25.00    1.40
  -1  -3   1 1042.10    8.20
  -1  -3   1 1054.69   12.10
   1   3  -1 1039.00    8.90
   1   3   0    7.30    1.10
  -1  -3   0    7.00    0.80
   1   3   0    9.60    0.90
   1   3   1   69.09    2.50
   1   3   1   66.19    2.70
  -1  -3  -1   63.39    2.20
  -1  -3  -2   17.10    1.40
   1   3   2   17.70    1.50
   1   3   2   17.00    1.30
  -1  -3  -3  345.27    6.50
   1   3   3  360.76    6.90
   1   3   4   12.50    1.60
  -1  -3  -4   14.40    1.70
   1   3   5  113.19    4.50
   1   3   5  115.89    2.40
  -1  -3  -5  123.79    4.90
   1   3   6   22.60    2.30
   1   3   6   17.50    0.90
  -1  -3  -6   21.20    2.40
  -1  -3  -7 1145.19   17.20
   1   3   7 1135.19   16.30
  -1  -3  -8   66.09    4.60
   1   3   8   71.59    4.40
  -1  -3  -9   20.80    1.80
  -1  -3  -9   17.20    2.80
  -1  -3 -10   21.60    2.00
  -1  -3 -10   16.60    3.00
  -1  -3 -11   21.40    2.10
   1   4  -9   17.70    2.20
   1   4  -9   14.30    2.50
  -1  -4   8   -0.30    1.40
  -1  -4   8    0.60    0.60
   1   4  -8   -0.60    0.70
   1   4  -8    0.50    1.60
  -1  -4   7  146.29    7.10
  -1  -4   7  149.59    4.70
   1   4  -7  148.59    5.10
   1   4  -7  146.29    7.10
  -1  -4   6   79.09    3.20
   1   4  -6   78.79    3.50
   1   4  -6   83.19    5.10
  -1  -4   6   83.19    5.20
  -1  -4   5 1595.34   13.50
   1   4  -5 1594.64   14.80
  -1  -4   5 1604.44   21.20
   1   4  -5 1651.63   21.80
   1   4  -4  156.08    6.30
  -1  -4   4  147.19    6.10
  -1  -4   4  164.08    4.10
   1   4  -4  155.18    4.40
  -1  -4   3   55.89    2.30
   1   4  -3   56.59    2.50
  -1  -4   3   50.69    3.50
   1   4  -3   51.99    3.50
   1   4  -2  855.71    9.30
   1   4  -2  866.51   13.50
  -1  -4   2  843.02    8.40
  -1  -4   2  853.31   13.20
   1   4  -1  515.05    7.10
  -1  -4   1  533.35    9.80
  -1  -4   1  513.15    6.30
   1   4  -1  532.45    9.90
   1   4   0    9.70    1.40
  -1  -4   0   12.70    1.00
   1   4   0   13.10    1.20
  -1  -4   0   10.80    1.50
  -1  -4  -1  395.76    6.00
   1   4   1  412.96    7.70
   1   4   1  390.86    6.70
   1   4   2  470.85    7.90
   1   4   2  481.25    7.50
  -1  -4  -2  486.95    7.20
   1   4   3   27.20    1.70
   1   4   3   32.20    2.30
  -1  -4  -3   27.40    1.90
  -1  -4  -4   33.20    2.40
   1   4   4   38.10    1.80
  -1  -4  -5  376.96    8.50
   1   4   5  377.76    8.70
   1   4   5  375.96    4.80
  -1  -4  -6   12.50    2.00
   1   4   6   11.00    0.60
   1   4   6   10.40    0.60
  -1  -4  -7  139.79    6.20
   1   4   7  135.29    5.90
   1   4   8    2.50    1.20
  -1  -4  -8    2.90    1.50
  -1  -4  -9    5.00    1.80
   1   4   9   -2.50    1.70
  -1  -4 -10   87.69    3.90
  -1  -4 -10   90.69    6.20
  -1  -4 -11  117.69    4.90
   1   5  -9   21.60    2.60
  -1  -5   8    5.30    1.90
  -1  -5   8    3.30    1.10
   1   5  -8    3.40    1.20
  -1  -5   7   11.40    1.50
   1   5  -7   10.10    1.50
  -1  -5   7   10.90    2.30
   1   5  -7    7.40    2.10
  -1  -5   6  170.18    4.90
   1   5  -6  165.28    5.50
  -1  -5   6  179.58    8.10
   1   5  -6  179.28    8.10
  -1  -5   5  104.19    3.60
   1   5  -5  107.69    6.10
   1   5  -5   99.89    4.00
  -1  -5   5  109.69    6.10
  -1  -5   4   13.80    2.30
  -1  -5   4   13.90    1.40
   1   5  -4   12.30    1.50
   1   5  -4   18.00    2.60
  -1  -5   3  274.57    5.40
   1   5  -3  266.37    8.70
  -1  -5   3  267.67    8.60
   1   5  -3  266.47    5.90
  -1  -5   2   16.20    1.30
   1   5  -2   18.90    2.40
   1   5  -2   18.10    1.60
  -1  -5   2   15.60    2.10
  -1  -5   1 1787.82   12.90
   1   5  -1 1759.52   14.70
   1   5  -1 1795.22   20.30
  -1  -5   0   26.50    2.40
  -1  -5   0   23.60    1.50
   1   5   0   24.10    1.90
   1   5   0   26.50    2.50
  -1  -5  -1  159.48    4.00
   1   5   1  168.18    5.50
   1   5   1  165.08    4.80
   1   5   2  133.99    4.60
   1   5   2  134.59    4.70
  -1  -5  -2  133.09    3.90
   1   5   3    3.50    1.30
  -1  -5  -3    4.10    1.00
   1   5   3    3.00    1.00
  -1  -5  -4  209.08    5.90
   1   5   4  221.38    5.10
   1   5   4  209.18    6.50
   1   5   5   64.29    3.90
  -1  -5  -5   70.39    3.70
   1   5   5   68.29    2.50
  -1  -5  -6    1.10    1.00
   1   5   6    0.70    0.30
   1   5   7    3.40    1.50
  -1  -5  -7    1.80    1.30
   1   5   8    1.80    1.20
  -1  -5  -8   -2.00    1.60
  -1  -5  -9  265.57    9.80
   1   5   9  256.77    9.20
  -1  -5 -10    4.30    2.10
  -1  -5 -11    2.30    0.90
   1   6  -8    3.30    1.20
  -1  -6   7   54.39    5.20
  -1  -6   7   55.19    3.10
   1   6  -7   54.19    3.60
  -1  -6   6    2.40    0.90
   1   6  -6    0.50    0.90
   1   6  -6    1.80    1.70
  -1  -6   6    0.00    1.60
  -1  -6   5   24.20    1.90
   1   6  -5   27.90    3.60
   1   6  -5   22.80    2.20
  -1  -6   5   25.20    3.40
  -1  -6   4    6.60    1.80
   1   6  -4    9.10    1.40
  -1  -6   4    6.50    0.90
  -1  -6   3   -0.10    1.40
  -1  -6   3    0.50    0.40
   1   6  -3    0.90    1.40
   1   6  -3   -0.50    0.70
  -1  -6   2   91.29    3.20
   1   6  -2   96.59    5.50
   1   6  -2   96.69    3.90
  -1  -6   2   95.89    5.50
  -1  -6   1  407.26   10.50
  -1  -6   1  404.86    6.60
   1   6  -1  410.26    8.00
   1   6   0  339.27    9.20
   1   6   0  334.87    7.30
  -1  -6   0  345.87    6.20
  -1  -6  -1  109.69    3.60
   1   6   1  105.79    4.20
   1   6   1  102.39    4.90
   1   6   2   26.50    2.30
   1   6   2   26.30    2.40
  -1  -6  -2   22.80    1.80
   1   6   3  413.66    8.60
   1   6   3  406.96    9.20
  -1  -6  -3  409.76    7.70
   1   6   4    2.70    1.30
  -1  -6  -4    1.60    0.80
   1   6   4    1.90    0.80
   1   6   5    6.50    1.50
   1   6   5    4.90    0.90
  -1  -6  -5    7.10    1.40
   1   6   6    1.70    1.40
   1   6   6    2.20    0.50
  -1  -6  -6    3.90    1.20
  -1  -6  -7   34.20    3.10
   1   6   7   31.50    3.30
  -1  -6  -8   19.10    2.70
   1   6   8   15.10    2.30
   1   6   9   81.29    5.40
  -1  -6  -9   83.49    5.50
   1   6  10   84.69    5.80
  -1  -6 -11    4.70    1.30
   1   7  -7    9.50    1.80
   1   7  -6   11.30    1.80
  -1  -7   6    7.10    1.30
  -1  -7   5   55.49    5.30
   1   7  -5   54.69    3.50
  -1  -7   5   48.10    2.80
   1   7  -4    4.10    1.20
  -1  -7   4    3.40    0.90
  -1  -7   4    1.50    1.30
   1   7  -4    2.10    1.50
   1   7  -3    0.60    1.30
  -1  -7   3    1.40    1.50
  -1  -7   3    0.90    0.60
   1   7  -3    2.40    1.10
   1   7  -2  375.56   11.70
  -1  -7   2  367.76    6.80
  -1  -7   2  385.76   11.70
   1   7  -2  365.46    8.30
   1   7  -1   51.99    4.20
  -1  -7   1   53.59    2.60
   1   7  -1   59.09    3.40
  -1  -7   0  137.59    4.10
   1   7   0  141.29    5.30
   1   7   0  145.79    6.70
   1   7   1    1.80    1.10
   1   7   1    2.80    1.10
  -1  -7  -1    3.00    0.80
   1   7   2   66.29    4.20
  -1  -7  -2   62.19    3.00
   1   7   2   59.29    3.60
   1   7   3  420.16   10.00
  -1  -7  -3  421.26    8.10
   1   7   3  411.76    9.50
   1   7   4  149.19    5.40
  -1  -7  -4  144.09    5.00
   1   7   4  147.59    6.10
  -1  -7  -5    7.70    1.50
   1   7   5    9.00    1.40
   1   7   5    6.90    1.90
   1   7   6  119.69    6.10
  -1  -7  -6  124.29    5.40
   1   7   6  127.39    3.80
  -1  -7  -7  267.87    8.50
   1   7   7  271.27    9.40
  -1  -7  -8   87.79    5.30
   1   7   8   89.19    5.50
  -1  -7  -9    3.20    1.80
   1   7   9    5.10    1.80
   1   7  10    3.00    1.90
   1   8  -6   18.20    2.50
   1   8  -5  165.38    6.50
  -1  -8   5  156.88    5.10
   1   8  -4    3.30    1.30
  -1  -8   4    1.40    0.80
  -1  -8   3   16.80    1.70
   1   8  -3   19.60    2.30
   1   8  -2    6.30    1.60
   1   8  -2    6.80    2.30
  -1  -8   2    2.60    0.80
   1   8  -1   28.30    2.60
  -1  -8   1   23.90    1.90
   1   8  -1   24.10    3.30
  -1  -8   0   73.39    3.20
   1   8   0   77.99    4.30
   1   8   0   79.99    5.50
   1   8   1   74.19    4.30
   1   8   1   70.99    4.90
  -1  -8  -1   73.99    3.30
  -1  -8  -2   45.90    2.70
   1   8   2   47.40    3.90
   1   8   2   46.10    3.50
   1   8   3   25.60    2.80
   1   8   3   22.20    2.60
  -1  -8  -3   18.50    1.80
   1   8   4   18.30    2.20
  -1  -8  -4   21.90    2.10
   1   8   4   20.80    2.60
   1   8   5   44.80    3.80
   1   8   5   51.39    3.30
  -1  -8  -5   45.10    3.10
   1   8   6   32.20    3.50
   1   8   6   35.40    2.40
  -1  -8  -6   34.10    3.00
  -1  -8  -7   31.90    3.20
   1   8   7   35.20    3.60
   1   8   7   27.70    1.40
   1   8   8   15.20    2.70
  -1  -8  -8   14.20    2.40
   1   8   9   14.00    2.70
   1   9  -5    0.00    1.40
   1   9  -4   66.49    4.50
   1   9  -3   11.60    2.20
  -1  -9   3   11.40    1.50
  -1  -9   2    3.50    1.00
   1   9  -2    3.30    1.50
  -1  -9   1   22.50    1.90
   1   9  -1   24.00    2.70
   1   9   0    7.90    1.80
   1   9   0    5.80    2.20
  -1  -9   0    8.50    1.30
   1   9   1   14.00    2.70
   1   9   1   15.20    2.30
  -1  -9  -1   12.00    1.40
   1   9   2    5.40    1.80
   1   9   2    4.40    2.30
  -1  -9  -2    4.70    1.00
  -1  -9  -3    0.90    0.70
   1   9   3    1.10    1.40
   1   9   3   -0.20    1.30
   1   9   4   62.49    4.60
  -1  -9  -4   55.69    3.30
   1   9   4   59.89    4.20
  -1  -9  -5    1.10    0.90
   1   9   5    4.30    1.90
   1   9   5    2.60    1.40
   1   9   6   24.80    3.30
  -1  -9  -6   25.50    2.60
  -1  -9  -7    7.50    1.90
   1   9   7    8.20    2.30
   1   9   8   12.50    2.80
   1  10  -2   25.00    3.30
   1  10  -1  116.09    6.10
   1  10   0   60.99    4.50
   1  10   1   36.10    3.50
   1  10   2   20.70    2.90
   1  10   3    0.50    1.50
   1  10   3    0.60    1.60
   1  10   4    2.40    1.70
   1  10   5   48.80    4.50
   2  -9  -2   10.90    2.50
  -2   9   2   17.00    3.10
   2  -9  -1    7.70    2.30
  -2   9   1   10.50    2.70
   2  -9   0   -1.70    1.70
   2  -9   1   34.70    4.30
  -2   8   3   33.40    3.10
   2  -8  -3   40.30    3.40
   2  -8  -2   22.20    0.80
   2  -8  -2   24.30    2.80
  -2   8   1  221.48    8.70
   2  -8  -1  205.28    8.40
   2  -8   0    1.70    0.20
  -2   8   0    0.90    1.50
   2  -8   0    3.80    1.70
   2  -8   1   17.70    3.00
  -2   8  -1   14.00    3.00
  -2   8  -2   34.20    2.00
  -2   8  -2   36.90    2.00
   2  -8   2   29.80    3.90
   2  -8   3   13.30    2.90
  -2   8  -3   17.60    1.70
   2  -7  -8    0.00    1.40
   2  -7  -7   53.49    2.50
   2  -7  -7   49.40    3.40
   2  -7  -6    0.20    0.40
   2  -7  -6    0.40    0.80
   2  -7  -5  121.59    3.00
   2  -7  -5  122.29    4.00
   2  -7  -4   -0.20    0.80
   2  -7  -4   -0.10    0.30
   2  -7  -4    0.50    0.60
   2  -7  -3    8.00    0.80
  -2   7   3   11.40    1.80
   2  -7  -3    9.60    1.70
  -2   7   2  211.48    7.40
  -2   7   2  200.18    3.60
   2  -7  -2  198.08    2.70
   2  -7  -2  210.78    7.40
   2  -7  -1   54.29    1.20
   2  -7  -1   60.39    4.30
  -2   7   1   59.09    4.20
  -2   7   0    8.80    0.80
   2  -7   0    7.70    0.50
  -2   7   0   10.10    2.10
   2  -7   0   11.50    2.30
  -2   7  -1   92.69    2.80
   2  -7   1   88.79    1.80
   2  -7   1   88.59    5.60
  -2   7  -1   96.89    5.90
   2  -7   2    2.80    1.50
  -2   7  -2    2.00    1.80
  -2   7  -2    3.30    0.70
   2  -7   3   10.80    2.60
  -2   7  -3   10.60    1.30
  -2   7  -3   12.70    2.50
  -2   7  -3   11.60    1.40
  -2   7  -4    6.90    1.10
   2  -7   4    6.90    2.20
  -2   7  -4    9.10    1.50
  -2   7  -5    1.30    0.80
  -2   7  -5    2.50    1.00
  -2   7  -6   38.90    3.30
  -2   7  -6   43.20    2.80
  -2   7  -7  113.99    4.70
   2  -6 -10   79.49    3.90
   2  -6  -9   88.79    3.80
   2  -6  -9   76.19    5.20
   2  -6  -8   21.80    1.80
   2  -6  -8   23.90    2.90
   2  -6  -7   20.00    1.50
   2  -6  -7   15.60    2.20
   2  -6  -6    4.90    1.30
   2  -6  -6    2.70    0.60
   2  -6  -5   80.99    2.50
   2  -6  -5   78.49    3.50
   2  -6  -4    1.00    0.60
   2  -6  -4    1.50    0.40
   2  -6  -4    2.00    0.70
   2  -6  -3  626.84    6.40
   2  -6  -3  596.04   10.40
  -2   6   3  602.24   10.40
  -2   6   2  490.55   10.20
   2  -6  -2  502.05   10.40
  -2   6   2  468.25    5.50
   2  -6  -2  481.75    4.50
  -2   6   1  154.78    2.90
   2  -6  -1  157.88    6.20
  -2   6   1  163.28    6.30
   2  -6  -1  154.48    2.00
   2  -6   0   64.49    1.30
  -2   6   0   67.69    4.30
   2  -6   0   67.89    4.40
  -2   6   0   72.19    2.10
   2  -6   1   18.80    0.80
  -2   6  -1   19.00    2.60
  -2   6  -1   18.00    1.20
   2  -6   1   17.20    2.70
   2  -6   2    2.80    0.40
  -2   6  -2    2.70    1.40
   2  -6   2    4.10    1.80
  -2   6  -2    2.90    0.60
  -2   6  -3  102.19    6.10
  -2   6  -3  107.49    3.80
   2  -6   3   97.69    6.00
  -2   6  -3  105.69    3.20
  -2   6  -4  117.49    4.40
  -2   6  -4  124.49    3.70
  -2   6  -4  127.99    7.00
   2  -6   4  123.59    7.10
  -2   6  -5   15.40    1.50
  -2   6  -5   14.30    1.80
  -2   6  -5   15.70    3.00
   2  -6   5   14.70    2.70
   2  -6   6    5.20    2.00
  -2   6  -6    7.80    1.60
  -2   6  -6    6.10    1.10
   2  -6   7    2.30    2.40
  -2   6  -7    0.20    0.80
  -2   6  -7    1.40    1.40
  -2   6  -8   26.30    2.40
  -2   6  -8   23.50    3.20
  -2   6  -9   50.89    3.50
   2  -5 -11   12.00    1.80
   2  -5 -10    1.40    1.00
   2  -5  -9  111.19    4.20
   2  -5  -9   98.49    5.90
   2  -5  -8  128.49    4.20
   2  -5  -8  138.39    6.50
   2  -5  -7   11.50    1.20
   2  -5  -7    7.60    1.70
   2  -5  -6    0.80    1.00
   2  -5  -6    0.90    0.50
   2  -5  -5   33.00    1.60
   2  -5  -5   35.80    2.40
   2  -5  -5   34.40    1.50
   2  -5  -4   22.40    1.70
   2  -5  -4   20.20    1.50
   2  -5  -4   23.30    1.20
   2  -5  -3  160.88    3.50
   2  -5  -3  163.08    2.60
   2  -5  -3  166.48    4.90
  -2   5   2    0.80    0.40
   2  -5  -2    2.00    0.40
   2  -5  -2    1.90    0.90
   2  -5  -1  129.39    1.60
   2  -5  -1  134.29    5.20
  -2   5   1  131.09    2.30
  -2   5   1  138.29    5.30
   2  -5   0   82.49    1.20
  -2   5   0   89.99    4.50
   2  -5   0   89.49    4.60
  -2   5   0   83.89    1.90
   2  -5   1  587.54    3.90
  -2   5  -1  606.44   12.30
   2  -5   1  613.94   12.50
  -2   5  -1  605.94    5.70
   2  -5   2  371.86   10.20
  -2   5  -2  373.06    4.90
  -2   5  -3  246.98    5.30
  -2   5  -3  248.68    8.60
  -2   5  -3  240.08    4.40
   2  -5   3  246.88    8.80
  -2   5  -4   20.90    1.80
  -2   5  -4   20.90    1.40
  -2   5  -4   20.30    3.00
   2  -5   4   23.40    3.00
  -2   5  -5   54.29    2.50
  -2   5  -5   51.99    4.50
  -2   5  -5   50.29    3.10
   2  -5   5   46.70    4.30
  -2   5  -6   21.10    2.20
  -2   5  -6   22.30    1.80
  -2   5  -6   21.00    3.10
   2  -5   6   24.50    3.50
  -2   5  -7   25.90    3.70
  -2   5  -7   21.50    1.90
   2  -5   7   24.10    3.60
  -2   5  -7   20.40    2.60
   2  -5   8   12.50    2.90
  -2   5  -8    8.20    2.00
  -2   5  -8   10.30    1.40
   2  -5   9    8.50    2.70
  -2   5  -9    8.20    1.50
  -2   5 -10   25.20    2.60
   2  -4 -11   11.10    1.70
   2  -4 -10   12.60    1.70
   2  -4 -10   11.90    2.60
   2  -4  -9   63.89    4.90
   2  -4  -9   61.99    3.20
   2  -4  -8   10.80    1.30
   2  -4  -8   13.10    2.20
   2  -4  -7  110.79    3.50
   2  -4  -7  113.09    5.50
   2  -4  -6  139.19    3.60
   2  -4  -6  141.39    5.60
   2  -4  -5    7.50    0.80
   2  -4  -5    9.80    1.50
   2  -4  -4   12.30    0.80
   2  -4  -4   13.30    1.40
   2  -4  -4   12.40    1.00
   2  -4  -3   16.70    0.80
   2  -4  -3   16.80    1.30
   2  -4  -3   16.90    1.50
   2  -4  -2   75.19    1.90
   2  -4  -2   77.89    3.30
   2  -4  -2   75.19    1.40
  -2   4   2   74.79    3.20
   2  -4  -1  245.68    1.70
   2  -4  -1  258.47    2.00
  -2   4   1  263.37    6.50
   2  -4  -1  259.77    6.50
  -2   4   0  753.82   11.70
   2  -4   0  737.93   11.70
  -2   4  -1  104.69    1.90
   2  -4   1   95.89    4.50
  -2   4  -2   15.80    0.90
  -2   4  -2   16.60    2.00
   2  -4   2   15.20    2.10
  -2   4  -2   16.10    1.10
  -2   4  -3  365.46    4.90
  -2   4  -3  359.26    9.50
   2  -4   3  350.96    9.60
  -2   4  -3  358.96    6.00
  -2   4  -4  356.36    7.00
  -2   4  -4  348.17    5.20
   2  -4   4  377.46   10.40
  -2   4  -4  370.86   10.20
  -2   4  -5  354.06    7.90
  -2   4  -5  332.47    5.60
   2  -4   5  343.07   10.50
  -2   4  -5  340.17   10.20
  -2   4  -6  262.57    7.60
  -2   4  -6  282.67    5.70
  -2   4  -6  278.67    9.80
   2  -4   6  290.27   10.10
  -2   4  -7   76.09    3.20
   2  -4   7   80.59    5.70
  -2   4  -7   72.69    4.40
  -2   4  -7   73.29    5.30
   2  -4   8   62.09    5.10
  -2   4  -8   56.89    3.10
  -2   4  -8   65.39    4.60
  -2   4  -8   61.99    5.10
   2  -4   9   13.70    2.90
  -2   4  -9   14.60    1.70
  -2   4  -9   10.20    2.40
   2  -4  10    6.00    2.60
  -2   4 -10    4.80    1.20
   2  -3 -11   94.09    4.60
   2  -3 -10    6.70    1.40
   2  -3 -10    5.70    2.00
   2  -3  -9   38.80    2.60
   2  -3  -9   34.90    3.60
   2  -3  -8  164.28    4.80
   2  -3  -8  166.88    7.20
   2  -3  -7   44.80    2.30
   2  -3  -7   45.90    3.60
   2  -3  -6    2.40    1.20
   2  -3  -6    3.50    0.60
   2  -3  -5   36.00    1.60
   2  -3  -5   35.60    2.60
   2  -3  -4   16.30    1.10
   2  -3  -4   15.30    1.60
   2  -3  -4   14.90    1.00
   2  -3  -3   65.59    2.40
   2  -3  -3   58.29    1.60
   2  -3  -3   59.19    2.50
   2  -3  -2  115.29    2.70
   2  -3  -2  114.79    1.70
   2  -3  -1   76.59    3.20
  -2   3   1   75.69    3.10
   2  -3   0  234.38    6.10
  -2   3   0  275.27    6.50
  -2   3  -1  196.78    2.40
   2  -3   1  199.68    5.80
  -2   3  -1  196.88    2.00
  -2   3  -2  141.49    3.00
   2  -3   2  136.59    5.20
  -2   3  -2  141.79    2.20
  -2   3  -2  138.69    5.10
  -2   3  -3  847.42    6.50
  -2   3  -3  829.32   13.40
   2  -3   3  811.72   13.30
  -2   3  -3  810.02    8.80
  -2   3  -4  288.17    6.20
  -2   3  -4  291.97    4.40
  -2   3  -4  290.77    8.30
   2  -3   4  309.07    8.60
  -2   3  -5  126.19    3.30
   2  -3   5  128.29    5.90
  -2   3  -5  132.49    6.00
  -2   3  -5  125.79    4.60
  -2   3  -6  230.58    4.90
   2  -3   6  231.78    8.40
  -2   3  -6  242.48    8.50
  -2   3  -6  226.78    7.00
  -2   3  -7  283.37    5.90
  -2   3  -7  302.97    9.80
  -2   3  -7  274.57    8.40
   2  -3   7  287.97    9.80
  -2   3  -8   11.90    1.30
  -2   3  -8   11.00    2.30
   2  -3   8   12.70    2.30
  -2   3  -8   10.40    2.10
  -2   3  -9   35.60    3.90
  -2   3  -9   35.40    2.50
  -2   3  -9   32.10    3.50
   2  -3   9   40.70    4.20
   2  -3  10    8.20    2.70
  -2   3 -10    6.50    1.30
  -2   3 -11   35.80    2.90
   2  -3  11   39.00    4.60
   2  -2 -11   21.40    2.30
   2  -2 -10  143.19    5.40
   2  -2 -10  133.49    7.60
   2  -2  -9  357.96    7.80
   2  -2  -9  346.07   11.10
   2  -2  -8    7.80    1.20
   2  -2  -8    9.90    1.90
   2  -2  -7   26.30    1.80
   2  -2  -7   23.10    2.60
   2  -2  -6    1.10    0.50
   2  -2  -6    0.80    0.30
   2  -2  -6    2.10    1.10
   2  -2  -5   19.50    1.30
   2  -2  -5   22.10    2.10
   2  -2  -5   19.40    1.00
   2  -2  -4  173.78    3.30
   2  -2  -4  178.18    3.30
   2  -2  -4  179.58    4.90
   2  -2  -3  169.98    2.80
   2  -2  -3  166.88    4.10
   2  -2  -2  906.01    5.30
   2  -2  -2  881.11    8.70
   2  -2  -2  891.11    7.60
   2  -2  -1  109.39    1.80
   2  -2  -1  108.59    1.30
   2  -2  -1  110.19    3.30
  -2   2   0  249.48    5.40
   2  -2   0  250.97    5.50
   2  -2   1  426.46    7.60
  -2   2  -1  469.55    8.20
   2  -2   2   12.70    1.70
  -2   2  -2   10.10    0.50
  -2   2  -2   10.30    0.90
  -2   2  -2    9.60    1.50
  -2   2  -3   64.19    1.70
  -2   2  -3   67.39    3.50
  -2   2  -3   66.39    2.50
  -2   2  -4   11.00    1.80
   2  -2   4   12.50    1.80
  -2   2  -4   12.00    0.90
  -2   2  -4   12.10    1.40
  -2   2  -5   24.30    1.40
  -2   2  -5   26.00    2.60
   2  -2   5   23.90    2.50
  -2   2  -6   27.60    1.60
  -2   2  -6   28.70    2.80
   2  -2   6   26.60    2.80
  -2   2  -6   27.10    2.50
  -2   2  -7   34.20    2.00
  -2   2  -7   33.90    3.30
  -2   2  -7   40.60    3.30
   2  -2   7   41.80    3.60
  -2   2  -8  487.65    8.20
  -2   2  -8  467.65   11.80
  -2   2  -8  486.55   12.10
   2  -2   8  510.45   12.60
  -2   2  -9  289.87    9.80
  -2   2  -9  284.67    6.80
  -2   2  -9  286.07   10.10
   2  -2   9  290.27   10.10
  -2   2 -10   97.29    4.30
  -2   2 -10  101.49    6.30
  -2   2 -10   99.89    6.50
   2  -2  10  103.29    6.20
  -2   2 -11   28.20    3.60
  -2   2 -11   30.90    2.70
   2  -2  11   31.30    3.90
   2  -2  12    6.30    2.50
   2  -1 -11    1.50    0.80
   2  -1 -10   10.80    1.70
   2  -1 -10   10.60    1.30
   2  -1  -9    0.80    0.60
   2  -1  -9    2.80    1.40
   2  -1  -9    0.80    0.70
   2  -1  -8   83.09    3.60
   2  -1  -8   83.99    3.10
   2  -1  -8   79.09    5.10
   2  -1  -7  126.29    3.60
   2  -1  -7  123.79    5.60
   2  -1  -7  122.39    4.00
   2  -1  -6   48.00    2.20
   2  -1  -6   46.50    2.20
   2  -1  -6   46.00    3.10
   2  -1  -5  201.08    5.80
   2  -1  -5  206.08    4.20
   2  -1  -5  190.48    4.00
   2  -1  -4  593.74    6.50
   2  -1  -4  587.34    8.90
  -2   1   3  783.42    6.10
   2  -1  -3  800.52    6.50
  -2   1   2    2.10    0.30
   2  -1  -2    2.20    0.40
  -2   1   1 1524.75    5.80
   2  -1  -1 1490.15    6.30
   2  -1   0  645.64    4.50
  -2   1   0  525.25    3.40
   2  -1   1 1115.39    6.40
  -2   1  -1 1110.69    5.90
   2  -1   1 1092.59   10.90
   2  -1   2  975.10    7.60
  -2   1  -2  971.70   10.90
  -2   1  -2  975.20    8.00
  -2   1  -3    0.30    0.70
   2  -1   3   -0.20    0.70
   2  -1   3    0.10    0.60
  -2   1  -3   -1.50    0.90
  -2   1  -4   48.60    1.60
  -2   1  -4   51.29    2.70
   2  -1   4   49.50    2.90
  -2   1  -4   50.29    3.00
  -2   1  -5   58.59    2.10
  -2   1  -5   63.59    3.30
  -2   1  -5   55.39    3.30
   2  -1   5   56.69    3.30
  -2   1  -6   37.80    1.80
  -2   1  -6   40.10    3.00
   2  -1   6   36.90    2.80
  -2   1  -6   41.10    3.10
  -2   1  -7  116.89    3.50
   2  -1   7  113.89    5.20
  -2   1  -7  115.39    5.30
  -2   1  -7  110.29    5.30
  -2   1  -8   19.40    1.70
  -2   1  -8   20.20    2.70
  -2   1  -8   23.20    2.70
   2  -1   8   18.00    2.40
  -2   1  -9   66.99    3.20
   2  -1   9   73.99    4.80
  -2   1  -9   64.79    4.80
  -2   1  -9   65.79    4.40
   2  -1  10    4.50    1.70
  -2   1 -10    4.00    1.90
  -2   1 -10    5.10    1.10
  -2   1 -10    4.30    1.50
  -2   1 -11   39.10    2.90
   2  -1  11   32.90    3.40
  -2   1 -11   32.90    3.50
   2  -1  12  130.29    7.00
   2   0 -11    0.80    1.00
   2   0 -10    1.40    1.10
   2   0 -10    1.50    1.00
   2   0  -9   48.10    4.30
   2   0  -9   42.60    2.80
   2   0  -9   44.70    3.00
   2   0  -8    0.30    0.60
   2   0  -8   -0.20    1.00
   2   0  -8    1.10    0.90
   2   0  -7  483.15    8.60
   2   0  -7  483.85    8.10
   2   0  -7  479.95   11.00
   2   0  -6  767.72    9.30
   2   0  -6  759.42   10.50
  -2   0   5  123.79    3.20
   2   0  -5  123.89    3.80
   2   0  -5  122.59    3.40
  -2   0   4  999.20    8.20
   2   0  -4  981.80    8.70
   2   0  -4 1001.70   10.30
  -2   0   3   89.69    2.20
   2   0  -3   83.69    2.30
  -2   0   2 1209.98    7.50
   2   0  -2 1244.88    7.90
  -2   0   1 5420.46   14.10
   2   0  -1 5251.17   14.60
  -2   0   0 1505.05    7.20
   2   0   0 1517.55    7.80
  -2   0  -1 1721.33    9.00
   2   0   1 1707.03    9.60
   2   0   2   25.20    1.50
   2   0   2   26.90    1.70
  -2   0  -2   27.30    1.50
  -2   0  -3   47.60    2.30
   2   0   3   51.19    2.50
   2   0   3   50.69    2.30
   2   0   4  646.84    9.00
  -2   0  -4  635.04    9.30
   2   0   4  636.04    9.20
  -2   0  -5  140.09    4.90
   2   0   5  129.59    4.50
  -2   0  -5  136.39    4.60
   2   0   5  127.89    4.50
   2   0   6  108.89    4.50
  -2   0  -6  110.89    4.90
  -2   0  -6  109.39    4.30
  -2   0  -7  236.38    5.00
   2   0   7  237.28    6.90
  -2   0  -7  242.78    7.80
  -2   0  -7  235.68    6.70
  -2   0  -8  200.58    5.00
  -2   0  -8  211.18    7.90
  -2   0  -8  198.68    6.60
   2   0   8  200.68    6.70
  -2   0  -9   47.90    2.60
  -2   0  -9   48.50    4.20
   2   0   9   46.70    3.50
  -2   0 -10   38.90    2.70
  -2   0 -10   38.20    4.10
   2   0  10   34.80    3.20
  -2   0 -11   16.50    1.90
   2   0  11   13.80    2.30
   2   0  12    4.90    1.80
   2   1 -10   -0.50    1.10
   2   1 -10   -0.50    0.80
   2   1  -9    3.30    1.40
   2   1  -9    5.70    1.60
   2   1  -9    6.00    1.30
   2   1  -8    4.60    1.60
   2   1  -8    4.80    1.00
   2   1  -8    4.50    1.30
  -2  -1   7    8.20    1.10
   2   1  -7    9.30    1.20
   2   1  -7    7.00    1.40
   2   1  -6   67.39    2.90
  -2  -1   6   71.39    2.80
   2   1  -5    0.00    0.70
  -2  -1   5   -0.30    0.50
   2   1  -5   -0.10    0.40
   2   1  -4  216.48    5.50
  -2  -1   4  208.98    4.10
   2   1  -4  205.58    4.30
  -2  -1   3   23.60    1.30
   2   1  -3   24.00    1.40
   2   1  -3   23.30    1.80
  -2  -1   2 1145.49    8.20
   2   1  -2 1158.88    8.60
  -2  -1   1  878.21    6.70
   2   1  -1  880.31    7.10
  -2  -1   0    2.30    0.40
   2   1   0    3.50    0.50
  -2  -1  -1  172.88    3.30
   2   1   1  167.48    3.50
  -2  -1  -2  230.98    4.50
   2   1   2  231.48    4.70
  -2  -1  -3    1.80    0.80
   2   1   3    2.30    0.80
   2   1   4 1235.08   13.30
  -2  -1  -4 1215.78   13.40
   2   1   5  227.08    5.40
   2   1   5  228.58    6.20
  -2  -1  -5  233.48    6.50
  -2  -1  -6  315.27    8.30
   2   1   6  307.97    7.70
   2   1   6  314.47    6.70
  -2  -1  -7  195.18    7.00
   2   1   7  187.88    6.50
   2   1   7  199.18    5.70
  -2  -1  -8  216.58    5.10
  -2  -1  -8  202.88    7.80
   2   1   8  209.38    6.20
  -2  -1  -9   71.99    3.20
   2   1   9   68.09    3.80
  -2  -1  -9   69.49    4.90
  -2  -1 -10  228.88    9.60
  -2  -1 -10  235.08    6.20
   2   1  10  245.58    7.60
  -2  -1 -11    1.90    0.90
   2   1  11    2.80    1.30
   2   1  12   60.79    4.10
   2   2 -10   31.80    2.90
   2   2 -10   32.10    3.50
   2   2  -9   62.79    3.60
   2   2  -9   64.29    4.50
   2   2  -9   59.69    4.80
  -2  -2   8   99.49    3.90
   2   2  -8  106.79    4.40
   2   2  -8  107.99    5.50
  -2  -2   7  125.89    4.10
   2   2  -7  124.89    4.50
   2   2  -7  116.39    5.40
  -2  -2   6    3.10    0.70
   2   2  -6    2.50    0.60
   2   2  -6    3.70    1.40
   2   2  -5    5.80    1.50
  -2  -2   5    4.00    0.70
   2   2  -5    5.10    0.90
   2   2  -4  561.74    7.60
   2   2  -4  556.24    9.80
   2   2  -3  425.36    6.10
   2   2  -3  422.86    8.10
   2   2  -2  293.27    4.90
   2   2  -2  297.27    6.50
  -2  -2   1  389.76    5.20
   2   2  -1  407.26    5.50
  -2  -2   0  183.98    3.50
   2   2   0  199.08    3.90
   2   2   1   92.19    2.90
  -2  -2  -1   94.79    2.70
  -2  -2  -2 3156.88   17.50
   2   2   2 3242.08   18.70
  -2  -2  -3  175.88    4.60
   2   2   3  187.28    5.00
   2   2   4 1106.59   13.20
  -2  -2  -4 1064.19   12.80
   2   2   5  283.77    7.30
   2   2   5  294.27    5.70
   2   2   6  137.19    4.10
   2   2   6  138.89    5.40
   2   2   7  150.88    6.00
   2   2   7  140.89    4.30
   2   2   8  514.55    8.80
   2   2   8  528.85   11.80
   2   2   9  154.08    5.00
  -2  -2  -9  110.79    6.20
  -2  -2 -10    4.80    1.00
  -2  -2 -10    4.20    1.70
   2   2  10    5.60    1.30
  -2  -2 -11  139.99    5.20
   2   2  11  140.49    5.00
   2   3 -10    2.60    1.30
   2   3 -10    5.30    2.10
   2   3  -9   46.40    3.30
   2   3  -9   45.60    4.10
  -2  -3   8  124.29    4.50
   2   3  -8  128.09    6.50
   2   3  -8  118.49    4.90
  -2  -3   7   -0.40    0.60
   2   3  -7   -1.20    1.60
   2   3  -7    1.20    0.80
  -2  -3   6   77.99    3.20
   2   3  -6   76.89    4.70
   2   3  -6   72.59    3.30
  -2  -3   5   51.49    2.50
   2   3  -5   47.30    2.60
   2   3  -5   50.19    3.60
  -2  -3   4  143.89    3.90
   2   3  -4  139.49    5.50
   2   3  -4  150.88    4.30
  -2  -3   3   77.49    2.70
   2   3  -3   73.29    2.80
   2   3  -3   77.19    3.90
  -2  -3   2   22.10    1.40
   2   3  -2   22.60    1.50
   2   3  -2   21.50    2.00
  -2  -3   1  230.48    4.50
   2   3  -1  226.78    4.60
   2   3  -1  216.18    5.90
  -2  -3   0   51.49    2.10
   2   3   0   53.49    2.40
   2   3   1 2362.06   16.00
  -2  -3  -1 2366.36   14.80
  -2  -3  -2 1043.80   10.80
   2   3   2 1079.19   11.70
   2   3   3    2.30    1.90
  -2  -3  -3    3.20    1.00
   2   3   4 1406.26   15.70
  -2  -3  -4 1407.36   15.10
  -2  -3  -5  166.88    5.70
   2   3   5  173.08    6.00
   2   3   6  416.96    9.70
  -2  -3  -6  418.16    9.90
   2   3   7  118.59    3.60
  -2  -3  -7  137.69    6.20
   2   3   7  132.99    5.90
  -2  -3  -8    1.30    1.50
   2   3   8    0.30    1.10
   2   3   8    0.80    0.70
   2   3   9  156.58    4.30
   2   3   9  148.59    6.90
  -2  -3  -9  157.28    7.50
  -2  -3 -10    4.50    2.00
   2   3  10    4.80    1.00
  -2  -3 -11   16.60    1.90
   2   3  11   16.60    1.50
   2   4  -9   10.10    1.80
   2   4  -9   10.90    2.50
  -2  -4   8   17.50    1.90
   2   4  -8   13.20    1.80
   2   4  -8   19.20    2.90
  -2  -4   7  400.36    7.90
   2   4  -7  424.06   12.20
   2   4  -7  402.66    8.90
  -2  -4   6  374.66    7.30
   2   4  -6  387.96    8.40
  -2  -4   5   32.90    2.10
   2   4  -5   34.30    2.40
   2   4  -5   38.20    3.40
   2   4  -4  213.78    7.50
  -2  -4   4  205.58    5.00
   2   4  -4  204.58    5.40
  -2  -4   3  106.49    3.40
   2   4  -3  102.49    3.60
   2   4  -3  105.19    5.10
  -2  -4   2  412.56    6.50
   2   4  -2  429.46    7.20
   2   4  -2  428.56    9.50
  -2  -4   1   89.49    3.00
   2   4  -1   94.39    3.30
   2   4  -1   90.99    4.30
  -2  -4   0   48.00    2.20
   2   4   0   48.70    3.00
   2   4   0   48.40    2.50
   2   4   1   48.10    2.60
  -2  -4  -1   51.19    2.40
   2   4   1   44.40    2.80
   2   4   2   11.30    1.40
   2   4   2   13.80    1.50
  -2  -4  -2   12.20    1.30
  -2  -4  -3  372.26    7.30
   2   4   3  369.86    8.00
   2   4   4  332.27    8.10
  -2  -4  -4  342.47    7.70
   2   4   5  187.78    6.50
  -2  -4  -5  180.58    6.10
   2   4   6  269.67    8.20
  -2  -4  -6  278.07    8.10
   2   4   7  140.19    6.30
   2   4   7  140.39    3.60
  -2  -4  -7  143.19    6.30
  -2  -4  -8  569.44   13.50
   2   4   8  572.44    6.90
   2   4   8  581.74   13.30
   2   4   9    4.00    1.60
  -2  -4  -9    4.80    2.00
   2   4   9    5.10    0.70
  -2  -4 -10   73.19    5.60
   2   4  10   74.89    5.40
  -2  -4 -11   43.40    3.00
   2   5  -8  212.98    7.30
   2   5  -7    0.30    1.60
  -2  -5   7    0.10    0.60
   2   5  -7    1.00    0.90
  -2  -5   6  217.88    5.80
   2   5  -6  213.58    6.60
   2   5  -6  221.18    9.10
   2   5  -5    2.60    0.90
  -2  -5   5    3.30    0.90
   2   5  -5    1.50    1.40
   2   5  -4    2.20    0.90
  -2  -5   4    4.00    0.80
   2   5  -4    3.10    1.70
  -2  -5   3  120.29    3.90
   2   5  -3  126.59    4.40
   2   5  -3  120.19    6.00
  -2  -5   2   65.79    2.80
   2   5  -2   60.59    3.00
   2   5  -2   61.49    4.10
  -2  -5   1   33.00    2.00
   2   5  -1   38.80    3.20
   2   5  -1   36.10    2.30
   2   5   0    0.20    0.90
   2   5   0    0.30    0.60
  -2  -5   0   -0.20    0.50
   2   5   1   44.00    2.70
  -2  -5  -1   45.30    2.40
   2   5   1   44.60    3.00
   2   5   2   43.10    2.80
   2   5   2   43.20    2.80
  -2  -5  -2   44.80    2.50
  -2  -5  -3  261.17    6.30
   2   5   3  259.07    7.20
   2   5   3  253.47    6.40
  -2  -5  -4  331.47    7.60
   2   5   4  331.97    8.60
   2   5   4  324.67    6.90
  -2  -5  -5   24.40    2.40
   2   5   5   25.20    2.70
   2   5   5   28.10    2.00
   2   5   6    1.20    0.60
  -2  -5  -6    3.20    1.30
   2   5   6    3.70    1.70
   2   5   7  104.89    3.00
  -2  -5  -7  104.49    5.40
   2   5   7   99.19    5.50
   2   5   7  108.69    3.10
   2   5   8  122.19    6.40
  -2  -5  -8  132.99    6.50
   2   5   8  116.59    2.60
   2   5   8  106.69    2.50
  -2  -5  -9    3.50    1.70
   2   5   9    2.40    1.30
   2   5  10  267.47   10.20
   2   5  11    0.90    1.60
   2   6  -8   11.10    2.10
   2   6  -7   -0.90    1.00
  -2  -6   6   38.20    2.60
   2   6  -6   40.10    3.10
   2   6  -6   38.20    4.30
   2   6  -5    1.90    0.90
  -2  -6   5    2.30    0.80
   2   6  -5    1.90    1.60
  -2  -6   4   18.70    1.70
   2   6  -4   26.30    2.40
   2   6  -4   22.30    3.20
  -2  -6   3  882.11   11.10
   2   6  -3  886.81   17.40
   2   6  -3  882.31   12.80
   2   6  -2  131.79    6.60
  -2  -6   2  117.79    4.00
   2   6  -2  118.79    4.60
  -2  -6   1  149.79    4.40
   2   6  -1  144.39    6.50
   2   6  -1  151.48    5.20
  -2  -6   0   32.40    2.10
   2   6   0   28.90    2.40
   2   6   0   28.70    2.90
   2   6   1  126.39    5.00
   2   6   1  122.79    5.50
  -2  -6  -1  133.09    4.30
   2   6   2  124.59    5.10
  -2  -6  -2  131.09    4.40
   2   6   2  116.39    5.00
  -2  -6  -3  312.07    7.10
   2   6   3  304.07    8.30
   2   6   3  307.47    7.80
   2   6   4  125.99    5.60
  -2  -6  -4  128.09    4.90
   2   6   4  122.69    4.60
  -2  -6  -5  587.34   11.20
   2   6   5  571.04    9.40
   2   6   5  598.04   12.70
   2   6   6   30.50    3.20
  -2  -6  -6   34.30    3.00
   2   6   6   30.50    2.10
  -2  -6  -7  215.88    7.80
   2   6   7  209.48    8.40
   2   6   7  209.48    4.60
  -2  -6  -8  135.09    6.70
   2   6   8  134.39    6.90
  -2  -6  -9    7.50    1.80
   2   6   9    5.70    2.10
   2   6  10   -0.80    1.40
   2   7  -7    5.50    1.70
   2   7  -6   20.00    2.30
  -2  -7   5   28.50    2.30
   2   7  -5   31.20    2.90
  -2  -7   4   87.19    3.80
   2   7  -4   89.39    6.40
   2   7  -4   91.39    4.60
  -2  -7   3   91.99    3.80
   2   7  -3   91.49    4.50
   2   7  -3   90.99    6.10
   2   7  -2    1.10    1.00
   2   7  -2    0.30    1.40
  -2  -7   2    0.40    0.60
   2   7  -1   54.29    3.50
  -2  -7   1   54.09    2.80
   2   7  -1   58.69    4.60
   2   7   0  379.56    9.10
  -2  -7   0  398.96    7.70
   2   7   0  393.56   11.20
   2   7   1  258.47    7.70
  -2  -7  -1  268.17    6.40
   2   7   1  251.87    8.70
   2   7   2  275.67    8.20
  -2  -7  -2  288.97    6.70
   2   7   2  292.37    8.90
  -2  -7  -3    8.40    1.40
   2   7   3    7.80    1.80
   2   7   3   10.80    1.90
   2   7   4  279.27    7.90
   2   7   4  265.57    8.70
  -2  -7  -4  276.97    7.30
   2   7   5   13.70    2.30
   2   7   5   13.40    1.70
  -2  -7  -5   14.40    1.90
  -2  -7  -6   52.09    3.70
   2   7   6   52.09    4.30
   2   7   6   54.39    3.10
  -2  -7  -7   70.49    4.60
   2   7   7   68.89    5.10
   2   7   7   76.09    3.10
   2   7   8   -0.60    1.50
   2   7   8    0.00    0.20
  -2  -7  -8   -0.20    1.30
   2   7   9   10.00    2.40
   2   7  10    2.60    2.10
   2   8  -6   14.70    2.30
   2   8  -5    1.40    1.20
   2   8  -4    9.80    1.90
  -2  -8   4    8.30    1.40
  -2  -8   3   13.80    1.60
   2   8  -3   16.20    2.30
   2   8  -2    8.50    1.80
  -2  -8   2    8.40    1.30
   2   8  -2    6.50    2.30
   2   8  -1   14.20    2.00
  -2  -8   1   12.30    1.50
   2   8  -1   11.70    2.60
   2   8   0   13.50    2.80
   2   8   0   10.00    1.90
  -2  -8   0    8.80    1.30
   2   8   1    2.40    1.50
  -2  -8  -1    0.70    0.70
   2   8   1   -0.80    1.30
  -2  -8  -2    3.20    1.10
   2   8   2    2.70    1.20
   2   8   2    4.50    1.60
   2   8   3   69.79    4.50
   2   8   3   75.09    4.90
  -2  -8  -3   71.69    3.70
  -2  -8  -4   31.50    2.60
   2   8   4   29.40    2.90
   2   8   4   34.70    3.50
   2   8   5   16.60    2.70
   2   8   5   18.30    2.30
  -2  -8  -5   19.30    2.30
   2   8   6  146.69    7.40
   2   8   6  154.08    5.60
  -2  -8  -6  143.19    6.10
  -2  -8  -7   36.00    3.40
   2   8   7   29.10    3.60
   2   8   7   29.90    2.20
   2   8   8   60.79    5.10
   2   8   9   34.90    4.10
   2   9  -4    6.90    1.90
   2   9  -3   84.59    5.10
  -2  -9   2    1.20    0.80
   2   9  -2   -1.70    1.50
  -2  -9   1   10.30    1.40
   2   9  -1   11.30    2.20
   2   9   0   48.20    3.90
  -2  -9   0   41.40    2.80
   2   9   0   42.30    4.40
  -2  -9  -1   13.00    1.70
   2   9   1   14.50    2.40
   2   9   1    8.90    2.50
  -2  -9  -2    3.70    1.00
   2   9   2    7.10    2.00
   2   9   2    4.50    1.80
  -2  -9  -3   19.90    2.10
   2   9   3   18.20    2.80
   2   9   3   18.20    2.90
   2   9   4   82.49    5.60
   2   9   4   83.09    5.10
  -2  -9  -4   87.79    4.40
   2   9   5   37.80    4.10
   2   9   5   34.00    3.30
  -2  -9  -5   34.80    2.90
   2   9   6    8.00    2.40
  -2  -9  -6    9.00    1.80
   2   9   6   12.30    2.10
   2   9   7    6.80    2.40
   2   9   8   -0.30    1.90
   2  10  -3  119.59    6.60
   2  10  -2   23.20    3.20
   2  10  -1   -0.50    1.60
   2  10   0   -1.80    2.10
   2  10   1    1.00    1.60
  -2 -10  -1    0.60    0.90
   2  10   2   13.20    2.70
  -2 -10  -2   10.80    1.70
   2  10   3   77.49    5.60
  -2 -10  -3   67.99    3.90
   2  10   4   13.30    2.90
   2  10   4   13.60    2.70
   2  10   5   -0.50    1.80
   2  10   6    2.10    2.00
   2  10   7    2.90    2.30
   3  -9  -1    1.00    1.80
   3  -9   0   99.19    6.90
   3  -8  -3  111.19    5.70
   3  -8  -2    0.50    1.40
   3  -8  -1   24.60    3.20
  -3   8   1   26.70    3.40
  -3   8   0  138.79    7.60
   3  -8   0  133.59    7.40
   3  -8   1    2.90    1.60
   3  -8   2    4.90    2.30
   3  -7  -4   19.90    2.10
   3  -7  -3   28.10    2.80
   3  -7  -2    2.80    1.30
   3  -7  -1   29.60    3.30
  -3   7   1   35.30    3.60
   3  -7   0    0.90    1.30
  -3   7   0   -1.60    1.60
  -3   7  -1   27.70    3.50
   3  -7   1   26.90    3.60
   3  -7   2   56.89    5.10
  -3   7  -2   52.59    4.80
   3  -7   3   96.69    6.70
  -3   7  -3   74.89    2.00
  -3   7  -4   35.90    1.80
  -3   7  -4   36.00    2.20
   3  -7   4   41.10    4.70
   3  -7   5   21.00    3.70
   3  -6  -8   23.80    1.90
   3  -6  -7    2.40    1.20
   3  -6  -7    1.30    0.60
   3  -6  -6   44.60    2.00
   3  -6  -6   37.80    2.50
   3  -6  -5   38.20    2.10
   3  -6  -5   40.00    1.60
   3  -6  -5   40.90    2.30
   3  -6  -4  374.06    3.90
   3  -6  -4  378.46    8.10
   3  -6  -4  367.86    4.80
   3  -6  -3    6.10    1.40
   3  -6  -2   55.09    3.80
  -3   6   1   20.90    2.40
   3  -6  -1   14.10    2.10
  -3   6   0   59.19    4.30
   3  -6   0   52.29    4.20
  -3   6  -1  131.59    6.70
   3  -6   1  118.69    6.40
   3  -6   2   33.40    3.60
  -3   6  -2   38.50    4.00
  -3   6  -3    7.50    0.70
  -3   6  -3    7.20    0.80
  -3   6  -3    5.00    1.80
   3  -6   3    6.50    2.10
  -3   6  -4   29.10    2.00
  -3   6  -4   25.20    3.50
   3  -6   4   29.20    3.70
  -3   6  -4   33.30    1.70
  -3   6  -5   12.70    1.60
  -3   6  -5   12.90    1.20
   3  -6   5   16.40    3.00
  -3   6  -6   -0.40    0.70
  -3   6  -6   -0.40    1.00
  -3   6  -7   88.19    5.00
  -3   6  -7   95.29    3.90
  -3   6  -8   10.50    1.60
   3  -5 -10    4.00    1.20
   3  -5  -9    4.30    1.80
   3  -5  -9    4.90    1.10
   3  -5  -8   74.49    3.30
   3  -5  -8   67.79    4.60
   3  -5  -7   80.69    3.10
   3  -5  -7   82.49    4.60
   3  -5  -6  110.19    3.20
   3  -5  -6  106.49    4.70
   3  -5  -5   16.60    1.20
   3  -5  -5   17.50    1.80
   3  -5  -5   17.60    1.40
   3  -5  -4  218.18    3.40
   3  -5  -4  208.88    4.40
   3  -5  -4  211.78    5.60
   3  -5  -3    1.90    0.30
   3  -5  -3    2.10    0.40
   3  -5  -3    0.80    0.80
   3  -5  -2   70.69    3.90
   3  -5  -1    2.80    1.20
  -3   5   0  274.87    8.30
   3  -5   0  274.47    8.40
  -3   5  -1   31.20    3.10
   3  -5   1   30.40    3.10
  -3   5  -2  243.58    8.60
   3  -5   2  233.28    8.60
  -3   5  -3   12.00    1.10
  -3   5  -3    9.70    2.10
  -3   5  -3   11.00    0.80
   3  -5   3   10.30    2.10
   3  -5   4   -0.20    1.40
  -3   5  -4    0.80    0.70
  -3   5  -4   -0.90    1.40
  -3   5  -4    1.20    0.50
  -3   5  -5   56.29    3.20
  -3   5  -5   64.79    5.20
   3  -5   5   55.89    5.00
  -3   5  -5   60.89    2.40
  -3   5  -6  103.19    4.80
  -3   5  -6  105.59    3.50
  -3   5  -6  105.39    6.80
   3  -5   6  115.69    7.20
  -3   5  -7   17.00    2.50
  -3   5  -7   17.30    1.60
   3  -5   7   21.20    3.70
   3  -5   8    4.80    2.30
  -3   5  -8    1.50    1.20
  -3   5  -8    3.60    0.90
  -3   5  -9   -1.80    2.30
  -3   5  -9    2.00    1.10
  -3   5 -10   50.09    3.40
   3  -4 -10    0.70    0.90
   3  -4  -9    0.70    0.70
   3  -4  -9   -1.20    1.60
   3  -4  -8   65.89    4.70
   3  -4  -8   67.59    3.20
   3  -4  -7   17.80    2.20
   3  -4  -7   18.60    1.60
   3  -4  -6    2.10    0.60
   3  -4  -6    2.20    1.00
   3  -4  -5   24.30    1.40
   3  -4  -5   26.10    1.60
   3  -4  -5   25.70    2.10
   3  -4  -4   27.80    1.90
   3  -4  -4   26.20    1.30
   3  -4  -4   27.70    1.90
   3  -4  -3   35.20    1.20
   3  -4  -3   35.60    1.60
   3  -4  -3   35.00    2.40
   3  -4  -2   24.30    2.20
   3  -4  -1  332.07    8.00
  -3   4   0  492.25   10.10
   3  -4   0  484.65   10.30
  -3   4  -1  762.52   13.40
   3  -4   1  747.63   13.30
  -3   4  -2   82.29    1.50
   3  -4   2   85.59    4.80
  -3   4  -3   18.90    1.30
  -3   4  -3   22.20    1.00
  -3   4  -3   19.30    2.50
   3  -4   3   20.50    2.60
  -3   4  -4  115.79    3.90
  -3   4  -4  115.79    2.70
   3  -4   4  118.09    6.20
  -3   4  -4  119.19    6.20
  -3   4  -5  774.82   11.50
  -3   4  -5  784.12    8.10
   3  -4   5  818.42   16.80
  -3   4  -5  784.62   16.20
  -3   4  -6  279.57    5.40
  -3   4  -6  279.27   10.30
  -3   4  -6  279.47    7.80
   3  -4   6  289.37   10.50
  -3   4  -7  230.28    5.40
  -3   4  -7  220.18    7.60
  -3   4  -7  220.58    9.40
   3  -4   7  229.08    9.80
  -3   4  -8   22.40    1.90
  -3   4  -8   18.70    2.60
   3  -4   8   19.20    3.10
  -3   4  -9   29.60    3.50
  -3   4  -9   25.20    2.20
   3  -4   9   23.30    3.70
  -3   4 -10   69.89    3.80
   3  -3 -10   55.59    3.40
   3  -3  -9   12.10    1.60
   3  -3  -9   10.60    2.20
   3  -3  -8    1.80    1.20
   3  -3  -8    3.80    1.00
   3  -3  -7    2.60    1.20
   3  -3  -7    4.20    0.90
   3  -3  -6   17.10    1.40
   3  -3  -6   17.70    2.20
   3  -3  -6   17.00    1.00
   3  -3  -5   57.99    2.20
   3  -3  -5   56.09    3.20
   3  -3  -5   54.49    2.30
   3  -3  -4    7.20    1.00
   3  -3  -4    6.10    0.70
   3  -3  -4    6.10    1.10
   3  -3  -3   14.40    1.30
   3  -3  -3   15.00    0.90
   3  -3  -3   16.70    1.60
   3  -3  -2   37.30    1.00
   3  -3  -2   39.10    2.50
   3  -3  -2   35.70    1.40
   3  -3  -1   15.00    1.80
   3  -3   0  637.24   10.80
   3  -3   1   64.19    3.70
  -3   3  -1   67.89    3.70
  -3   3  -2  544.55    4.70
  -3   3  -2  545.25   10.90
  -3   3  -2  535.95    3.40
   3  -3   3  202.58    7.20
  -3   3  -3  213.18    2.90
  -3   3  -3  212.18    7.30
  -3   3  -3  218.08    4.40
  -3   3  -4   55.29    2.70
  -3   3  -4   59.39    1.90
  -3   3  -4   59.19    4.00
   3  -3   4   56.39    4.00
  -3   3  -5  312.57    4.90
  -3   3  -5  312.87    7.30
   3  -3   5  311.27    9.70
  -3   3  -5  333.47    9.90
  -3   3  -6   12.10    1.10
  -3   3  -6   14.90    2.00
   3  -3   6   17.10    2.60
  -3   3  -7   52.19    2.50
  -3   3  -7   55.69    3.90
  -3   3  -7   65.19    4.90
   3  -3   7   63.19    4.90
  -3   3  -8   28.30    2.10
  -3   3  -8   33.90    3.40
  -3   3  -8   36.50    4.00
   3  -3   8   30.20    3.60
  -3   3  -9  203.78    8.60
  -3   3  -9  204.58    5.90
  -3   3  -9  219.78    9.50
   3  -3   9  214.98    9.70
  -3   3 -10    0.40    1.60
  -3   3 -10   -0.30    0.90
   3  -3  10    1.90    1.70
  -3   3 -11   48.30    3.30
   3  -2 -10    2.50    1.00
   3  -2  -9    4.70    1.10
   3  -2  -9    5.30    1.60
   3  -2  -8   91.99    3.80
   3  -2  -8   99.79    5.70
   3  -2  -7   51.79    2.60
   3  -2  -7   54.69    2.10
   3  -2  -7   58.49    4.00
   3  -2  -6  142.69    4.00
   3  -2  -6  146.19    3.60
   3  -2  -6  144.39    5.70
   3  -2  -5   10.70    1.10
   3  -2  -5    8.50    1.40
   3  -2  -4  675.03    9.80
   3  -2  -4  698.93    7.10
   3  -2  -3   19.20    1.50
   3  -2  -3   18.20    1.00
   3  -2  -3   18.90    1.50
   3  -2  -2  989.80   11.40
   3  -2  -2  978.00    6.30
   3  -2  -1  207.28    5.50
   3  -2  -1  199.78    2.80
   3  -2   0  378.66    7.70
   3  -2   1    9.10    1.70
  -3   2  -2   35.40    0.90
  -3   2  -2   34.50    1.40
   3  -2   2   33.00    2.60
  -3   2  -3  450.75    4.20
   3  -2   3  449.36    9.70
  -3   2  -3  449.46    6.50
  -3   2  -3  465.15    9.90
  -3   2  -4    5.20    0.60
  -3   2  -4    3.40    1.20
  -3   2  -4    5.60    1.10
   3  -2   4    7.20    1.80
  -3   2  -5   -0.60    0.80
  -3   2  -5   -0.40    0.30
  -3   2  -5    0.40    1.10
   3  -2   5   -0.10    1.00
  -3   2  -6   41.00    2.00
  -3   2  -6   42.30    3.10
  -3   2  -6   39.30    3.50
  -3   2  -7  256.87    5.30
  -3   2  -7  276.77    9.20
  -3   2  -7  251.07    8.00
   3  -2   7  264.27    9.10
   3  -2   8   20.90    2.90
  -3   2  -8   16.30    2.40
  -3   2  -8   17.30    1.60
  -3   2  -8   19.90    2.80
  -3   2  -9    1.60    1.50
  -3   2  -9    2.10    0.80
  -3   2  -9    3.00    1.90
   3  -2   9    1.50    1.40
  -3   2 -10   42.60    2.90
  -3   2 -10   47.20    4.50
   3  -2  10   44.10    4.50
  -3   2 -11   16.20    2.00
   3  -2  11   22.30    3.60
   3  -2  12    3.00    2.30
   3  -1 -10    8.90    1.60
   3  -1  -9    0.30    0.70
   3  -1  -9    0.00    0.70
   3  -1  -8  143.79    6.80
   3  -1  -8  150.38    5.00
   3  -1  -8  151.88    4.50
   3  -1  -7    1.00    0.60
   3  -1  -7    0.50    1.10
   3  -1  -7    1.20    0.60
   3  -1  -6   12.30    1.80
   3  -1  -6   14.40    1.50
   3  -1  -6   10.60    1.20
   3  -1  -5   32.20    1.80
  -3   1   4  411.36    5.30
   3  -1  -4  405.66    5.80
  -3   1   3 2012.40   10.50
   3  -1  -3 1986.40   11.60
  -3   1   2 1767.12    8.80
   3  -1  -2 1768.02   10.00
  -3   1   1  528.45    4.30
   3  -1  -1  522.85    4.80
   3  -1   0  175.18    2.80
  -3   1   0  174.98    2.30
   3  -1   1  204.38    5.50
  -3   1  -1  204.28    2.80
   3  -1   1  198.18    3.30
  -3   1  -2  425.66    5.30
   3  -1   2  424.06    5.70
   3  -1   2  421.26    8.30
   3  -1   3  527.45    9.80
  -3   1  -3  540.85    7.40
   3  -1   3  537.55    7.30
   3  -1   4   58.89    2.70
  -3   1  -4   59.59    2.90
   3  -1   4   61.29    3.60
  -3   1  -5  230.48    6.40
  -3   1  -5  246.58    7.30
   3  -1   5  239.78    7.30
  -3   1  -6   22.60    2.40
  -3   1  -6   21.90    1.40
   3  -1   6   23.90    2.70
  -3   1  -6   21.40    2.40
  -3   1  -7  433.66   10.50
  -3   1  -7  456.45    6.90
   3  -1   7  462.05   11.20
  -3   1  -7  457.15   10.90
  -3   1  -8    3.40    1.60
  -3   1  -8    0.30    0.50
  -3   1  -8    1.30    1.30
   3  -1   8    0.40    1.20
   3  -1   9   19.50    2.80
  -3   1  -9   21.50    3.00
  -3   1  -9   20.90    1.80
  -3   1 -10   93.89    4.00
   3  -1  10   96.19    6.00
  -3   1 -11    8.50    1.50
   3  -1  11   11.50    2.60
   3  -1  12   99.19    6.50
   3   0 -10    4.30    1.30
   3   0  -9    1.80    0.90
   3   0  -9    2.40    1.20
   3   0  -9    1.40    1.30
   3   0  -8    0.10    0.70
   3   0  -8    3.00    1.40
   3   0  -8    1.70    1.00
   3   0  -7  104.79    4.00
   3   0  -7   93.79    4.00
   3   0  -7   97.79    5.20
  -3   0   6   24.00    1.60
   3   0  -6   23.40    1.80
   3   0  -6   26.40    2.10
  -3   0   5   35.10    1.80
   3   0  -5   32.90    1.90
   3   0  -5   34.70    2.40
  -3   0   4  105.49    2.90
   3   0  -4  104.29    3.10
  -3   0   3  333.37    4.80
   3   0  -3  323.67    5.00
  -3   0   2    9.80    0.80
   3   0  -2    1.60    0.40
  -3   0   1 1296.97    8.10
   3   0  -1 1320.77    8.90
  -3   0   0 1159.68    7.60
   3   0   0 1164.48    8.60
   3   0   1 1945.71   12.00
  -3   0  -1 1938.81   10.60
  -3   0  -2  330.87    5.20
   3   0   2  328.17    5.50
   3   0   3    0.30    0.70
  -3   0  -3   -0.30    0.60
   3   0   3    1.70    1.10
  -3   0  -4   10.10    1.40
   3   0   4    8.90    1.50
   3   0   4    6.40    1.20
   3   0   5  466.75    8.80
   3   0   5  481.95    9.50
  -3   0  -5  483.85    9.30
   3   0   6   12.20    1.70
  -3   0  -6   12.10    1.80
   3   0   6    9.90    1.60
   3   0   7  140.79    5.70
   3   0   7  152.28    6.00
  -3   0  -7  145.29    6.20
  -3   0  -8   -0.50    0.60
   3   0   8    0.10    1.00
  -3   0  -9  175.18    7.90
  -3   0  -9  179.08    5.10
   3   0   9  182.18    7.20
  -3   0 -10   -0.10    0.60
   3   0  10    1.10    1.20
  -3   0 -11   31.10    2.50
   3   0  11   32.30    3.50
   3   0  12    2.00    1.80
   3   1 -10   24.50    2.80
   3   1 -10   27.30    2.70
   3   1  -9   42.60    3.10
   3   1  -9   42.00    3.40
   3   1  -9   41.00    4.10
   3   1  -8  117.09    5.40
   3   1  -8  111.89    4.60
  -3  -1   7    3.80    0.80
   3   1  -7    3.20    0.80
   3   1  -7    4.00    1.30
   3   1  -6   12.70    1.60
  -3  -1   6   13.20    1.30
   3   1  -6   11.70    1.30
  -3  -1   5  266.87    5.30
   3   1  -5  266.97    5.70
   3   1  -5  255.67    6.80
  -3  -1   4  171.08    4.00
   3   1  -4  155.28    4.10
   3   1  -4  168.38    5.40
  -3  -1   3  111.79    3.00
   3   1  -3  107.69    3.30
  -3  -1   2  578.94    6.40
   3   1  -2  563.14    6.90
  -3  -1   1  340.07    4.80
   3   1  -1  341.07    5.20
  -3  -1   0    0.90    0.40
   3   1   0    1.40    0.60
   3   1   1  862.21    8.90
  -3  -1  -1  874.71    8.10
  -3  -1  -2  279.87    5.20
   3   1   2  280.37    5.60
   3   1   3   56.39    2.80
  -3  -1  -3   58.99    2.70
   3   1   4   10.00    1.50
   3   1   4   10.10    1.40
  -3  -1  -4   10.60    1.60
  -3  -1  -5  140.39    5.10
   3   1   5  127.69    4.90
   3   1   5  130.59    4.70
   3   1   6  109.89    4.80
   3   1   6  110.19    4.60
  -3  -1  -6  111.49    5.00
   3   1   7  188.58    6.70
   3   1   7  192.18    6.30
  -3  -1  -7  188.08    7.00
   3   1   8   94.99    4.70
   3   1   8   95.69    5.10
  -3  -1  -8   95.79    5.50
  -3  -1  -9    1.20    0.70
   3   1   9    1.70    1.00
  -3  -1 -10    1.80    0.80
  -3  -1 -10   -1.20    1.80
   3   1  10   -0.10    1.00
  -3  -1 -11    4.30    1.10
   3   1  11    5.10    1.70
   3   1  12   36.80    3.60
   3   2 -10   81.89    5.30
   3   2  -9    5.00    1.30
   3   2  -9    4.30    1.90
  -3  -2   8   44.50    2.80
   3   2  -8   47.30    3.80
   3   2  -8   43.70    3.00
  -3  -2   7    9.60    1.30
   3   2  -7    8.30    1.40
   3   2  -7    8.30    1.70
  -3  -2   6  279.07    6.10
   3   2  -6  265.57    6.40
   3   2  -6  261.37    7.90
   3   2  -5    9.90    1.70
  -3  -2   5    8.10    1.00
   3   2  -5    6.90    1.10
  -3  -2   4  406.56    6.60
   3   2  -4  413.36    7.30
   3   2  -4  399.56    8.90
   3   2  -3  293.07    7.40
  -3  -2   3  293.47    5.30
   3   2  -3  287.47    5.70
  -3  -2   2  238.98    4.60
   3   2  -2  238.58    4.90
   3   2  -1   10.80    1.20
  -3  -2   1   12.60    1.10
  -3  -2   0   95.79    2.90
   3   2   0   91.89    3.10
   3   2   1  113.99    3.60
  -3  -2  -1  117.59    3.30
  -3  -2  -2    8.90    1.20
   3   2   2    8.90    1.20
  -3  -2  -3 4084.49   23.40
   3   2   3 4046.20   24.90
  -3  -2  -4  251.47    6.40
   3   2   4  246.18    6.60
   3   2   5  288.47    7.70
  -3  -2  -5  287.47    7.50
   3   2   6  229.88    7.30
   3   2   6  232.18    6.20
  -3  -2  -6  235.68    7.40
   3   2   7  100.89    4.30
  -3  -2  -7  108.49    5.50
   3   2   7  108.09    5.40
   3   2   8  150.38    6.50
  -3  -2  -8  149.59    6.80
   3   2   8  141.89    5.30
  -3  -2  -9   11.50    2.30
   3   2   9   11.60    1.70
   3   2   9    9.70    2.00
   3   2  10   82.79    4.40
  -3  -2 -10   81.99    5.90
  -3  -2 -11   38.10    2.80
   3   2  11   36.70    3.20
   3   2  12   18.30    2.50
   3   3 -10   -0.30    1.90
   3   3  -9   11.10    1.80
   3   3  -9   13.00    2.70
  -3  -3   8   39.60    2.80
   3   3  -8   39.80    3.10
   3   3  -8   40.60    3.90
  -3  -3   7    6.20    1.10
   3   3  -7    8.80    1.50
   3   3  -6    7.00    1.70
  -3  -3   6    4.20    0.90
   3   3  -6    6.40    1.20
  -3  -3   5   45.20    2.50
   3   3  -5   45.60    2.80
   3   3  -5   41.30    3.40
  -3  -3   4  120.49    3.90
   3   3  -4  113.09    4.00
   3   3  -4  116.79    5.30
   3   3  -3  226.38    5.40
  -3  -3   3  229.58    5.10
   3   3  -3  222.18    7.00
  -3  -3   2   17.30    1.40
   3   3  -2   15.60    1.50
   3   3  -2   13.90    1.90
  -3  -3   1   12.90    1.20
   3   3  -1   11.80    1.20
  -3  -3   0  521.15    7.20
   3   3   0  556.74    8.20
   3   3   1   28.70    2.00
  -3  -3  -1   24.90    1.70
   3   3   2  863.21   11.20
  -3  -3  -2  766.62    9.80
   3   3   3   -0.70    0.90
  -3  -3  -3    1.40    0.90
  -3  -3  -4    5.10    1.20
   3   3   4   10.60    1.60
  -3  -3  -5    4.20    1.20
   3   3   5    5.80    1.40
   3   3   6  809.02   14.20
  -3  -3  -6  792.12   13.60
  -3  -3  -7  689.53   13.80
   3   3   7  691.43   10.50
   3   3   7  652.63   13.20
  -3  -3  -8  466.75   12.30
   3   3   8  459.05    8.80
   3   3   8  446.86   11.70
   3   3   9   -0.90    1.20
  -3  -3  -9   -1.30    1.30
   3   3   9    1.10    0.90
   3   3  10   14.90    1.90
  -3  -3 -10   13.40    2.90
   3   3  10   13.00    2.40
   3   3  11   29.10    2.50
   3   4  -8   25.10    2.70
   3   4  -8   25.60    3.50
  -3  -4   7   19.30    2.00
   3   4  -7   17.80    2.10
   3   4  -7   15.20    2.60
  -3  -4   6    6.40    1.10
   3   4  -6    6.80    1.30
   3   4  -6    5.60    1.60
   3   4  -5   14.80    2.30
  -3  -4   5   13.80    1.50
   3   4  -5   16.30    1.80
   3   4  -4   62.39    3.20
  -3  -4   4   62.59    3.00
   3   4  -4   58.49    4.10
   3   4  -3    6.20    1.60
   3   4  -3    5.00    1.10
  -3  -4   3    4.70    0.90
  -3  -4   2   38.80    2.20
   3   4  -2   37.60    2.40
   3   4  -2   36.90    3.00
   3   4  -1  275.37    6.30
  -3  -4   1  285.67    5.90
   3   4  -1  281.37    7.90
  -3  -4   0  618.24    8.60
   3   4   0  637.54    9.80
   3   4   1  120.19    4.40
  -3  -4  -1  119.59    3.90
   3   4   2  145.29    5.10
  -3  -4  -2  142.39    4.40
  -3  -4  -3  405.36    8.00
   3   4   3  421.06    9.00
  -3  -4  -4  152.88    5.30
   3   4   4  159.48    6.00
  -3  -4  -5    3.50    1.40
   3   4   5    4.00    1.40
   3   4   6  154.28    6.60
  -3  -4  -6  149.29    6.10
   3   4   7   24.10    3.10
  -3  -4  -7   26.40    2.90
   3   4   7   17.00    1.70
  -3  -4  -8    7.30    2.00
   3   4   8   11.40    1.50
   3   4   8   10.30    2.30
   3   4   9  288.27   10.20
   3   4   9  274.07    6.40
  -3  -4  -9  272.57    9.90
   3   4  10   26.70    3.40
  -3  -4 -10   20.70    3.30
   3   4  10   24.20    2.10
   3   4  11   47.00    2.60
   3   4  11   50.09    5.00
   3   5  -8   59.99    4.10
   3   5  -7   69.89    4.20
   3   5  -7   62.49    5.20
   3   5  -6    2.80    1.10
  -3  -5   6    2.30    0.80
   3   5  -6    5.50    2.30
  -3  -5   5   85.59    3.80
   3   5  -5   87.69    4.30
   3   5  -5   84.39    5.60
  -3  -5   4   71.99    3.30
   3   5  -4   70.29    3.70
   3   5  -4   68.39    4.90
  -3  -5   3   36.10    2.30
   3   5  -3   37.60    2.70
   3   5  -3   34.70    3.40
  -3  -5   2  114.69    4.00
   3   5  -2  110.89    5.70
   3   5  -2  113.59    4.50
  -3  -5   1  312.97    6.50
   3   5  -1  309.77    7.30
   3   5  -1  307.57    8.90
   3   5   0   33.80    2.60
  -3  -5   0   30.20    2.10
   3   5   0   30.00    2.80
   3   5   1  325.37    7.80
  -3  -5  -1  331.07    6.80
   3   5   1  345.47    8.80
   3   5   2  320.07    8.30
   3   5   2  327.17    8.10
  -3  -5  -2  337.27    7.10
   3   5   3    9.40    1.50
  -3  -5  -3   12.70    1.60
  -3  -5  -4   -0.10    0.70
   3   5   4   -2.20    1.40
   3   5   5    2.20    1.20
  -3  -5  -5    2.20    1.10
   3   5   6  188.48    7.50
  -3  -5  -6  184.18    6.80
   3   5   7  248.08    9.00
  -3  -5  -7  238.88    8.30
  -3  -5  -8  210.58    8.30
   3   5   8  220.08    5.60
   3   5   8  215.68    8.80
  -3  -5  -9   66.49    5.10
   3   5   9   77.99    3.20
   3   5   9   71.39    5.40
   3   5  10    9.50    2.30
   3   5  10   10.00    1.10
   3   5  11   56.09    5.20
   3   6  -7    1.70    1.10
   3   6  -6    4.90    1.40
  -3  -6   5   84.89    3.90
   3   6  -5   80.39    4.40
   3   6  -5   80.79    5.90
   3   6  -4   11.10    1.80
  -3  -6   4   11.90    1.50
   3   6  -4    9.50    2.20
  -3  -6   3   67.99    3.30
   3   6  -3   70.89    4.00
   3   6  -3   75.79    5.40
  -3  -6   2  340.47    7.20
   3   6  -2  345.47   10.70
   3   6  -2  337.57    8.40
  -3  -6   1  389.36    7.60
   3   6  -1  395.26   10.80
   3   6  -1  394.86    9.00
   3   6   0   43.60    3.20
  -3  -6   0   45.30    2.70
   3   6   0   40.50    3.60
   3   6   1   12.00    1.90
   3   6   1   13.30    1.90
  -3  -6  -1   12.10    1.50
   3   6   2    1.90    1.10
   3   6   2    2.10    1.20
  -3  -6  -2    1.40    0.80
   3   6   3 1432.66   18.90
  -3  -6  -3 1455.65   16.20
   3   6   3 1429.46   18.10
   3   6   4   31.60    3.20
   3   6   4   31.90    2.70
  -3  -6  -4   31.70    2.60
  -3  -6  -5  109.99    5.10
   3   6   5  102.79    5.70
   3   6   5   99.79    4.50
   3   6   6   44.20    4.00
  -3  -6  -6   40.50    3.40
   3   6   6   40.40    2.80
   3   6   7    6.80    1.30
   3   6   7    9.90    2.20
  -3  -6  -7    8.10    1.90
  -3  -6  -8    6.60    1.90
   3   6   8    7.10    1.10
   3   6   8    6.40    1.10
   3   6   8    6.20    1.90
   3   6   9    8.20    1.00
  -3  -6  -9   10.80    2.50
   3   6   9   10.00    1.20
   3   6   9    9.40    2.40
   3   6  10    4.70    2.20
   3   7  -6   89.69    5.10
   3   7  -5    5.50    1.50
  -3  -7   4  109.89    4.50
   3   7  -4  110.29    5.40
  -3  -7   3   13.20    1.60
   3   7  -3   16.10    2.20
  -3  -7   2   89.79    3.90
   3   7  -2   98.29    6.30
   3   7  -2   97.69    4.90
   3   7  -1   84.79    4.60
  -3  -7   1   79.49    3.70
   3   7  -1   75.19    5.30
   3   7   0   33.50    3.00
  -3  -7   0   36.40    2.60
   3   7   0   37.10    3.60
   3   7   1  175.48    6.80
  -3  -7  -1  178.18    5.60
   3   7   1  179.08    7.40
   3   7   2  541.75   12.10
  -3  -7  -2  562.24   10.00
   3   7   2  544.25   12.30
   3   7   3   92.89    5.20
  -3  -7  -3   99.29    4.40
   3   7   3   89.59    4.90
   3   7   4   28.80    3.20
   3   7   4   22.00    2.40
  -3  -7  -4   28.60    2.60
   3   7   5   18.20    2.80
   3   7   5   18.80    2.20
  -3  -7  -5   21.70    2.50
   3   7   6   50.59    4.50
  -3  -7  -6   48.70    3.70
   3   7   6   45.30    3.10
  -3  -7  -7   17.80    2.40
   3   7   7   18.60    3.10
   3   7   7   17.20    1.90
   3   7   8   93.99    3.80
  -3  -7  -8   93.19    5.70
   3   7   8   95.69    6.40
   3   7   9   70.39    5.80
   3   7  10    5.10    2.20
   3   8  -5   12.90    2.40
   3   8  -4   57.29    4.20
  -3  -8   3   61.29    3.50
   3   8  -3   53.69    4.10
   3   8  -2    0.80    1.30
  -3  -8   2    1.50    0.70
   3   8  -1   30.70    3.10
  -3  -8   1   28.70    2.40
   3   8  -1   32.50    4.00
   3   8   0  110.29    5.70
   3   8   0   98.39    6.40
  -3  -8   0   99.69    4.40
   3   8   1    6.30    1.90
  -3  -8  -1    3.70    1.00
   3   8   1    6.30    1.70
  -3  -8  -2   26.00    2.40
   3   8   2   21.20    2.80
   3   8   2   25.10    3.20
   3   8   3   60.49    4.50
  -3  -8  -3   58.89    3.60
   3   8   3   57.69    4.30
   3   8   4    1.70    1.30
  -3  -8  -4    1.10    0.90
   3   8   4    0.50    1.40
   3   8   5    9.50    2.00
   3   8   5   10.70    2.60
  -3  -8  -5   10.40    1.80
   3   8   6    8.70    1.70
  -3  -8  -6   17.20    2.30
   3   8   6   14.40    2.80
  -3  -8  -7   21.60    2.70
   3   8   7   22.90    3.50
   3   8   7   22.60    2.40
   3   8   8   21.80    3.50
   3   8   9   19.60    3.60
   3   9  -3    0.80    1.60
   3   9  -2    9.50    2.00
   3   9  -1   70.09    5.00
  -3  -9   1   64.89    3.70
  -3  -9   0    5.30    1.30
   3   9   0    4.80    1.90
   3   9   1    6.30    2.00
  -3  -9  -1    3.00    1.00
   3   9   1    4.20    2.30
   3   9   2   24.90    3.20
  -3  -9  -2   24.00    2.50
   3   9   2   20.60    3.20
  -3  -9  -3    9.20    1.70
   3   9   3    8.20    2.20
   3   9   3   10.80    2.40
   3   9   4   64.49    5.30
  -3  -9  -4   61.79    3.90
   3   9   4   65.09    4.90
   3   9   5  142.19    6.80
  -3  -9  -5  135.39    6.00
   3   9   5  143.79    7.80
   3   9   6   -0.80    2.20
   3   9   6    3.00    1.50
   3   9   7    3.00    2.30
   3   9   8    3.50    2.20
   3  10  -1    4.10    2.20
   3  10   0   38.80    4.20
   3  10   1   39.60    4.20
   3  10   2   34.50    4.10
   3  10   3   91.59    6.40
   3  10   4    8.50    2.60
   3  10   4    6.20    2.30
   3  10   5   19.00    3.70
   3  10   6   14.10    3.30
   4  -8  -2  209.98    8.70
   4  -8  -1   38.30    4.10
   4  -8   0    5.40    2.20
   4  -8   1    2.50    2.00
   4  -7  -3    3.90    1.50
   4  -7  -2  119.09    6.40
   4  -7  -1   14.60    2.70
   4  -7   0   30.10    3.80
   4  -7   1    1.90    1.90
   4  -7   2    6.10    2.40
   4  -7   3   -0.90    1.90
   4  -6  -5   23.50    2.00
   4  -6  -4   10.80    1.70
   4  -6  -3   48.90    3.60
   4  -6  -2    3.60    1.60
   4  -6  -1    7.30    1.90
   4  -6   0   10.50    2.40
   4  -6   1    8.00    1.90
  -4   6  -2  327.67   11.10
   4  -6   2  310.67   11.10
  -4   6  -3    7.30    2.40
   4  -6   3    7.10    2.30
   4  -6   4    2.50    2.10
  -4   6  -5    2.80    0.60
   4  -6   5    2.60    2.20
   4  -5  -7    2.90    0.80
   4  -5  -7    2.30    1.10
   4  -5  -6   36.10    1.90
   4  -5  -6   35.00    2.60
   4  -5  -6   32.50    1.70
   4  -5  -5   99.19    2.60
   4  -5  -5  104.39    3.60
   4  -5  -5  101.59    3.90
   4  -5  -4    5.60    0.60
   4  -5  -4    3.60    1.00
   4  -5  -3   38.90    3.00
   4  -5  -2   13.00    2.00
   4  -5  -1    0.20    1.00
   4  -5   0   76.59    4.90
   4  -5   1    0.90    1.30
  -4   5  -2   39.60    3.80
   4  -5   2   41.90    4.00
  -4   5  -3    0.00    1.40
   4  -5   3   -2.50    2.10
  -4   5  -4  162.48    8.00
   4  -5   4  160.18    8.20
  -4   5  -4  163.68    2.80
  -4   5  -4  153.78    3.30
  -4   5  -5    4.50    2.20
  -4   5  -5    3.10    0.70
   4  -5   5    0.20    1.40
  -4   5  -5    1.70    0.90
  -4   5  -6    0.00    0.80
  -4   5  -6    0.70    0.60
   4  -5   6   -1.20    1.80
  -4   5  -7   42.70    2.30
   4  -5   7   36.90    4.60
  -4   5  -7   38.50    3.20
  -4   5  -8   92.49    3.70
   4  -4  -9    2.20    0.90
   4  -4  -9    1.30    1.70
   4  -4  -8    1.80    0.70
   4  -4  -8    3.90    1.80
   4  -4  -7   23.80    2.60
   4  -4  -7   23.50    1.80
   4  -4  -6   77.19    4.10
   4  -4  -6   77.69    2.90
   4  -4  -6   77.89    2.80
   4  -4  -5   23.30    1.40
   4  -4  -5   23.30    1.90
   4  -4  -5   23.20    2.00
   4  -4  -4    9.80    0.80
   4  -4  -4   10.50    1.50
   4  -4  -4   10.00    1.10
   4  -4  -3    0.20    0.20
   4  -4  -3    1.00    0.40
   4  -4  -3   -0.30    0.80
   4  -4  -2    5.60    1.40
   4  -4  -1 1247.38   17.30
   4  -4   0  109.69    5.40
   4  -4   1  249.78    8.50
   4  -4   2    1.90    1.30
  -4   4  -3  192.38    2.30
  -4   4  -3  220.38    8.30
   4  -4   3  215.08    8.40
  -4   4  -3  188.58    2.00
  -4   4  -4   75.19    2.00
  -4   4  -4   73.39    5.10
  -4   4  -4   70.99    2.70
   4  -4   4   78.09    5.30
  -4   4  -5  303.27    4.70
  -4   4  -5  304.97   10.90
   4  -4   5  308.97   11.00
  -4   4  -5  303.37    6.70
  -4   4  -6   23.40    1.60
  -4   4  -6   20.50    3.10
   4  -4   6   27.70    3.70
  -4   4  -6   25.80    2.40
  -4   4  -7    7.20    1.00
  -4   4  -7    5.60    1.60
   4  -4   7    8.40    2.20
  -4   4  -8   83.49    3.40
   4  -4   8   79.09    6.30
  -4   4  -8   78.09    5.00
  -4   4  -9    6.90    2.30
  -4   4  -9    5.00    1.10
  -4   4 -10   32.00    2.60
   4  -3 -10    1.20    1.10
   4  -3  -9    9.20    2.40
   4  -3  -9   12.70    1.70
   4  -3  -8    2.50    1.40
   4  -3  -8    1.70    0.90
   4  -3  -7    2.00    0.50
   4  -3  -7    2.50    1.40
   4  -3  -7    2.90    0.90
   4  -3  -7    1.20    0.50
   4  -3  -6   16.80    1.40
   4  -3  -6   19.60    2.30
   4  -3  -6   16.30    1.50
   4  -3  -5  125.59    3.50
   4  -3  -5  128.79    4.30
   4  -3  -5  126.79    4.80
   4  -3  -4    7.50    0.80
   4  -3  -4    9.60    1.20
   4  -3  -4    7.20    1.20
   4  -3  -3   58.39    2.50
   4  -3  -3   55.19    3.20
   4  -3  -3   58.59    1.80
   4  -3  -2   42.50    1.50
   4  -3  -2   46.90    3.10
   4  -3  -2   42.90    1.20
   4  -3  -1   79.19    4.10
   4  -3   0   86.09    4.50
   4  -3   1   21.50    2.40
   4  -3   2  202.68    7.40
  -4   3  -3  467.55    5.40
  -4   3  -3  486.45    4.00
   4  -3   3  463.95   11.50
  -4   3  -4  248.78    3.60
  -4   3  -4  238.68    5.20
   4  -3   4  239.48    8.70
  -4   3  -5   27.50    1.40
  -4   3  -5   30.60    3.30
   4  -3   5   24.90    3.00
  -4   3  -5   29.00    2.20
  -4   3  -6   93.69    3.00
  -4   3  -6   88.39    5.60
   4  -3   6   91.29    5.90
  -4   3  -6   93.99    4.50
  -4   3  -7   30.40    1.90
  -4   3  -7   29.50    3.50
   4  -3   7   26.90    3.50
  -4   3  -7   32.80    3.00
  -4   3  -8    2.50    1.80
  -4   3  -8    2.00    0.70
  -4   3  -8    2.60    1.70
   4  -3   8    5.10    2.10
  -4   3  -9  110.09    4.20
   4  -3   9  113.99    7.40
  -4   3  -9  101.19    6.00
  -4   3 -10   93.29    4.20
   4  -3  10   93.99    7.00
  -4   3 -10   92.19    6.40
  -4   3 -11    0.00    1.00
   4  -2 -10    3.20    1.20
   4  -2  -9  121.69    4.90
   4  -2  -9  120.19    6.80
   4  -2  -8    1.00    0.50
   4  -2  -8    1.80    0.90
   4  -2  -8    1.40    0.60
   4  -2  -7    8.60    1.20
   4  -2  -7    8.30    1.80
   4  -2  -7    8.50    1.30
   4  -2  -6   50.19    3.50
   4  -2  -6   45.90    2.40
   4  -2  -5    7.20    1.00
   4  -2  -5    5.90    1.20
   4  -2  -4  544.25    6.80
   4  -2  -4  533.75    9.00
   4  -2  -3   26.00    2.10
   4  -2  -3   26.00    1.40
   4  -2  -3   30.70    1.90
  -4   2   2   86.49    1.80
   4  -2  -2   81.19    3.80
   4  -2  -2   88.29    2.20
   4  -2  -1   42.80    1.40
  -4   2   1   44.80    1.10
   4  -2  -1   45.90    3.10
  -4   2   0    1.00    0.20
   4  -2   0    0.90    0.30
   4  -2   1    2.30    0.40
  -4   2  -1    2.30    0.20
   4  -2   1    2.90    1.20
   4  -2   2  810.32   13.70
   4  -2   2  845.52    6.80
  -4   2  -2  827.02    6.00
   4  -2   3  215.08    7.40
  -4   2  -3  227.88    2.90
  -4   2  -3  224.08    4.30
  -4   2  -4  148.59    2.80
  -4   2  -4  144.79    4.20
  -4   2  -5    9.20    0.80
   4  -2   5    9.30    2.10
  -4   2  -5    6.70    1.30
  -4   2  -6  160.68    3.70
  -4   2  -6  158.48    5.90
  -4   2  -7  166.68    4.20
   4  -2   7  167.08    7.80
  -4   2  -7  168.18    6.50
  -4   2  -8   24.10    1.80
   4  -2   8   26.60    3.40
  -4   2  -8   23.20    2.80
  -4   2  -9  119.49    4.30
   4  -2   9  126.69    7.30
  -4   2  -9  114.99    6.60
  -4   2 -10   19.70    2.00
  -4   2 -10   13.40    2.80
   4  -2  10   13.10    2.90
  -4   2 -11    1.50    1.10
   4  -2  11   -1.30    2.40
   4  -1 -10    8.30    1.60
   4  -1  -9   64.69    5.10
   4  -1  -9   61.59    3.60
   4  -1  -8    0.50    0.70
   4  -1  -8    0.10    1.10
   4  -1  -8    0.20    0.80
   4  -1  -7   15.00    1.60
   4  -1  -7   16.20    2.40
   4  -1  -7   14.90    1.70
   4  -1  -6   70.59    3.10
   4  -1  -6   68.79    4.10
   4  -1  -6   71.09    3.50
  -4   1   5 1209.48   10.60
   4  -1  -5 1164.28   11.60
  -4   1   4  153.98    3.50
   4  -1  -4  148.29    3.90
  -4   1   3  243.48    4.00
   4  -1  -3  236.58    4.50
  -4   1   2  215.88    3.50
   4  -1  -2  216.58    4.00
  -4   1   1  109.59    2.30
   4  -1  -1  109.59    2.70
   4  -1   0  224.08    4.00
  -4   1   0  216.68    3.00
   4  -1   1    7.90    0.90
   4  -1   1    8.50    1.50
  -4   1  -1    9.10    0.70
   4  -1   2    4.50    0.80
  -4   1  -2    4.80    0.60
   4  -1   2    4.50    1.40
  -4   1  -3   50.49    2.30
   4  -1   3   50.59    3.50
   4  -1   3   47.40    2.30
   4  -1   4    3.30    1.30
  -4   1  -4    2.50    0.80
   4  -1   4    1.00    0.60
  -4   1  -5   -0.20    0.80
   4  -1   5    0.30    1.00
   4  -1   5    0.50    0.80
   4  -1   6    5.80    1.70
  -4   1  -6    7.50    1.50
  -4   1  -7  197.28    4.60
   4  -1   7  201.68    8.00
  -4   1  -7  210.58    7.30
  -4   1  -8  278.17    5.90
   4  -1   8  289.97    9.90
  -4   1  -8  276.57    9.10
  -4   1  -9   25.80    2.00
   4  -1   9   29.90    3.50
  -4   1  -9   31.10    3.60
  -4   1 -10    3.40    2.00
  -4   1 -10    5.90    1.10
   4  -1  10    6.90    2.40
  -4   1 -11  212.58    6.40
   4  -1  11  223.68    9.90
   4  -1  12   19.40    3.50
   4   0 -10   -1.50    1.10
   4   0  -9   21.40    2.30
   4   0  -9   23.90    2.50
   4   0  -8   15.50    2.50
   4   0  -8   15.90    1.90
   4   0  -8   18.10    2.30
  -4   0   7  116.59    4.00
   4   0  -7  107.29    4.20
   4   0  -7  117.19    4.90
  -4   0   6   17.20    1.50
   4   0  -6   17.80    1.70
   4   0  -6   21.70    2.20
  -4   0   5  628.54    8.10
   4   0  -5  603.14    8.80
  -4   0   4   62.69    2.40
   4   0  -4   66.39    2.80
  -4   0   3  270.87    4.80
   4   0  -3  262.67    5.20
  -4   0   2    5.70    0.70
   4   0  -2    5.50    0.80
  -4   0   1 1262.67    9.10
   4   0  -1 1261.67   10.40
   4   0   0  287.37    5.10
  -4   0   0  283.17    4.30
   4   0   1   83.79    2.90
  -4   0  -1   83.29    2.40
   4   0   2   24.30    1.80
  -4   0  -2   25.20    1.50
   4   0   3  131.79    4.30
  -4   0  -3  124.39    3.80
   4   0   3  138.39    5.30
   4   0   4  163.88    5.90
   4   0   4  151.48    5.00
  -4   0  -4  152.08    4.80
   4   0   5  610.04   11.90
  -4   0  -5  613.54   10.50
   4   0   5  615.14   10.60
   4   0   6  111.19    4.80
   4   0   6  124.79    5.70
  -4   0  -6  119.19    5.20
   4   0   7  508.75   11.80
   4   0   7  486.85   10.70
  -4   0  -7  518.75   11.60
  -4   0  -8    0.60    1.20
   4   0   8    3.20    1.50
  -4   0  -9  138.09    4.50
   4   0   9  130.29    6.60
  -4   0  -9  131.39    6.90
  -4   0 -10    3.90    2.10
  -4   0 -10    8.00    1.30
   4   0  10    6.10    2.00
  -4   0 -11    1.90    0.90
   4   0  11    2.50    1.70
   4   0  12   54.69    5.00
   4   1  -9   -0.10    0.90
   4   1  -9   -0.70    1.40
  -4  -1   8    7.80    1.30
   4   1  -8    6.30    1.30
   4   1  -8    6.50    1.90
  -4  -1   7  108.99    4.10
   4   1  -7  114.29    4.60
   4   1  -7  114.49    5.30
   4   1  -6    9.10    1.70
  -4  -1   6   11.20    1.30
   4   1  -6   10.10    1.40
  -4  -1   5  156.38    4.30
   4   1  -5  158.98    4.90
   4   1  -5  154.88    5.90
  -4  -1   4   11.60    1.20
   4   1  -4   11.80    1.30
  -4  -1   3   91.09    3.00
   4   1  -3   83.89    3.20
  -4  -1   2   48.80    2.10
   4   1  -2   43.40    2.20
  -4  -1   1  219.48    4.20
   4   1  -1  210.48    4.70
   4   1   0    2.40    0.70
  -4  -1   0    2.30    0.60
   4   1   1   99.49    3.50
  -4  -1  -1  100.99    3.00
   4   1   2  320.47    6.50
  -4  -1  -2  336.37    6.00
  -4  -1  -3  531.15    8.20
   4   1   3  528.45    9.20
   4   1   4  530.35    9.80
  -4  -1  -4  506.95    8.90
  -4  -1  -5    5.90    1.20
   4   1   5    9.00    1.70
   4   1   5    6.20    1.40
   4   1   6  168.38    6.20
  -4  -1  -6  174.18    6.30
   4   1   6  172.08    6.30
   4   1   7    9.30    1.90
   4   1   7    6.20    1.60
   4   1   8   95.79    5.30
   4   1   8   91.39    5.00
  -4  -1  -8   97.69    5.70
   4   1   9    3.10    1.40
   4   1   9    5.90    1.60
  -4  -1  -9    4.30    2.10
  -4  -1 -10  284.47    6.90
   4   1  10  266.87    9.10
  -4  -1 -10  279.77   10.80
  -4  -1 -11   -0.50    0.80
   4   1  11   -1.10    1.70
   4   1  12    7.20    2.40
   4   2  -9  133.39    5.90
   4   2  -9  123.99    6.50
   4   2  -8  107.09    5.00
   4   2  -8  115.29    6.20
   4   2  -7   11.90    2.10
  -4  -2   7   12.50    1.50
   4   2  -7   12.60    1.70
   4   2  -6    2.80    1.10
  -4  -2   6    3.90    0.90
   4   2  -6    3.70    1.10
   4   2  -5    6.90    1.60
  -4  -2   5    5.70    1.00
   4   2  -5    6.60    1.40
   4   2  -4    5.30    1.40
  -4  -2   4    6.90    1.00
   4   2  -4    6.60    1.00
  -4  -2   3   31.90    1.90
   4   2  -3   30.70    2.10
  -4  -2   2  156.78    4.10
   4   2  -2  154.08    4.40
  -4  -2   1  107.49    3.30
   4   2  -1  100.89    3.60
  -4  -2   0   20.10    1.50
   4   2   0   23.50    1.90
   4   2   1  201.28    5.20
  -4  -2  -1  208.18    4.80
   4   2   2  687.03   10.20
  -4  -2  -2  705.83    9.30
  -4  -2  -3  538.05    8.80
   4   2   3  524.75    9.70
   4   2   4    5.20    1.20
  -4  -2  -4    7.10    1.40
   4   2   5  385.36    9.30
  -4  -2  -5  393.26    8.90
   4   2   6   19.50    2.30
  -4  -2  -6   23.00    2.50
   4   2   6   21.70    2.30
  -4  -2  -7    1.20    1.10
   4   2   7    2.10    1.40
   4   2   7   -0.30    1.10
   4   2   8    4.50    1.70
  -4  -2  -8    0.50    1.30
   4   2   8    3.30    1.30
  -4  -2  -9    3.50    1.80
   4   2   9    1.30    1.00
   4   2   9    2.90    1.50
   4   2  10   -0.60    1.60
  -4  -2 -10    3.20    2.20
   4   2  10    1.30    1.20
  -4  -2 -11    1.70    0.80
   4   2  11   -0.10    1.30
   4   2  12    0.40    1.50
   4   3  -9   20.40    3.10
   4   3  -8   48.70    3.60
   4   3  -8   48.20    4.40
   4   3  -7   10.60    2.30
  -4  -3   7   12.80    1.60
   4   3  -7   13.30    1.90
  -4  -3   6   80.89    3.60
   4   3  -6   89.89    4.30
   4   3  -6   78.59    4.90
  -4  -3   5  452.75    8.30
   4   3  -5  420.36    8.90
   4   3  -5  449.26   11.30
   4   3  -4   11.40    2.00
  -4  -3   4   13.50    1.40
   4   3  -4   16.00    1.80
   4   3  -3   97.59    5.10
  -4  -3   3   94.49    3.50
   4   3  -3   98.59    4.00
  -4  -3   2   96.29    3.40
   4   3  -2   98.09    3.90
  -4  -3   1  337.97    6.40
   4   3  -1  313.77    6.80
  -4  -3   0  770.42    9.60
   4   3   0  765.42   10.70
   4   3   1   56.19    3.10
  -4  -3  -1   64.09    2.90
   4   3   2  543.35    9.70
  -4  -3  -2  560.14    8.80
  -4  -3  -3  179.08    5.30
   4   3   3  172.88    5.80
  -4  -3  -4  539.25    9.90
   4   3   4  546.15   11.20
   4   3   5    1.10    1.40
  -4  -3  -5    0.90    0.70
   4   3   6  340.47    9.70
  -4  -3  -6  354.86    9.30
   4   3   7  158.78    7.00
  -4  -3  -7  156.88    6.60
   4   3   7  151.18    5.70
  -4  -3  -8  374.36   10.90
   4   3   8  381.86    9.20
   4   3   8  371.16   11.10
   4   3   9   37.70    4.00
  -4  -3  -9   36.80    3.80
  -4  -3 -10    2.00    2.00
   4   3  10   -1.00    1.30
   4   3  11   33.70    3.10
   4   3  11   26.40    3.70
   4   4  -8    7.80    1.80
   4   4  -8    6.80    2.40
   4   4  -7   15.10    2.10
   4   4  -7   15.30    2.80
   4   4  -6    2.60    1.80
   4   4  -6    0.30    0.90
  -4  -4   6    0.00    0.70
  -4  -4   5   92.79    4.00
   4   4  -5   78.59    5.20
   4   4  -5   85.89    4.30
  -4  -4   4  115.09    4.30
   4   4  -4  115.49    4.70
   4   4  -4  114.69    6.00
  -4  -4   3   65.49    3.10
   4   4  -3   63.99    3.40
   4   4  -3   62.99    4.30
  -4  -4   2   84.69    3.50
   4   4  -2   85.09    3.90
   4   4  -2   89.49    5.00
  -4  -4   1   29.30    2.10
   4   4  -1   27.80    2.20
  -4  -4   0   37.40    2.30
   4   4   0   35.60    2.70
   4   4   1   17.20    1.90
  -4  -4  -1   17.30    1.70
   4   4   2   13.40    1.70
  -4  -4  -2   13.90    1.60
   4   4   3  248.48    7.40
  -4  -4  -3  250.37    6.60
  -4  -4  -4   41.90    3.00
   4   4   4   37.60    3.10
  -4  -4  -5   33.20    2.80
   4   4   5   30.00    3.00
   4   4   6  826.72   15.60
  -4  -4  -6  836.82   14.60
   4   4   7  338.97   10.60
  -4  -4  -7  324.87    9.70
  -4  -4  -8   41.30    3.90
   4   4   8   37.50    3.90
   4   4   8   42.30    3.00
   4   4   9   53.99    3.60
  -4  -4  -9   54.19    4.70
   4   4   9   66.39    5.20
   4   4  10   23.40    3.30
   4   4  10   22.80    2.40
   4   4  11   17.90    3.10
   4   4  11   17.80    2.30
   4   5  -7    4.80    1.40
   4   5  -6    9.00    2.60
   4   5  -6   10.40    1.80
   4   5  -5   15.30    2.70
   4   5  -5   11.00    1.80
  -4  -5   5   15.00    1.80
   4   5  -4    5.20    2.00
   4   5  -4   10.50    1.70
  -4  -5   4    9.00    1.40
  -4  -5   3  210.68    5.80
   4   5  -3  214.38    6.70
   4   5  -3  200.98    8.20
  -4  -5   2   43.20    2.60
   4   5  -2   42.50    3.00
   4   5  -2   43.90    3.90
   4   5  -1    0.70    1.30
   4   5  -1    0.80    0.90
  -4  -5   1   -0.70    0.60
   4   5   0    4.50    1.60
  -4  -5   0    3.20    0.90
  -4  -5  -1    3.70    1.00
   4   5   1    1.70    0.80
   4   5   2  258.77    7.70
  -4  -5  -2  251.67    6.60
   4   5   3  163.78    6.50
  -4  -5  -3  180.68    5.80
   4   5   4  375.36   10.20
  -4  -5  -4  374.76    8.80
   4   5   5    1.60    1.30
  -4  -5  -5    0.80    1.00
  -4  -5  -6  104.09    5.30
   4   5   6  105.39    6.00
   4   5   7    0.70    1.30
  -4  -5  -7   10.70    2.80
  -4  -5  -8    2.20    1.20
   4   5   8    4.60    2.00
   4   5   8    4.40    1.40
  -4  -5  -9    6.50    2.30
   4   5   9    5.10    1.40
   4   5   9    3.10    1.70
   4   5  10  261.27    7.10
   4   5  10  265.07   11.00
   4   6  -6    0.30    1.10
   4   6  -5   26.20    2.90
  -4  -6   4  370.76    8.30
   4   6  -4  367.66    9.70
   4   6  -4  350.76   12.00
  -4  -6   3   24.90    2.20
   4   6  -3   25.60    2.70
   4   6  -3   26.30    3.50
  -4  -6   2  455.35    8.80
   4   6  -2  447.66   12.50
   4   6  -2  459.95   10.40
   4   6  -1    5.50    2.00
   4   6  -1    7.00    1.50
  -4  -6   1    8.30    1.40
   4   6   0    1.30    1.20
   4   6   0    1.00    0.90
  -4  -6   0    0.60    0.80
   4   6   1  811.22   14.20
  -4  -6  -1  813.92   12.00
   4   6   1  797.92   15.50
   4   6   2   50.69    3.70
  -4  -6  -2   48.60    3.10
   4   6   2   48.00    3.80
   4   6   3   -1.80    1.40
  -4  -6  -3    1.30    1.00
   4   6   4   59.79    4.40
  -4  -6  -4   62.79    3.80
  -4  -6  -5    1.60    1.30
   4   6   5    2.70    1.40
  -4  -6  -6   24.90    2.80
   4   6   6   25.60    3.40
   4   6   7    1.10    1.70
  -4  -6  -7    0.30    1.20
   4   6   8    2.90    1.70
  -4  -6  -8    2.40    1.80
   4   6   9    1.40    1.00
   4   6   9    5.00    2.40
   4   6  10   61.49    3.30
   4   6  10   71.69    6.00
   4   7  -5    6.60    1.90
   4   7  -4  194.68    7.60
  -4  -7   3   40.20    2.90
   4   7  -3   34.20    4.20
   4   7  -3   40.60    3.50
   4   7  -2    9.80    2.40
   4   7  -2    7.90    1.80
  -4  -7   2   10.10    1.50
   4   7  -1   80.69    4.80
  -4  -7   1   71.89    3.70
   4   7  -1   81.59    5.60
   4   7   0  230.08    8.00
  -4  -7   0  234.48    6.70
   4   7   0  224.68    8.90
   4   7   1   65.59    4.50
  -4  -7  -1   67.09    3.70
   4   7   1   61.59    4.70
   4   7   2  215.08    8.00
  -4  -7  -2  215.98    6.60
   4   7   2  208.28    8.10
   4   7   3    9.90    2.00
  -4  -7  -3    6.80    1.30
   4   7   3    5.00    1.70
   4   7   4   15.30    2.30
   4   7   4   14.80    2.60
  -4  -7  -4   16.70    2.20
   4   7   5    4.60    1.60
  -4  -7  -5    4.80    1.30
   4   7   5    2.90    1.70
   4   7   6   66.89    5.20
   4   7   6   59.99    4.00
  -4  -7  -6   72.89    4.50
  -4  -7  -7  137.99    6.70
   4   7   7  122.69    7.20
   4   7   7  129.79    5.60
   4   7   8    0.60    1.00
   4   7   8   -0.20    1.70
   4   7   9   12.50    1.80
   4   7   9   13.40    3.10
   4   7   9   13.70    1.80
   4   8  -4   16.40    2.60
   4   8  -3   -0.20    1.40
   4   8  -2   21.60    2.90
   4   8  -1   55.19    4.30
  -4  -8   1   54.49    3.40
   4   8   0    3.90    1.70
   4   8   0    5.60    1.90
  -4  -8   0    8.40    1.60
   4   8   1    1.20    1.40
  -4  -8  -1    0.90    1.10
   4   8   1    1.00    1.40
   4   8   2   17.20    2.70
   4   8   2   22.10    3.00
  -4  -8  -2   23.70    2.40
   4   8   3   24.50    3.30
  -4  -8  -3   26.10    2.60
   4   8   3   20.00    2.90
   4   8   4   53.99    4.80
  -4  -8  -4   49.40    3.60
   4   8   4   42.50    3.80
   4   8   5    3.80    1.50
  -4  -8  -5    1.70    1.20
   4   8   5    1.40    2.00
   4   8   6   43.00    3.60
   4   8   6   45.80    4.80
   4   8   7   74.89    6.00
   4   8   7   83.09    4.70
   4   8   8   35.30    4.50
   4   9  -2    3.30    1.90
   4   9  -1   16.10    2.70
   4   9   0   30.30    3.70
   4   9   1   10.20    2.30
   4   9   2  114.09    6.70
   4   9   2   98.29    6.60
   4   9   3  122.19    7.10
   4   9   3  118.39    7.00
   4   9   4  174.88    8.70
   4   9   4  168.18    8.00
   4   9   5    8.20    2.30
   4   9   5    6.90    2.50
   4   9   6   86.09    5.40
   4   9   6   86.19    6.60
   4   9   7   26.20    4.10
   4  10   1   40.10    4.40
   4  10   2    2.20    1.90
   4  10   3    1.90    2.00
   4  10   4   44.50    5.10
   5  -7  -2    1.80    1.70
   5  -7  -1   15.10    3.00
   5  -7   0   31.20    4.00
   5  -7   1  197.98    9.70
   5  -7   2   43.30    5.00
   5  -6  -4    2.10    1.30
   5  -6  -3   88.59    5.20
   5  -6  -2   40.20    3.80
   5  -6  -1    0.40    1.60
   5  -6   0  215.18    9.10
   5  -6   1   23.30    3.20
   5  -6   2   11.00    2.80
   5  -6   3    4.50    1.90
   5  -6   4    0.50    2.10
   5  -5  -5    0.70    0.80
   5  -5  -4    1.10    1.20
   5  -5  -3    6.30    1.60
   5  -5  -2   96.49    5.40
   5  -5  -1    3.30    1.60
   5  -5   0   -1.00    1.20
   5  -5   1  216.68    8.90
   5  -5   2    0.10    1.40
   5  -5   3   54.09    5.00
   5  -5   4   32.70    4.10
  -5   5  -5  135.29    2.40
   5  -5   5  149.88    8.60
   5  -5   6   78.39    6.60
   5  -4  -7   52.49    2.70
   5  -4  -6  122.79    4.50
   5  -4  -6  130.69    5.30
   5  -4  -5   -0.10    0.70
   5  -4  -5    0.40    0.70
   5  -4  -5    0.40    0.40
   5  -4  -4    1.00    0.40
   5  -4  -4    0.80    0.90
   5  -4  -4    1.80    0.70
   5  -4  -3   21.50    2.50
   5  -4  -2  155.18    6.50
   5  -4  -1   10.10    2.00
   5  -4   0    1.30    1.10
   5  -4   1  286.17    9.70
   5  -4   2   13.40    2.40
   5  -4   3  251.17    9.80
  -5   4  -4    4.10    0.30
   5  -4   4    4.90    1.80
  -5   4  -4    4.30    0.40
  -5   4  -5  148.99    3.90
  -5   4  -5  150.98    3.00
   5  -4   5  152.18    8.10
  -5   4  -6   -0.20    0.80
  -5   4  -6    0.80    0.40
   5  -4   6    1.50    1.90
  -5   4  -7    1.50    1.00
  -5   4  -7    3.10    0.70
   5  -4   7    2.70    1.80
  -5   4  -8  105.89    3.80
  -5   4  -8  107.79    5.50
   5  -3  -9    1.40    1.10
   5  -3  -8    2.40    1.60
   5  -3  -8    6.70    1.30
   5  -3  -7    3.00    1.40
   5  -3  -7    1.00    0.60
   5  -3  -6   29.50    2.00
   5  -3  -6   26.90    2.20
   5  -3  -6   24.50    2.50
   5  -3  -5   51.89    3.20
   5  -3  -5   54.59    2.50
   5  -3  -5   51.79    3.20
   5  -3  -4   12.20    1.40
   5  -3  -4   11.90    1.10
   5  -3  -4    8.40    1.40
   5  -3  -3   46.80    2.20
   5  -3  -3   50.29    3.50
   5  -3  -3   45.80    1.80
   5  -3  -2   71.59    1.90
   5  -3  -2   75.99    1.80
   5  -3  -1    5.40    1.40
   5  -3   0  113.69    5.70
   5  -3   1  207.48    7.80
   5  -3   2   77.49    5.00
   5  -3   3   49.60    4.20
  -5   3  -3   49.20    1.20
  -5   3  -4    0.30    0.20
  -5   3  -4    0.20    0.40
  -5   3  -5  364.06    5.00
  -5   3  -5  350.26    6.80
  -5   3  -6    0.20    0.80
  -5   3  -6    0.60    0.50
  -5   3  -7  153.98    4.10
  -5   3  -7  145.69    6.00
   5  -3   7  158.18    8.30
  -5   3  -8    9.80    1.30
  -5   3  -8    9.00    2.00
   5  -3   8   11.90    2.90
  -5   3  -9   18.30    1.80
  -5   3  -9   11.70    2.40
   5  -3   9   18.80    3.60
  -5   3 -10    5.90    1.30
   5  -2  -9    2.60    1.10
   5  -2  -8    5.30    2.00
   5  -2  -8    0.40    0.70
   5  -2  -7   -0.20    1.00
   5  -2  -7    3.70    1.50
   5  -2  -7    3.90    1.20
   5  -2  -7    0.60    0.70
   5  -2  -6  215.58    7.40
   5  -2  -6  234.08    5.90
   5  -2  -6  232.98    6.60
   5  -2  -5   29.90    2.50
   5  -2  -5   32.40    2.60
   5  -2  -5   31.90    2.10
   5  -2  -4    2.70    0.70
   5  -2  -4    0.90    1.10
   5  -2  -4    2.60    0.90
   5  -2  -3  561.24   11.00
   5  -2  -3  552.84    7.10
  -5   2   2   23.60    1.10
   5  -2  -2   20.70    2.20
   5  -2  -2   21.60    1.30
  -5   2   1   16.00    0.70
   5  -2  -1   14.90    1.10
   5  -2  -1   16.10    2.20
  -5   2   0   30.60    0.90
   5  -2   0   31.80    3.00
   5  -2   0   31.80    1.40
  -5   2  -1  215.38    2.40
   5  -2   1  215.58    3.50
   5  -2   1  222.58    7.70
   5  -2   2   14.60    1.00
  -5   2  -2   14.60    0.80
   5  -2   2   15.80    2.30
   5  -2   3   28.50    3.10
   5  -2   3   26.90    1.60
  -5   2  -3   24.90    1.40
  -5   2  -4    5.90    0.60
  -5   2  -4    8.30    1.10
   5  -2   4    7.20    2.00
  -5   2  -5    3.90    1.00
  -5   2  -5    3.10    0.60
   5  -2   5    4.90    2.10
  -5   2  -6   11.80    1.00
  -5   2  -6   13.90    1.80
   5  -2   6   12.50    2.60
  -5   2  -7   49.60    2.30
  -5   2  -7   51.89    3.70
   5  -2   7   48.40    4.70
  -5   2  -8  129.19    4.10
  -5   2  -8  130.39    6.20
   5  -2   8  128.09    7.60
  -5   2  -9  258.57    6.20
  -5   2  -9  256.07    9.40
   5  -2   9  256.37   10.90
  -5   2 -10   26.20    2.30
  -5   2 -10   27.00    3.50
   5  -2  10   27.60    4.10
  -5   2 -11   34.40    2.70
   5  -1  -9    1.80    1.10
   5  -1  -8   26.50    2.50
   5  -1  -8   22.20    2.80
   5  -1  -7  151.08    6.70
   5  -1  -7  156.38    5.40
   5  -1  -7  147.59    5.50
   5  -1  -6   48.50    2.90
   5  -1  -6   42.60    3.40
  -5   1   5   75.59    2.80
   5  -1  -5   73.09    3.20
  -5   1   4  134.29    3.40
   5  -1  -4  141.29    4.20
  -5   1   3   71.29    2.40
   5  -1  -3   71.39    2.80
  -5   1   2   45.20    1.80
   5  -1  -2   45.20    2.20
  -5   1   1    4.50    0.60
   5  -1  -1    3.80    0.70
  -5   1   0    0.20    0.30
   5  -1   0    0.40    0.50
  -5   1  -1  576.74    5.80
   5  -1   1  576.64    7.70
   5  -1   2    6.70    1.70
  -5   1  -2    7.00    0.80
   5  -1   2    7.90    1.10
   5  -1   3   53.59    2.80
   5  -1   3   51.09    3.80
  -5   1  -3   45.50    2.10
  -5   1  -4  648.84    9.20
   5  -1   4  635.44    9.80
   5  -1   5   12.80    1.60
  -5   1  -5   13.30    1.60
   5  -1   5    9.30    1.80
  -5   1  -6 1079.79   14.90
   5  -1   6 1120.59   19.30
   5  -1   6 1099.89   14.70
  -5   1  -7   27.40    1.70
  -5   1  -7   31.30    3.00
   5  -1   7   30.30    3.50
  -5   1  -8   72.39    2.90
  -5   1  -8   70.39    4.70
   5  -1   8   75.69    5.50
  -5   1  -9    4.50    1.00
  -5   1  -9    6.00    2.10
   5  -1   9    5.40    2.10
  -5   1 -10   23.40    2.10
  -5   1 -10   22.10    3.40
   5  -1  10   25.30    3.60
  -5   1 -11    3.40    1.00
   5  -1  11    7.20    2.90
   5   0  -9   20.20    2.40
   5   0  -8    1.30    1.10
   5   0  -8    2.50    1.50
   5   0  -8    0.90    0.90
  -5   0   7   88.29    3.70
   5   0  -7   91.69    4.40
   5   0  -7   90.79    4.70
  -5   0   6  303.97    6.40
   5   0  -6  314.57    7.40
   5   0  -6  309.77    8.70
  -5   0   5   17.80    1.50
   5   0  -5   19.10    1.80
   5   0  -4    1.10    0.60
  -5   0   4    1.10    0.50
  -5   0   3   64.79    2.50
   5   0  -3   58.59    2.70
  -5   0   2  152.78    3.60
   5   0  -2  153.58    4.30
  -5   0   1    9.20    0.90
   5   0  -1    5.50    0.90
   5   0   0  167.38    4.40
  -5   0   0  171.08    3.70
   5   0   1  269.47    5.90
  -5   0  -1  280.07    4.80
   5   0   2  345.47    7.10
  -5   0  -2  350.96    5.80
   5   0   3  423.76   10.40
   5   0   3  434.46    8.30
  -5   0  -3  421.16    7.10
  -5   0  -4   71.99    3.30
   5   0   4   69.09    3.60
   5   0   4   67.49    4.50
  -5   0  -5   68.29    3.60
   5   0   5   70.79    4.60
   5   0   5   64.39    3.70
   5   0   6   10.50    1.70
  -5   0  -6    7.00    1.50
   5   0   6    7.30    1.90
   5   0   7  163.78    6.40
  -5   0  -7  159.28    6.40
   5   0   7  154.08    7.20
  -5   0  -8   43.00    3.80
   5   0   8   35.70    3.80
   5   0   8   40.10    3.40
  -5   0  -9  107.39    3.90
   5   0   9  116.59    6.60
  -5   0 -10   72.89    3.50
  -5   0 -10   66.79    5.30
   5   0  10   66.89    5.30
  -5   0 -11    0.40    0.80
   5   0  11    1.50    2.00
   5   0  12   45.20    5.00
   5   1  -9   53.09    3.90
   5   1  -8    9.70    2.00
   5   1  -8   11.00    1.80
   5   1  -7    7.00    1.60
  -5  -1   7    5.40    1.10
   5   1  -7    6.10    1.30
  -5  -1   6   46.80    2.70
   5   1  -6   48.80    3.10
   5   1  -6   47.60    3.60
  -5  -1   5    7.10    1.00
   5   1  -5    5.70    1.20
  -5  -1   4   27.20    1.90
   5   1  -4   27.10    2.20
   5   1  -3    0.20    0.60
  -5  -1   3    1.70    0.60
  -5  -1   2  268.37    5.20
   5   1  -2  277.77    6.20
  -5  -1   1  210.28    4.50
   5   1  -1  208.18    5.30
   5   1   0   35.90    2.30
  -5  -1   0   36.00    1.90
   5   1   1   81.09    3.50
  -5  -1  -1   80.59    2.90
   5   1   2   30.40    2.30
  -5  -1  -2   28.90    1.90
   5   1   3   33.00    2.60
  -5  -1  -3   29.40    2.10
  -5  -1  -4  252.07    6.40
   5   1   4  244.88    7.10
   5   1   5  158.98    6.00
  -5  -1  -5  163.08    5.60
   5   1   5  156.28    6.50
  -5  -1  -6   86.39    4.50
   5   1   6   80.19    4.60
   5   1   6   77.09    4.70
   5   1   7   -1.00    1.00
  -5  -1  -7   -0.20    1.10
   5   1   7   -0.20    1.10
   5   1   8  167.18    7.20
   5   1   8  164.88    7.40
  -5  -1  -8  173.38    7.30
  -5  -1  -9  108.59    6.30
   5   1   9   92.69    5.60
   5   1   9  107.79    6.20
   5   1  10    4.60    2.00
  -5  -1 -10    3.30    1.80
   5   1  10    5.20    2.00
  -5  -1 -11    4.60    1.10
   5   1  11    7.10    2.30
   5   1  12   11.40    2.50
   5   2  -8    7.20    2.10
   5   2  -8    4.90    1.50
   5   2  -7    0.00    1.30
  -5  -2   7   -0.60    0.70
   5   2  -7   -0.20    0.80
  -5  -2   6  176.18    5.40
   5   2  -6  167.58    6.00
   5   2  -6  157.78    6.90
   5   2  -5   -0.30    0.80
   5   2  -5   -0.50    1.20
  -5  -2   5    0.10    0.60
   5   2  -4    0.40    0.70
  -5  -2   4    2.00    0.80
  -5  -2   3  237.58    5.50
   5   2  -3  236.28    6.30
  -5  -2   2  150.78    4.30
   5   2  -2  148.19    4.90
  -5  -2   1  201.88    4.80
   5   2  -1  194.98    5.50
   5   2   0   91.19    3.80
  -5  -2   0   92.29    3.30
  -5  -2  -1    0.50    0.50
   5   2   1    1.20    0.80
   5   2   2  884.51   12.60
  -5  -2  -2  900.41   11.10
  -5  -2  -3    4.90    1.00
   5   2   3    5.90    1.40
  -5  -2  -4   78.99    3.80
   5   2   4   77.59    4.20
   5   2   5   11.00    1.90
  -5  -2  -5    8.10    1.50
  -5  -2  -6   10.00    1.90
   5   2   6    5.20    1.50
   5   2   6    8.30    1.80
  -5  -2  -7   37.70    3.40
   5   2   7   30.80    3.20
   5   2   7   36.90    3.40
  -5  -2  -8   39.60    3.70
   5   2   8   34.70    3.40
   5   2   8   40.20    3.60
   5   2   9   75.79    5.30
  -5  -2  -9   78.19    5.40
   5   2   9   78.09    5.10
   5   2  10   19.10    3.00
   5   2  10   19.70    2.80
   5   2  11    5.80    2.20
   5   2  11    5.50    2.20
   5   2  12   29.20    3.80
   5   3  -8   27.50    2.90
   5   3  -8   24.40    3.50
   5   3  -7   19.50    2.90
   5   3  -7   24.80    2.70
   5   3  -6    4.90    1.40
   5   3  -6    3.40    1.30
  -5  -3   6    3.50    1.00
  -5  -3   5   29.20    2.30
   5   3  -5   27.80    2.60
   5   3  -5   24.50    3.00
   5   3  -4   -0.60    1.30
   5   3  -4    0.50    0.70
  -5  -3   4    0.50    0.60
  -5  -3   3  112.89    4.10
   5   3  -3  119.09    4.80
   5   3  -2    1.80    0.90
  -5  -3   2    2.80    0.80
  -5  -3   1  189.88    5.10
   5   3  -1  187.78    5.80
   5   3   0   33.30    2.50
  -5  -3   0   32.50    2.20
   5   3   1   19.30    2.00
  -5  -3  -1   18.00    1.70
   5   3   2  657.13   11.60
  -5  -3  -2  673.43   10.10
   5   3   3   43.70    3.20
  -5  -3  -3   45.20    2.80
  -5  -3  -4   27.20    2.40
   5   3   4   22.50    2.60
  -5  -3  -5  344.97    8.80
   5   3   5  346.07    9.70
   5   3   6  792.22   15.30
  -5  -3  -6  597.34   12.40
   5   3   7  149.79    7.10
  -5  -3  -7  140.69    6.40
   5   3   7  136.59    6.10
  -5  -3  -8  140.29    6.90
   5   3   8  143.19    6.30
   5   3   8  138.59    7.10
   5   3   9   17.00    2.80
  -5  -3  -9   17.60    2.90
   5   3   9   17.60    2.50
   5   3  10    1.70    1.80
   5   3  10   -0.60    1.50
   5   3  11    1.20    1.60
   5   3  11    0.10    1.50
   5   4  -7   83.39    5.00
   5   4  -6  168.18    6.60
   5   4  -6  172.48    8.20
  -5  -4   5   24.00    2.20
   5   4  -5   24.90    2.50
   5   4  -5   24.00    3.30
   5   4  -4    6.70    2.10
   5   4  -4    6.50    1.30
  -5  -4   4    8.60    1.40
  -5  -4   3   38.30    2.60
   5   4  -3   36.00    2.90
   5   4  -3   36.10    3.50
   5   4  -2   11.20    1.70
  -5  -4   2   13.30    1.60
   5   4  -1    8.40    1.50
  -5  -4   1    6.40    1.10
   5   4   0  376.46    8.90
  -5  -4   0  388.56    7.80
  -5  -4  -1    1.90    0.80
   5   4   1    2.60    1.20
   5   4   2  507.85   10.80
  -5  -4  -2  528.85    9.50
   5   4   3   52.99    3.70
  -5  -4  -3   61.49    3.40
   5   4   4   65.09    4.40
  -5  -4  -4   69.29    3.80
  -5  -4  -5   36.60    3.00
   5   4   5   32.30    3.30
  -5  -4  -6   30.80    3.00
   5   4   6   35.70    3.70
   5   4   7   52.29    4.40
  -5  -4  -7   52.99    4.10
  -5  -4  -8   24.20    3.00
   5   4   8   19.90    3.00
   5   4   8   22.10    2.60
  -5  -4  -9   51.19    4.70
   5   4   9   61.29    4.20
   5   4   9   60.69    5.10
   5   4  10    2.30    1.60
   5   4  10    4.30    1.50
   5   4  11    4.20    1.70
   5   5  -6   92.29    5.20
   5   5  -5   79.09    4.60
   5   5  -5   64.09    5.30
   5   5  -4   10.10    2.20
   5   5  -4    6.60    1.60
  -5  -5   4    7.30    1.30
  -5  -5   3   27.70    2.30
   5   5  -3   28.40    2.80
   5   5  -3   25.30    3.40
  -5  -5   2  159.18    5.30
   5   5  -2  163.68    6.20
   5   5  -2  157.28    7.40
   5   5  -1    9.60    1.70
  -5  -5   1    5.80    1.10
   5   5   0  114.79    5.30
  -5  -5   0  112.89    4.50
   5   5   1   14.20    2.10
  -5  -5  -1   14.70    1.80
   5   5   2  282.87    8.60
  -5  -5  -2  304.97    7.60
   5   5   3   23.00    2.60
  -5  -5  -3   31.60    2.70
   5   5   4  372.36   10.70
  -5  -5  -4  376.36    9.10
   5   5   5  131.89    6.70
  -5  -5  -5  137.99    5.90
  -5  -5  -6   27.80    2.90
   5   5   6   28.50    3.60
   5   5   7    9.00    2.30
  -5  -5  -7   10.90    2.00
   5   5   8    1.40    1.90
  -5  -5  -8   -0.80    1.20
   5   5   9  224.48   10.20
   5   5   9  231.48    7.90
   5   5  10  262.87    8.40
   5   5  10  280.77   11.60
   5   6  -5   24.80    2.90
   5   6  -4  129.59    6.20
   5   6  -3    1.50    1.70
   5   6  -3    2.60    1.30
  -5  -6   3    1.00    0.80
  -5  -6   2  187.98    6.10
   5   6  -2  181.68    8.50
   5   6  -2  192.88    7.20
  -5  -6   1   99.89    4.40
   5   6  -1  101.69    6.30
   5   6  -1   98.59    5.30
   5   6   0   47.60    3.70
  -5  -6   0   55.59    3.40
   5   6   0   51.29    4.50
   5   6   1   36.40    3.60
   5   6   1   42.20    3.60
  -5  -6  -1   39.90    2.90
   5   6   2  268.27    9.10
  -5  -6  -2  280.07    7.60
   5   6   3    1.60    1.20
  -5  -6  -3    0.20    1.00
  -5  -6  -4    8.20    2.00
   5   6   4   -0.10    1.10
   5   6   5   72.29    5.50
  -5  -6  -5   69.39    4.30
   5   6   6    8.30    2.20
  -5  -6  -6   12.80    2.20
   5   6   7   31.50    3.90
  -5  -6  -7   23.50    2.80
   5   6   8    9.40    2.70
   5   6   9   37.50    4.50
   5   6   9   32.60    3.00
   5   6  10   26.30    2.80
   5   7  -4    0.20    1.50
   5   7  -3    1.80    1.50
   5   7  -2    4.30    1.70
   5   7  -1   24.20    3.00
  -5  -7   1   28.60    2.60
   5   7  -1   25.70    3.60
   5   7   0    1.00    1.60
   5   7   0    0.10    1.20
  -5  -7   0    2.50    1.20
   5   7   1    5.40    2.10
   5   7   1    6.50    2.10
  -5  -7  -1    4.20    1.30
   5   7   2  220.18    8.60
  -5  -7  -2  227.18    7.20
   5   7   2  204.48    8.80
   5   7   3   34.30    3.60
  -5  -7  -3   36.30    3.00
   5   7   3   33.70    3.50
   5   7   4   46.00    4.20
   5   7   4   51.89    4.60
  -5  -7  -4   54.09    3.80
  -5  -7  -5   15.00    2.30
   5   7   5   14.00    3.00
   5   7   6   11.90    2.90
  -5  -7  -6    9.70    2.00
   5   7   7   18.10    3.30
   5   7   8   23.20    3.80
   5   8  -2   40.90    4.00
   5   8  -1    7.20    1.90
   5   8   0   11.10    2.40
   5   8   1  105.49    6.20
   5   8   1  106.29    6.90
   5   8   2   75.49    5.50
   5   8   2   71.49    5.50
   5   8   3   39.30    4.20
   5   8   3   37.80    4.00
   5   8   4    3.00    1.60
   5   8   4    4.90    2.40
   5   8   5   57.69    5.30
   5   8   5   49.00    4.30
   5   8   6   18.40    2.80
   5   8   6   21.30    3.70
   5   8   7    9.40    1.90
   5   8   7   11.40    3.00
   5   9   0   23.20    3.50
   5   9   1   17.10    3.10
   5   9   2   13.90    2.90
   5   9   3  108.19    7.00
   5   9   4   25.60    3.90
   5   9   5  291.17   12.10
   5   9   5  270.87   10.40
   5   9   6    8.70    2.40
   6  -6  -2   55.39    4.80
   6  -6  -1   20.50    3.30
   6  -6   0   18.90    3.40
   6  -6   1    3.50    2.20
   6  -6   2  164.38    9.20
   6  -5  -3   -0.90    1.30
   6  -5  -2   32.90    3.70
   6  -5  -1  106.49    6.50
   6  -5   0   54.79    4.90
   6  -5   1   54.09    5.00
   6  -5   2   63.09    5.50
   6  -5   3  116.79    7.60
   6  -5   4   26.80    4.10
   6  -4  -5    3.60    1.20
   6  -4  -4    0.10    1.00
   6  -4  -3   14.30    2.40
   6  -4  -2   49.90    4.20
   6  -4  -1   64.99    4.80
   6  -4   0  233.18    9.30
   6  -4   1   19.70    3.10
   6  -4   2   28.40    3.70
   6  -4   3   30.80    3.90
   6  -4   4   16.30    3.20
   6  -4   5    1.90    2.00
   6  -4   6   86.39    6.80
   6  -3  -6   12.20    1.50
   6  -3  -5    3.40    0.80
   6  -3  -5    4.50    1.30
   6  -3  -5    3.90    1.40
   6  -3  -4  143.69    4.60
   6  -3  -4  140.99    6.20
   6  -3  -4  148.59    3.90
   6  -3  -3    6.70    0.80
   6  -3  -3    8.30    1.00
   6  -3  -3    7.60    1.70
   6  -3  -2   54.29    4.10
   6  -3  -1   36.30    3.60
   6  -3   0   13.90    2.40
   6  -3   1    0.60    1.40
   6  -3   2   46.40    4.30
   6  -3   3  120.39    7.00
  -6   3  -4  151.98    2.40
   6  -3   4  148.39    8.00
  -6   3  -4  147.09    2.70
  -6   3  -5   28.00    1.30
   6  -3   5   31.80    4.00
  -6   3  -5   30.10    1.80
  -6   3  -6    2.10    0.60
  -6   3  -6    0.20    0.80
   6  -3   6    3.80    1.80
  -6   3  -7   -1.00    1.00
  -6   3  -7   -0.30    0.50
   6  -3   7   -1.20    2.00
  -6   3  -8    9.90    1.20
   6  -2  -8    4.50    1.30
   6  -2  -7   14.30    2.50
   6  -2  -7   16.80    1.90
   6  -2  -6   22.90    2.60
   6  -2  -6   17.80    2.20
   6  -2  -6   22.30    2.00
   6  -2  -5  534.55   10.90
   6  -2  -5  551.44   11.90
   6  -2  -5  546.85    8.90
   6  -2  -4   51.09    3.70
   6  -2  -4   52.99    3.10
   6  -2  -4   54.89    2.70
   6  -2  -3   18.30    2.50
   6  -2  -3   15.40    1.40
   6  -2  -2   76.39    2.80
  -6   2   2   76.49    2.00
   6  -2  -2   79.09    4.90
  -6   2   1   37.80    1.20
   6  -2  -1   34.60    1.80
   6  -2  -1   38.60    3.70
  -6   2   0  149.79    2.20
   6  -2   0  155.28    7.00
   6  -2   0  149.19    3.40
  -6   2  -1    5.60    0.50
   6  -2   1    4.40    0.70
   6  -2   1    5.10    1.60
   6  -2   2    2.90    0.60
  -6   2  -2    1.40    0.30
   6  -2   3  433.96    6.30
   6  -2   3  422.06   12.40
  -6   2  -3  424.66    5.10
   6  -2   4   43.70    4.30
  -6   2  -4   43.20    2.00
  -6   2  -5  266.47    6.00
  -6   2  -5  272.47    4.30
   6  -2   5  276.17   10.60
  -6   2  -6    6.90    0.90
   6  -2   6    9.80    2.40
  -6   2  -6    7.20    1.40
  -6   2  -7   50.49    2.30
  -6   2  -7   58.29    3.70
   6  -2   7   57.89    5.30
  -6   2  -8  110.09    3.70
  -6   2  -8  107.39    5.50
   6  -2   8  109.39    7.50
  -6   2  -9   -1.40    1.60
  -6   2  -9   -0.20    0.60
  -6   2 -10    1.60    0.90
   6  -1  -8    8.60    1.70
   6  -1  -7   18.70    2.60
   6  -1  -7   18.90    2.20
   6  -1  -6   67.79    3.60
   6  -1  -6   66.29    4.50
  -6   1   5   59.49    2.70
   6  -1  -5   53.89    3.00
  -6   1   4   30.60    1.80
   6  -1  -4   29.90    2.20
  -6   1   3    8.00    0.90
   6  -1  -3    7.10    1.10
  -6   1   2   92.49    2.70
   6  -1  -2   91.59    3.50
  -6   1   1   48.50    1.90
   6  -1  -1    3.50    1.10
  -6   1   0  109.59    2.70
   6  -1   0  105.49    3.70
   6  -1   0   98.59    5.40
  -6   1  -1  190.48    3.60
   6  -1   1  190.98    7.60
   6  -1   1  197.68    5.10
   6  -1   2  201.18    8.20
  -6   1  -2  186.28    3.90
   6  -1   2  192.28    5.20
   6  -1   3   17.60    1.80
   6  -1   3   16.20    2.70
  -6   1  -3   17.10    1.30
   6  -1   4  107.69    6.20
   6  -1   4  102.69    4.20
  -6   1  -4   99.79    3.60
   6  -1   5  158.48    5.50
  -6   1  -5  147.69    4.90
   6  -1   5  151.08    7.50
  -6   1  -6   27.50    2.40
   6  -1   6   26.10    2.40
   6  -1   6   27.10    3.50
  -6   1  -7   58.49    3.80
   6  -1   7   56.79    5.00
  -6   1  -8   81.49    3.30
  -6   1  -8   91.19    5.20
   6  -1   8   88.59    6.50
  -6   1  -9    0.60    1.40
  -6   1  -9    1.90    0.80
   6  -1   9    2.80    2.10
  -6   1 -10   19.90    2.00
  -6   1 -11   -0.40    1.00
   6   0  -8    0.20    1.00
  -6   0   7   53.09    3.00
   6   0  -7   53.09    3.50
   6   0  -7   48.30    3.90
  -6   0   6   21.20    1.80
   6   0  -6   25.60    2.40
  -6   0   5   17.00    1.50
   6   0  -5   15.90    1.90
  -6   0   4   42.80    2.30
   6   0  -4   46.00    2.80
  -6   0   3   19.20    1.50
   6   0  -3   17.60    1.70
  -6   0   2   85.39    2.90
   6   0  -2   85.39    3.60
   6   0  -1  221.98    5.80
  -6   0   1  214.88    4.50
   6   0   0   16.30    1.70
  -6   0   0   16.60    1.30
   6   0   1  147.89    4.90
  -6   0  -1  143.59    3.70
   6   0   2   37.60    2.60
  -6   0  -2   34.20    1.90
   6   0   3  151.08    6.90
  -6   0  -3  158.78    4.40
   6   0   3  154.18    5.40
   6   0   4   -1.10    1.10
  -6   0  -4   -1.20    1.00
   6   0   4    1.80    1.50
  -6   0  -5  196.98    6.00
   6   0   5  195.58    6.60
  -6   0  -6   59.69    3.70
   6   0   6   53.19    4.50
   6   0   6   52.79    3.70
   6   0   7   87.39    4.90
  -6   0  -7   73.79    4.40
   6   0   7   77.99    5.60
  -6   0  -8  129.39    6.30
   6   0   8  131.39    6.30
   6   0   8  136.89    7.60
  -6   0  -9   35.00    3.60
   6   0   9   36.70    4.20
  -6   0 -10   21.70    2.00
   6   0  10   19.20    3.50
  -6   0 -11   -0.80    1.00
   6   1  -8   13.20    2.10
   6   1  -7   44.10    3.40
   6   1  -7   39.00    3.70
   6   1  -6    1.10    0.90
  -6  -1   6    2.90    0.90
   6   1  -5    1.30    1.00
  -6  -1   5    1.30    0.60
  -6  -1   4   15.10    1.50
   6   1  -4   13.30    1.70
  -6  -1   3   48.60    2.50
   6   1  -3   46.00    2.90
  -6  -1   2   52.09    2.50
   6   1  -2   49.70    3.00
  -6  -1   1   29.70    1.90
   6   1  -1   31.20    2.40
   6   1   0   83.49    3.80
  -6  -1   0   82.39    3.10
   6   1   1   76.39    3.80
  -6  -1  -1   80.49    3.10
   6   1   2  106.79    4.70
  -6  -1  -2  118.79    3.90
   6   1   3  250.17    7.50
  -6  -1  -3  252.87    6.10
   6   1   4   21.10    2.80
   6   1   4   23.20    2.50
  -6  -1  -4   23.50    2.10
   6   1   5    4.00    1.50
   6   1   5    3.40    1.30
  -6  -1  -5    1.90    0.80
   6   1   6    7.60    1.90
   6   1   6    4.60    1.70
  -6  -1  -6   10.40    1.90
   6   1   7    2.50    1.70
   6   1   7    3.50    1.60
  -6  -1  -7    4.40    1.70
  -6  -1  -8   11.80    2.10
   6   1   8   11.30    2.20
   6   1   8   11.70    2.50
  -6  -1  -9   27.40    3.30
   6   1   9   28.60    3.30
   6   1   9   27.30    3.60
   6   1  10   29.60    3.90
   6   1  10   27.10    3.50
  -6  -1 -11   14.50    1.90
   6   1  11   14.20    3.10
   6   2  -7    2.20    1.50
   6   2  -7    2.40    1.10
   6   2  -6   -1.40    1.70
   6   2  -6    0.50    0.90
  -6  -2   6    0.30    0.80
   6   2  -5   16.00    2.70
  -6  -2   5   17.90    1.80
   6   2  -5   17.80    2.10
  -6  -2   4  199.18    5.60
   6   2  -4  187.18    6.30
  -6  -2   3   61.49    3.00
   6   2  -3   62.99    3.60
  -6  -2   2  106.69    3.80
   6   2  -2  104.19    4.50
   6   2  -1    4.50    1.10
  -6  -2   1    3.10    0.80
   6   2   0   33.60    2.70
  -6  -2   0   30.50    2.10
  -6  -2  -1    0.90    0.60
   6   2   1    1.10    0.80
   6   2   2    8.20    1.60
  -6  -2  -2   11.00    1.30
  -6  -2  -3    9.70    1.40
   6   2   3    8.50    1.60
   6   2   4  573.64   12.10
  -6  -2  -4  596.14   10.50
  -6  -2  -5   36.30    2.90
   6   2   5   37.20    3.40
  -6  -2  -6  142.59    5.90
   6   2   6  145.19    6.70
   6   2   6  140.29    6.80
  -6  -2  -7   56.89    4.20
   6   2   7   58.49    4.50
   6   2   7   48.30    4.30
  -6  -2  -8  166.48    7.30
   6   2   8  167.68    7.80
   6   2   8  164.18    7.80
  -6  -2  -9    1.60    1.70
   6   2   9    1.40    1.50
   6   2   9    1.50    1.60
   6   2  10    4.40    1.90
   6   2  10   11.20    2.70
   6   2  11   27.20    3.70
   6   2  12   16.10    3.60
   6   3  -7   22.80    2.80
   6   3  -6   27.00    2.80
   6   3  -6   28.20    3.50
   6   3  -5   12.20    2.50
  -6  -3   5   12.90    1.60
   6   3  -5   14.10    2.10
  -6  -3   4   73.69    3.60
   6   3  -4   64.79    4.00
  -6  -3   3   12.10    1.50
   6   3  -3   15.50    2.00
   6   3  -2   11.10    1.80
  -6  -3   2    9.00    1.30
  -6  -3   1  263.27    6.40
   6   3  -1  258.37    7.50
   6   3   0   59.19    3.70
  -6  -3   0   55.79    3.00
   6   3   1  968.10   14.90
  -6  -3  -1  974.90   12.50
   6   3   2   -0.80    1.20
  -6  -3  -2   -0.80    0.80
   6   3   3  188.98    7.10
  -6  -3  -3  196.08    6.00
   6   3   4   80.59    4.90
  -6  -3  -4   77.39    4.00
  -6  -3  -5  167.48    6.20
   6   3   5  168.48    7.20
   6   3   6   84.59    5.40
  -6  -3  -6   86.59    4.80
   6   3   7    3.30    1.70
   6   3   7    5.00    1.70
  -6  -3  -7    2.10    1.50
  -6  -3  -8  116.39    6.30
   6   3   8  112.39    6.70
   6   3   8  120.89    6.50
   6   3   9    8.00    2.10
   6   3   9   14.00    2.70
   6   3  10   17.30    3.10
   6   3  10   20.20    3.10
   6   3  11    1.10    1.70
   6   4  -6   11.60    2.10
   6   4  -5    0.70    1.80
   6   4  -5    3.30    1.40
   6   4  -4    0.30    1.70
   6   4  -4    1.40    1.10
  -6  -4   4    2.10    0.90
   6   4  -3   81.89    5.70
  -6  -4   3   86.89    4.00
   6   4  -3   82.19    4.60
  -6  -4   2   91.59    4.10
   6   4  -2   95.19    4.90
  -6  -4   1  101.19    4.20
   6   4  -1  103.79    5.10
   6   4   0   17.50    2.20
  -6  -4   0   14.20    1.70
   6   4   1  214.58    7.40
  -6  -4  -1  227.38    6.40
   6   4   2   16.60    2.30
  -6  -4  -2   20.70    2.10
   6   4   3  491.65   11.90
  -6  -4  -3  516.05   10.20
   6   4   4   11.00    2.20
  -6  -4  -4   13.80    1.90
   6   4   5  532.25   13.30
  -6  -4  -5  567.04   11.80
  -6  -4  -6   32.00    3.10
   6   4   6   31.70    3.60
  -6  -4  -7   25.40    2.90
   6   4   7   27.70    3.40
  -6  -4  -8   35.70    3.70
   6   4   8   30.00    3.80
   6   4   8   32.60    3.50
   6   4   9   45.60    4.10
   6   4   9   39.60    4.50
   6   4  10   11.30    2.50
   6   4  10   14.30    2.60
   6   4  11    2.30    1.70
   6   5  -5   72.79    4.90
   6   5  -4  141.39    6.50
  -6  -5   3   24.50    2.30
   6   5  -3   27.70    2.90
   6   5  -3   25.90    3.40
   6   5  -2   -0.80    1.50
   6   5  -2    0.70    1.00
  -6  -5   2   -0.10    0.80
  -6  -5   1   86.59    4.10
   6   5  -1   91.69    5.00
   6   5   0  214.78    7.80
  -6  -5   0  216.28    6.50
   6   5   1  215.08    8.00
  -6  -5  -1  201.08    6.40
   6   5   2   60.09    4.40
  -6  -5  -2   59.79    3.60
   6   5   3   47.10    4.10
  -6  -5  -3   48.20    3.40
   6   5   4  154.88    7.20
  -6  -5  -4  156.78    6.20
   6   5   5   13.50    2.60
  -6  -5  -5   21.00    2.50
   6   5   6   -1.10    1.70
  -6  -5  -6    0.50    1.10
  -6  -5  -7    2.80    1.90
   6   5   7   -1.00    1.60
   6   5   8   23.40    3.60
   6   5   9   48.80    5.20
   6   5   9   59.59    4.60
   6   5  10    6.40    1.90
   6   6  -4   48.10    4.20
   6   6  -3   56.09    4.30
   6   6  -2    1.40    1.20
   6   6  -1   58.79    4.50
  -6  -6   1   50.79    3.30
   6   6   0  134.59    6.50
  -6  -6   0  141.99    5.70
   6   6   1    2.50    1.50
  -6  -6  -1    3.00    1.20
   6   6   2   43.00    3.90
  -6  -6  -2   41.60    3.10
  -6  -6  -3    1.00    0.90
   6   6   3    0.20    1.40
  -6  -6  -4    1.40    1.00
   6   6   4    0.50    1.60
  -6  -6  -5    0.20    1.00
   6   6   5   -2.70    1.90
   6   6   6   71.49    5.70
  -6  -6  -6   71.89    4.80
   6   6   7   23.40    3.80
   6   6   8  130.99    8.10
   6   6   9   22.00    2.90
   6   6  10   19.10    3.10
   6   7  -2    1.00    1.60
   6   7  -1    5.30    2.10
   6   7   0    4.90    1.90
   6   7   1  176.98    8.20
   6   7   1  161.08    8.40
  -6  -7  -2    2.70    1.20
   6   7   2    3.10    2.00
   6   7   2    1.40    1.60
  -6  -7  -3    6.90    1.60
   6   7   3    4.90    1.90
   6   7   4   16.20    3.00
   6   7   5    9.50    2.70
   6   7   6    6.70    2.40
   6   7   7   45.40    5.30
   6   8   0    0.60    1.80
   6   8   1   -0.80    1.50
   6   8   2    3.80    2.10
   6   8   3    7.30    2.20
   6   8   4   -0.60    2.00
   6   8   5    6.40    2.10
   6   8   5    7.50    2.90
   6   8   6   -0.50    1.80
   6   8   7   36.00    4.10
   7  -5  -2   39.70    4.40
   7  -5  -1   10.70    2.80
   7  -5   0   42.80    4.80
   7  -5   1  154.58    8.90
   7  -4  -3   -2.40    1.80
   7  -4  -2   52.79    4.80
   7  -4  -1   12.60    2.70
   7  -4   0   75.89    5.90
   7  -4   1    0.50    1.70
   7  -4   2   13.10    2.90
   7  -4   3    5.20    2.40
   7  -3  -4   32.10    3.50
   7  -3  -3   45.60    4.20
   7  -3  -2    0.10    1.50
   7  -3  -1   39.00    4.10
   7  -3   0    0.30    1.50
   7  -3   1    9.90    2.40
   7  -3   2   -2.20    1.90
   7  -3   3    1.30    1.70
   7  -3   4  117.79    7.80
   7  -3   5    0.20    2.00
   7  -2  -5   13.40    2.40
   7  -2  -4   -0.60    0.80
   7  -2  -4    2.90    1.90
   7  -2  -3  182.08    5.00
   7  -2  -3  197.78    8.60
   7  -2  -3  185.78    5.40
   7  -2  -2   10.10    1.20
   7  -2  -2    5.30    1.80
  -7   2   1   73.29    1.80
   7  -2  -1   69.39    5.10
   7  -2  -1   71.59    2.70
  -7   2   0    1.60    0.30
   7  -2   0    1.40    0.50
   7  -2   0    2.80    1.30
  -7   2  -1   84.59    1.70
   7  -2   1   77.49    2.40
   7  -2   1   78.99    5.60
   7  -2   2   95.29    2.70
  -7   2  -2  100.79    2.00
   7  -2   2   92.09    6.20
   7  -2   3    0.40    1.50
   7  -2   3    0.80    0.50
  -7   2  -3    0.70    0.40
  -7   2  -4    0.30    0.40
   7  -2   4    0.40    1.50
  -7   2  -5    2.60    0.50
  -7   2  -5    2.70    0.80
  -7   2  -6   28.30    1.60
   7  -2   6   36.70    4.70
  -7   2  -6   33.70    2.40
  -7   2  -7   18.40    2.10
  -7   2  -7   21.60    1.50
   7  -1  -6   66.49    3.80
   7  -1  -6   57.99    4.30
  -7   1   5   10.80    1.30
   7  -1  -5   12.10    1.70
  -7   1   4   68.19    2.80
   7  -1  -4   65.49    3.50
  -7   1   3    1.30    0.50
   7  -1  -3    1.80    1.00
  -7   1   2    1.10    0.40
   7  -1  -2    0.80    0.90
   7  -1  -1   96.69    3.90
   7  -1  -1   91.09    5.70
  -7   1   0  229.48    4.20
   7  -1   0  217.58    5.70
   7  -1   0  227.68    9.00
  -7   1  -1   92.69    2.70
   7  -1   1   86.59    5.80
   7  -1   1   97.69    3.90
   7  -1   2  138.89    4.70
  -7   1  -2  150.38    3.60
   7  -1   2  130.69    7.20
   7  -1   3   13.10    1.60
  -7   1  -3   12.30    1.20
   7  -1   3   14.80    2.60
   7  -1   4   53.99    3.20
  -7   1  -4   57.99    2.70
   7  -1   5  118.39    4.90
   7  -1   5  115.39    7.30
  -7   1  -5  118.19    4.20
  -7   1  -6   34.80    2.70
   7  -1   6   33.60    2.80
   7  -1   6   40.00    4.60
  -7   1  -7  260.97    7.70
   7  -1   7  271.57   11.50
  -7   1  -8   14.90    1.50
   7  -1   8   18.40    3.80
  -7   1  -8   13.50    2.30
  -7   1  -9   33.10    2.30
  -7   1 -10   56.19    3.20
   7   0  -7   -1.40    1.30
   7   0  -6    2.60    1.20
  -7   0   6    1.80    0.80
   7   0  -5    2.10    1.00
  -7   0   5    3.10    0.90
  -7   0   4   10.00    1.30
   7   0  -4    9.50    1.70
  -7   0   3   10.40    1.20
   7   0  -3   11.00    1.60
  -7   0   2    0.50    0.50
   7   0  -2    2.20    1.00
  -7   0   1    0.80    0.60
   7   0  -1    0.20    0.70
   7   0   0   21.30    2.10
  -7   0   0   23.50    1.60
   7   0   1   14.10    1.80
  -7   0  -1   14.50    1.30
   7   0   2   87.79    5.70
  -7   0  -2   91.59    3.30
   7   0   2   90.09    4.40
   7   0   3   18.60    2.80
  -7   0  -3   19.70    1.60
   7   0   3   17.40    2.20
   7   0   4    8.30    1.70
  -7   0  -4    7.40    1.20
   7   0   4    9.00    2.60
   7   0   5   57.39    3.90
   7   0   5   62.19    5.20
  -7   0  -5   64.69    3.50
  -7   0  -6   10.30    1.70
   7   0   6   12.10    2.90
   7   0   6    7.40    1.60
   7   0   7   -2.70    1.30
  -7   0  -7    0.40    1.10
   7   0   7    0.00    1.70
  -7   0  -8   64.99    4.50
   7   0   8   69.09    4.70
   7   0   8   62.89    5.70
  -7   0  -9   24.40    3.20
   7   0   9   23.50    3.90
  -7   0 -10   15.10    1.80
   7   1  -7   -0.90    1.30
   7   1  -6   11.90    2.70
   7   1  -6   12.90    2.10
   7   1  -5    1.70    1.00
  -7  -1   5    2.50    0.90
   7   1  -4   -0.40    0.80
  -7  -1   4   -0.80    0.70
   7   1  -3    1.10    0.90
  -7  -1   3    0.80    0.60
  -7  -1   2   87.59    3.50
   7   1  -2   83.69    4.20
  -7  -1   1    8.80    1.20
   7   1  -1    8.20    1.40
  -7  -1   0    1.40    0.60
   7   1   0    1.20    0.90
   7   1   1   15.60    2.10
  -7  -1  -1   13.50    1.40
   7   1   2  108.39    5.00
  -7  -1  -2  115.09    4.00
  -7  -1  -3    1.90    0.80
   7   1   3    2.60    1.30
  -7  -1  -4    1.10    0.70
   7   1   4    0.20    1.20
   7   1   4    0.30    1.50
   7   1   5    1.40    1.30
  -7  -1  -5    2.90    1.00
   7   1   5    2.50    1.80
  -7  -1  -6   68.09    4.10
   7   1   6   73.39    4.80
   7   1   6   63.79    5.20
   7   1   7    0.40    1.70
  -7  -1  -7   -0.90    1.20
   7   1   7    0.10    1.20
  -7  -1  -8   29.10    3.20
   7   1   8   31.10    4.00
   7   1   8   28.60    3.30
   7   1   9    5.80    1.90
   7   1   9    5.20    2.30
   7   1  10   67.89    5.30
   7   2  -6   22.00    2.70
   7   2  -5    3.30    1.30
  -7  -2   5    2.40    1.00
   7   2  -4   -0.40    1.00
  -7  -2   4    1.10    0.80
  -7  -2   3   29.80    2.30
   7   2  -3   26.60    2.60
  -7  -2   2   86.09    3.70
   7   2  -2   85.69    4.50
   7   2  -1   21.00    2.40
  -7  -2   1   27.00    2.10
   7   2   0  116.39    5.30
  -7  -2   0  128.59    4.40
   7   2   1   13.30    2.10
  -7  -2  -1   14.30    1.60
   7   2   2  420.56   10.40
  -7  -2  -2  428.26    8.40
   7   2   3   96.29    5.20
  -7  -2  -3   92.19    4.10
   7   2   4   97.59    5.40
  -7  -2  -4  104.99    4.50
   7   2   5   15.00    2.50
  -7  -2  -5   14.70    1.90
  -7  -2  -6   89.69    4.80
   7   2   6   84.59    5.50
   7   2   6   97.39    6.20
   7   2   7    1.90    1.30
   7   2   7    3.30    1.80
  -7  -2  -7    2.10    1.30
  -7  -2  -8   33.20    3.40
   7   2   8   33.20    3.90
   7   2   8   35.40    3.80
   7   2   9    8.50    2.30
   7   2   9    8.90    2.70
   7   2  10   82.09    6.10
   7   2  10   79.99    6.30
   7   3  -5   59.19    4.20
   7   3  -4    4.80    1.60
  -7  -3   4    7.00    1.40
  -7  -3   3   55.19    3.30
   7   3  -3   56.79    4.00
  -7  -3   2   65.99    3.40
   7   3  -2   62.89    4.10
   7   3  -1   95.79    5.10
  -7  -3   1  101.59    4.20
   7   3   0   79.99    4.70
  -7  -3   0   79.39    3.80
   7   3   1  118.69    5.70
  -7  -3  -1  117.49    4.60
   7   3   2  113.79    5.80
  -7  -3  -2  125.99    4.90
   7   3   3  203.18    7.80
  -7  -3  -3  204.38    6.40
   7   3   4  265.17    9.30
  -7  -3  -4  275.77    7.80
   7   3   5   36.10    3.70
  -7  -3  -5   34.70    3.00
   7   3   6   20.40    3.20
  -7  -3  -6   22.80    2.70
  -7  -3  -7  238.88    8.60
   7   3   7  242.88    9.80
   7   3   7  237.88    9.60
   7   3   8    2.30    2.00
   7   3   8    1.30    1.60
   7   3   9    0.20    1.80
   7   3   9    1.40    1.70
   7   3  10   17.70    3.40
   7   3  11    5.40    2.50
   7   4  -5   35.80    3.50
   7   4  -4  177.38    7.50
   7   4  -3    1.80    1.10
  -7  -4   2   51.99    3.30
   7   4  -2   49.60    3.90
   7   4  -1   18.80    2.60
  -7  -4   1   18.10    1.90
   7   4   0   36.10    3.40
  -7  -4   0   37.30    2.90
   7   4   1   23.50    2.90
  -7  -4  -1   21.70    2.20
   7   4   2   23.80    2.90
  -7  -4  -2   23.50    2.30
  -7  -4  -3    3.40    1.20
   7   4   3    2.80    1.30
  -7  -4  -4    3.70    1.20
   7   4   4    4.10    1.90
  -7  -4  -5    9.10    1.80
   7   4   5    7.50    2.00
   7   4   6   19.60    3.00
  -7  -4  -6   16.50    2.30
   7   4   7    5.30    2.00
  -7  -4  -7    4.90    1.90
   7   4   8   26.60    3.70
   7   4   8   28.90    3.70
   7   4   9    2.60    1.90
   7   4   9    2.30    2.00
   7   4  10   51.59    4.80
   7   4  11   29.70    4.00
   7   5  -4    9.70    2.20
   7   5  -3   13.90    2.40
   7   5  -2  444.86   12.00
   7   5  -1   22.30    3.10
  -7  -5   1   23.00    2.30
   7   5   0  106.29    6.00
  -7  -5   0   97.49    4.70
   7   5   1   38.00    3.80
  -7  -5  -1   32.00    2.80
  -7  -5  -2   11.20    1.80
   7   5   2   10.60    2.20
   7   5   3   79.29    5.50
  -7  -5  -3   81.39    4.40
   7   5   4   51.59    4.60
  -7  -5  -4   52.09    3.70
   7   5   5   19.80    3.30
  -7  -5  -5   15.50    2.20
   7   5   6    1.50    2.00
   7   5   7   15.00    3.00
   7   5   8   20.60    3.50
   7   5   9   42.50    4.40
   7   5  10  122.09    7.10
   7   6  -2   33.90    3.80
   7   6  -1   14.10    2.60
   7   6   0   40.70    4.10
   7   6   1    8.30    2.30
   7   6   2   94.29    6.10
   7   6   3   47.60    4.60
   7   6   4    1.40    1.40
   7   6   5   15.90    3.10
   7   6   6   26.50    3.80
   7   6   7   -0.40    1.70
   7   6   9    4.40    2.30
   7   6  10  149.88    7.90
   7   7   0    5.40    1.90
   7   7   1    0.30    1.60
   7   7   2    1.40    1.70
   7   7   3    3.70    2.20
   7   7   4    7.10    2.30
   7   7   5   23.50    3.90
   8  -4  -1   12.30    3.10
   8  -3  -3    7.70    2.60
   8  -3  -2   35.30    4.40
   8  -3  -1    3.30    2.30
   8  -3   0   12.60    3.10
   8  -3   1    8.00    2.60
   8  -3   2   73.59    6.30
   8  -2  -4   13.90    2.80
   8  -2  -3    1.30    1.70
   8  -2  -2    0.30    1.70
   8  -2  -1   90.99    6.50
   8  -2   0    3.30    2.10
   8  -2   1    8.40    2.70
   8  -2   2  131.09    8.10
   8  -2   3  100.99    7.40
   8  -1  -4   11.80    2.70
   8  -1  -3    2.60    1.90
  -8   1   2    4.00    0.80
   8  -1  -2    3.30    1.10
  -8   1   1   18.80    1.30
   8  -1  -1   15.50    1.90
   8  -1  -1   15.40    2.90
  -8   1   0   23.80    1.50
   8  -1   0   22.00    3.50
   8  -1   0   23.80    2.20
   8  -1   1   11.70    1.60
  -8   1  -1   12.50    1.10
   8  -1   2   22.20    2.10
  -8   1  -2   26.50    1.50
   8  -1   2   22.20    3.40
   8  -1   3   45.70    3.00
  -8   1  -3   47.80    2.30
   8  -1   3   43.70    4.80
   8  -1   4  179.18    9.40
  -8   1  -4  171.38    4.50
   8  -1   4  160.28    5.60
   8  -1   5   50.09    3.30
   8  -1   5   53.69    5.50
  -8   1  -5   51.29    2.70
   8   0  -5    1.00    1.20
  -8   0   4    5.60    1.10
   8   0  -4    5.60    1.40
  -8   0   3    0.00    0.60
   8   0  -3   -0.20    1.00
   8   0  -2   45.10    3.20
  -8   0   2   47.70    2.50
  -8   0   1    2.50    0.80
   8   0  -1    0.60    0.90
  -8   0   0   40.50    2.20
   8   0   0   40.60    3.10
   8   0   1    0.50    1.50
   8   0   1    1.50    0.90
  -8   0  -1    2.70    0.70
   8   0   2  101.09    6.80
  -8   0  -2   95.19    3.40
   8   0   2   85.49    4.50
   8   0   3   61.79    4.00
   8   0   3   59.89    5.30
  -8   0  -3   64.89    3.00
  -8   0  -4    3.10    0.90
   8   0   4    2.20    1.20
   8   0   4    1.70    1.80
   8   0   5   90.69    5.00
   8   0   5   92.99    6.70
  -8   0  -5   95.49    4.20
   8   0   6   17.90    3.40
   8   0   6   19.20    2.70
  -8   0  -6   17.10    2.00
   8   0   7   45.10    3.80
  -8   0  -7   46.90    3.50
   8   0   8   29.10    3.30
   8   1  -6    4.90    1.80
   8   1  -5   -0.60    1.20
  -8  -1   4   21.40    2.00
   8   1  -4   24.80    2.80
  -8  -1   3   18.10    1.80
   8   1  -3   17.40    2.40
  -8  -1   2    5.00    1.10
   8   1  -2    4.40    1.40
   8   1  -1   25.80    2.70
  -8  -1   1   27.60    2.00
   8   1   0   20.70    2.40
  -8  -1   0   20.60    1.80
   8   1   1   -1.10    1.50
  -8  -1  -1    0.30    0.60
  -8  -1  -2   11.90    1.50
   8   1   2   12.70    2.10
  -8  -1  -3    9.60    1.40
   8   1   3   10.40    1.90
   8   1   4   88.59    6.50
  -8  -1  -4   97.79    4.30
   8   1   4   83.09    5.10
   8   1   5    8.20    2.10
  -8  -1  -5    7.70    1.40
   8   1   5    9.20    2.60
  -8  -1  -6    0.30    0.90
   8   1   6    0.60    1.40
  -8  -1  -7   10.10    2.00
   8   1   7   10.60    3.10
   8   1   7    7.30    2.10
  -8  -1  -8   23.40    3.00
   8   1   8   17.50    2.80
   8   1   9  357.46   11.90
   8   2  -5    8.70    2.10
   8   2  -4    0.50    1.20
  -8  -2   3   86.19    4.10
   8   2  -3   82.19    5.00
  -8  -2   2    6.20    1.20
   8   2  -2    9.40    1.90
   8   2  -1   17.50    2.50
  -8  -2   1   15.40    1.80
   8   2   0   44.30    3.70
  -8  -2   0   46.00    2.80
   8   2   1   74.69    4.80
  -8  -2  -1   78.49    3.70
   8   2   2   22.10    2.80
  -8  -2  -2   23.80    2.20
   8   2   3  149.88    7.00
  -8  -2  -3  146.59    5.30
   8   2   4    8.20    2.20
  -8  -2  -4    8.70    1.60
  -8  -2  -5    3.30    1.30
   8   2   5    2.80    2.00
   8   2   5   -0.60    1.60
   8   2   6   65.99    5.10
   8   2   6   64.59    5.70
  -8  -2  -6   56.19    3.90
   8   2   7    6.60    2.00
  -8  -2  -7   12.00    2.20
   8   2   7   12.40    3.00
   8   2   8   -1.20    2.10
   8   2   8    2.10    1.80
   8   2   9    4.80    2.30
   8   3  -4    2.60    1.60
   8   3  -3   37.00    3.60
   8   3  -2    5.60    1.90
  -8  -3   2    3.00    1.00
  -8  -3   1    0.30    0.80
   8   3  -1   -2.40    1.50
  -8  -3   0    0.90    0.80
   8   3   0    0.50    1.20
   8   3   1   78.39    5.10
  -8  -3  -1   86.19    4.20
   8   3   2   15.50    2.40
  -8  -3  -2   21.10    2.20
   8   3   3   57.79    4.60
  -8  -3  -3   54.79    3.50
   8   3   4   24.20    3.40
  -8  -3  -4   25.30    2.60
  -8  -3  -5  153.68    6.30
   8   3   5  144.89    7.60
  -8  -3  -6    5.20    1.70
   8   3   6    5.20    2.00
   8   3   6    3.60    1.90
   8   3   7    0.30    1.60
   8   3   7    2.00    1.90
   8   3   8   27.80    4.00
   8   3   8   28.40    4.00
   8   4  -3   90.09    5.70
   8   4  -2   18.70    2.90
   8   4  -1   55.19    4.40
   8   4   0   79.49    5.40
  -8  -4   0   67.79    3.80
   8   4   1   22.50    3.10
  -8  -4  -1   20.40    2.30
   8   4   2  107.59    6.40
  -8  -4  -2  120.09    5.30
   8   4   3   60.59    5.00
  -8  -4  -3   77.69    4.40
  -8  -4  -4    5.70    1.40
   8   4   4    7.00    2.40
   8   4   5   37.70    4.20
  -8  -4  -5   37.40    3.40
   8   4   6   47.20    4.90
   8   4   7    3.70    2.50
   8   4   7   -1.90    1.80
   8   4   8   51.19    5.30
   8   4   8   54.39    5.20
   8   5  -2    1.20    1.70
   8   5  -1   48.90    4.50
   8   5   0   32.30    3.70
   8   5   1    9.30    2.40
   8   5   2   -0.80    1.50
   8   5   3   56.99    5.10
   8   5   4    0.10    1.50
   8   5   5   38.20    4.70
   8   5   6   54.69    5.50
   8   5   8    5.10    2.30
   8   6   1   44.40    4.60
   8   6   2    5.70    2.40
   8   6   3   32.60    4.20
   8   6   4   -1.30    1.90
   8   6   5    0.00    4.10
   9   1  -2    6.30    1.90
   9   1  -1    6.80    1.90
  -9  -1   1    8.60    1.40
   9   1   0    1.90    1.40
  -9  -1   0   -0.40    0.70
  -9  -1  -1   66.29    3.30
   9   1   1   65.19    4.60
  -9  -1  -2   46.70    2.80
   9   1   2   54.59    4.30
  -9  -1  -3  153.88    5.20
   9   1   3  151.78    7.00
   9   1   4   63.49    4.80
  -9  -1  -4   69.99    3.70
  -9  -1  -5    2.90    1.20
   9   1   5    2.10    1.40
   9   1   6   27.50    3.50
   9   2  -3   36.90    3.80
   9   2  -2   22.20    3.00
  -9  -2   1   15.00    1.80
   9   2  -1   12.10    2.50
   9   2   0    8.60    2.10
  -9  -2   0   11.20    1.60
   9   2   1  130.99    6.70
  -9  -2  -1  134.59    5.10
   9   2   2    1.60    1.50
  -9  -2  -2    3.10    1.20
  -9  -2  -3   82.19    4.20
   9   2   3   92.09    5.90
  -9  -2  -4  115.99    5.10
   9   2   4  111.29    6.60
  -9  -2  -5    4.30    1.50
   9   2   5    0.70    1.50
   9   2   6   10.50    2.50
   9   2   7    1.50    1.70
   9   2   8    5.40    2.40
   9   3  -2    0.40    1.40
   9   3  -1   10.20    2.40
   9   3   0   19.20    2.90
   9   3   1  117.79    6.80
   9   3   2  142.89    7.50
  -9  -3  -2  149.39    5.80
  -9  -3  -3   68.29    4.10
   9   3   3   59.79    5.10
   9   3   4    0.20    1.50
   9   3   5    1.00    1.60
   9   3   6   27.70    4.00
   9   3   7   19.60    3.60
   9   4  -1    4.10    2.00
   9   4   0    2.30    1.80
   9   4   1   12.70    2.70
   9   4   2   10.70    2.70
   9   4   3    3.80    1.90
   9   4   4    2.90    1.90
   9   4   5    5.00    2.40
   9   4   6    4.20    2.30
  10   3   2    4.80    2.30
  10   3   3    0.70    2.00
   0   0   0    0.00    0.00

_computing_structure_solution     'SHELXT 2014/5 (Sheldrick, 2014)'
;
_shelx_hkl_checksum              14377
loop_
_space_group_symop_operation_xyz
'x, y, z'
'-x, -y, -z'
loop_
_atom_site_label
_atom_site_type_symbol
_atom_site_fract_x
_atom_site_fract_y
_atom_site_fract_z
_atom_site_U_iso_or_equiv
_atom_site_adp_type
_atom_site_occupancy
_atom_site_site_symmetry_order
_atom_site_calc_flag
_atom_site_refinement_flags_posn
_atom_site_refinement_flags_adp
O1 O 0.82904(17) 0.00267(14) 0.37274(12) 0.0219(3) Uani 1 1 d D .
H1O H 0.811(3) -0.061(3) 0.313(2) 0.033 Uiso 1 1 d D U
O2 O 0.85551(18) 0.24764(15) 0.54167(12) 0.0232(3) Uani 1 1 d D .
H2O H 0.940(3) 0.150(2) 0.561(2) 0.035 Uiso 1 1 d D U
O3 O 0.81748(18) 0.76619(15) 0.19629(13) 0.0233(3) Uani 1 1 d D .
H3O H 0.780(3) 0.773(3) 0.1212(19) 0.035 Uiso 1 1 d D U
N1 N 0.31540(19) 0.05895(17) 0.15268(14) 0.0174(3) Uani 1 1 d . .
N2 N 0.2898(2) 0.21977(18) 0.07151(15) 0.0207(3) Uani 1 1 d . .
C1 C 0.5808(2) 0.2806(2) 0.33688(16) 0.0175(3) Uani 1 1 d . .
H1 H 0.5255 0.2561 0.4401 0.021 Uiso 1 1 calc R U
C2 C 0.7934(2) 0.1861(2) 0.31553(16) 0.0178(3) Uani 1 1 d . .
H2 H 0.8452 0.1981 0.2109 0.021 Uiso 1 1 calc R U
C3 C 0.8906(2) 0.2939(2) 0.39000(17) 0.0191(3) Uani 1 1 d . .
H3 H 1.0318 0.2774 0.3536 0.023 Uiso 1 1 calc R U
C4 C 0.7886(2) 0.4874(2) 0.35186(17) 0.0191(3) Uani 1 1 d . .
H4 H 0.7578 0.5492 0.4395 0.023 Uiso 1 1 calc R U
C5 C 0.5981(2) 0.4779(2) 0.30290(18) 0.0203(4) Uani 1 1 d . .
H5A H 0.4872 0.5539 0.3555 0.024 Uiso 1 1 calc R U
H5B H 0.6024 0.5186 0.1990 0.024 Uiso 1 1 calc R U
C6 C 0.9154(2) 0.5879(2) 0.23569(18) 0.0214(4) Uani 1 1 d . .
H6A H 1.0351 0.5911 0.2712 0.026 Uiso 1 1 calc R U
H6B H 0.9517 0.5239 0.1504 0.026 Uiso 1 1 calc R U
C7 C 0.4611(2) 0.2230(2) 0.24765(16) 0.0174(3) Uani 1 1 d . .
C8 C 0.4151(2) 0.0566(2) 0.25885(17) 0.0198(3) Uani 1 1 d . .
H8 H 0.4480 -0.0420 0.3293 0.024 Uiso 1 1 calc R U
C9 C 0.3783(2) 0.3183(2) 0.12943(17) 0.0191(3) Uani 1 1 d . .
H9 H 0.3843 0.4394 0.0943 0.023 Uiso 1 1 calc R U
C10 C 0.2432(2) -0.0867(2) 0.11753(18) 0.0222(4) Uani 1 1 d . .
H10A H 0.2701 -0.1919 0.1887 0.033 Uiso 1 1 calc R U
H10B H 0.3069 -0.1158 0.0224 0.033 Uiso 1 1 calc R U
H10C H 0.1039 -0.0508 0.1177 0.033 Uiso 1 1 calc R U
loop_
_atom_site_aniso_label
_atom_site_aniso_U_11
_atom_site_aniso_U_22
_atom_site_aniso_U_33
_atom_site_aniso_U_23
_atom_site_aniso_U_13
_atom_site_aniso_U_12
O1 0.0282(6) 0.0137(6) 0.0250(6) -0.0025(4) -0.0124(5) 0.0001(5)
O2 0.0284(6) 0.0215(6) 0.0195(6) -0.0025(5) -0.0114(5) 0.0013(5)
O3 0.0337(7) 0.0148(6) 0.0250(6) -0.0011(5) -0.0154(5) -0.0042(5)
N1 0.0167(6) 0.0165(6) 0.0189(7) -0.0008(5) -0.0040(5) -0.0035(5)
N2 0.0221(7) 0.0189(7) 0.0211(7) 0.0013(5) -0.0079(5) -0.0032(6)
C1 0.0174(8) 0.0177(8) 0.0170(7) -0.0018(6) -0.0039(6) -0.0017(6)
C2 0.0195(8) 0.0151(7) 0.0181(8) -0.0013(6) -0.0055(6) -0.0002(6)
C3 0.0182(8) 0.0184(8) 0.0207(8) -0.0028(6) -0.0061(6) -0.0010(6)
C4 0.0191(8) 0.0179(8) 0.0218(8) -0.0062(6) -0.0075(6) -0.0003(6)
C5 0.0181(8) 0.0171(8) 0.0255(8) -0.0018(6) -0.0069(6) -0.0006(6)
C6 0.0245(8) 0.0160(8) 0.0260(8) -0.0036(6) -0.0108(7) -0.0024(7)
C7 0.0157(7) 0.0184(8) 0.0178(8) -0.0009(6) -0.0036(6) -0.0031(6)
C8 0.0196(8) 0.0195(8) 0.0207(8) 0.0020(6) -0.0076(6) -0.0039(6)
C9 0.0204(8) 0.0169(7) 0.0203(8) 0.0005(6) -0.0060(6) -0.0041(6)
C10 0.0226(8) 0.0217(8) 0.0250(8) -0.0047(6) -0.0051(7) -0.0079(7)
loop_
_atom_type_symbol
_atom_type_description
_atom_type_scat_dispersion_real
_atom_type_scat_dispersion_imag
_atom_type_scat_source
C C 0.0033 0.0016 'International Tables Vol C Tables 4.2.6.8 and 6.1.1.4'
H H 0.0000 0.0000 'International Tables Vol C Tables 4.2.6.8 and 6.1.1.4'
N N 0.0061 0.0033 'International Tables Vol C Tables 4.2.6.8 and 6.1.1.4'
O O 0.0106 0.0060 'International Tables Vol C Tables 4.2.6.8 and 6.1.1.4'
loop_
_geom_angle_atom_site_label_1
_geom_angle_atom_site_label_2
_geom_angle_atom_site_label_3
_geom_angle
C2 O1 H1O 110.0(14)
C3 O2 H2O 106.0(14)
C6 O3 H3O 109.9(16)
C8 N1 N2 111.73(13)
C8 N1 C10 128.13(14)
N2 N1 C10 120.11(13)
C9 N2 N1 104.53(13)
C7 C1 C2 113.64(13)
C7 C1 C5 115.10(13)
C2 C1 C5 101.43(12)
C7 C1 H1 108.8
C2 C1 H1 108.8
C5 C1 H1 108.8
O1 C2 C3 110.95(12)
O1 C2 C1 114.96(13)
C3 C2 C1 103.49(12)
O1 C2 H2 109.1
C3 C2 H2 109.1
C1 C2 H2 109.1
O2 C3 C2 110.67(13)
O2 C3 C4 108.82(13)
C2 C3 C4 103.70(12)
O2 C3 H3 111.1
C2 C3 H3 111.1
C4 C3 H3 111.1
C6 C4 C3 111.14(13)
C6 C4 C5 112.00(13)
C3 C4 C5 106.34(13)
C6 C4 H4 109.1
C3 C4 H4 109.1
C5 C4 H4 109.1
C1 C5 C4 105.66(12)
C1 C5 H5A 110.6
C4 C5 H5A 110.6
C1 C5 H5B 110.6
C4 C5 H5B 110.6
H5A C5 H5B 108.7
O3 C6 C4 111.11(13)
O3 C6 H6A 109.4
C4 C6 H6A 109.4
O3 C6 H6B 109.4
C4 C6 H6B 109.4
H6A C6 H6B 108.0
C8 C7 C9 103.28(14)
C8 C7 C1 127.43(14)
C9 C7 C1 129.21(14)
N1 C8 C7 108.05(14)
N1 C8 H8 126.0
C7 C8 H8 126.0
N2 C9 C7 112.41(14)
N2 C9 H9 123.8
C7 C9 H9 123.8
N1 C10 H10A 109.5
N1 C10 H10B 109.5
H10A C10 H10B 109.5
N1 C10 H10C 109.5
H10A C10 H10C 109.5
H10B C10 H10C 109.5
loop_
_geom_bond_atom_site_label_1
_geom_bond_atom_site_label_2
_geom_bond_distance
O1 C2 1.4195(18)
O1 H1O 0.859(16)
O2 C3 1.4274(19)
O2 H2O 0.873(16)
O3 C6 1.4272(19)
O3 H3O 0.802(16)
N1 C8 1.345(2)
N1 N2 1.3487(18)
N1 C10 1.452(2)
N2 C9 1.336(2)
C1 C7 1.498(2)
C1 C2 1.536(2)
C1 C5 1.536(2)
C1 H1 1.0000
C2 C3 1.529(2)
C2 H2 1.0000
C3 C4 1.531(2)
C3 H3 1.0000
C4 C6 1.528(2)
C4 C5 1.551(2)
C4 H4 1.0000
C5 H5A 0.9900
C5 H5B 0.9900
C6 H6A 0.9900
C6 H6B 0.9900
C7 C8 1.383(2)
C7 C9 1.400(2)
C8 H8 0.9500
C9 H9 0.9500
C10 H10A 0.9800
C10 H10B 0.9800
C10 H10C 0.9800
loop_
_geom_hbond_atom_site_label_D
_geom_hbond_atom_site_label_H
_geom_hbond_atom_site_label_A
_geom_hbond_distance_DH
_geom_hbond_distance_HA
_geom_hbond_distance_DA
_geom_hbond_angle_DHA
_geom_hbond_site_symmetry_A
O1 H1O O3 0.859(16) 1.868(16) 2.7135(16) 168(2) 1_545
O2 H2O O1 0.873(16) 1.961(17) 2.7915(16) 159(2) 2_756
O3 H3O N2 0.802(16) 1.992(16) 2.7919(18) 175(2) 2_665
loop_
_geom_torsion_atom_site_label_1
_geom_torsion_atom_site_label_2
_geom_torsion_atom_site_label_3
_geom_torsion_atom_site_label_4
_geom_torsion
C8 N1 N2 C9 0.55(17)
C10 N1 N2 C9 -177.74(13)
C7 C1 C2 O1 -70.72(17)
C5 C1 C2 O1 165.17(13)
C7 C1 C2 C3 168.14(12)
C5 C1 C2 C3 44.03(14)
O1 C2 C3 O2 -46.23(17)
C1 C2 C3 O2 77.58(14)
O1 C2 C3 C4 -162.77(12)
C1 C2 C3 C4 -38.97(15)
O2 C3 C4 C6 138.45(13)
C2 C3 C4 C6 -103.71(14)
O2 C3 C4 C5 -99.41(14)
C2 C3 C4 C5 18.43(16)
C7 C1 C5 C4 -155.23(13)
C2 C1 C5 C4 -32.10(15)
C6 C4 C5 C1 130.31(14)
C3 C4 C5 C1 8.73(16)
C3 C4 C6 O3 177.77(12)
C5 C4 C6 O3 58.98(17)
C2 C1 C7 C8 66.5(2)
C5 C1 C7 C8 -177.17(15)
C2 C1 C7 C9 -109.63(18)
C5 C1 C7 C9 6.7(2)
N2 N1 C8 C7 -0.84(18)
C10 N1 C8 C7 177.28(14)
C9 C7 C8 N1 0.74(17)
C1 C7 C8 N1 -176.17(14)
N1 N2 C9 C7 -0.06(18)
C8 C7 C9 N2 -0.42(18)
C1 C7 C9 N2 176.40(15)
