#------------------------------------------------------------------------------
#$Date: 2017-03-04 10:16:44 +0200 (Sat, 04 Mar 2017) $
#$Revision: 193309 $
#$URL: file:///home/coder/svn-repositories/cod/cif/4/03/23/4032331.cif $
#------------------------------------------------------------------------------
#
# This file is available in the Crystallography Open Database (COD),
# http://www.crystallography.net/
#
# All data on this site have been placed in the public domain by the
# contributors.
#
data_4032331
loop_
_publ_author_name
'Pigulski, Bart\/lomiej'
'M\;ecik, Patrycja'
'Cichos, Jakub'
'Szafert, S\/lawomir'
_publ_section_title
;
 Use of Stable Amine-Capped Polyynes in the Regioselective Synthesis of
 Push-Pull Thiophenes.
;
_journal_issue                   3
_journal_name_full               'The Journal of organic chemistry'
_journal_page_first              1487
_journal_page_last               1498
_journal_paper_doi               10.1021/acs.joc.6b02685
_journal_volume                  82
_journal_year                    2017
_chemical_formula_moiety         'C20 H14 N2 O2'
_chemical_formula_sum            'C20 H14 N2 O2'
_chemical_formula_weight         314.33
_space_group_crystal_system      triclinic
_space_group_IT_number           2
_space_group_name_Hall           '-P 1'
_space_group_name_H-M_alt        'P -1'
_symmetry_space_group_name_Hall  '-P 1'
_symmetry_space_group_name_H-M   'P -1'
_atom_sites_solution_hydrogens   geom
_audit_creation_method           SHELXL-2014/7
_cell_angle_alpha                88.79(5)
_cell_angle_beta                 82.33(5)
_cell_angle_gamma                81.94(5)
_cell_formula_units_Z            2
_cell_length_a                   6.0498(17)
_cell_length_b                   8.2177(19)
_cell_length_c                   16.171(5)
_cell_measurement_reflns_used    1699
_cell_measurement_temperature    153(2)
_cell_measurement_theta_max      30.6678
_cell_measurement_theta_min      2.7991
_cell_volume                     788.9(4)
_computing_structure_refinement  'SHELXL-2014/7 (Sheldrick, 2014)'
_diffrn_ambient_temperature      153(2)
_diffrn_detector_area_resol_mean 10.3456
_diffrn_measured_fraction_theta_full 0.999
_diffrn_measured_fraction_theta_max 0.901
_diffrn_measurement_device_type  'Xcalibur, Ruby'
_diffrn_measurement_method       '/w scans'
_diffrn_radiation_type           MoK\a
_diffrn_radiation_wavelength     0.71073
_diffrn_reflns_av_R_equivalents  0.0542
_diffrn_reflns_av_unetI/netI     0.1365
_diffrn_reflns_Laue_measured_fraction_full 0.999
_diffrn_reflns_Laue_measured_fraction_max 0.901
_diffrn_reflns_limit_h_max       7
_diffrn_reflns_limit_h_min       -8
_diffrn_reflns_limit_k_max       10
_diffrn_reflns_limit_k_min       -11
_diffrn_reflns_limit_l_max       20
_diffrn_reflns_limit_l_min       -23
_diffrn_reflns_number            9240
_diffrn_reflns_point_group_measured_fraction_full 0.999
_diffrn_reflns_point_group_measured_fraction_max 0.901
_diffrn_reflns_theta_full        26.000
_diffrn_reflns_theta_max         30.736
_diffrn_reflns_theta_min         2.805
_exptl_absorpt_coefficient_mu    0.087
_exptl_absorpt_correction_type   none
_exptl_crystal_colour            orange
_exptl_crystal_density_diffrn    1.323
_exptl_crystal_description       plate
_exptl_crystal_F_000             328
_exptl_crystal_size_max          0.380
_exptl_crystal_size_mid          0.200
_exptl_crystal_size_min          0.018
_refine_diff_density_max         0.245
_refine_diff_density_min         -0.279
_refine_diff_density_rms         0.051
_refine_ls_extinction_method     none
_refine_ls_goodness_of_fit_ref   1.006
_refine_ls_hydrogen_treatment    constr
_refine_ls_matrix_type           full
_refine_ls_number_parameters     218
_refine_ls_number_reflns         4428
_refine_ls_number_restraints     0
_refine_ls_restrained_S_all      1.006
_refine_ls_R_factor_all          0.1665
_refine_ls_R_factor_gt           0.0816
_refine_ls_shift/su_max          0.000
_refine_ls_shift/su_mean         0.000
_refine_ls_structure_factor_coef Fsqd
_refine_ls_weighting_details
'w=1/[\s^2^(Fo^2^)+(0.0120P)^2^+0.0070P] where P=(Fo^2^+2Fc^2^)/3'
_refine_ls_weighting_scheme      calc
_refine_ls_wR_factor_gt          0.0858
_refine_ls_wR_factor_ref         0.1107
_reflns_Friedel_coverage         0.000
_reflns_number_gt                2284
_reflns_number_total             4428
_reflns_threshold_expression     'I > 2\s(I)'
_cod_data_source_file            jo6b02685_si_001.cif
_cod_data_source_block           3fe
_cod_database_code               4032331
_shelx_shelxl_version_number     2014/7
_shelx_space_group_comment
;
The symmetry employed for this shelxl refinement is uniquely defined
by the following loop, which should always be used as a source of
symmetry information in preference to the above space-group names.
They are only intended as comments.
;
_shelx_estimated_absorpt_t_min   0.968
_shelx_estimated_absorpt_t_max   0.998
_shelx_res_file
;

    PM186.res created by SHELXL-2014/7


TITL
CELL 0.71073 6.0498 8.2177 16.171 88.79 82.33 81.94
ZERR 2 0.0017 0.0019 0.005 0.05 0.05 0.05
LATT 1
SFAC C H N O
UNIT 40 28 4 4
TEMP -120
L.S. 10
PLAN  20
FMAP 2
MORE -1
BOND $H
ACTA 52
CONF
SIZE 0.38 0.20 0.018

WGHT    0.012000    0.007000
FVAR       2.94620
O1    4   -0.770876   -0.186920    1.247300    11.00000    0.04092    0.02888 =
         0.02690    0.01006   -0.00018   -0.00741
N2    3   -0.843784   -0.053416    1.218320    11.00000    0.02721    0.02840 =
         0.01774    0.00130   -0.00405   -0.00717
O2    4   -1.037993    0.016599    1.237249    11.00000    0.02221    0.05045 =
         0.03027    0.01111    0.00186   -0.00300
N1    3    0.617587    0.664324    0.694799    11.00000    0.02361    0.02567 =
         0.02037    0.01041   -0.00037   -0.00377
C5    1   -0.114776    0.322404    0.942103    11.00000    0.02332    0.01711 =
         0.01908   -0.00133   -0.00608    0.00062
C1    1    0.468437    0.596150    0.746351    11.00000    0.02534    0.02112 =
         0.01762   -0.00064   -0.00760   -0.00375
C4    1    0.040295    0.395309    0.889837    11.00000    0.02449    0.01901 =
         0.02089    0.00286   -0.00740    0.00078
C3    1    0.180288    0.459571    0.845150    11.00000    0.02224    0.02058 =
         0.01940   -0.00093   -0.00690   -0.00008
C7    1   -0.402277    0.181229    1.046730    11.00000    0.02074    0.01932 =
         0.01513   -0.00357   -0.00310   -0.00449
C6    1   -0.249495    0.259690    0.988634    11.00000    0.02107    0.01854 =
         0.01678    0.00030   -0.00606    0.00103
C9    1   -0.468087   -0.041313    1.142111    11.00000    0.02437    0.01444 =
         0.01808    0.00390   -0.00386    0.00163
AFIX  43
H9    2   -0.415233   -0.140032    1.169240    11.00000   -1.20000
AFIX   0
C2    1    0.334420    0.532935    0.793976    11.00000    0.02274    0.02231 =
         0.01976    0.00231   -0.00388   -0.00247
C12   1   -0.629514    0.249106    1.063894    11.00000    0.02496    0.01709 =
         0.01957    0.00209   -0.00667   -0.00104
AFIX  43
H12   2   -0.683746    0.347573    1.036855    11.00000   -1.20000
AFIX   0
C11   1   -0.774737    0.172397    1.120313    11.00000    0.01951    0.02366 =
         0.02008   -0.00259   -0.00239   -0.00066
AFIX  43
H11   2   -0.928679    0.217739    1.132750    11.00000   -1.20000
AFIX   0
C15   1    0.591724    0.795790    0.556579    11.00000    0.02456    0.01631 =
         0.01444    0.00348   -0.00310   -0.00107
C10   1   -0.691487    0.028900    1.158084    11.00000    0.02359    0.02266 =
         0.01140    0.00223   -0.00204   -0.00734
C8    1   -0.324355    0.035681    1.085844    11.00000    0.01925    0.01918 =
         0.02128   -0.00020   -0.00090    0.00105
AFIX  43
H8    2   -0.170862   -0.010934    1.073646    11.00000   -1.20000
AFIX   0
C13   1    0.854450    0.590083    0.682112    11.00000    0.02013    0.03543 =
         0.02751    0.00774   -0.00379   -0.00478
AFIX 137
H13A  2    0.873839    0.490368    0.716204    11.00000   -1.50000
H13B  2    0.948647    0.668430    0.698543    11.00000   -1.50000
H13C  2    0.899194    0.561826    0.623108    11.00000   -1.50000
AFIX   0
C14   1    0.551594    0.817768    0.649921    11.00000    0.02849    0.02287 =
         0.02009    0.00340    0.00021   -0.00178
AFIX  23
H14A  2    0.638571    0.903260    0.665468    11.00000   -1.20000
H14B  2    0.389916    0.856445    0.667330    11.00000   -1.20000
AFIX   0
C20   1    0.782302    0.842041    0.510786    11.00000    0.02783    0.03446 =
         0.02058    0.00573   -0.00466   -0.01071
AFIX  43
H20   2    0.887323    0.888887    0.538380    11.00000   -1.20000
AFIX   0
C19   1    0.822261    0.820929    0.424979    11.00000    0.03791    0.04087 =
         0.02273    0.00714    0.00246   -0.00387
AFIX  43
H19   2    0.954995    0.852325    0.394412    11.00000   -1.20000
AFIX   0
C17   1    0.481125    0.707144    0.428765    11.00000    0.05368    0.03091 =
         0.03452   -0.00003   -0.02379   -0.00963
AFIX  43
H17   2    0.377125    0.660018    0.400772    11.00000   -1.20000
AFIX   0
C18   1    0.671572    0.755070    0.383953    11.00000    0.06229    0.02615 =
         0.01798    0.00245   -0.00888    0.00575
AFIX  43
H18   2    0.698211    0.742546    0.325046    11.00000   -1.20000
AFIX   0
C16   1    0.440847    0.727652    0.514965    11.00000    0.02932    0.03469 =
         0.03158    0.00653   -0.00804   -0.01236
AFIX  43
H16   2    0.309043    0.694723    0.545490    11.00000   -1.20000

AFIX   0
HKLF 4

REM
REM R1 =  0.0816 for    2284 Fo > 4sig(Fo)  and  0.1665 for all    4428 data
REM    218 parameters refined using      0 restraints

END

WGHT      0.0110      0.0000

REM Highest difference peak  0.245,  deepest hole -0.279,  1-sigma level  0.051
Q1    1   0.4530  0.5004  0.7551  11.00000  0.05    0.25
Q2    1   0.2696  0.7863  0.7501  11.00000  0.05    0.24
Q3    1  -0.7381  0.0661  1.1225  11.00000  0.05    0.24
Q4    1  -0.1172  0.2438  0.9769  11.00000  0.05    0.24
Q5    1  -0.6753  0.1796  1.0870  11.00000  0.05    0.23
Q6    1  -0.3719  0.1362  1.0916  11.00000  0.05    0.23
Q7    1  -0.3561  0.1919  1.0000  11.00000  0.05    0.21
Q8    1   1.1090  0.5987  0.7588  11.00000  0.05    0.21
Q9    1  -0.0992  0.4120  0.9193  11.00000  0.05    0.21
Q10   1   0.3353  0.5798  0.7432  11.00000  0.05    0.20
Q11   1  -1.0324  0.1431  1.2128  11.00000  0.05    0.20
Q12   1  -0.3675  0.4174  0.9382  11.00000  0.05    0.20
Q13   1   0.7353  0.7863  0.4110  11.00000  0.05    0.20
Q14   1   0.7492  0.7360  0.5386  11.00000  0.05    0.19
Q15   1  -0.6090 -0.1639  1.2198  11.00000  0.05    0.19
Q16   1   0.1637  0.3651  0.8581  11.00000  0.05    0.19
Q17   1   0.3108  0.4460  0.8178  11.00000  0.05    0.19
Q18   1   0.7317  0.6260  0.6901  11.00000  0.05    0.19
Q19   1   0.0525  0.3458  0.9306  11.00000  0.05    0.19
Q20   1  -0.7490  0.0158  1.1985  11.00000  0.05    0.19
;
_shelx_res_checksum              33349
_shelx_hkl_file
;
   0   0   3 3905.97 188.156   4
   0   0   3 3567.51 162.068   1
   0   0   3 3869.92 196.541   5
   0   0  -3 3659.81 195.753   5
   0   0  -3 4080.53 194.784   4
   0   0  -4 1058.40 127.162   4
   0   0   4 964.528 118.047   4
   0   0  -4 815.979 107.541   5
   0   0   4 855.901 91.3035   1
   0   0   4 787.551 104.546   5
   0   0   5 845.541 118.743   5
   0   0  -5 942.406 140.877   4
   0   0  -5 848.999 120.960   5
   0   0   5 684.962 94.2540   1
   0   0   5 1051.05 133.260   4
   0   0   6 2719.52 221.134   4
   0   0  -6 2855.29 239.454   4
   0   0  -6 2626.79 236.381   5
   0   0   6 2445.35 187.535   1
   0   0   6 2643.23 232.302   5
   0   0  -7 291.890 100.133   5
   0   0  -7 517.924 127.634   4
   0   0   7 231.372 64.8970   1
   0   0  -8 282.883 117.686   4
   0   0  -8 93.5341 62.9834   5
   0   0   8 168.296 58.0846   1
   0   0   9 488.549 105.799   1
   0   0  -9 627.823 146.693   5
   0   0  -9 652.888 164.972   4
   0   0  10 1876.96 211.067   1
   0   0 -10 2292.10 275.470   4
   0   0 -10 1879.71 262.377   5
   0   0 -11 4486.74 438.784   5
   0   0 -11 4941.11 433.134   4
   0   0  11 4421.40 340.603   1
   0   0  12 624.006 136.889   1
   0   0 -12 984.783 234.689   4
   0   0 -12 629.453 171.526   5
   0   0 -13 1025.58 241.802   4
   0   0  13 626.049 140.956   1
   0   0  14 219.668 89.6395   1
   0   0 -14 493.448 174.665   4
   0   0 -15 467.462 179.858   4
   0   0  15 282.584 110.841   1
   0   0  16 812.562 181.443   1
   0   0 -16 704.378 232.326   4
   0   0  17 30.4136 52.5393   1
   0   0 -17 383.979 194.117   4
   0   0 -18 411.248 184.240   4
   0   0 -19 773.423 248.614   4
   0   0 -20 727.701 255.778   4
   0   0 -21 301.985 179.172   4
   0   0 -22 880.639 282.411   4
   0   1 -21 378.191 216.481   4
   0   1 -20 485.889 229.540   4
   0   1 -19 1173.89 318.686   4
   0   1 -18 129.030 131.770   4
   0   1 -17 179.925 160.885   4
   0  -1  16 943.192 176.963   1
   0   1 -16 1380.54 302.697   4
   0   1 -15 699.437 223.348   4
   0  -1  15 478.306 121.608   1
   0  -1  14-5.71855 24.2263   1
   0   1 -14 310.270 157.668   4
   0  -1  13-28.4218 46.1771   1
   0   1 -13 421.289 177.461   4
   0  -1  12 14.7332 17.0707   1
   0   1 -12 347.607 157.216   4
   0  -1  11 47.1432 44.4675   1
   0   1 -11 336.563 166.840   4
   0  -1  10 4164.96 282.915   1
   0   1 -10 3997.44 383.998   4
   0   1 -10 4151.26 399.735   5
   0   1  -9 637.575 141.142   5
   0   1  -9 1049.86 195.573   4
   0  -1   9 795.468 115.089   1
   0   1  -8 121.063 49.4250   5
   0   1  -8 292.244 136.056   4
   0  -1   8 177.794 57.6562   1
   0   1  -7 3324.91 300.238   4
   0  -1   7 3650.02 269.734   3
   0  -1   7 3543.01 213.348   1
   0   1  -7 3479.86 303.519   5
   0   1  -7 3518.21 207.723   1
   0   1  -6 9395.66 451.248   4
   0  -1   6 10475.0 421.793   3
   0  -1   6 10206.6 460.502   5
   0  -1   6 11000.1 474.563   4
   0   1  -6 10016.3 318.318   1
   0  -1   6 10143.5 329.081   1
   0   1  -6 10125.5 472.278   5
   0  -1   5 265.450 50.3726   1
   0  -1   5 229.416 57.7017   3
   0   1  -5 400.414 78.5369   3
   0   1  -5 259.811 47.8348   1
   0   1  -5 311.789 87.3123   5
   0  -1   5 203.092 49.2963   5
   0  -1   5 332.171 91.8349   4
   0   1  -5 431.739 106.762   4
   0   1  -4 10483.5 362.361   3
   0   1  -4 10439.0 396.032   4
   0   1  -4 10701.7 399.156   5
   0   1  -4 10902.8 376.816   2
   0   1  -4 10883.3 267.795   1
   0  -1   4 11141.1 387.837   5
   0  -1   4 10654.1 388.583   4
   0  -1   4 11029.6 362.091   3
   0  -1   4 11037.3 271.461   1
   0   1  -3 6687.96 189.014   1
   0   1  -3 6617.68 256.670   3
   0   1  -3 6699.90 282.442   4
   0  -1   3 6863.96 284.175   4
   0  -1   3 6745.16 269.558   5
   0  -1   3 6693.87 185.074   1
   0   1  -3 6788.64 273.242   2
   0   1  -3 6743.66 272.549   5
   0  -1   2 370.123 57.7887   2
   0   1  -2 410.070 43.5321   1
   0   1  -2 382.868 69.1860   4
   0  -1   2 369.849 41.7411   1
   0   1  -2 356.579 57.8994   2
   0  -1   2 418.164 56.4403   5
   0  -1   2 440.487 66.4155   4
   0  -1   1 3027.82 150.649   2
   0  -1  -1 73.4087 21.9726   2
   0  -1  -2 90.5022 22.9113   5
   0   1   2 103.660 23.5060   4
   0   1   2 101.269 29.8069   5
   0  -1  -2 94.6275 33.3296   2
   0   1   2 106.512 26.5981   2
   0  -1  -2 61.9658 20.8580   4
   0   1   3 6610.90 230.397   4
   0  -1  -3 6473.23 239.000   4
   0  -1  -3 6606.56 251.516   2
   0   1   3 6632.64 252.810   5
   0  -1  -3 6495.93 259.995   5
   0   1   4 9057.28 340.338   5
   0  -1  -4 9201.27 330.218   4
   0  -1  -4 8702.62 317.446   2
   0  -1  -4 8822.39 345.402   5
   0   1   4 9026.99 311.993   4
   0  -1  -5 1531.26 155.852   4
   0   1   5 1488.51 156.053   5
   0   1   5 1495.90 149.365   4
   0  -1  -5 1432.90 163.112   5
   0   1   6 827.075 121.896   4
   0   1   6 640.082 113.486   5
   0  -1  -6 609.857 119.726   5
   0  -1  -6 650.458 130.912   4
   0  -1  -7 17207.9 652.484   5
   0  -1  -7 16617.8 594.534   4
   0   1   8 9100.30 473.762   1
   0  -1  -8 9234.82 480.113   4
   0  -1  -8 9581.92 522.589   5
   0  -1  -9 212.922 109.707   4
   0   1   9 60.8633 47.3603   1
   0  -1  -9 72.3421 48.3229   5
   0   1  10 222.881 87.0151   1
   0  -1 -10 308.075 109.138   5
   0  -1 -11 752.752 182.416   5
   0  -1 -11 995.926 206.872   4
   0   1  11 746.528 156.338   1
   0  -1 -12 1029.63 220.537   5
   0   1  12 1011.29 194.229   1
   0  -1 -12 1482.28 253.669   4
   0  -1 -13 905.239 216.553   5
   0  -1 -13 1185.13 238.560   4
   0   1  13 712.433 171.739   1
   0  -1 -14 2143.82 340.727   5
   0  -1 -14 2279.20 332.588   4
   0   1  14 1844.43 271.005   1
   0  -1 -15 239.205 140.200   4
   0   1  15 101.390 84.7836   1
   0   1  16-9.42057 53.8378   1
   0  -1 -16 418.791 177.772   4
   0  -1 -17 268.336 178.682   4
   0   1  17 9.37911 48.4498   1
   0  -1 -18 42.4946 80.9978   2
   0  -1 -18 236.651 136.107   4
   0   1  18 55.7533 69.7987   1
   0  -1 -19 276.726 176.586   4
   0  -1 -19 174.360 127.607   2
   0  -1 -20 147.282 123.466   4
   0  -1 -21 413.176 189.461   4
   0  -1 -22 2281.39 435.758   4
   0   2 -21 499.021 224.695   4
   0   2 -20 439.481 215.633   4
   0   2 -19 733.162 244.707   4
   0   2 -18 209.983 172.104   4
   0   2 -17 3597.50 496.142   4
   0   2 -16 5338.44 580.979   4
   0   2 -15 360.486 186.451   4
   0  -2  15 8.15297 22.6975   1
   0  -2  14 234.530 78.2398   1
   0   2 -14 420.119 204.752   4
   0  -2  13 511.630 109.151   1
   0   2 -13 976.582 239.885   4
   0  -2  12 1087.17 147.740   1
   0   2 -12 1400.32 276.961   4
   0  -2  11 111.460 48.7024   1
   0   2 -11 320.880 163.267   4
   0  -2  10 285.482 68.6534   1
   0   2 -10 238.676 59.3173   1
   0   2 -10 447.815 174.548   4
   0   2  -9 2014.15 168.960   1
   0   2  -9 1956.02 269.249   4
   0  -2   9 2044.56 168.346   1
   0  -2   8 4.96709 23.0638   1
   0   2  -8 9.58494 14.8425   1
   0   2  -8 26.3349 21.6430   3
   0  -2   7 45.8850 22.2609   1
   0   2  -7 35.0710 21.1304   3
   0   2  -6 181.577 48.9369   1
   0  -2   6 194.102 49.8712   1
   0   2  -6 170.012 58.9172   3
   0   2  -6 232.912 112.425   4
   0   2  -5 125.926 34.1532   1
   0  -2   5 126.004 53.4781   5
   0   2  -5 114.237 47.7407   3
   0   2  -5 119.027 46.7461   2
   0  -2   5 249.334 95.1195   4
   0  -2   5 154.187 41.2103   1
   0   2  -5 301.151 100.891   4
   0   2  -4 75.6960 24.7899   1
   0   2  -4 94.4283 42.3726   2
   0  -2   4 107.373 45.2554   5
   0   2  -4 186.078 87.6148   4
   0  -2   4 120.053 33.3211   1
   0  -2   4 241.270 78.9546   4
   0  -2   4 98.2390 46.1716   2
   0  -2   3 2410.52 192.181   4
   0   2  -3 2105.18 137.459   1
   0  -2   3 2354.74 160.597   5
   0   2  -3 2131.21 190.514   4
   0   2  -3 2396.92 195.033   2
   0  -2   3 2215.43 195.236   2
   0   2  -2 15927.4 478.093   2
   0  -2   2 16322.9 439.411   4
   0   2  -2 15415.2 433.101   4
   0  -2   2 14939.8 479.127   2
   0   2  -2 15597.8 379.693   1
   0   2  -1 4623.42 212.457   4
   0  -2   1 4434.32 209.831   4
   0   2  -1 4665.27 247.739   2
   0  -2   1 4580.93 254.981   2
   0   2   0 7490.05 245.645   4
   0   2   0 7607.63 311.692   2
   0  -2   0 7395.27 316.599   2
   0  -2   0 7455.48 173.016   5
   0  -2  -1 25658.1 333.958   5
   0  -2  -1 25501.3 583.838   2
   0   2   1 25784.5 572.070   2
   0   2   1 25286.4 333.042   5
   0   2   2 86113.1 753.964   5
   0  -2  -2 86453.3 778.304   5
   0   2   2 86935.7 1060.84   2
   0  -2  -2 85415.4 1093.01   2
   0   2   3 86057.8 1085.96   2
   0   2   3 85668.8 908.990   5
   0  -2  -3 84865.1 1104.92   2
   0   2   3 86001.7 875.831   4
   0  -2  -3 85329.7 942.510   5
   0  -2  -4 2489.60 182.534   5
   0   2   4 2635.71 170.080   4
   0   2   4 2597.60 181.624   5
   0  -2  -4 2401.83 175.509   4
   0  -2  -4 2507.84 202.662   2
   0   2   4 2497.60 198.643   2
   0  -2  -5 1377.02 144.333   4
   0   2   5 1495.28 160.403   2
   0   2   5 1651.41 153.746   4
   0  -2  -5 1584.14 166.110   5
   0   2   5 1496.57 156.486   5
   0  -2  -5 1357.92 159.915   2
   0   2   6 527.528 102.983   5
   0   2   6 661.325 115.610   4
   0  -2  -6 561.861 111.206   5
   0  -2  -6 461.323 105.194   2
   0  -2  -6 441.395 96.5315   4
   0  -2  -7 653.393 124.765   5
   0   2   7 920.000 138.099   4
   0  -2  -7 705.402 132.519   2
   0  -2  -7 904.618 147.125   4
   0  -2  -8 903.128 163.525   5
   0  -2  -8 925.091 160.184   2
   0  -2  -8 1045.49 168.194   4
   0  -2  -9 216.252 97.0312   4
   0  -2  -9 40.2201 48.5957   5
   0  -2  -9 134.609 87.3538   2
   0  -2 -10 498.618 135.746   2
   0  -2 -10 594.829 159.278   4
   0  -2 -10 259.913 107.815   5
   0   2  11-9.76824 28.8343   1
   0  -2 -11-19.9688 29.3820   5
   0  -2 -11 212.727 125.546   4
   0  -2 -11 229.059 110.554   2
   0  -2 -12 346.201 132.189   2
   0   2  12 316.404 114.662   1
   0  -2 -12 486.214 161.232   4
   0  -2 -12 239.720 116.234   5
   0  -2 -13 2419.84 350.039   5
   0  -2 -13 2699.97 342.887   4
   0   2  13 2508.67 336.070   1
   0  -2 -13 2373.46 306.292   2
   0  -2 -14 515.906 179.041   5
   0  -2 -14 639.632 186.574   4
   0   2  14 391.152 128.074   1
   0  -2 -14 618.573 165.564   2
   0   2  15 118.863 87.9799   1
   0  -2 -15 275.383 139.135   4
   0  -2 -15 244.224 125.851   2
   0  -2 -16 1051.52 260.310   4
   0   2  16 1031.86 234.826   1
   0  -2 -16 1059.73 235.908   2
   0  -2 -17 93.5592 101.686   2
   0   2  17 48.5735 74.6854   1
   0  -2 -17 237.444 152.195   4
   0   2  18 518.329 174.090   1
   0  -2 -18 574.045 196.327   2
   0  -2 -18 548.645 196.428   4
   0  -2 -19 166.176 107.683   4
   0   2  19 254.283 125.490   1
   0  -2 -19 154.794 112.199   2
   0  -2 -20 4.71702 53.7150   4
   0  -2 -21 268.337 153.316   4
   0  -2 -22 89.8589 82.9691   4
   0   3 -20 495.104 221.252   4
   0   3 -19 509.201 214.635   4
   0   3 -18 327.880 197.090   4
   0   3 -17 972.892 267.995   4
   0   3 -16 438.546 193.254   4
   0   3 -15 717.603 242.208   4
   0   3 -14 971.645 248.307   4
   0  -3  13 9086.24 404.892   1
   0   3 -13 8148.09 660.936   4
   0   3 -12 549.582 191.165   4
   0  -3  12 254.826 64.2917   1
   0  -3  11 395.296 80.1531   1
   0   3 -11 611.724 209.822   4
   0   3 -11 348.045 72.1719   1
   0   3 -10 661.972 97.5153   1
   0   3 -10 762.037 164.858   3
   0   3 -10 706.504 208.512   4
   0  -3  10 687.277 100.851   1
   0   3  -9 187.456 50.6800   1
   0  -3   9 210.434 56.8914   1
   0   3  -9 213.493 78.8530   3
   0   3  -9 422.203 163.641   4
   0  -3   8 32.1475 11.0708   1
   0   3  -8-14.5046 21.1724   1
   0   3  -7 296.928 147.177   4
   0  -3   7 143.247 39.6009   1
   0   3  -7 173.949 50.9780   1
   0   3  -7 128.999 52.0482   3
   0   3  -6 282.860 125.690   4
   0   3  -6 208.035 57.9593   1
   0  -3   5 137.645 50.6860   2
   0   3  -5 127.684 41.8685   1
   0   3  -5 211.526 106.806   4
   0  -3   5 93.1333 36.1742   5
   0  -3   4 539.459 95.0324   5
   0  -3   4 517.831 122.161   2
   0   3  -4 563.813 87.1684   1
   0   3  -4 695.237 133.392   4
   0  -3   4 592.750 114.910   4
   0  -3   3 1002.01 112.091   5
   0  -3   3 943.495 128.328   4
   0   3  -3 1070.20 150.873   4
   0  -3   3 765.462 131.608   2
   0   3  -3 775.685 100.884   1
   0   3  -2 12897.2 519.756   2
   0  -3   2 12412.5 442.291   4
   0   3  -2 12222.6 444.117   4
   0  -3   2 12471.1 528.374   2
   0   3  -1 8721.28 348.152   4
   0  -3   1 8490.40 426.684   2
   0   3  -1 9437.51 428.358   2
   0  -3   0-12.4026 7.47244   5
   0   3   0 28.2175 24.8320   4
   0   3   0 15.0400 26.2452   2
   0  -3   0 20.8377 48.3102   2
   0  -3  -1 446.708 106.418   2
   0   3   1 442.229 91.4668   2
   0  -3  -1 461.734 52.7987   5
   0  -3  -2 3366.47 160.693   5
   0   3   2 3622.62 259.745   2
   0   3   2 3230.35 152.810   5
   0  -3  -2 3125.87 252.963   2
   0  -3  -3 3711.84 287.532   2
   0   3   3 4155.47 202.553   5
   0   3   3 3974.66 280.160   2
   0   3   3 4333.92 221.093   4
   0  -3  -3 4100.09 209.642   5
   0   3   4 174.417 76.6668   2
   0  -3  -4 102.131 62.9975   2
   0   3   4 87.5047 34.4376   5
   0   3   4 71.0894 29.6603   4
   0  -3  -4 93.6331 43.9196   5
   0  -3  -5 2182.88 193.410   5
   0   3   5 2109.77 184.866   5
   0  -3  -5 2044.95 219.227   2
   0   3   5 2187.07 176.749   4
   0   3   6 2108.52 188.347   4
   0   3   6 1839.89 188.694   5
   0  -3  -6 1780.18 190.012   5
   0  -3  -6 1776.90 214.756   2
   0  -3  -7 621.010 122.159   5
   0  -3  -7 702.472 141.845   2
   0  -3  -7 551.883 110.318   4
   0   3   7 850.797 132.331   4
   0  -3  -8 1686.94 209.022   4
   0  -3  -8 1783.00 223.780   5
   0  -3  -8 1727.12 226.197   2
   0  -3  -9 6.46886 33.9897   4
   0  -3  -9 50.8135 67.6972   2
   0  -3  -9 38.7609 61.1976   5
   0  -3 -10 215.584 92.1060   4
   0  -3 -10 353.696 121.764   5
   0  -3 -10 288.816 109.811   2
   0  -3 -11 2.42002 55.4124   5
   0  -3 -11-6.10300 38.4230   2
   0  -3 -11 9.45045 56.1521   4
   0  -3 -12 18.8337 56.4054   5
   0  -3 -12 26.9718 74.5788   2
   0  -3 -12 62.9495 61.5301   4
   0   3  12-62.9590 68.3209   1
   0   3  13 121.675 82.5916   1
   0  -3 -13 82.9258 76.0303   2
   0  -3 -13 210.163 102.612   4
   0  -3 -13 148.801 86.8419   5
   0  -3 -14 280.904 131.963   5
   0  -3 -14 279.886 117.405   2
   0   3  14 24.1936 52.3338   1
   0  -3 -14 136.402 83.0508   4
   0   3  15-9.97654 55.3700   1
   0  -3 -15 72.5445 82.8681   2
   0  -3 -15 20.0794 36.6225   5
   0  -3 -15 103.166 85.1466   4
   0  -3 -16 338.282 141.626   2
   0   3  16 492.246 165.024   1
   0  -3 -16 280.030 126.008   4
   0  -3 -17 472.689 164.000   2
   0  -3 -17 496.027 174.266   4
   0   3  17 456.218 164.309   1
   0   3  18 86.0397 64.2971   1
   0  -3 -18 59.7354 75.5023   4
   0  -3 -18 130.036 106.522   2
   0   3  19 193.713 117.311   1
   0  -3 -19 128.568 120.093   4
   0  -3 -20 12.6266 39.8283   4
   0   3  20 147.398 95.4397   1
   0  -3 -21 29.8561 42.1417   4
   0  -3 -22-66.4962 72.1118   4
   0   4 -20 395.050 203.254   4
   0   4 -19 524.194 226.490   4
   0   4 -18 447.053 223.392   4
   0   4 -17 209.519 157.417   4
   0   4 -16 781.237 269.436   4
   0   4 -15 430.270 185.492   4
   0   4 -14 4703.09 532.453   4
   0   4 -13 7493.49 645.104   4
   0   4 -12 216.738 172.272   4
   0   4 -11 88.8272 58.5925   3
   0   4 -11 232.761 171.424   4
   0   4 -10 2107.17 318.337   4
   0   4 -10 1712.49 255.053   3
   0   4 -10 1999.17 172.263   1
   0   4  -9 575.880 152.097   3
   0   4  -9 503.407 87.3365   1
   0   4  -9 819.295 215.635   4
   0   4  -8 849.912 168.743   3
   0   4  -8 1300.19 232.636   4
   0   4  -8 933.760 121.572   1
   0  -4   7 2008.43 273.450   2
   0   4  -7 2281.99 288.656   4
   0   4  -7 1906.76 177.535   1
   0  -4   6 2039.47 275.582   2
   0   4  -6 2091.31 187.032   1
   0   4  -6 2255.15 272.978   4
   0  -4   5 2483.04 292.882   2
   0   4  -5 2691.95 274.491   4
   0   4  -5 2554.06 213.528   1
   0  -4   5 2602.93 228.914   5
   0   4  -4 96.8834 78.4883   4
   0  -4   4 66.2905 33.8045   5
   0  -4   4 33.6165 47.6324   2
   0   4  -4 5.76558 24.3673   1
   0  -4   3 5988.04 287.100   5
   0   4  -3 6110.81 343.937   1
   0   4  -3 5763.47 360.400   4
   0  -4   3 6211.15 439.374   2
   0  -4   2 358.985 83.5810   4
   0   4  -2 353.453 93.5946   4
   0  -4   2 373.640 106.537   2
   0  -4   1 190.233 77.9246   2
   0   4  -1 194.383 64.5027   4
   0  -4   0 5278.25 385.304   2
   0   4   0 5039.92 283.384   4
   0  -4   0 4651.17 181.414   5
   0  -4  -1 2351.98 255.331   2
   0   4   1 2192.97 181.157   4
   0  -4  -1 2179.52 121.552   5
   0   4   2 286.261 48.9394   5
   0  -4  -2 306.666 95.8721   2
   0  -4  -2 288.848 50.2420   5
   0   4   3 37.7544 18.1156   5
   0  -4  -3 104.317 70.3914   2
   0  -4  -3 50.0521 29.4094   5
   0   4   4 82.5154 30.1960   5
   0  -4  -4 116.808 41.3309   5
   0  -4  -4 54.8766 56.4862   2
   0   4   4 143.070 52.3024   4
   0   4   5 5387.75 294.069   5
   0   4   5 5572.90 298.938   4
   0  -4  -5 5489.37 398.866   2
   0  -4  -5 5676.68 310.981   5
   0  -4  -6 1039.47 144.826   5
   0   4   6 1054.12 139.878   5
   0  -4  -6 1001.72 182.702   2
   0   4   6 1100.66 139.446   4
   0  -4  -7 452.180 108.579   5
   0  -4  -7 443.237 132.094   2
   0  -4  -8 343.390 105.577   5
   0  -4  -8 327.394 116.808   2
   0  -4  -9 27.9600 37.6406   5
   0  -4  -9 45.2727 57.2151   2
   0  -4 -10 229.867 95.2079   5
   0  -4 -10 306.965 121.886   2
   0  -4 -11 220.358 101.739   2
   0  -4 -11 212.918 95.6816   5
   0  -4 -11 211.307 82.1221   4
   0  -4 -12 377.659 136.870   5
   0  -4 -12 241.399 96.8795   4
   0  -4 -12 206.385 101.945   2
   0  -4 -13 35.6189 68.1727   5
   0  -4 -13 96.9877 73.1026   2
   0  -4 -13 58.5371 61.2241   4
   0  -4 -14 36.2597 61.3123   5
   0   4  14 69.0407 50.8564   1
   0  -4 -14 142.858 101.832   2
   0  -4 -14 8.39384 51.3526   4
   0  -4 -15 134.835 86.9530   2
   0  -4 -15 40.7455 57.3622   4
   0   4  15 87.5416 77.4425   1
   0   4  16 99.0625 72.8780   1
   0  -4 -16 39.1515 70.6792   4
   0  -4 -16 1.86147 29.2145   2
   0  -4 -17 263.282 129.070   2
   0   4  17 241.776 132.710   1
   0  -4 -17 288.872 135.859   4
   0  -4 -18 22.1949 40.3122   2
   0  -4 -18 162.144 88.2627   4
   0   4  18 159.662 114.106   1
   0  -4 -19 81.6798 58.7548   4
   0   4  19 12.7572 45.1499   1
   0   4  20 46.3011 89.6444   1
   0  -4 -20 55.4998 40.9799   4
   0   5 -19 328.700 212.003   4
   0   5 -18 569.967 236.517   4
   0   5 -17 216.565 178.360   4
   0   5 -16 633.856 226.203   4
   0   5 -15 848.986 253.314   4
   0   5 -14 1642.48 327.172   4
   0   5 -13 289.599 179.921   4
   0   5 -13-16.1338 47.9361   3
   0   5 -12 611.379 169.396   3
   0   5 -12 914.719 235.029   4
   0   5 -11 1523.44 260.153   3
   0   5 -11 1996.76 326.912   4
   0   5 -10 3932.76 405.603   3
   0   5 -10 3890.46 433.081   4
   0   5  -9 45.7356 27.8055   3
   0   5  -9 296.471 150.119   4
   0   5  -8 516.500 167.706   4
   0   5  -7 314.833 150.677   4
   0  -5   7 182.460 84.6148   2
   0  -5   6 621.936 163.687   2
   0   5  -6 845.000 183.933   4
   0  -5   5 1118.11 150.726   5
   0   5  -5 1339.22 220.268   4
   0  -5   5 1293.01 229.878   2
   0  -5   4 47.7937 28.5176   5
   0  -5   4 122.217 85.2448   2
   0   5  -4 220.212 107.732   4
   0  -5   3-51.5674 58.4978   2
   0  -5   3-4.60023 9.41922   5
   0  -5   2 185.752 101.770   2
   0   5  -2 415.516 107.374   4
   0  -5   2 220.516 50.1169   5
   0  -5   1-19.8304 59.4528   2
   0  -5   1 4.99750 9.01264   5
   0  -5   0 6999.16 231.493   5
   0   5   0 7284.76 383.531   4
   0  -5   0 7510.82 513.996   2
   0  -5  -1 734.941 172.953   2
   0   5   1 690.552 114.685   4
   0  -5  -1 693.914 69.3570   5
   0   5   2 2949.52 229.667   4
   0  -5  -2 2754.01 149.054   5
   0  -5  -2 2914.65 318.832   2
   0  -5  -3 38.6890 20.8633   5
   0  -5  -3 79.5962 40.4032   2
   0   5   3 49.2931 24.5981   5
   0   5   4 104.139 37.5227   5
   0  -5  -4 63.7175 35.9997   2
   0   5   4 122.743 49.2996   4
   0  -5  -4 80.7438 34.4203   5
   0  -5  -5 4347.83 267.347   5
   0   5   5 4082.86 249.701   5
   0  -5  -5 4388.55 404.462   2
   0   5   5 4132.37 267.123   4
   0  -5  -6 2380.45 299.806   2
   0  -5  -6 2375.05 217.698   5
   0   5   6 2327.88 207.100   4
   0   5   6 2420.57 210.312   5
   0  -5  -7 161.913 63.8939   5
   0  -5  -7 179.098 96.5470   2
   0  -5  -8 2963.73 286.125   5
   0  -5  -8 3101.57 356.556   2
   0  -5  -9 2728.43 291.023   5
   0  -5  -9 2314.33 317.453   2
   0  -5 -10 58.7540 49.8186   2
   0  -5 -10 141.741 89.8826   5
   0  -5 -11 1181.99 233.488   2
   0  -5 -11 1128.13 210.236   5
   0  -5 -12 106.854 79.7184   5
   0  -5 -12 127.041 101.150   2
   0  -5 -13 309.397 110.982   5
   0  -5 -13 233.723 120.559   2
   0  -5 -14 213.069 106.090   5
   0  -5 -14 73.5099 80.9686   2
   0  -5 -15 30.9449 60.2674   2
   0   5  15 4.64343 69.0219   1
   0  -5 -16 89.6661 78.2178   2
   0   5  16 74.0747 112.236   1
   0   5  17-13.1957 70.8124   1
   0  -5 -17 15.8848 73.6789   2
   0   5  18 46.5057 71.1684   1
   0   5  19 43.8993 66.7487   1
   0   5  20 106.051 70.7760   1
   0   6 -18 235.446 156.221   4
   0   6 -17 458.168 205.912   4
   0   6 -16 239.385 181.561   4
   0   6 -15 1152.04 288.766   4
   0   6 -14 1294.08 303.042   4
   0   6 -14 1176.10 260.304   3
   0   6 -13 520.676 199.689   4
   0   6 -13 195.409 98.7047   3
   0   6 -12 151.901 164.747   4
   0   6 -12 154.070 86.7164   3
   0   6 -11 4313.21 492.910   4
   0   6 -11 3579.94 420.365   3
   0   6 -10 933.865 211.207   3
   0   6 -10 1245.63 254.163   4
   0   6  -9 199.862 120.474   4
   0   6  -8 345.788 137.196   4
   0  -6   8 27.8261 53.6347   2
   0  -6   7 407.468 148.726   2
   0   6  -7 650.970 190.514   4
   0  -6   6 365.700 159.165   2
   0   6  -6 534.965 157.103   4
   0   6  -5 315.472 135.642   4
   0  -6   5 26.1707 43.2086   2
   0  -6   4 403.596 130.741   2
   0   6  -4 629.500 155.835   4
   0  -6   4 468.480 87.1425   5
   0   6  -3 543.561 138.455   4
   0  -6   3 478.546 156.764   2
   0  -6   3 380.522 73.6722   5
   0   6  -2 413.071 119.405   4
   0  -6   2 268.638 58.5317   5
   0  -6   2 264.710 55.1889   5
   0  -6   2 255.523 100.058   2
   0  -6   1 25.9600 47.2028   2
   0  -6   1 32.4325 17.7123   5
   0   6   0 1547.98 197.159   4
   0  -6   0 1374.71 239.838   2
   0  -6   0 1147.04 89.3807   5
   0   6   1 67.6091 45.6142   4
   0  -6  -1 81.2904 61.2302   2
   0  -6  -1 87.5684 22.1130   5
   0  -6  -2 30.2339 16.4016   5
   0  -6  -2 6.08154 49.3210   2
   0   6   2 100.336 45.5487   4
   0  -6  -3 2325.68 144.792   5
   0  -6  -3 2183.05 302.759   2
   0   6   3 2346.06 215.787   4
   0  -6  -4 140.539 79.8646   2
   0  -6  -4 143.737 44.0448   5
   0   6   4 204.256 62.5767   4
   0  -6  -5 317.233 104.736   2
   0  -6  -5 299.083 67.8501   5
   0   6   5 233.951 60.4113   5
   0  -6  -6-10.3843 53.6128   2
   0  -6  -6 7.22875 16.4415   5
   0  -6  -7 451.079 102.379   5
   0  -6  -7 475.003 153.686   2
   0  -6  -8 1524.58 265.911   2
   0  -6  -8 1531.25 198.659   5
   0  -6  -9 69.0765 49.7656   5
   0  -6  -9 50.5103 80.0261   2
   0  -6 -10 191.882 85.9480   5
   0  -6 -10 192.756 83.5962   2
   0  -6 -11 335.234 126.162   2
   0  -6 -11 530.896 141.772   5
   0  -6 -12 242.626 106.888   5
   0  -6 -12 260.987 130.054   2
   0  -6 -13 456.502 173.607   2
   0  -6 -14 121.537 87.1035   2
   0  -6 -15 64.4967 35.7235   2
   0   6  15 64.3720 93.9848   1
   0   6  16 81.4998 88.7955   1
   0  -6 -16-102.563 67.5798   2
   0   6  17 406.762 179.946   1
   0   6  18 82.6851 102.348   1
   0   6  19 38.5260 54.8857   1
   0   7 -17 533.249 222.944   4
   0   7 -16 131.383 127.749   4
   0   7 -15-100.825 106.106   3
   0   7 -15 415.111 196.328   4
   0   7 -14 60.3579 58.2714   3
   0   7 -14 479.677 204.021   4
   0   7 -13 8.45740 44.3190   3
   0   7 -13 176.937 129.540   4
   0   7 -12 2466.79 393.948   4
   0   7 -12 2921.42 412.647   3
   0   7 -11 1816.11 331.720   4
   0   7 -11 1697.47 306.502   3
   0   7 -10 263.784 157.368   4
   0   7 -10 50.3569 72.8966   3
   0   7  -9 417.061 171.044   4
   0   7  -8 125.794 113.688   4
   0  -7   8 48.6489 45.6324   2
   0   7  -7 198.406 108.011   4
   0  -7   7 41.3905 65.9756   2
   0  -7   6 243.008 111.733   2
   0   7  -6 319.044 135.420   4
   0   7  -5 1382.18 239.621   4
   0  -7   5 1261.83 269.501   2
   0  -7   4 391.818 152.025   2
   0   7  -4 403.915 150.567   4
   0   7  -3 332.729 125.926   4
   0  -7   3 258.587 143.378   2
   0  -7   3 122.647 46.5052   5
   0  -7   2 118.329 39.4790   5
   0  -7   2 103.939 73.4132   2
   0   7  -2 278.129 107.269   4
   0   7  -1 62.4016 63.0616   4
   0  -7   1 23.2152 40.4062   2
   0   7   0 324.292 114.591   4
   0  -7   0 77.1459 62.2502   2
   0  -7  -1 141.999 93.0965   2
   0   7   1 266.830 100.909   4
   0  -7  -2 124.784 71.2033   2
   0   7   2 112.625 58.5958   4
   0  -7  -3 741.634 189.532   2
   0   7   3 1061.25 159.358   4
   0  -7  -4-30.1755 72.3863   2
   0   7   4 92.3346 49.2157   4
   0  -7  -5 408.097 153.222   2
   0   7   5 167.660 64.6636   4
   0  -7  -6 122.037 103.348   2
   0  -7  -7 39.5165 37.0918   2
   0  -7  -8 922.122 229.561   2
   0  -7  -9-18.1785 55.7409   2
   0  -7 -10-24.1065 58.8857   2
   0  -7 -11 1897.62 335.776   2
   0  -7 -12 89.2180 92.2023   2
   0  -7 -13 51.3362 86.0023   2
   0  -7 -14 65.0258 89.8325   2
   0   7  15 89.7758 112.111   1
   0  -7 -15-58.5244 86.0066   2
   0   7  16 34.8432 58.3059   1
   0   7  17 235.855 171.326   1
   0   8 -15 437.642 193.973   4
   0   8 -14 76.2280 75.4208   3
   0   8 -14 268.134 156.258   4
   0   8 -13 1942.16 375.179   4
   0   8 -13 1758.81 337.233   3
   0   8 -12 411.212 175.580   4
   0   8 -12 105.886 81.7672   3
   0   8 -11 195.976 147.650   4
   0   8 -11 6.87525 55.5720   3
   0   8 -10 273.144 143.251   4
   0   8  -9 464.084 193.652   4
   0  -8   8 283.655 160.111   2
   0   8  -8 457.033 170.761   4
   0   8  -7 350.578 148.764   4
   0  -8   7 53.2538 84.2340   2
   0  -8   6-46.4194 85.8208   2
   0   8  -6 284.624 125.986   4
   0  -8   5 72.1257 71.7952   2
   0   8  -5 200.605 108.877   4
   0  -8   4 496.972 197.541   2
   0   8  -4 619.952 172.700   4
   0   8  -3 100.296 90.5707   4
   0  -8   3-9.90543 64.0973   2
   0   8  -2 423.609 139.048   4
   0  -8   2 326.434 143.320   2
   0   8  -1 227.000 95.1676   4
   0  -8   1 151.132 90.7740   2
   0   8   0 1169.18 194.207   4
   0  -8   0 980.479 246.787   2
   0  -8  -1-19.1439 45.6163   2
   0   8   1 169.070 91.0701   4
   0   8   2 192.291 93.9864   4
   0  -8  -2-54.8604 92.1136   2
   0   8   3 62.6081 40.8277   4
   0  -8  -3-26.2324 33.8228   2
   0  -8  -4 95.1608 67.7787   2
   0  -8  -5 115.644 87.0447   2
   0  -8  -6 110.316 87.8940   2
   0  -8  -7-40.4017 52.5187   2
   0  -8  -8 293.487 133.480   2
   0  -8  -9 1013.16 259.026   2
   0  -8 -10 2669.12 415.388   2
   0  -8 -11 1167.58 278.513   2
   0  -8 -12 595.613 200.386   2
   0  -8 -13-54.1968 63.8707   2
   0  -8 -14 109.661 78.1520   2
   0   8  15 229.971 152.452   1
   0   9 -14 185.432 126.869   4
   0   9 -13 1006.44 269.742   4
   0   9 -12 494.429 194.392   4
   0   9 -12 288.595 147.547   3
   0   9 -11-19.7407 31.1576   3
   0   9 -11 239.910 156.181   4
   0   9 -10 453.127 175.964   4
   0   9  -9 1417.90 293.136   4
   0  -9   8 1663.53 368.332   2
   0   9  -8 1899.62 328.315   4
   0   9  -7 302.248 137.535   4
   0  -9   7 9.21015 43.1927   2
   0   9  -6 269.457 131.352   4
   0  -9   6 126.787 107.646   2
   0  -9   5 1001.73 267.174   2
   0   9  -5 1108.38 226.605   4
   0  -9   4 227.987 136.801   2
   0   9  -4 152.405 89.8615   4
   0  -9   3 110.618 100.028   2
   0  -9   2 270.660 133.908   2
   0  -9   1-60.6562 78.4587   2
   0  -9   0 948.958 244.712   2
   0  -9  -1 51.6446 72.2514   2
   0  -9  -2 619.577 208.566   2
   0  -9  -3 255.416 127.137   2
   0  -9  -4 17.8433 64.2803   2
   0  -9  -5 128.898 89.7820   2
   0  -9  -6 181.974 133.410   2
   0  -9  -7-54.0145 56.5359   2
   0  -9  -8 156.224 115.285   2
   0  -9  -9 29.0739 65.3385   2
   0  -9 -10 111.753 112.500   2
   0  -9 -11 240.453 147.743   2
   0  -9 -12 70.0437 93.4680   2
   0  -9 -13 205.525 130.010   2
   0  10 -11-79.1766 85.2696   3
   0 -10   8 155.406 141.745   2
   0 -10   7 189.139 157.956   2
   0 -10   6 1627.91 376.085   2
   0 -10   5-30.7729 96.2519   2
   0 -10   4 150.878 98.0204   2
   0 -10   3 57.7630 75.3004   2
   0 -10   2 171.585 101.480   2
   0 -10   1 52.1295 42.0055   2
   0 -10   0 159.435 112.797   2
   0 -10  -1 463.407 218.356   2
   0 -10  -2-41.4552 66.5503   2
   0 -10  -3 321.835 132.764   2
   0 -10  -4 287.477 138.718   2
   0 -10  -5 37.9834 102.387   2
   0 -10  -6 36.2571 90.3588   2
   0 -10  -7 186.288 130.367   2
   0 -10  -8 83.7142 85.6573   2
   0 -10  -9 636.218 219.687   2
   0 -10 -10 349.192 158.356   2
   0 -10 -11 280.285 145.651   2
   0 -11   2 140.216 130.121   2
   0 -11   1 96.3709 64.7528   2
   0 -11   0 124.866 115.251   2
   0 -11  -1 196.943 139.779   2
   0 -11  -2 47.0252 54.4243   2
   0 -11  -3-1.91921 42.1779   2
   0 -11  -4 133.561 106.379   2
   0 -11  -5 389.946 195.148   2
   1 -11  -5 70.5297 86.1161   2
   1 -11  -4 54.6127 78.8425   2
   1 -11  -3 55.2952 102.502   2
   1 -11  -2-21.3690 66.7926   2
   1 -11  -1 27.5382 46.7744   2
   1 -10  -9 494.198 196.046   2
   1 -10  -8-12.8857 42.7978   2
   1 -10  -7-18.0293 65.0929   2
   1 -10  -6 120.077 91.5138   2
   1 -10  -5 232.641 134.638   2
   1 -10  -4 25.3954 87.6176   2
   1 -10  -3 38.6874 81.0559   2
   1 -10  -2 376.847 196.042   2
   1 -10  -1 57.4163 47.9877   2
   1 -10   0 71.2479 85.4486   2
   1 -10   1 94.3998 75.6292   2
   1 -10   2-117.516 125.763   2
   1 -10   3-98.9231 96.5634   2
   1 -10   4 153.896 128.498   2
   1 -10   5 64.8994 117.317   2
   1 -10   6 355.192 173.708   2
  -1   9  11 322.618 164.899   1
   1  -9 -10 2480.07 407.725   2
   1  -9  -9 4739.57 568.179   2
   1  -9  -8 133.590 96.8868   2
   1  -9  -7 13.2822 32.7325   2
   1  -9  -6-38.0551 37.4321   2
   1  -9  -5 105.786 83.0516   2
   1  -9  -4 137.004 126.312   2
   1  -9  -3 15.9279 44.5187   2
   1  -9  -2 56.5744 95.6055   2
   1  -9  -1 75.5485 96.0730   2
   1  -9   0 149.085 109.163   2
  -1   9  -1 605.889 174.804   4
   1  -9   1 570.083 205.756   2
   1  -9   2 22.6998 48.3146   2
  -1   9  -2 86.7221 72.1350   4
  -1   9  -3 286.031 120.885   4
   1  -9   3 436.835 191.777   2
  -1   9  -4 286.456 128.542   4
   1  -9   4 65.3970 88.7283   2
   1  -9   5 105.698 90.8131   2
  -1   9  -5 358.665 178.390   4
  -1   9  -6 214.355 152.726   4
   1  -9   6 122.484 101.161   2
  -1   9  -7 589.445 201.585   4
   1  -9   7 752.342 231.886   2
  -1   9  -8 177.239 130.233   4
  -1   9  -9 567.273 213.044   4
  -1   9 -10 1563.61 330.230   4
  -1   9 -11 284.221 160.860   4
  -1   9 -12 602.932 213.657   4
  -1   9 -13 179.330 121.372   4
  -1   8  13-161.986 112.073   1
  -1   8  12-57.0460 40.7090   1
  -1   8  11 34.4536 81.6256   1
   1  -8 -11 55.2697 56.3949   2
   1  -8 -10 437.639 164.034   2
   1  -8  -9 320.818 146.155   2
   1  -8  -8 146.378 81.7568   2
   1  -8  -7 137.235 94.4887   2
   1  -8  -6 399.286 145.720   2
  -1   8   5-2.53669 37.4305   4
   1  -8  -5 214.493 121.472   2
   1  -8  -4 46.1709 60.4165   2
  -1   8   4 59.5142 55.1477   4
   1  -8  -3 2.89616 31.9076   2
  -1   8   3 43.5677 32.7308   4
   1  -8  -2 111.429 78.2382   2
  -1   8   2 70.3398 44.3456   4
   1  -8  -1 1008.49 240.221   2
  -1   8   1 904.311 184.973   4
  -1   8   0-0.10877 44.8845   4
   1  -8   0 37.2614 65.7807   2
   1  -8   1 347.370 141.508   2
  -1   8  -1 310.154 119.449   4
   1  -8   2 229.956 115.861   2
  -1   8  -2 386.802 138.128   4
   1  -8   3 505.454 183.102   2
  -1   8  -3 320.091 135.751   4
  -1   8  -4 433.586 140.926   4
   1  -8   4 431.897 172.889   2
   1  -8   5 88.6328 125.797   2
  -1   8  -5 129.845 102.064   4
   1  -8   6 122.798 109.850   2
  -1   8  -6 322.660 156.009   4
   1  -8   7 114.698 71.4667   2
  -1   8  -7 118.030 104.048   4
  -1   8  -8 243.016 156.484   4
  -1   8  -9 427.753 168.747   4
  -1   8 -10 359.828 171.160   4
  -1   8 -11 18.3399 33.1497   3
  -1   8 -11 297.260 166.626   4
  -1   8 -12 714.579 236.079   4
  -1   8 -13 1697.02 364.827   4
  -1   8 -14 397.186 189.912   4
  -1   8 -15 539.779 218.828   4
  -1   7  16 54.7983 48.2981   1
  -1   7  15 269.384 159.495   1
  -1   7  14 75.3885 134.273   1
  -1   7  13-73.6880 82.6990   1
  -1   7  12 26.2045 45.8281   1
   1  -7 -12 21.2040 28.5403   2
  -1   7  11-12.4217 38.5912   1
   1  -7 -11 76.5278 75.2084   2
   1  -7 -10 279.705 130.743   2
   1  -7  -9-96.3653 69.1242   2
   1  -7  -8 460.948 157.867   2
   1  -7  -7 6294.11 563.249   2
   1  -7  -6 4405.36 468.928   2
   1  -7  -5 395.072 154.733   2
   1  -7  -4 43.3159 69.0089   2
  -1   7   3 0.91101 45.2485   4
   1  -7  -3 78.5537 75.3122   2
   1  -7  -2 102.158 82.6099   2
  -1   7   2 156.085 86.7751   4
   1  -7  -1 151.335 111.789   2
  -1   7   1 105.690 64.3847   4
   1  -7   0 8.30110 56.5462   2
  -1   7   0 4.80336 48.3277   4
   1  -7   1 66.7229 53.3283   2
  -1   7  -1 27.1813 30.2628   4
  -1   7  -2 672.926 168.651   4
   1  -7   2 585.716 189.199   2
  -1   7  -3 592.299 160.419   4
   1  -7   3 717.978 197.925   2
   1  -7   4 726.242 192.319   2
  -1   7  -4 812.058 188.392   4
  -1   7  -5 206.256 138.318   4
   1  -7   5 143.842 139.080   2
   1  -7   6 436.493 167.813   2
  -1   7  -6 614.328 185.540   4
  -1   7  -7 518.429 178.432   4
   1  -7   7 580.617 198.048   2
  -1   7  -8 7.47616 70.2013   4
  -1   7  -9 710.488 226.355   4
  -1   7 -10 136.994 125.974   4
  -1   7 -11-20.5613 38.3789   3
  -1   7 -11 286.027 147.931   4
  -1   7 -12 179.163 122.680   4
  -1   7 -12 67.3387 70.7739   3
  -1   7 -13 560.243 210.934   4
  -1   7 -14 199.372 138.528   4
  -1   7 -15 794.907 266.761   4
  -1   7 -16 151.486 146.548   4
  -1   6  18-0.48555 55.5154   1
  -1   6  17 116.821 89.1577   1
  -1   6  16-137.067 152.064   1
  -1   6  15 191.030 152.030   1
  -1   6  14 27.3236 64.3778   1
  -1   6  13 50.1113 105.485   1
   1  -6 -13 77.8567 83.9629   2
  -1   6  12 638.390 215.951   1
   1  -6 -12 582.695 164.146   2
   1  -6 -11-9.27919 36.2138   2
  -1   6  11 31.8080 53.3597   1
   1  -6 -10 138.763 71.1791   2
   1  -6  -9 133.621 89.7256   2
   1  -6  -8-49.1898 78.5817   2
   1  -6  -7 312.623 122.440   2
   1  -6  -6 857.850 200.794   2
   1  -6  -5 382.154 134.284   2
   1  -6  -4 30.4792 37.6052   2
   1  -6  -3 59.7053 66.7774   2
   1  -6  -2-55.8894 76.2083   2
  -1   6   1 112.037 64.0234   4
   1  -6  -1 163.600 83.0262   2
   1  -6   0 80.2669 44.5774   2
  -1   6   0 113.892 76.1838   4
  -1   6  -1 1306.74 202.061   4
   1  -6   1 1352.89 238.339   2
   1  -6   2 1761.93 276.334   2
  -1   6  -2 1806.19 250.243   4
   1  -6   3 959.231 207.181   2
  -1   6  -3 862.969 182.223   4
  -1   6  -4 195.578 103.850   4
   1  -6   4 138.022 39.0083   5
   1  -6   4 204.126 102.636   2
  -1   6  -5 175.035 113.757   4
   1  -6   5-6.18234 54.5962   2
   1  -6   6 96.9815 84.7505   2
  -1   6  -6 363.246 156.826   4
  -1   6  -7 1065.92 232.335   4
  -1   6  -8 433.429 165.121   4
  -1   6  -9 680.120 202.398   4
  -1   6 -10-59.7746 49.5880   3
  -1   6 -10 188.104 151.798   4
  -1   6 -11 229.443 149.957   4
  -1   6 -11 90.4949 83.3223   3
  -1   6 -12 331.001 124.678   3
  -1   6 -12 540.967 193.867   4
  -1   6 -13 305.681 171.258   4
  -1   6 -13 38.9508 46.8477   3
  -1   6 -14 413.728 199.152   4
  -1   6 -14 55.4125 76.9641   3
  -1   6 -15 1714.75 359.552   4
  -1   6 -16 2133.37 404.713   4
  -1   6 -17 555.850 243.713   4
  -1   6 -18 342.855 201.128   4
  -1   5  19 548.594 218.069   1
  -1   5  18 159.052 130.849   1
  -1   5  17 122.700 111.044   1
  -1   5  16 187.372 113.427   1
  -1   5  15 31.0648 99.1765   1
   1  -5 -14 148.293 81.8722   2
  -1   5  14 196.441 127.102   1
   1  -5 -13 656.497 179.311   2
  -1   5  13 666.025 212.707   1
   1  -5 -12 92.6686 64.0050   2
  -1   5  12-1.82345 34.9872   1
   1  -5 -11 186.565 93.0805   2
  -1   5  11 217.915 104.341   1
  -1   5  10 457.501 174.805   1
   1  -5 -10 509.969 142.581   2
   1  -5  -9 275.592 108.226   2
   1  -5  -8 825.825 175.874   2
   1  -5  -7 513.995 135.961   2
   1  -5  -6 454.399 125.296   2
  -1   5   6 385.047 77.1333   5
  -1   5   5 66.7679 26.4682   5
   1  -5  -5 149.997 78.0896   2
   1  -5  -4 5551.09 436.756   2
  -1   5   4 4766.19 194.520   5
   1  -5  -3 1621.15 238.303   2
   1  -5  -2 11.7874 29.0588   2
   1  -5  -1-3.73073 34.5399   2
   1  -5   0 244.885 106.837   2
  -1   5   0 286.793 87.9956   4
  -1   5  -1 137.059 73.5885   4
   1  -5   1 251.695 85.1135   2
  -1   5  -2 2188.20 254.999   4
   1  -5   2 1988.99 270.073   2
   1  -5   3 504.856 154.684   2
  -1   5  -3 528.299 133.074   4
   1  -5   3 442.663 60.1135   5
   1  -5   4 66.9936 27.5871   5
   1  -5   4 121.699 102.284   2
  -1   5  -4 264.408 115.263   4
   1  -5   5-17.5443 57.3323   2
   1  -5   5 11.2671 17.0061   5
   1  -5   6 19.8094 27.8888   2
  -1   5  -6-1.06849 20.1977   1
   1  -5   6 15.6035 33.4779   5
  -1   5  -7 385.791 161.505   4
  -1   5  -7 47.8385 28.9357   1
  -1   5  -8 721.258 95.4562   1
  -1   5  -8 1122.96 237.530   4
  -1   5  -9 1070.23 236.008   4
  -1   5  -9 729.020 157.838   3
  -1   5 -10 13.6483 25.3615   3
  -1   5 -10 115.478 106.487   4
  -1   5 -11 398.858 119.748   3
  -1   5 -11 545.878 193.042   4
  -1   5 -12 154.630 76.1958   3
  -1   5 -12 406.962 174.689   4
  -1   5 -13 18.8428 33.0722   3
  -1   5 -13 270.012 161.860   4
  -1   5 -14 873.840 266.174   4
  -1   5 -15 498.940 197.436   4
  -1   5 -16 367.177 194.676   4
  -1   5 -17 327.355 192.455   4
  -1   5 -18 469.160 199.124   4
  -1   5 -19 416.114 218.498   4
  -1   4  20 1718.73 366.771   1
  -1   4  19 284.999 150.991   1
  -1   4  18 268.780 165.209   1
  -1   4  17-22.3368 86.0651   1
  -1   4  16-56.3986 44.0469   1
   1  -4 -15 2.28512 41.3851   2
  -1   4  15 136.114 101.970   1
   1  -4 -14 397.328 138.484   2
  -1   4  14 394.896 165.263   1
   1  -4 -13 243.900 94.6281   2
  -1   4  13 123.860 59.1381   1
  -1   4  12-20.2587 77.5347   1
   1  -4 -12-0.46144 24.1344   2
  -1   4  11 66.4693 71.1887   1
   1  -4 -11 56.3290 59.2255   2
   1  -4 -10 1601.91 228.559   2
  -1   4  10 1660.67 298.412   1
   1  -4  -9 1272.40 196.480   2
  -1   4   9 1083.71 236.209   1
   1  -4  -8 551.736 122.957   2
   1  -4  -7 796.027 152.265   2
   1  -4  -6 30.9497 24.2597   2
  -1   4   6 37.3581 32.1424   5
  -1   4   5 968.795 117.046   5
   1  -4  -5 1098.85 171.895   2
   1  -4  -4 10368.6 523.435   2
  -1   4   4 9948.36 328.798   5
   1  -4  -3 788.222 143.588   2
  -1   4   3 605.145 63.5117   5
   1  -4  -2 7038.19 432.092   2
   1  -4  -1 2202.79 241.169   2
   1  -4   0 6932.04 441.732   2
   1  -4   1 5488.64 398.743   2
  -1   4  -1 5665.90 378.051   4
  -1   4  -2 20046.1 727.325   4
   1  -4   2 20650.3 792.672   2
   1  -4   2 19247.7 323.815   5
   1  -4   3 4680.48 388.100   2
   1  -4   3 4958.07 217.091   5
  -1   4  -3 4738.87 367.863   4
   1  -4   4 2033.79 164.327   5
   1  -4   4 1820.75 249.849   2
  -1   4  -4 2037.69 251.911   4
   1  -4   5 659.866 108.699   5
  -1   4  -5 798.412 168.080   4
   1  -4   5 696.851 177.301   2
  -1   4  -6 502.299 146.481   4
   1  -4   6 298.165 82.8348   5
  -1   4  -6 292.509 59.2669   1
  -1   4  -7 462.078 150.590   4
  -1   4  -7 163.044 43.4156   1
  -1   4  -8 124.939 53.7892   3
  -1   4  -8 167.693 40.8252   1
  -1   4  -8 366.487 147.375   4
  -1   4  -9 37.4702 12.2761   1
  -1   4  -9 262.204 146.226   4
  -1   4  -9 132.713 72.5642   3
  -1   4 -10 469.429 121.126   3
  -1   4 -10 489.391 183.768   4
  -1   4 -11 136.005 72.2120   3
  -1   4 -11 382.678 165.555   4
  -1   4 -12 494.437 191.850   4
  -1   4 -13 333.640 169.546   4
  -1   4 -14 1778.07 346.355   4
  -1   4 -15 427.058 193.372   4
  -1   4 -16 318.926 172.724   4
  -1   4 -17 421.386 214.430   4
  -1   4 -18 2242.09 417.613   4
  -1   4 -19 1092.36 307.250   4
  -1   4 -20 257.563 197.246   4
   1  -3 -21 203.754 145.186   4
   1  -3 -20 1714.98 373.930   4
  -1   3  20 2404.64 415.766   1
  -1   3  19 20.9464 41.8451   1
   1  -3 -19 24.4427 54.5217   4
   1  -3 -18-43.1617 72.2537   4
  -1   3  18 67.5683 52.0305   1
  -1   3  17 92.1312 95.0446   1
   1  -3 -17 55.7324 74.5081   4
  -1   3  16 44.4687 44.3314   1
   1  -3 -16-18.8333 29.4966   4
  -1   3  15 162.989 125.924   1
   1  -3 -15-28.0736 71.8739   4
   1  -3 -15 187.470 103.785   2
  -1   3  14-38.1370 29.0444   1
   1  -3 -14 47.5787 47.9874   2
   1  -3 -14 15.3082 46.1474   4
  -1   3  13 340.851 135.669   1
   1  -3 -13 411.227 143.301   4
   1  -3 -13 400.476 117.713   2
   1  -3 -12 93.3223 71.3907   4
   1  -3 -12 208.551 92.9272   2
  -1   3  12 28.7787 47.7683   1
  -1   3  11 56.4069 62.9190   1
   1  -3 -11-1.82655 39.2658   2
   1  -3 -11 40.9199 59.4655   4
   1  -3 -10 281.452 102.632   4
   1  -3 -10 519.363 126.589   2
  -1   3  10 365.516 135.051   1
  -1   3   9 725.682 180.816   1
   1  -3  -9 798.041 145.784   2
  -1   3   8 3297.34 373.995   1
   1  -3  -8 3231.12 274.038   2
  -1   3   7 23.4129 28.9159   1
   1  -3  -7 38.8463 40.9994   2
   1  -3  -6 6665.70 373.858   2
  -1   3   6 6264.80 342.642   2
  -1   3   6 6479.90 355.124   5
  -1   3   5 197.962 59.3179   2
  -1   3   5 204.083 59.6625   5
   1  -3  -5 214.091 71.4202   2
   1  -3  -4 156.106 50.5527   2
  -1   3   4 160.466 46.3480   5
  -1   3   4 217.672 61.4093   2
   1  -3  -3 560.441 106.785   2
  -1   3   3 555.146 69.7947   5
  -1   3   3 526.151 95.9467   2
  -1   3   2 275.286 76.9472   2
   1  -3  -2 250.019 69.3786   2
  -1   3   2 282.071 38.6037   5
   1  -3  -1 7030.95 374.697   2
  -1   3   1 7205.27 370.638   2
   1  -3   0 459.862 97.4956   2
  -1   3   0 507.006 104.073   2
  -1   3  -1 75.9970 30.0103   2
   1  -3   1 141.748 61.9891   2
  -1   3  -1 160.717 49.5506   4
  -1   3  -2 88.6669 42.7393   4
   1  -3   2 129.714 47.4099   2
   1  -3   2 215.562 37.7044   5
  -1   3  -2 172.366 35.9736   5
  -1   3  -3 2655.54 255.614   4
   1  -3   3 2628.85 258.762   2
   1  -3   3 2627.63 162.776   5
  -1   3  -3 2502.55 163.318   5
  -1   3  -4 6206.10 298.429   5
   1  -3   4 6221.91 291.142   5
  -1   3  -4 6383.25 409.891   4
   1  -3   4 6205.62 414.148   2
   1  -3   5 1532.29 162.317   5
  -1   3  -5 1665.47 227.532   4
  -1   3  -5 1443.36 166.323   5
  -1   3  -5 1508.68 117.168   1
  -1   3  -6-9.79702 29.0097   5
  -1   3  -6-32.1398 21.8909   1
   1  -3   6 8.42144 23.7810   5
  -1   3  -7 1340.04 227.702   4
  -1   3  -7 1231.55 157.360   3
  -1   3  -7 1204.53 173.882   5
  -1   3  -8 1552.23 188.353   3
  -1   3  -8 1579.56 215.112   5
  -1   3  -8 1758.49 261.062   4
  -1   3  -9 5241.14 420.166   5
  -1   3  -9 5411.05 359.238   3
  -1   3  -9 5424.38 463.802   4
  -1   3 -10 2856.27 329.143   5
  -1   3 -10 3075.92 368.915   4
  -1   3 -11 229.342 104.091   5
  -1   3 -11 740.868 210.895   4
  -1   3 -12-76.8567 88.5280   5
  -1   3 -12 261.221 176.863   4
  -1   3 -13 360.736 162.539   4
  -1   3 -14 1197.91 277.658   4
  -1   3 -15 359.909 200.420   4
  -1   3 -16 115.999 143.793   4
  -1   3 -17 2402.63 415.818   4
  -1   3 -18 2462.92 423.926   4
  -1   3 -19 277.472 183.674   4
  -1   3 -20 472.395 225.250   4
   1  -2 -21 733.166 251.854   4
   1  -2 -20 285.804 146.136   4
  -1   2  20 443.171 170.472   1
  -1   2  19-44.4659 53.2003   1
   1  -2 -19 18.7883 77.4924   4
   1  -2 -18 35.7131 53.8779   4
  -1   2  18-49.0313 62.3545   1
  -1   2  17 214.771 115.294   1
   1  -2 -17 194.784 144.615   4
   1  -2 -16 9.05400 25.1551   2
   1  -2 -16-19.4557 59.8729   4
  -1   2  16 27.9596 58.2463   1
   1  -2 -15 130.536 86.8699   2
  -1   2  15 5.88812 71.9557   1
   1  -2 -15 66.0038 104.464   4
   1  -2 -14 343.605 147.007   4
  -1   2  14 352.068 151.491   1
   1  -2 -14 417.438 125.639   2
   1  -2 -13 1224.86 198.100   2
  -1   2  13 1075.70 234.562   1
   1  -2 -13 1287.52 247.953   4
   1  -2 -12 69.3507 51.4269   2
  -1   2  12-27.2002 26.6357   1
   1  -2 -12-44.5699 64.7444   4
  -1   2  11 150.537 83.8682   1
   1  -2 -11 12.7665 37.2669   4
   1  -2 -11 241.190 93.6581   2
  -1   2  10 29.0573 58.6194   1
   1  -2 -10 29.3216 52.8977   4
   1  -2 -10 102.721 64.2785   2
   1  -2  -9 241.849 82.3962   2
  -1   2   9 289.290 107.784   1
   1  -2  -9 250.149 93.1579   4
   1  -2  -8 183.786 68.5311   2
   1  -2  -8 149.488 64.8726   4
  -1   2   8 145.776 66.0389   1
   1  -2  -7 175.200 62.4694   2
  -1   2   7 136.973 76.1855   1
   1  -2  -7 153.846 83.1894   4
  -1   2   6 1550.61 221.741   1
   1  -2  -6 1529.20 157.929   2
   1  -2  -6 1509.10 193.104   4
  -1   2   6 1456.23 175.998   5
  -1   2   5 733.383 113.175   5
   1  -2  -5 719.033 99.8714   2
  -1   2   5 765.013 100.958   2
  -1   2   5 700.893 140.999   1
  -1   2   4 1525.05 167.722   4
  -1   2   4 1430.29 128.707   2
   1  -2  -4 1565.65 142.573   2
  -1   2   4 1368.57 187.400   1
  -1   2   4 1408.04 138.116   5
  -1   2   3 236.080 57.3444   2
  -1   2   3 83.9420 16.1122   4
   1  -2  -3 143.455 46.6696   2
  -1   2   3 145.952 44.4307   5
  -1   2   2 3211.39 196.165   2
   1  -2  -2 3358.41 201.002   2
  -1   2   2 3281.27 157.558   5
  -1   2   1 31156.3 618.843   2
   1  -2  -1 31371.3 637.126   2
  -1   2   0 13801.7 428.544   2
   1  -2   0 13749.3 432.891   2
  -1   2   0 13149.4 229.197   5
  -1   2  -1 1551.72 151.416   2
   1  -2   1 1453.48 149.754   2
   1  -2   1 1450.70 87.9712   5
  -1   2  -1 1488.17 87.7810   5
   1  -2   2 73107.3 750.726   5
  -1   2  -2 73815.3 1100.55   2
  -1   2  -2 72080.7 758.813   5
  -1   2  -2 72660.0 1146.60   4
   1  -2   2 72017.1 1123.93   2
   1  -2   3 3068.68 238.063   4
   1  -2   3 3016.26 179.176   5
  -1   2  -3 2853.19 227.180   2
  -1   2  -3 2973.73 184.778   5
  -1   2  -3 2969.85 241.821   4
   1  -2   4 4682.56 253.057   5
  -1   2  -4 4359.36 312.603   4
   1  -2   4 4352.74 306.249   4
  -1   2  -4 4481.96 252.355   5
  -1   2  -4 4634.95 309.037   2
  -1   2  -5 5041.44 350.142   4
  -1   2  -5 4864.22 297.407   5
   1  -2   5 4864.16 290.955   5
  -1   2  -6 3378.50 311.035   4
  -1   2  -6 3254.69 210.410   3
   1  -2   6 3306.83 260.299   5
  -1   2  -6 3490.24 275.788   5
  -1   2  -7 3646.33 345.726   4
  -1   2  -7 3808.72 244.891   3
  -1   2  -7 3593.75 300.541   5
  -1   2  -8 135.930 64.3454   5
  -1   2  -8 352.341 130.774   4
  -1   2  -9 1062.29 191.625   5
  -1   2  -9 1506.62 248.873   4
  -1   2 -10 415.900 125.500   5
  -1   2 -10 852.371 201.598   4
  -1   2 -11-11.4728 29.4885   5
  -1   2 -11 275.842 142.331   4
  -1   2 -12 104.434 76.1811   5
   1  -2  12 55.1414 18.1812   1
   1  -2  13 147.372 33.5487   1
  -1   2 -13 155.844 77.2682   5
  -1   2 -14 543.559 202.954   4
  -1   2 -14 345.371 159.690   5
  -1   2 -15 628.332 218.397   4
  -1   2 -15 568.024 189.954   5
  -1   2 -16 521.103 203.501   4
  -1   2 -17 2590.38 415.296   4
  -1   2 -18 2489.45 425.035   4
  -1   2 -19 692.939 251.100   4
  -1   2 -20 250.552 151.411   4
  -1   2 -21 1143.67 321.008   4
   1  -1 -21 888.469 277.165   4
   1  -1 -20 73.3319 80.1441   4
  -1   1  19 29.5654 30.0793   1
   1  -1 -19 46.7094 43.4066   4
  -1   1  18 74.6785 56.0972   1
   1  -1 -18 209.872 144.415   4
   1  -1 -17 311.440 149.500   4
  -1   1  17 271.603 130.032   1
  -1   1  16 36.1112 40.1436   1
   1  -1 -16 79.8891 79.5083   2
   1  -1 -16 68.6513 89.2831   4
   1  -1 -15 137.153 89.8698   2
   1  -1 -15 158.599 130.661   4
  -1   1  15 2.87200 85.7985   1
  -1   1  14 156.617 97.1916   1
   1  -1 -14 156.951 124.476   4
   1  -1 -14 367.281 118.749   2
  -1   1  13 209.519 93.3886   1
   1  -1 -13 529.675 133.362   2
   1  -1 -13 619.850 185.418   4
   1  -1 -12 622.481 185.974   4
   1  -1 -12 397.394 115.834   2
  -1   1  12 161.297 100.218   1
   1  -1 -11 1262.26 182.479   2
   1  -1 -11 1333.96 240.930   4
  -1   1  11 949.607 197.911   1
   1  -1 -10 917.271 207.923   4
  -1   1  10 772.143 175.073   1
   1  -1 -10 786.909 138.912   2
   1  -1  -9 3980.96 367.740   4
  -1   1   9 3730.28 353.181   1
   1  -1  -9 4094.94 275.133   2
   1  -1  -8 1296.95 202.497   4
  -1   1   8 1209.87 193.280   1
   1  -1  -8 1398.66 153.254   2
   1  -1  -7 559.892 93.8919   2
  -1   1   7 513.214 134.405   1
   1  -1  -7 493.603 122.975   4
  -1   1   6 246.304 86.2085   1
   1  -1  -6 332.332 68.8026   2
   1  -1  -6 171.577 65.4762   4
   1  -1  -5 1284.69 164.065   4
  -1   1   5 1227.87 172.173   1
   1  -1  -5 1224.59 107.727   2
  -1   1   5 1225.60 154.570   5
  -1   1   5 1481.57 175.334   4
  -1   1   4 999.624 140.555   1
  -1   1   4 1210.83 152.429   4
   1  -1  -4 1197.54 145.048   4
   1  -1  -4 1107.77 90.1482   2
  -1   1   4 1242.02 135.984   5
  -1   1   3 2146.88 195.978   1
  -1   1   3 2287.15 187.607   4
   1  -1  -3 2253.17 113.503   2
  -1   1   3 2124.12 108.545   2
   1  -1  -2 1258.25 80.7061   2
   1  -1  -2 1215.39 130.212   1
  -1   1   2 1165.28 131.776   1
  -1   1   2 1196.76 82.7047   2
  -1   1   1 634.262 88.3969   1
   1  -1  -1 735.586 92.0848   1
   1  -1  -1 719.881 64.9019   2
  -1   1   1 655.571 65.4694   2
  -1   1   0 2825.87 146.858   2
  -1   1   0 2757.87 162.681   1
   1  -1   0 2812.34 149.230   2
   1  -1   0 2941.61 172.097   1
  -1   1   0 2903.40 136.741   5
  -1   1  -1 82724.6 900.439   2
   1  -1   1 76452.5 769.854   1
   1  -1   1 83666.1 749.861   5
  -1   1  -1 81864.0 755.395   5
  -1   1  -1 81143.5 791.539   1
  -1   1  -2 22475.6 450.879   5
   1  -1   2 23324.2 445.503   5
   1  -1   2 22905.3 358.074   1
  -1   1  -2 22992.7 555.465   4
  -1   1  -2 22694.1 354.441   1
   1  -1   3 174.684 45.6736   5
  -1   1  -3 173.539 59.4125   4
   1  -1   3 124.567 37.1295   4
  -1   1  -3 134.212 38.2620   5
   1  -1   4 3932.22 262.717   4
  -1   1  -4 4042.40 273.406   4
  -1   1  -4 3629.84 146.875   3
   1  -1   4 3897.54 234.123   5
  -1   1  -4 3698.08 237.320   5
   1  -1   5 973.749 143.487   4
   1  -1   5 991.223 132.150   5
  -1   1  -5 1041.95 162.835   4
  -1   1  -5 906.173 129.352   5
  -1   1  -6 3350.44 275.506   5
   1  -1   6 3369.41 266.830   5
  -1   1  -6 3710.07 299.121   4
  -1   1  -7 2052.00 244.094   4
  -1   1  -7 2017.07 225.276   5
   1  -1   7 2140.53 166.839   3
  -1   1  -8 927.212 177.686   4
   1  -1   8 642.882 65.2526   1
   1  -1   8 666.242 103.456   3
  -1   1  -8 671.744 149.702   5
   1  -1   9 1639.55 117.880   1
   1  -1   9 1726.21 179.456   3
  -1   1  -9 1669.65 236.911   5
  -1   1  -9 1818.43 256.162   4
  -1   1 -10 2289.36 290.863   4
   1  -1  10 1951.62 141.735   1
  -1   1 -10 1960.05 272.477   5
  -1   1 -11 428.185 180.809   4
   1  -1  11 234.094 58.2243   1
  -1   1 -11 246.422 109.842   5
  -1   1 -12-0.91010 36.5781   5
   1  -1  12 53.3171 30.7658   1
  -1   1 -13 260.268 111.003   5
  -1   1 -13 551.956 206.403   4
   1  -1  13 279.638 68.1062   1
  -1   1 -14 598.618 216.592   4
   1  -1  14 409.850 84.1523   1
  -1   1 -14 739.048 205.470   5
  -1   1 -15 750.086 218.862   4
  -1   1 -15 572.147 185.495   5
  -1   1 -16 1579.82 311.454   4
  -1   1 -16 1594.23 315.319   5
  -1   1 -17 769.702 237.892   4
  -1   1 -17 392.582 156.436   5
  -1   1 -18 249.948 167.938   4
  -1   1 -19 359.596 172.719   4
  -1   1 -20 1616.92 351.189   4
  -1   1 -21 2986.68 492.537   4
  -1   1 -22 306.991 185.167   4
   1   0 -21 112.274 120.178   4
   1   0 -20 41.4142 105.438   4
   1   0 -19 783.952 257.852   4
  -1   0  18 1578.55 289.309   1
   1   0 -18 1773.97 360.626   4
  -1   0  17 1478.91 272.327   1
   1   0 -17 1190.79 291.084   4
   1   0 -16 464.979 195.968   4
  -1   0  16 103.226 78.9089   1
  -1   0  15 443.050 144.290   1
   1   0 -15 736.881 219.522   4
   1   0 -14 542.151 197.750   4
  -1   0  14 84.3026 66.8917   1
   1   0 -13 304.734 150.721   4
  -1   0  13 27.0740 60.0722   1
  -1   0  12 312.416 117.704   1
   1   0 -12 482.989 179.804   4
  -1   0  11 213.104 92.2856   1
   1   0 -11 612.810 180.995   4
  -1   0  10 2745.17 295.124   1
   1   0 -10 3071.38 351.917   4
   1   0  -9 4027.92 378.103   4
  -1   0   9 3763.25 330.392   1
   1   0  -8 787.908 170.305   4
  -1   0   8 477.925 114.536   1
   1   0  -7 422.192 124.038   4
  -1   0   7 310.553 88.8967   1
   1   0  -6 4665.23 305.610   1
   1   0  -6 4506.21 337.547   4
  -1   0   6 4087.70 298.598   1
   1   0  -5 1548.01 183.597   4
  -1   0   5 1502.15 174.798   4
   1   0  -5 1598.24 169.085   1
  -1   0   5 1182.05 149.845   1
   1   0  -4 6355.63 334.776   4
   1   0  -4 6622.37 317.507   1
  -1   0   4 6826.85 331.381   4
  -1   0   4 6137.12 324.611   1
   1   0  -3 5177.67 265.460   1
  -1   0   3 4952.08 272.451   1
   1   0  -3 4874.12 269.256   4
  -1   0   3 5113.20 264.666   4
   1   0  -2 4374.49 224.757   1
  -1   0   2 4480.70 228.086   4
   1   0  -2 4353.55 229.491   4
  -1   0   2 4284.77 231.503   1
  -1   0   1 19114.6 433.354   4
  -1   0   1 19149.4 445.696   1
  -1   0   1 19643.6 419.864   3
   1   0  -1 19178.6 440.115   1
  -1   0   0 13624.9 342.611   1
  -1   0   0 14171.3 296.001   3
   1   0   0 13887.9 341.606   1
  -1   0   0 13971.1 344.807   5
  -1   0  -1 54.9551 24.9625   5
   1   0   1 22.1787 18.4171   1
  -1   0  -1 40.7303 21.1595   1
   1   0   1 60.4820 21.7152   5
  -1   0  -2 4492.59 215.155   5
   1   0   2 4378.54 161.471   1
   1   0   2 4511.03 212.195   5
  -1   0  -2 4359.95 202.829   4
  -1   0  -2 4354.58 163.866   1
   1   0   3 1296.65 87.5692   1
   1   0   3 1264.55 122.093   5
  -1   0  -3 1203.81 123.811   5
   1   0   3 1229.32 119.156   4
  -1   0  -3 1242.36 123.728   4
   1   0   4 2112.43 178.803   5
  -1   0  -4 2006.21 178.836   5
   1   0   4 2062.83 165.929   4
  -1   0  -4 1922.01 174.651   4
  -1   0  -5 776.566 123.934   5
   1   0   5 758.241 115.418   4
  -1   0  -5 871.208 135.111   4
   1   0   5 702.338 115.594   5
  -1   0  -6 125.648 84.2504   4
   1   0   6 68.1196 52.3037   5
   1   0   6 90.9194 71.1435   4
  -1   0  -6 0.88092 48.8632   5
  -1   0  -7 3183.66 291.727   5
  -1   0  -7 3394.84 282.652   4
  -1   0  -8 2639.87 270.515   4
  -1   0  -8 2522.44 275.695   5
   1   0   9 12.0407 20.2806   1
  -1   0  -9 4.21728 44.8841   5
   1   0  10 30.2803 34.5328   1
  -1   0 -10 39.9845 51.9781   5
  -1   0 -11 198.273 99.3813   5
   1   0  11 180.786 63.7294   1
   1   0  12 272.907 79.8931   1
  -1   0 -12 616.099 179.261   4
  -1   0 -12 304.795 124.523   5
   1   0  13 87.4876 48.4645   1
  -1   0 -13 88.8977 85.8644   5
   1   0  14 425.800 113.804   1
  -1   0 -14 398.292 136.791   5
  -1   0 -14 754.974 203.002   4
  -1   0 -15 30.5615 50.4316   5
   1   0  15 27.6794 35.6473   1
   1   0  16 0.52543 27.0433   1
  -1   0 -16 37.8530 52.6030   5
  -1   0 -17 182.877 117.230   5
  -1   0 -17 326.481 181.478   4
  -1   0 -18-6.11455 68.8004   5
  -1   0 -18 372.373 181.447   4
  -1   0 -19 399.823 193.386   4
  -1   0 -20 2004.32 381.689   4
  -1   0 -21 669.216 255.098   4
  -1   0 -22 422.526 214.964   4
   1   1 -21 238.623 186.188   4
   1   1 -20 352.670 172.603   4
   1   1 -19 387.323 194.522   4
   1   1 -18 790.243 261.435   4
  -1  -1  17 71.4759 52.1545   1
   1   1 -17 15.7678 101.826   4
  -1  -1  16 326.027 134.595   1
   1   1 -16 717.160 239.367   4
  -1  -1  15 621.038 160.458   1
   1   1 -15 827.490 232.325   4
   1   1 -14 173.574 114.081   4
  -1  -1  14 32.1153 63.2053   1
   1   1 -13 386.493 174.132   4
  -1  -1  13 166.722 91.9407   1
   1   1 -12 642.968 201.035   4
  -1  -1  12 465.635 133.186   1
   1   1 -11 765.152 202.154   4
  -1  -1  11 382.278 108.611   1
  -1  -1  10 41.7401 60.9182   1
   1   1 -10 332.557 145.088   4
   1   1  -9 3477.02 354.570   4
  -1  -1   9 3499.72 306.135   1
   1   1  -8 3775.98 342.113   4
  -1  -1   8 3810.06 304.501   1
   1   1  -8 4115.70 277.748   2
   1   1  -7 8436.06 487.472   4
   1   1  -7 9368.95 431.554   1
   1   1  -7 8766.78 377.653   2
  -1  -1   7 8507.26 435.589   1
   1   1  -6 9660.38 423.374   1
  -1  -1   6 9851.39 443.792   1
   1   1  -6 9505.87 476.749   4
   1   1  -6 9852.50 369.948   2
   1   1  -5 507.323 92.8018   1
  -1  -1   5 519.864 113.094   4
   1   1  -5 399.124 71.3486   2
  -1  -1   5 351.428 85.6256   3
   1   1  -5 639.270 131.025   4
  -1  -1   5 393.005 90.2274   1
   1   1  -4 5074.74 226.330   2
   1   1  -4 5061.25 299.546   4
   1   1  -4 5184.09 279.643   1
  -1  -1   4 5123.38 285.623   1
  -1  -1   4 5212.95 292.858   4
   1   1  -4 4823.32 305.925   3
  -1  -1   4 5258.19 307.853   3
   1   1  -3 6746.03 301.079   1
   1   1  -3 6283.36 300.974   4
  -1  -1   3 6130.40 293.976   1
  -1  -1   3 6329.21 310.170   3
  -1  -1   3 6391.73 291.819   4
   1   1  -3 6337.46 230.886   2
   1   1  -3 6358.10 324.990   3
  -1  -1   3 5976.46 227.988   2
   1   1  -2 2309.45 176.017   3
   1   1  -2 2272.20 164.659   1
  -1  -1   2 2444.86 162.730   4
   1   1  -2 2027.39 126.867   2
  -1  -1   2 2192.67 129.985   2
  -1  -1   2 2202.34 166.751   1
   1   1  -2 2404.63 170.175   4
   1   1  -1 99.1970 29.0599   2
  -1  -1   1 111.773 31.8454   2
   1   1  -1 92.1459 35.6354   4
  -1  -1   1 99.6140 44.8943   1
   1   1  -1 112.804 43.7250   1
  -1  -1   1 158.880 44.8592   4
  -1  -1   0 5332.23 237.080   1
  -1  -1   0 5309.08 209.941   2
  -1  -1   0 5154.67 238.076   5
   1   1   0 5364.33 233.863   1
  -1  -1   0 5066.24 176.808   4
   1   1   0 5429.41 210.310   2
   1   1   1 2194.91 148.867   1
  -1  -1  -1 2112.51 151.772   5
   1   1   1 2150.58 145.895   2
   1   1   1 2241.35 151.949   5
  -1  -1  -1 2106.64 150.313   1
  -1  -1  -1 2085.93 142.443   2
  -1  -1  -2 20353.2 489.719   5
  -1  -1  -2 19938.5 484.782   2
  -1  -1  -2 20712.3 337.984   4
   1   1   2 20793.5 483.250   5
   1   1   2 20754.2 467.342   1
   1   1   3 11967.5 295.567   4
  -1  -1  -3 11237.1 393.595   5
   1   1   3 11925.6 390.904   5
  -1  -1  -3 11833.6 297.965   4
  -1  -1  -4 204954. 1844.93   5
   1   1   4 210994. 1792.32   5
   1   1   4 206997. 1425.56   4
  -1  -1  -4 206668. 1462.56   4
  -1  -1  -5 50350.7 804.429   4
   1   1   5 50929.2 957.801   5
  -1  -1  -5 49606.1 992.734   5
   1   1   5 50209.7 802.774   4
   1   1   6 8083.35 359.121   4
   1   1   6 8034.26 412.908   5
  -1  -1  -6 7795.23 425.481   5
  -1  -1  -6 7591.50 350.601   4
   1   1   7 555.770 110.413   4
  -1  -1  -7 478.601 110.993   4
  -1  -1  -7 430.932 113.460   5
  -1  -1  -8 901.144 156.343   4
  -1  -1  -8 746.631 148.039   5
  -1  -1  -9 14.2001 28.0997   5
  -1  -1  -9 196.308 95.0854   4
  -1  -1 -10 832.013 167.331   4
  -1  -1 -10 487.365 137.865   5
  -1  -1 -11 555.682 166.658   4
  -1  -1 -11 179.747 88.2952   5
  -1  -1 -12 678.429 176.800   4
  -1  -1 -12 484.007 162.868   5
   1   1  12 360.474 104.785   1
   1   1  13 39.5432 30.5115   1
  -1  -1 -13 6.59261 61.5877   5
  -1  -1 -14 715.038 189.160   4
  -1  -1 -14 399.333 148.532   5
   1   1  14 318.135 116.729   1
  -1  -1 -15 508.354 185.230   5
   1   1  15 280.768 110.050   1
  -1  -1 -15 513.055 174.406   4
  -1  -1 -16 436.015 181.257   4
  -1  -1 -16 138.502 86.9981   5
   1   1  16 280.393 120.885   1
  -1  -1 -17 859.304 234.355   4
  -1  -1 -17 741.678 222.809   5
   1   1  17 656.965 165.345   1
  -1  -1 -18 82.2565 89.4312   5
  -1  -1 -18 601.222 203.753   4
  -1  -1 -19 370.123 166.454   5
  -1  -1 -19 660.890 223.386   4
  -1  -1 -20 204.191 146.348   4
  -1  -1 -20 240.001 147.662   2
  -1  -1 -21 276.356 171.281   4
  -1  -1 -21 238.944 161.578   2
  -1  -1 -22 137.929 114.284   4
  -1  -1 -22 198.875 127.783   2
   1   2 -20 473.522 211.098   4
   1   2 -19 306.269 193.709   4
   1   2 -18 322.463 177.021   4
   1   2 -17 388.444 178.226   4
  -1  -2  16 175.870 106.743   1
   1   2 -16 276.003 166.339   4
  -1  -2  15 1860.46 260.784   1
   1   2 -15 2199.36 370.314   4
   1   2 -14 1130.11 280.446   4
  -1  -2  14 906.764 173.775   1
   1   2 -13 1993.90 327.914   4
  -1  -2  13 1853.74 249.792   1
   1   2 -12 864.773 244.774   4
  -1  -2  12 575.042 136.388   1
  -1  -2  11 124.330 67.5226   1
   1   2 -11 428.920 168.237   4
   1   2 -10 991.034 219.994   4
  -1  -2  10 680.107 136.741   1
   1   2  -9 1236.37 240.378   4
  -1  -2   9 1175.31 170.144   1
  -1  -2   8 62.0298 55.3423   1
   1   2  -8 149.131 123.517   4
  -1  -2   7 3230.89 259.719   1
   1   2  -7 3060.17 301.549   3
   1   2  -7 3134.55 252.426   1
   1   2  -7 3133.53 256.739   2
   1   2  -7 3233.72 317.056   4
   1   2  -6 3343.90 252.701   1
  -1  -2   6 3573.77 260.654   1
   1   2  -6 3564.15 305.428   4
   1   2  -6 3263.00 251.806   2
   1   2  -6 3457.93 306.702   3
  -1  -2   5 2929.72 226.595   1
   1   2  -5 2947.65 260.247   4
   1   2  -5 2933.19 228.268   1
   1   2  -5 2916.75 227.594   2
   1   2  -5 2936.68 272.033   3
  -1  -2   5 2656.45 220.827   2
  -1  -2   4 1367.82 153.697   1
  -1  -2   4 1623.04 171.301   4
  -1  -2   4 1337.35 150.172   2
   1   2  -4 1469.49 170.891   4
   1   2  -4 1403.88 148.410   2
   1   2  -4 1313.46 171.581   3
   1   2  -4 1283.90 144.846   1
  -1  -2   3 2165.01 189.002   1
  -1  -2   3 2166.49 175.156   4
   1   2  -3 2090.25 175.518   2
  -1  -2   3 2053.39 179.762   2
   1   2  -3 1992.18 173.885   1
   1   2  -3 2218.80 185.318   4
   1   2  -2 5766.39 289.294   1
  -1  -2   2 5903.61 301.346   1
   1   2  -2 5947.97 286.132   2
  -1  -2   2 5932.23 255.374   4
  -1  -2   2 5628.97 287.512   2
   1   2  -2 5625.41 258.902   4
  -1  -2   1 4019.76 247.452   1
   1   2  -1 4007.22 233.277   2
   1   2  -1 3964.73 186.306   4
  -1  -2   1 3984.34 242.003   2
   1   2  -1 4019.04 244.340   1
  -1  -2   1 4061.56 180.997   4
  -1  -2   0 12519.3 429.624   2
  -1  -2   0 12475.6 403.917   5
  -1  -2   0 12611.6 249.105   4
   1   2   0 12630.1 431.331   1
   1   2   0 12970.6 419.033   2
   1   2   0 12316.5 251.575   4
  -1  -2  -1 29.8233 29.7013   2
   1   2   1-15.6980 29.6755   1
   1   2   1 37.8434 27.5549   5
   1   2   1 10.1895 21.3906   2
  -1  -2  -1-19.7249 29.6157   5
  -1  -2  -2 5536.43 274.025   5
   1   2   2 5477.87 286.351   2
   1   2   2 5530.68 267.492   5
  -1  -2  -2 5118.75 291.172   2
   1   2   3 18841.1 519.001   5
  -1  -2  -3 17990.7 574.406   2
  -1  -2  -3 17968.0 259.861   4
  -1  -2  -3 18530.7 527.676   5
   1   2   3 18990.4 559.038   2
   1   2   3 17650.2 268.902   4
   1   2   4 8638.90 244.483   4
  -1  -2  -4 8521.38 240.860   4
   1   2   4 8839.45 402.203   2
  -1  -2  -4 8294.02 415.877   2
   1   2   4 8817.09 380.309   5
  -1  -2  -4 8741.99 395.473   5
  -1  -2  -5 2243.64 215.280   5
  -1  -2  -5 2321.95 232.225   2
  -1  -2  -5 2313.19 155.908   4
   1   2   5 2149.94 158.896   4
   1   2   5 2460.97 217.646   5
  -1  -2  -6 68.7678 72.9375   2
  -1  -2  -6 112.824 66.7809   4
   1   2   6 107.398 52.7667   4
  -1  -2  -6 12.8071 33.4210   5
  -1  -2  -7 382.940 99.1146   4
   1   2   7 174.519 75.2278   4
  -1  -2  -7 222.254 76.4582   5
  -1  -2  -7 321.684 127.746   2
  -1  -2  -8 2875.79 242.271   4
  -1  -2  -8 2925.18 299.718   2
  -1  -2  -8 2731.52 290.842   5
   1   2   8 1839.61 193.060   4
  -1  -2  -9 410.455 132.648   2
  -1  -2  -9 326.877 118.697   4
  -1  -2  -9 264.404 108.851   5
  -1  -2 -10 215.250 114.506   2
  -1  -2 -10 62.9755 56.0061   5
  -1  -2 -10 237.643 103.213   4
  -1  -2 -11 2975.86 342.201   2
  -1  -2 -11 2904.72 312.112   4
  -1  -2 -11 2686.25 338.123   5
  -1  -2 -12 450.135 141.640   5
  -1  -2 -12 810.015 184.760   4
  -1  -2 -12 657.318 187.001   2
  -1  -2 -13 821.958 204.451   2
  -1  -2 -13 675.033 173.326   4
  -1  -2 -13 473.674 156.769   5
  -1  -2 -14 491.999 149.722   4
  -1  -2 -14 293.245 120.981   5
  -1  -2 -14 480.840 172.589   2
   1   2  14 278.133 123.353   1
  -1  -2 -15 433.675 169.727   2
  -1  -2 -15 252.088 104.799   5
  -1  -2 -15 371.987 159.529   4
   1   2  15 220.612 94.0251   1
   1   2  16 192.988 103.703   1
  -1  -2 -16 379.794 160.607   4
  -1  -2 -16 334.507 152.103   2
  -1  -2 -16 63.8541 72.8794   5
  -1  -2 -17 497.919 182.840   2
   1   2  17 300.751 129.061   1
  -1  -2 -17 604.487 194.522   4
  -1  -2 -17 335.163 146.578   5
  -1  -2 -18 719.328 258.086   5
   1   2  18 582.552 171.099   1
  -1  -2 -18 1010.65 252.302   4
  -1  -2 -18 762.966 224.409   2
  -1  -2 -19 265.890 160.538   4
  -1  -2 -19 134.506 122.023   2
  -1  -2 -19 7.19920 46.4841   5
  -1  -2 -20 109.634 123.341   2
  -1  -2 -20 252.923 164.511   4
  -1  -2 -21 238.003 163.081   4
  -1  -2 -21 279.607 172.507   2
  -1  -2 -22 130.045 119.298   4
   1   3 -20 434.777 209.456   4
   1   3 -19 559.164 231.348   4
   1   3 -18 662.593 253.530   4
   1   3 -17 354.704 183.099   4
   1   3 -16 336.957 165.893   4
  -1  -3  15 634.066 149.214   1
   1   3 -15 789.634 240.192   4
   1   3 -14 348.341 191.676   4
  -1  -3  14 95.1881 75.0619   1
  -1  -3  13 2579.51 281.372   1
   1   3 -13 2919.45 402.452   4
   1   3 -12 6270.36 565.183   4
  -1  -3  12 6858.73 445.514   1
  -1  -3  11-36.2164 46.4131   1
   1   3 -11 402.968 190.389   4
  -1  -3  10 219.134 83.9764   1
   1   3 -10 379.401 149.942   4
   1   3 -10 238.402 104.307   3
   1   3  -9 47.0972 61.7468   3
  -1  -3   9 81.4875 63.1102   1
   1   3  -8 1155.91 212.867   4
  -1  -3   8 708.536 128.866   1
   1   3  -8 614.298 142.360   3
   1   3  -7 239.829 122.900   4
  -1  -3   7 121.716 65.0614   2
   1   3  -7 87.7217 66.8770   3
  -1  -3   7 50.3605 41.9026   1
   1   3  -6 2886.30 242.998   1
   1   3  -6 3003.18 289.012   4
  -1  -3   6 2853.07 277.692   2
   1   3  -6 3003.60 303.198   3
  -1  -3   6 3218.41 261.895   1
  -1  -3   5 1594.08 182.076   1
   1   3  -5 1424.23 166.346   1
  -1  -3   5 1295.13 184.852   2
   1   3  -5 1478.56 197.809   4
   1   3  -4 486.103 111.045   4
  -1  -3   4 320.033 89.1471   2
   1   3  -4 378.572 87.5208   1
  -1  -3   4 376.259 101.530   4
  -1  -3   4 352.733 91.5354   1
   1   3  -3 2819.84 231.589   1
  -1  -3   3 3125.02 243.687   4
   1   3  -3 2926.43 250.486   2
   1   3  -3 2710.80 214.419   4
  -1  -3   3 2666.81 247.896   2
  -1  -3   3 2813.55 234.379   1
   1   3  -2 1779.68 159.937   4
   1   3  -2 2017.05 204.903   2
   1   3  -2 1934.48 193.499   1
  -1  -3   2 1742.15 160.027   4
  -1  -3   2 1961.45 209.358   2
  -1  -3   1 212.446 53.8741   4
   1   3  -1 138.792 61.3058   2
   1   3  -1 195.767 60.7187   4
   1   3  -1 146.054 61.0850   1
  -1  -3   1 181.727 62.0846   2
  -1  -3   0 27.4064 40.0391   5
   1   3   0 114.095 57.4315   2
   1   3   0 101.296 40.6818   4
  -1  -3   0 27.1129 29.1429   2
   1   3   0 24.1182 28.4198   1
  -1  -3   0 49.0985 20.2532   4
  -1  -3  -1 894.181 115.938   5
  -1  -3  -1 827.655 141.600   2
   1   3   1 836.449 132.088   2
  -1  -3  -2 159.582 63.2616   2
   1   3   2 190.480 53.0065   5
  -1  -3  -2 225.887 61.5916   5
   1   3   2 227.399 77.7143   2
  -1  -3  -3 63.8088 49.8288   2
   1   3   3 35.3927 32.8719   5
  -1  -3  -3 7.87878 15.6071   5
   1   3   4-5.51371 25.8597   5
   1   3   4 88.7006 28.7613   4
  -1  -3  -4 5.77287 37.5970   5
  -1  -3  -4 82.5311 55.4688   2
  -1  -3  -5 3889.17 289.056   5
   1   3   5 4148.11 286.097   5
   1   3   5 4134.06 181.062   4
  -1  -3  -5 4069.48 327.352   2
  -1  -3  -5 3933.38 183.253   4
  -1  -3  -6 15721.9 620.707   5
  -1  -3  -6 15772.1 429.703   4
   1   3   6 16044.3 427.664   4
  -1  -3  -6 15626.0 667.735   2
   1   3   7 55751.0 893.264   4
  -1  -3  -7 56514.5 915.907   4
  -1  -3  -7 56881.4 1314.36   2
  -1  -3  -7 56899.9 1250.43   5
  -1  -3  -8 6169.93 338.444   4
  -1  -3  -8 5949.88 448.496   2
  -1  -3  -8 6386.67 447.801   5
   1   3   8 6441.19 337.566   4
  -1  -3  -9 2602.67 312.804   2
  -1  -3  -9 2711.20 311.748   5
  -1  -3  -9 2748.00 253.203   4
  -1  -3 -10 382.663 118.086   4
  -1  -3 -10 378.314 146.922   2
  -1  -3 -10 235.666 100.494   5
  -1  -3 -11 499.013 143.226   4
  -1  -3 -11 338.329 124.056   5
  -1  -3 -11 453.506 157.577   2
  -1  -3 -12 142.129 90.9391   4
  -1  -3 -12 154.686 103.056   2
  -1  -3 -12-0.80986 42.2923   5
  -1  -3 -13 463.645 152.893   2
  -1  -3 -13 295.195 108.280   5
  -1  -3 -13 709.141 178.736   4
  -1  -3 -14 95.3398 79.1606   2
  -1  -3 -14-9.79061 39.5608   5
  -1  -3 -15 98.8119 105.139   2
  -1  -3 -15 262.499 128.135   4
  -1  -3 -15 0.74974 53.7248   5
   1   3  16 88.4811 75.6797   1
  -1  -3 -16-47.7951 104.561   5
  -1  -3 -16 130.983 118.445   2
  -1  -3 -16 279.425 142.584   4
  -1  -3 -17 354.568 154.875   4
  -1  -3 -17 457.592 181.665   2
  -1  -3 -17 142.097 97.6596   5
   1   3  17 301.696 140.941   1
   1   3  18 1234.65 267.808   1
  -1  -3 -18 1535.50 327.561   5
  -1  -3 -18 1286.12 269.935   4
  -1  -3 -18 1434.67 299.006   2
  -1  -3 -19 244.721 138.551   2
  -1  -3 -19 203.790 153.928   5
   1   3  19 180.538 116.039   1
  -1  -3 -19 260.442 141.591   4
  -1  -3 -20 103.816 85.5980   5
  -1  -3 -20 90.8302 77.2772   4
  -1  -3 -21 117.794 129.405   4
  -1  -3 -21 69.5690 97.9408   2
   1   4 -19 412.776 196.741   4
   1   4 -18 376.926 192.256   4
   1   4 -17 417.064 195.586   4
   1   4 -16 294.276 164.069   4
   1   4 -15 231.635 156.666   4
   1   4 -14 444.094 195.537   4
   1   4 -13 452.895 174.840   4
  -1  -4  13 156.098 69.7257   1
  -1  -4  12 3671.58 326.209   1
   1   4 -12 3806.36 450.408   4
   1   4 -11 3366.55 402.632   3
   1   4 -11 3338.64 411.282   4
  -1  -4  11 3711.34 323.789   1
   1   4 -10 914.389 237.575   4
  -1  -4  10 673.471 134.128   1
   1   4 -10 703.995 182.065   3
   1   4  -9 3862.22 402.263   3
   1   4  -9 3917.75 395.877   4
  -1  -4   9 3793.12 317.609   1
   1   4  -8 1633.18 249.913   4
  -1  -4   8 1290.86 224.901   2
  -1  -4   8 1518.21 195.333   1
   1   4  -8 1332.35 233.825   3
  -1  -4   7 286.347 94.3539   1
  -1  -4   7 216.299 90.8079   2
   1   4  -7 552.766 149.671   4
   1   4  -7 225.330 98.1646   3
  -1  -4   6 96.9434 60.7565   2
  -1  -4   6-24.1452 47.6759   1
  -1  -4   5 1321.30 205.457   2
   1   4  -5 1345.40 188.920   4
  -1  -4   4 1409.21 205.724   2
   1   4  -4 1576.78 194.512   4
  -1  -4   3 971.350 135.936   4
  -1  -4   3 780.528 153.790   2
   1   4  -3 895.092 140.676   4
  -1  -4   2 19.8772 35.8190   2
   1   4  -2 109.880 63.5881   4
  -1  -4   2 4.67385 29.4094   4
   1   4  -1 93.3983 48.4843   4
  -1  -4   1 50.6211 30.2293   4
  -1  -4   1 49.2164 69.8050   2
   1   4   0 315.098 58.3986   4
  -1  -4   0 300.703 100.843   2
  -1  -4   0 307.964 75.5214   5
  -1  -4   0 266.423 52.3313   4
   1   4   1 288.317 44.8932   4
  -1  -4  -1 177.997 73.7435   2
  -1  -4  -1 261.580 66.5795   5
  -1  -4  -2 309.138 77.4852   5
  -1  -4  -2 314.239 108.067   2
   1   4   2 129.555 31.3767   4
   1   4   2 303.832 68.6988   5
   1   4   3 813.768 122.169   5
  -1  -4  -3 799.839 167.772   2
  -1  -4  -3 770.467 118.453   5
   1   4   4 2610.80 219.950   5
  -1  -4  -4 2559.55 225.339   5
   1   4   4 2589.29 110.375   4
  -1  -4  -4 2521.29 282.753   2
  -1  -4  -5 578.198 140.055   2
   1   4   5 553.583 65.6074   4
  -1  -4  -5 551.022 112.231   5
  -1  -4  -6 101.516 67.1244   2
  -1  -4  -6 55.1625 43.4676   5
   1   4   6 148.552 46.7563   4
  -1  -4  -7 16.9044 24.3554   2
  -1  -4  -7-20.4331 32.8932   5
   1   4   8 619.645 101.596   4
  -1  -4  -8 475.861 138.433   2
  -1  -4  -8 415.415 85.5025   4
  -1  -4  -8 453.056 120.521   5
   1   4   9 180.173 66.8686   4
  -1  -4  -9 233.818 110.277   2
  -1  -4  -9 125.893 75.7787   5
  -1  -4  -9 32.4150 29.5206   4
  -1  -4 -10 978.126 196.591   5
  -1  -4 -10 1041.22 220.114   2
  -1  -4 -10 913.389 149.361   4
  -1  -4 -11 2059.57 308.147   2
  -1  -4 -11 2258.36 250.350   4
  -1  -4 -11 2476.71 323.135   5
  -1  -4 -12 1223.21 247.718   2
  -1  -4 -12 1301.99 246.674   5
  -1  -4 -12 1211.96 201.129   4
  -1  -4 -13 156.701 107.305   2
  -1  -4 -13 215.569 92.7279   4
  -1  -4 -13 183.525 111.347   5
  -1  -4 -14 113.906 67.0961   4
  -1  -4 -14 136.746 96.9517   2
  -1  -4 -14 167.425 103.764   5
  -1  -4 -15 179.940 113.406   2
  -1  -4 -15-18.5172 30.4486   4
  -1  -4 -15 79.2414 80.5785   5
  -1  -4 -16 51.3644 53.4657   2
  -1  -4 -16-50.3756 80.5550   5
  -1  -4 -16 41.7402 59.6352   4
  -1  -4 -17 204.750 128.954   2
   1   4  17 193.130 109.795   1
  -1  -4 -17 155.888 117.840   5
  -1  -4 -17 171.056 97.2418   4
  -1  -4 -18-28.5592 49.0115   2
  -1  -4 -18 51.3488 73.6450   4
   1   4  18-25.7397 72.5331   1
  -1  -4 -18 115.314 82.3751   5
  -1  -4 -19 42.8404 64.7564   2
  -1  -4 -19-86.1726 83.1921   5
   1   4  19-103.185 85.3472   1
  -1  -4 -20 218.179 140.946   2
  -1  -4 -20 9.80340 80.6715   5
   1   5 -19 321.501 222.437   4
   1   5 -18 342.439 218.090   4
   1   5 -17 555.220 223.558   4
   1   5 -16 428.777 200.086   4
   1   5 -15 1742.12 346.190   4
   1   5 -14 630.767 212.045   4
   1   5 -13 120.130 103.135   3
   1   5 -13 576.855 198.584   4
   1   5 -12 339.466 161.880   4
   1   5 -12 16.1883 36.6686   3
   1   5 -11 922.146 237.347   4
   1   5 -11 635.073 189.571   3
   1   5 -10 11928.3 769.821   3
   1   5 -10 11604.7 735.388   4
   1   5  -9 9271.24 627.692   4
   1   5  -9 9166.50 655.624   3
  -1  -5   8 537.297 160.296   2
   1   5  -8 444.402 148.786   3
   1   5  -8 947.000 226.161   4
   1   5  -7 357.239 151.937   4
  -1  -5   7 93.1549 68.0581   2
   1   5  -6 685.310 176.477   4
  -1  -5   6 556.520 158.168   2
  -1  -5   5 2100.16 286.019   2
   1   5  -5 2268.29 252.422   4
  -1  -5   4 1563.49 247.813   2
   1   5  -4 2565.86 255.431   4
  -1  -5   3 1791.52 264.538   2
   1   5  -3 2114.21 216.504   4
  -1  -5   2 609.145 109.329   4
   1   5  -2 917.541 136.909   4
  -1  -5   2 628.783 160.092   2
   1   5  -1 205.679 63.8456   4
  -1  -5   1 144.751 89.1916   2
  -1  -5   1 163.787 49.9195   4
  -1  -5   1 178.742 71.1436   5
  -1  -5   0 942.160 185.212   2
   1   5   0 894.633 105.295   4
  -1  -5   0 947.373 136.391   5
   1   5   1 3766.51 189.495   4
  -1  -5  -1 4061.21 273.114   5
  -1  -5  -1 4265.39 394.918   2
   1   5   2 534.947 70.9392   4
  -1  -5  -2 469.618 142.800   2
  -1  -5  -2 570.509 106.280   5
   1   5   3 99.4662 27.0900   4
  -1  -5  -3 124.131 83.5482   2
   1   5   3 102.310 49.2553   5
  -1  -5  -3 99.7955 45.1057   5
   1   5   3 152.910 33.6807   4
   1   5   4 1592.98 97.4604   4
  -1  -5  -4 1796.55 259.297   2
   1   5   4 1391.64 92.0920   4
   1   5   4 1831.17 188.883   5
  -1  -5  -4 1797.12 196.901   5
  -1  -5  -5 278.840 113.615   2
  -1  -5  -5 332.270 93.3168   5
   1   5   5 363.703 51.9361   4
  -1  -5  -6 576.841 158.468   2
  -1  -5  -6 498.351 118.301   5
   1   5   6 418.793 66.4272   4
  -1  -5  -7-9.65444 27.6480   2
  -1  -5  -7 41.8508 46.1385   5
  -1  -5  -8 101.605 67.0449   2
   1   5   8 296.366 73.2640   4
  -1  -5  -8 95.9402 56.0610   5
  -1  -5  -9 2192.10 311.534   2
  -1  -5  -9 2280.20 282.572   5
   1   5   9 2698.70 192.579   4
  -1  -5 -10 5527.29 467.297   5
  -1  -5 -10 5056.13 487.001   2
  -1  -5 -11 51.7855 75.0507   2
  -1  -5 -11 14.9730 35.0764   5
  -1  -5 -12 120.656 92.1712   2
  -1  -5 -12 11.8116 60.1628   5
  -1  -5 -13 362.192 115.957   4
  -1  -5 -13 399.699 160.039   2
  -1  -5 -13 261.965 117.435   5
  -1  -5 -14 93.2731 49.3813   4
  -1  -5 -14-10.0304 55.3796   5
  -1  -5 -14 66.1376 65.6348   2
  -1  -5 -15-28.0497 53.2250   5
  -1  -5 -15 172.381 120.351   2
  -1  -5 -16-148.540 90.4841   2
  -1  -5 -16 4.48841 44.6098   5
  -1  -5 -17 0.84650 72.0928   2
   1   5  17-62.7355 97.3506   1
  -1  -5 -17 40.1389 100.272   5
  -1  -5 -18 251.326 127.331   2
   1   5  18 227.073 139.491   1
  -1  -5 -18 366.879 176.630   5
   1   5  19-48.4809 89.0537   1
  -1  -5 -19 244.769 155.238   2
  -1  -5 -19 116.089 103.506   5
   1   5  20 167.596 111.771   1
  -1  -5 -20 293.058 149.098   2
   1   6 -18 279.055 192.347   4
   1   6 -17 605.978 230.529   4
   1   6 -16 388.509 201.448   4
   1   6 -15 331.584 161.877   4
   1   6 -14 150.774 99.7633   3
   1   6 -14 527.720 203.379   4
   1   6 -13 482.955 179.696   3
   1   6 -13 809.623 233.783   4
   1   6 -12 427.036 179.921   4
   1   6 -12 3.88037 29.9702   3
   1   6 -11 425.825 166.078   4
   1   6 -11 60.0534 59.8308   3
   1   6 -10 1714.77 309.880   3
   1   6 -10 1864.38 310.401   4
   1   6  -9 29.0170 60.4185   3
  -1  -6   9 144.654 93.6970   2
   1   6  -8 1827.42 283.715   4
  -1  -6   8 1768.56 304.049   2
   1   6  -7 2008.93 280.547   4
  -1  -6   7 1853.75 301.445   2
   1   6  -6 4238.20 383.776   4
  -1  -6   6 3597.56 419.281   2
   1   6  -5 1288.68 209.047   4
  -1  -6   5 1145.09 231.580   2
   1   6  -4 1703.09 220.174   4
  -1  -6   4 1405.50 252.287   2
   1   6  -3 2095.98 227.989   4
  -1  -6   3 1826.13 293.449   2
  -1  -6   2 13.1096 32.8488   5
   1   6  -2 156.047 81.8938   4
  -1  -6   2 91.1024 64.1261   2
  -1  -6   1 240.749 97.4109   2
   1   6  -1 355.515 86.2676   4
  -1  -6   1 276.935 84.3785   5
  -1  -6   0 30.5538 28.4838   5
   1   6   0 106.775 56.4516   4
  -1  -6   0 41.2357 78.0928   2
   1   6   1 133.062 52.5846   4
  -1  -6  -1 65.6423 69.5670   2
  -1  -6  -1 29.8599 32.7429   5
  -1  -6  -2 460.712 95.3408   5
   1   6   2 352.465 67.6393   4
  -1  -6  -2 680.336 171.025   2
   1   6   3 227.638 47.7542   4
   1   6   3 42.1979 18.2559   4
  -1  -6  -3 23.9556 55.8865   2
  -1  -6  -3 109.129 50.8427   5
   1   6   4 1568.92 103.043   4
  -1  -6  -4 1684.99 270.081   2
  -1  -6  -4 1601.12 185.908   5
   1   6   4 1522.63 105.534   4
   1   6   5 1289.05 92.2177   4
  -1  -6  -5 1237.09 238.505   2
   1   6   5 1184.16 93.8726   4
  -1  -6  -5 1482.77 187.567   5
  -1  -6  -6 734.469 189.529   2
   1   6   6 692.334 77.9724   4
   1   6   6 557.287 70.7049   4
  -1  -6  -6 649.853 130.376   5
  -1  -6  -7 280.047 90.6068   5
  -1  -6  -7 252.682 111.761   2
   1   6   7 314.547 58.8094   4
  -1  -6  -8 454.831 159.755   2
  -1  -6  -8 365.455 110.785   5
  -1  -6  -9 3601.52 357.291   5
  -1  -6  -9 3346.39 419.051   2
  -1  -6 -10 15.5746 62.9825   2
  -1  -6 -10 99.5758 77.6607   5
  -1  -6 -11 681.403 187.362   2
  -1  -6 -11 692.114 171.993   5
  -1  -6 -12 2958.38 414.320   2
  -1  -6 -12 3538.03 398.084   5
  -1  -6 -13 125.759 55.6127   2
  -1  -6 -13 66.5164 70.5675   5
  -1  -6 -14 21.8070 45.9092   2
  -1  -6 -14 232.558 129.874   5
  -1  -6 -15 252.386 147.183   2
  -1  -6 -15 190.614 102.913   5
  -1  -6 -16 103.720 81.9787   5
  -1  -6 -16 153.922 112.417   2
  -1  -6 -17 103.232 101.292   2
  -1  -6 -17 43.5220 46.8381   5
   1   6  18 131.034 120.275   1
  -1  -6 -18 169.189 133.694   5
  -1  -6 -18 261.129 150.475   2
  -1  -6 -19 43.6412 61.6503   2
   1   6  19-190.580 118.522   1
   1   6  20 109.903 67.1603   1
   1   7 -17 217.165 178.714   4
   1   7 -16 567.006 234.193   4
   1   7 -15 367.204 194.336   4
   1   7 -15 17.5396 55.5062   3
   1   7 -14 1115.74 280.722   4
   1   7 -14 844.218 253.935   3
   1   7 -13 1316.86 301.463   3
   1   7 -13 1614.75 326.748   4
   1   7 -12 350.420 161.169   3
   1   7 -12 513.329 179.882   4
   1   7 -11 297.060 142.122   4
   1   7 -11-125.160 101.474   3
   1   7 -10-26.2201 54.6799   3
   1   7 -10 196.651 124.171   4
   1   7  -9 563.054 184.058   3
   1   7  -9 766.042 215.552   4
  -1  -7   9 818.783 219.929   2
  -1  -7   8 387.537 160.861   2
   1   7  -8 500.227 177.028   4
   1   7  -7 4799.67 444.872   4
  -1  -7   7 5414.67 561.234   2
  -1  -7   6 4173.34 484.316   2
   1   7  -6 3911.78 383.060   4
   1   7  -5 301.615 130.119   4
  -1  -7   5 110.453 82.7409   2
  -1  -7   4 20.9575 52.4605   2
   1   7  -4 250.097 112.292   4
   1   7  -3 1004.14 171.222   4
  -1  -7   3 790.637 143.219   5
  -1  -7   3 835.040 217.840   2
  -1  -7   2-13.0915 29.1504   5
  -1  -7   2-8.33524 53.1354   2
   1   7  -2 111.302 79.9536   4
   1   7  -1 123.832 60.9567   4
  -1  -7   1 42.3211 38.8562   5
  -1  -7   1 89.7890 105.034   2
  -1  -7   0 216.488 111.821   2
   1   7   0 319.180 83.8456   4
  -1  -7   0 134.111 49.9447   5
  -1  -7  -1 1133.92 246.855   2
  -1  -7  -1 1087.68 145.012   5
   1   7   1 1131.51 129.941   4
   1   7   2 1406.71 133.064   4
  -1  -7  -2 1544.36 288.132   2
  -1  -7  -2 1643.70 177.596   5
  -1  -7  -3 730.231 120.560   5
   1   7   3 472.390 74.7442   4
  -1  -7  -3 772.028 200.424   2
   1   7   4 125.090 37.6116   4
  -1  -7  -4 206.232 95.9255   2
  -1  -7  -4 207.565 72.4090   5
  -1  -7  -5 108.199 58.1896   5
  -1  -7  -5 82.3891 57.4360   2
  -1  -7  -6 193.667 65.6057   5
  -1  -7  -6 148.668 85.9687   2
  -1  -7  -7 670.147 183.156   2
  -1  -7  -7 653.103 135.446   5
  -1  -7  -8 759.453 223.808   2
  -1  -7  -8 779.347 163.648   5
  -1  -7  -9 262.282 90.9326   5
  -1  -7  -9 316.212 144.342   2
  -1  -7 -10 6.05703 44.5715   5
  -1  -7 -10 8.81735 61.1467   2
  -1  -7 -11 322.176 156.396   2
  -1  -7 -11 124.379 82.0587   5
  -1  -7 -12 699.742 226.978   2
  -1  -7 -12 705.112 177.580   5
  -1  -7 -13-73.6542 98.5867   2
  -1  -7 -13-13.3997 49.4768   5
  -1  -7 -14-44.7366 52.3171   2
  -1  -7 -15 46.5032 55.0519   2
  -1  -7 -16-104.559 113.479   2
  -1  -7 -17 546.057 212.265   2
  -1  -7 -18-25.4617 43.0936   2
   1   7  18 87.1237 117.661   1
   1   8 -15 185.505 145.042   4
   1   8 -15-43.1078 76.6177   3
   1   8 -14 198.721 133.731   3
   1   8 -14 506.161 225.912   4
   1   8 -13 373.164 190.412   4
   1   8 -13 249.537 150.480   3
   1   8 -12 16.7927 52.5563   3
   1   8 -12 444.985 184.374   4
   1   8 -11 50.5473 71.2505   3
   1   8 -11 350.632 167.017   4
  -1  -8  10 195.110 148.530   2
   1   8 -10 305.674 145.855   4
   1   8 -10 138.632 105.387   3
   1   8  -9 250.092 136.518   4
  -1  -8   9 6.09753 45.2155   2
  -1  -8   8 704.638 214.177   2
   1   8  -8 1103.97 241.507   4
   1   8  -7 2387.84 326.670   4
  -1  -8   7 2688.68 419.181   2
   1   8  -6 375.778 136.415   4
  -1  -8   6 31.7093 71.7739   2
   1   8  -5 226.521 105.969   4
  -1  -8   5 161.260 82.1410   2
   1   8  -4 241.352 111.285   4
  -1  -8   4 74.7594 65.4062   2
   1   8  -3 1117.12 190.832   4
  -1  -8   3 1101.36 263.948   2
   1   8  -2 123.994 87.6017   4
  -1  -8   2 71.3603 72.8281   2
   1   8  -1 242.056 80.7306   4
  -1  -8   1 131.655 91.0741   2
  -1  -8   0 165.147 108.183   2
  -1  -8  -1 114.772 120.409   2
  -1  -8  -2 17.8001 38.6827   2
  -1  -8  -3 115.646 96.7562   2
  -1  -8  -4 59.8351 102.268   2
  -1  -8  -5 91.3259 61.1021   2
  -1  -8  -6 26.5491 48.2081   2
  -1  -8  -7 504.477 175.152   2
  -1  -8  -8 740.466 229.332   2
  -1  -8  -9 894.205 245.869   2
  -1  -8 -10 433.592 172.725   2
  -1  -8 -11 660.924 216.561   2
  -1  -8 -12 90.8724 78.6285   2
  -1  -8 -13 247.073 151.393   2
  -1  -8 -14 38.9004 42.8022   2
  -1  -8 -15 790.066 245.501   2
  -1  -8 -16 226.378 136.662   2
  -1  -8 -17 118.791 86.9879   2
   1   9 -14 481.261 185.301   4
   1   9 -14 157.496 106.712   3
   1   9 -13 758.717 230.107   4
   1   9 -13 389.919 183.152   3
   1   9 -12 194.350 125.524   3
   1   9 -12 471.554 193.896   4
   1   9 -11-59.2515 83.0851   3
   1   9 -11 309.423 150.628   4
  -1  -9  10-11.3292 41.8384   2
   1   9 -10 143.562 98.1121   4
   1   9 -10 13.7445 49.9583   3
  -1  -9   9 844.549 254.313   2
   1   9  -9 825.788 220.342   4
  -1  -9   8 180.134 135.972   2
   1   9  -8 264.559 143.015   4
  -1  -9   7 162.295 127.153   2
  -1  -9   6-21.2471 72.1601   2
  -1  -9   5 352.868 161.047   2
  -1  -9   4 301.023 135.133   2
  -1  -9   3 395.340 176.834   2
  -1  -9   2-25.5209 37.0435   2
  -1  -9   1 158.443 111.850   2
  -1  -9   0 118.518 100.514   2
  -1  -9  -1-20.2862 62.3212   2
  -1  -9  -2 583.413 209.490   2
  -1  -9  -3 34.7218 56.4202   2
  -1  -9  -4 47.9008 120.298   2
  -1  -9  -5 44.0713 63.5081   2
  -1  -9  -6-43.9242 70.0046   2
  -1  -9  -7-18.1130 74.4106   2
  -1  -9  -8 118.121 122.124   2
  -1  -9  -9 23.3989 55.2686   2
  -1  -9 -10 82.7127 92.7503   2
  -1  -9 -11 294.862 162.290   2
  -1  -9 -12 15.1865 52.1616   2
  -1  -9 -13-28.0838 111.908   2
  -1  -9 -14 203.030 128.778   2
  -1  -9 -15 529.972 204.134   2
   1  10 -11 116.790 119.665   3
   1  10 -10 3.63568 34.2399   3
  -1 -10   9 274.189 173.746   2
  -1 -10   8 206.865 160.831   2
  -1 -10   7-47.5291 108.953   2
  -1 -10   6 158.979 130.147   2
  -1 -10   5 1834.15 387.863   2
  -1 -10   4 1691.67 369.981   2
  -1 -10   3 36.7021 67.1487   2
  -1 -10   2 31.2119 111.109   2
  -1 -10   1 1097.78 296.978   2
  -1 -10   0 163.610 126.333   2
  -1 -10  -1 164.186 126.332   2
  -1 -10  -2 492.711 210.389   2
  -1 -10  -3 174.085 135.244   2
  -1 -10  -4 319.780 159.947   2
  -1 -10  -5 245.125 151.230   2
  -1 -10  -6-6.05061 93.6489   2
  -1 -10  -7 124.244 111.014   2
  -1 -10  -8 87.1640 103.151   2
  -1 -10  -9 266.659 167.933   2
  -1 -10 -10 323.975 167.662   2
  -1 -10 -11 146.190 121.151   2
  -1 -11   2 413.527 173.893   2
  -1 -11   1 71.0461 94.7252   2
  -1 -11   0 221.696 165.831   2
  -1 -11  -1-2.18952 84.1238   2
  -1 -11  -2 571.440 234.248   2
  -1 -11  -3 144.590 119.668   2
  -1 -11  -4 491.348 207.498   2
  -1 -11  -5 313.606 190.321   2
  -2  10   6-9.09629 85.4872   1
  -2  10   5 40.2524 68.7356   1
   2 -10  -5-68.6751 86.0464   2
  -2  10   4 422.181 186.739   1
   2 -10  -4 556.747 200.097   2
   2 -10  -3-72.3775 69.2627   2
  -2  10   3 74.3936 49.2822   1
   2 -10  -2 38.4506 36.5574   2
  -2  10   2-102.538 103.120   1
   2 -10  -1 93.3270 72.2921   2
  -2  10   1 27.3555 36.6037   1
  -2  10   0-97.4312 102.370   1
   2 -10   0 19.0115 42.0511   2
   2 -10   1 128.897 97.3045   2
  -2  10  -1 169.204 107.015   1
   2 -10   2 108.586 111.570   2
   2 -10   3 117.644 97.8089   2
   2 -10   4 392.548 195.508   2
  -2  10  -7 786.072 232.743   4
  -2  10  -8 319.700 153.822   4
  -2  10  -9 205.160 126.796   4
  -2   9   9 262.629 183.518   1
  -2   9   8 116.304 102.073   1
   2  -9  -7 24.8795 47.6578   2
  -2   9   7 109.387 110.447   1
  -2   9   6 37.7301 53.1334   1
   2  -9  -6 121.574 102.868   2
  -2   9   5-22.9751 105.726   1
   2  -9  -5 180.837 131.344   2
  -2   9   4 94.2928 65.1856   1
   2  -9  -4-4.20413 51.0041   2
  -2   9   3-60.8135 118.752   1
   2  -9  -3 17.0277 53.1782   2
  -2   9   2-15.0903 40.3761   1
   2  -9  -2 19.3942 42.9115   2
   2  -9  -1-6.55320 44.1312   2
  -2   9   1-41.7976 71.2691   4
   2  -9   0 58.1275 76.3337   2
  -2   9   0-10.4145 39.2018   4
   2  -9   1 88.5461 81.4774   2
  -2   9  -1-70.0490 97.8843   4
   2  -9   2 78.2438 59.3656   2
  -2   9  -2 1.10299 28.2043   4
  -2   9  -3 183.092 122.934   4
   2  -9   3 447.058 196.862   2
  -2   9  -4 284.288 133.869   4
   2  -9   4 185.712 125.179   2
  -2   9  -5 208.652 118.459   4
  -2   9  -6 332.663 157.205   4
  -2   9  -7 139.085 145.804   4
  -2   9  -8 142.660 130.750   4
  -2   9  -9 334.388 181.814   4
  -2   9 -10 759.271 259.334   4
  -2   9 -11 1032.39 280.660   4
  -2   9 -12 519.726 234.787   4
  -2   8  12 358.396 200.592   1
  -2   8  11 11.7740 99.4301   1
  -2   8  10 185.311 153.918   1
  -2   8   9 239.365 178.224   1
   2  -8  -8 20.9631 57.9241   2
  -2   8   8 38.3523 88.6053   1
  -2   8   7 85.3397 64.4723   1
   2  -8  -7 118.925 64.7463   2
   2  -8  -6 4585.10 508.245   2
  -2   8   6 3999.46 547.293   1
  -2   8   5 5589.75 626.912   1
   2  -8  -5 5454.62 552.476   2
  -2   8   4 209.600 121.766   1
  -2   8   4 178.398 101.406   4
   2  -8  -4 270.382 148.511   2
   2  -8  -3 490.277 152.740   2
  -2   8   3 655.330 179.868   4
   2  -8  -2 181.529 101.304   2
  -2   8   2 231.709 116.089   4
   2  -8  -1 52.2748 59.9581   2
  -2   8   1 134.714 106.308   4
   2  -8   0 356.584 143.634   2
  -2   8   0 399.755 135.847   4
   2  -8   1 85.0896 67.9253   2
  -2   8  -1 80.5808 69.8358   4
   2  -8   2 245.581 118.081   2
  -2   8  -2 324.962 135.122   4
  -2   8  -3 763.633 205.361   4
   2  -8   3 884.342 241.931   2
   2  -8   4 1288.17 291.593   2
  -2   8  -4 1231.43 263.473   4
  -2   8  -5 105.669 87.1407   4
  -2   8  -6 285.090 160.492   4
  -2   8  -7 126.046 105.386   4
  -2   8  -8 207.035 124.062   4
  -2   8  -9 432.206 207.776   4
  -2   8 -10 381.665 184.153   4
  -2   8 -11 97.4782 107.742   4
  -2   8 -12 337.202 173.387   4
  -2   8 -13 739.846 248.207   4
  -2   8 -14 2256.29 433.320   4
  -2   7  14-203.347 136.231   1
  -2   7  13-42.2085 79.6968   1
  -2   7  12-86.6287 96.9849   1
  -2   7  11 338.882 176.877   1
  -2   7  10-20.4645 50.3736   1
   2  -7  -9 38.7337 31.5246   2
  -2   7   9 115.713 101.084   1
   2  -7  -8 109.033 81.6686   2
  -2   7   8 0.56538 62.0866   1
  -2   7   7 67.3443 97.6370   1
   2  -7  -7 37.6291 39.5572   2
   2  -7  -6 2724.18 358.322   2
  -2   7   6 2438.61 415.866   1
  -2   7   5 153.206 105.289   1
   2  -7  -5 247.998 107.094   2
  -2   7   4 33.7528 45.0932   1
   2  -7  -4 25.4880 52.9727   2
   2  -7  -3 168.470 110.676   2
  -2   7   2 97.9258 62.9942   4
   2  -7  -2 41.0601 44.6093   2
  -2   7   1 73.0747 70.7973   4
   2  -7  -1-32.7711 43.5362   2
   2  -7   0 37.9241 42.5106   2
  -2   7   0-34.1241 48.6805   4
  -2   7  -1 22.6175 67.0962   4
   2  -7   1 107.355 102.717   2
  -2   7  -2 116.224 83.3979   4
   2  -7   2 115.005 83.6116   2
   2  -7   3 537.608 183.796   2
  -2   7  -3 639.986 174.242   4
  -2   7  -4 127.087 121.189   4
   2  -7   4 140.390 105.438   2
  -2   7  -5 863.975 221.157   4
  -2   7  -6 214.072 125.883   4
  -2   7  -6 189.133 81.8370   1
  -2   7  -7 1213.60 270.085   4
  -2   7  -8 201.553 122.932   4
  -2   7  -9 70.6785 124.245   4
  -2   7 -10 416.521 178.792   4
  -2   7 -11 209.212 149.617   4
  -2   7 -12 449.985 196.289   4
  -2   7 -13 288.544 166.032   4
  -2   7 -14 208.228 160.452   4
  -2   7 -15 208.951 157.124   4
  -2   7 -16 785.664 274.717   4
  -2   6  16 31.3243 88.5989   1
  -2   6  15 117.196 125.869   1
  -2   6  14 684.357 244.869   1
  -2   6  13 45.7893 60.2725   1
  -2   6  12 73.4781 100.960   1
  -2   6  11 180.273 137.757   1
  -2   6  10 258.778 153.345   1
   2  -6 -10 176.408 95.9694   2
   2  -6  -9 28.6748 53.3854   2
  -2   6   9 44.6561 90.2392   1
  -2   6   8 91.8181 76.9630   1
   2  -6  -8 62.5391 63.5940   2
  -2   6   7 54.7464 70.6699   1
   2  -6  -7 31.3096 36.0560   2
  -2   6   6 123.942 65.1932   1
   2  -6  -6 130.544 60.2632   2
   2  -6  -5 141.382 81.9651   2
  -2   6   5 272.883 126.889   1
  -2   6   4 446.849 161.938   1
   2  -6  -4 587.428 145.708   2
  -2   6   3 11460.0 757.931   1
   2  -6  -3 12123.8 703.361   2
   2  -6  -2 9649.05 632.872   2
   2  -6  -1-8.58690 34.6599   2
   2  -6   0 1379.00 240.271   2
  -2   6   0 1472.27 248.091   4
   2  -6   1 2411.34 324.557   2
  -2   6  -1 2042.98 298.355   4
   2  -6   2 3282.34 387.793   2
  -2   6  -2 3259.11 374.260   4
   2  -6   3 454.505 157.635   2
  -2   6  -3 753.055 193.202   4
  -2   6  -4 1418.45 260.724   4
   2  -6   4 1365.40 259.514   2
  -2   6  -5 585.232 130.397   1
  -2   6  -5 655.773 188.291   4
  -2   6  -6 63.0240 72.3051   4
  -2   6  -6-6.20714 26.0095   1
  -2   6  -7 309.758 81.1814   1
  -2   6  -7 465.426 165.375   4
  -2   6  -8 1013.83 261.782   4
  -2   6  -9 269.757 147.390   4
  -2   6 -10 1033.22 264.378   4
  -2   6 -10 908.073 179.188   3
  -2   6 -11 197.811 125.668   4
  -2   6 -12 399.170 200.742   4
  -2   6 -13 518.183 199.099   4
  -2   6 -14 315.954 182.708   4
  -2   6 -15 317.704 176.817   4
  -2   6 -16 308.890 174.059   4
  -2   6 -17 1153.17 318.148   4
  -2   5  18 663.216 250.636   1
  -2   5  17-11.0502 53.2842   1
  -2   5  16 2.63506 72.6856   1
  -2   5  15 60.9148 112.629   1
  -2   5  14 109.147 99.8330   1
  -2   5  13 58.6692 87.6856   1
  -2   5  12 100.470 102.726   1
  -2   5  11-7.76070 48.0545   1
  -2   5  10 20.8974 71.3032   1
   2  -5 -10 35.3526 35.6771   2
  -2   5   9 130.433 106.121   1
   2  -5  -9 25.4408 28.3218   2
  -2   5   8 151.305 104.076   1
   2  -5  -8 232.091 85.9938   2
  -2   5   7-24.8259 38.3315   1
   2  -5  -7-14.0314 34.4674   2
   2  -5  -6 139.478 64.2749   2
  -2   5   6 174.040 93.7928   1
  -2   5   5 943.324 220.431   1
   2  -5  -5 1136.36 188.389   2
  -2   5   5 1004.61 109.690   5
  -2   5   4 1265.52 246.624   1
  -2   5   4 1268.34 103.544   5
   2  -5  -4 1345.48 203.791   2
  -2   5   3-51.7477 76.3248   1
   2  -5  -3 67.7784 62.3368   2
  -2   5   2 593.871 154.575   1
   2  -5  -2 519.023 135.108   2
   2  -5  -1 391.630 124.073   2
  -2   5   1 352.796 104.486   1
  -2   5   0 11.5408 28.8676   1
   2  -5   0 45.9863 52.4440   2
   2  -5   1 190.015 89.3929   2
  -2   5  -1 212.244 76.3784   4
  -2   5  -2 709.351 151.748   1
  -2   5  -2 709.439 163.129   4
   2  -5   2 681.791 160.514   2
  -2   5  -3 1210.16 181.174   1
  -2   5  -3 1202.69 220.867   4
   2  -5   3 943.751 81.7542   5
   2  -5   3 1274.71 226.614   2
  -2   5  -4 703.725 178.662   4
   2  -5   4 632.946 85.6639   5
  -2   5  -4 764.539 137.211   1
   2  -5   5 11.6934 16.4919   5
  -2   5  -5 26.6817 32.3322   1
  -2   5  -5 83.7672 71.4871   4
  -2   5  -6 728.698 113.987   1
  -2   5  -6 1137.11 241.866   4
  -2   5  -7 24.7925 14.0734   1
  -2   5  -7 107.619 37.4797   1
  -2   5  -8 424.152 67.0355   1
  -2   5  -8 506.187 196.650   4
  -2   5  -9 1215.51 267.016   4
  -2   5 -10-13.5716 26.1732   3
  -2   5 -10 160.260 120.315   4
  -2   5 -11 1476.04 312.151   4
  -2   5 -11 1491.88 210.466   3
  -2   5 -12 26.6961 36.2778   3
  -2   5 -12 452.825 191.405   4
  -2   5 -13 265.917 171.609   4
  -2   5 -14 764.057 241.464   4
  -2   5 -15 431.861 207.192   4
  -2   5 -16 598.472 231.819   4
  -2   5 -17 505.145 225.601   4
  -2   5 -18 519.791 226.271   4
  -2   4  19 3979.26 576.861   1
  -2   4  18 459.954 195.516   1
  -2   4  17 139.649 128.546   1
  -2   4  16 204.660 144.237   1
  -2   4  15 123.185 92.3168   1
  -2   4  14 131.585 95.7686   1
  -2   4  13 146.434 123.838   1
  -2   4  12 592.272 188.847   1
  -2   4  11-20.6800 37.0479   1
   2  -4 -11-10.9230 24.0674   2
   2  -4 -10 275.338 90.9510   2
  -2   4  10-53.6233 76.3073   1
   2  -4  -9 308.939 89.4097   2
  -2   4   9 125.475 38.2149   1
   2  -4  -8 1024.08 156.349   2
  -2   4   8 858.995 213.403   1
  -2   4   7 627.869 178.961   1
   2  -4  -7 719.388 130.788   2
  -2   4   6 257.402 104.495   1
   2  -4  -6 183.184 67.9037   2
  -2   4   5 622.473 174.292   1
   2  -4  -5 659.818 128.390   2
  -2   4   5 558.745 93.8389   5
  -2   4   4 47.8237 77.5372   1
   2  -4  -4 70.4407 47.7702   2
  -2   4   4 57.4440 30.6127   5
  -2   4   3 65.7804 25.4160   5
  -2   4   3 30.5439 40.5350   1
   2  -4  -3-9.95749 32.9427   2
  -2   4   2 7.85335 9.26203   5
   2  -4  -2 46.6087 32.9792   2
  -2   4   2-63.8237 58.5978   1
  -2   4   2 9.57413 10.4654   5
  -2   4   1 1759.59 95.1848   5
  -2   4   1 1744.88 233.091   1
  -2   4   1 1588.75 92.0852   5
   2  -4  -1 2001.68 236.609   2
   2  -4   0 7200.06 453.369   2
  -2   4   0 7431.70 472.526   1
  -2   4  -1 12155.5 574.297   1
   2  -4   1 11787.8 598.777   2
  -2   4  -1 11465.6 254.906   5
  -2   4  -2 4039.26 318.437   1
  -2   4  -2 3819.09 364.330   4
  -2   4  -2 3723.60 176.335   5
   2  -4   2 3907.95 356.783   2
  -2   4  -3 1360.15 123.759   5
  -2   4  -3 1266.32 166.511   1
  -2   4  -3 1262.37 212.406   4
   2  -4   3 1355.97 122.678   5
  -2   4  -4 969.389 135.271   1
   2  -4   4 883.887 111.053   5
  -2   4  -4 893.284 177.247   4
  -2   4  -4 879.743 114.417   5
   2  -4   5 188.551 55.4217   5
  -2   4  -5 166.381 56.9585   1
  -2   4  -5 182.840 59.1441   5
  -2   4  -5 69.2023 62.2294   4
  -2   4  -6 255.790 53.6527   1
  -2   4  -6 371.538 142.216   4
  -2   4  -6 270.085 74.0652   5
  -2   4  -7 375.450 158.083   4
  -2   4  -7 206.923 82.7893   5
  -2   4  -7 150.098 38.3920   1
  -2   4  -7 146.516 37.2160   1
  -2   4  -8 6.36326 47.4412   5
  -2   4  -8 149.360 136.721   4
  -2   4  -9 102.518 60.7488   5
  -2   4  -9 115.256 52.4596   3
  -2   4 -10 326.116 175.224   4
  -2   4 -10 141.224 59.9106   3
  -2   4 -10 106.192 68.3516   5
  -2   4 -11 1392.35 243.266   5
  -2   4 -11 1689.81 312.293   4
  -2   4 -12 273.293 153.189   4
  -2   4 -12-13.1383 50.9417   5
  -2   4 -13 335.040 164.058   4
  -2   4 -13 187.825 100.424   5
  -2   4 -14 79.8875 76.6800   5
  -2   4 -14 275.611 172.610   4
  -2   4 -15 738.022 232.364   4
  -2   4 -16 276.045 173.762   4
  -2   4 -17 234.783 174.419   4
  -2   4 -18 223.925 171.082   4
  -2   4 -19 795.235 271.037   4
  -2   3  20 26.5296 67.2339   1
  -2   3  19 310.632 158.856   1
  -2   3  18 0.61995 53.2060   1
  -2   3  17 92.6782 125.356   1
  -2   3  16 2797.63 443.083   1
  -2   3  15 866.086 247.873   1
  -2   3  14 143.707 101.910   1
  -2   3  13-51.9560 38.1419   1
   2  -3 -12 503.487 108.210   2
  -2   3  12 356.469 150.428   1
  -2   3  11 474.828 161.216   1
   2  -3 -11 523.818 105.886   2
  -2   3  10 144.001 104.296   1
   2  -3 -10 26.5975 15.2645   2
  -2   3   9 29.2424 80.3546   1
   2  -3  -9 32.2877 33.0389   2
  -2   3   8 100.356 97.7906   1
   2  -3  -8 37.2904 28.3655   2
  -2   3   7 171.893 57.2700   2
  -2   3   7 132.852 70.4583   1
   2  -3  -7 121.143 45.0464   2
  -2   3   6 2841.13 345.768   1
   2  -3  -6 2983.21 223.621   2
  -2   3   6 2852.49 210.038   2
   2  -3  -5 1994.17 182.273   2
  -2   3   5 1763.03 263.783   1
  -2   3   5 1789.87 185.743   5
  -2   3   5 2002.71 178.755   2
  -2   3   4 38.5761 37.1544   2
   2  -3  -4 47.9306 47.1654   2
  -2   3   4-12.5271 19.8294   5
  -2   3   4-94.9924 82.2351   1
  -2   3   3 3436.11 341.101   1
  -2   3   3 3550.49 247.855   2
   2  -3  -3 3604.44 256.041   2
   2  -3  -2 209.973 61.7142   2
  -2   3   2 284.765 90.7553   1
  -2   3   2 164.176 56.2887   2
  -2   3   1 7.44522 37.3282   1
  -2   3   1 83.1256 40.3521   2
  -2   3   1 48.4648 22.8014   5
   2  -3  -1 51.9460 45.2481   2
   2  -3   0 15409.6 579.421   2
  -2   3   0 14713.5 605.958   1
  -2   3   0 14810.3 379.838   5
  -2   3  -1-8.82971 34.2449   1
   2  -3   1 49.8736 48.6187   2
  -2   3  -1 4.19635 12.7940   5
  -2   3  -2 842.963 126.614   1
  -2   3  -2 823.214 98.4816   5
   2  -3   2 840.321 98.8675   5
  -2   3  -3 11694.3 444.218   1
   2  -3   3 11581.5 399.332   5
  -2   3  -3 11704.3 610.549   4
  -2   3  -3 11513.0 402.282   5
   2  -3   4 3.46642 12.6467   5
  -2   3  -4-2.30116 15.8352   1
  -2   3  -4 76.4405 33.2977   5
  -2   3  -4 35.0782 27.0500   4
  -2   3  -5 115.374 52.4738   5
  -2   3  -5 133.474 39.2662   1
  -2   3  -5 240.096 98.5257   4
   2  -3   5 128.405 45.4718   5
  -2   3  -6 2057.06 128.815   1
  -2   3  -6 2469.73 303.835   4
  -2   3  -6 2027.50 222.016   5
  -2   3  -7-38.6205 54.1908   5
  -2   3  -7 54.4132 92.7622   4
  -2   3  -8 2031.58 171.969   3
  -2   3  -8 2403.73 320.964   4
  -2   3  -8 2121.81 256.896   5
  -2   3  -9 26.2435 27.5059   3
  -2   3  -9 108.105 130.985   4
  -2   3  -9 59.4759 59.3874   5
  -2   3 -10 296.183 167.200   4
  -2   3 -10 29.6264 33.8590   5
  -2   3 -11 484.429 191.936   4
  -2   3 -11 227.207 104.273   5
  -2   3 -12 178.073 131.798   4
  -2   3 -12 59.1619 51.8387   5
  -2   3 -13 311.535 163.835   4
  -2   3 -13 3.66298 45.4374   5
  -2   3 -14 381.076 148.060   5
  -2   3 -14 595.240 215.208   4
  -2   3 -15 699.423 232.843   4
  -2   3 -15 548.218 174.689   5
  -2   3 -16 793.088 242.423   4
  -2   3 -16 887.531 240.669   5
  -2   3 -17 455.731 203.525   4
  -2   3 -17 95.3104 108.645   5
  -2   3 -18 280.987 187.760   4
  -2   3 -19 408.953 196.207   4
  -2   3 -20 464.194 231.643   4
   2  -2 -20 10.3607 84.9540   4
  -2   2  20 132.816 98.3328   1
  -2   2  19 144.861 132.951   1
   2  -2 -19 208.972 134.768   4
   2  -2 -18 62.6596 67.2207   4
  -2   2  18 204.344 137.813   1
  -2   2  17 2155.14 387.715   1
   2  -2 -17 1885.21 371.174   4
   2  -2 -16 3773.12 512.105   4
  -2   2  16 4269.58 524.779   1
  -2   2  15 484.826 175.860   1
   2  -2 -15 551.740 196.630   4
   2  -2 -14 239.005 128.168   4
  -2   2  14 137.108 106.417   1
  -2   2  13 250.897 118.314   1
   2  -2 -13 102.495 105.772   4
   2  -2 -12 14.7895 65.1757   4
   2  -2 -12 52.7892 38.3329   2
  -2   2  12 68.1956 87.1081   1
   2  -2 -11 116.160 45.1584   2
  -2   2  11 110.131 93.5715   1
   2  -2 -11 69.3249 39.4255   4
   2  -2 -10 18.1410 18.9489   2
  -2   2  10 62.8374 81.5721   1
  -2   2   9 2024.60 307.568   1
   2  -2  -9 2112.09 170.781   2
   2  -2  -8 502.130 79.4519   2
  -2   2   8 550.694 166.473   1
   2  -2  -7 848.493 97.4528   2
  -2   2   7 779.771 190.904   1
   2  -2  -6 4702.26 218.079   2
  -2   2   6 4772.54 414.066   1
   2  -2  -5 413.099 65.6518   2
  -2   2   5 423.100 63.1901   2
  -2   2   5 274.948 105.489   1
   2  -2  -4 2304.90 152.249   2
  -2   2   4 2213.47 145.037   2
  -2   2   4 2195.84 266.312   1
  -2   2   3 2784.46 281.648   1
  -2   2   3 2942.88 176.227   2
   2  -2  -3 2886.29 176.105   2
   2  -2  -2 1703.54 145.857   2
  -2   2   2 1740.52 211.151   1
  -2   2   2 1745.93 144.050   2
  -2   2   1 2697.45 189.274   2
   2  -2  -1 2882.08 198.415   2
  -2   2   1 2763.29 250.928   1
  -2   2   1 2742.05 194.061   5
  -2   2   0-16.0373 17.6443   5
  -2   2   0-2.82184 47.1870   1
  -2   2   0 6.13829 15.2561   2
  -2   2  -1 1487.37 159.169   2
  -2   2  -1 1468.29 160.343   1
  -2   2  -1 1490.93 139.526   5
  -2   2  -2 672.058 98.4378   1
  -2   2  -2 652.675 95.9835   5
   2  -2   2 597.728 90.9854   5
  -2   2  -2 631.724 114.535   2
   2  -2   3 4537.81 262.158   5
  -2   2  -3 4463.52 243.759   1
  -2   2  -3 4382.81 344.313   4
  -2   2  -3 4106.07 260.057   5
  -2   2  -4 2003.17 243.087   4
  -2   2  -4 2125.37 150.615   1
  -2   2  -4 2105.80 196.892   5
   2  -2   4 2143.54 194.611   5
   2  -2   5 97.1894 42.2798   5
  -2   2  -5 117.728 47.6296   5
  -2   2  -5 58.4229 50.3933   4
  -2   2  -5 74.2840 24.7439   1
  -2   2  -6 84.0209 20.4561   1
  -2   2  -6 207.323 94.7580   4
  -2   2  -6 183.969 70.6605   5
  -2   2  -6 111.405 28.8063   3
  -2   2  -7-19.0867 30.1787   5
  -2   2  -7 148.440 96.2138   4
  -2   2  -8 4800.21 421.937   4
  -2   2  -8 3940.75 353.153   5
  -2   2  -9 846.148 210.117   4
  -2   2  -9 492.835 130.209   5
  -2   2 -10 56.6737 57.2160   5
  -2   2 -10 520.836 171.203   4
  -2   2 -11 1226.47 256.558   4
  -2   2 -11 1115.62 220.756   5
  -2   2 -12 452.446 175.254   4
  -2   2 -12 52.8208 53.4065   5
  -2   2 -13 336.994 136.195   5
  -2   2 -13 495.046 178.400   4
  -2   2 -14 563.781 208.134   4
  -2   2 -14 382.248 154.486   5
  -2   2 -15 378.954 157.990   5
  -2   2 -15 617.599 228.186   4
  -2   2 -16 567.991 217.321   4
  -2   2 -16 153.434 105.219   5
  -2   2 -17 228.842 169.277   4
  -2   2 -17 134.160 124.236   5
  -2   2 -18 524.372 205.392   4
  -2   2 -18 185.865 104.885   5
  -2   2 -19 309.493 175.892   4
  -2   2 -19 19.2413 48.3233   5
  -2   2 -20 452.754 212.345   4
  -2   2 -21 560.876 232.328   4
   2  -1 -20 129.384 89.4031   4
  -2   1  19 115.277 86.7240   1
   2  -1 -19 114.992 148.770   4
  -2   1  18 365.486 161.893   1
   2  -1 -18 498.097 218.251   4
   2  -1 -17 436.640 173.362   4
  -2   1  17 528.675 187.470   1
   2  -1 -16 540.963 187.543   4
  -2   1  16 667.151 211.965   1
  -2   1  15 131.272 85.8155   1
   2  -1 -15-12.5272 34.6298   4
  -2   1  14-71.2171 40.2089   1
   2  -1 -14 43.5431 41.0982   4
   2  -1 -13 1063.95 151.457   2
   2  -1 -13 808.476 210.986   4
  -2   1  13 713.370 195.252   1
  -2   1  12 126.432 34.3779   1
   2  -1 -12 103.196 74.3098   4
   2  -1 -12 143.665 55.7308   2
  -2   1  11-4.40704 42.0023   1
   2  -1 -11 9.77743 45.4859   4
  -2   1  10-91.9229 96.4678   1
   2  -1 -10 74.3426 36.5829   2
   2  -1 -10-15.5303 28.5595   4
   2  -1  -9 319.145 116.551   4
   2  -1  -9 388.241 68.4884   2
  -2   1   9 286.825 110.141   1
   2  -1  -8 111.667 56.5273   4
   2  -1  -8 76.1947 29.0664   2
  -2   1   8 60.6475 36.1443   1
  -2   1   7 42.6156 57.3252   1
   2  -1  -7 65.9807 22.9547   2
   2  -1  -7 66.4341 32.4908   4
  -2   1   6 38.4324 49.4031   1
  -2   1   5 389.315 112.241   1
  -2   1   4 224.490 79.4783   1
  -2   1   3 1218.25 178.475   1
  -2   1   2 9903.62 248.115   2
  -2   1   2 10825.3 495.540   1
   2  -1  -2 10932.3 483.595   1
  -2   1   1 3554.85 171.884   2
   2  -1  -1 3846.22 272.832   1
  -2   1   1 3786.98 277.340   1
   2  -1   0 2748.88 214.595   1
  -2   1   0 2728.33 169.090   2
  -2   1   0 2549.56 198.522   5
  -2   1   0 2457.47 211.144   1
  -2   1  -1 1220.45 139.044   1
   2  -1   1 1291.10 138.310   1
  -2   1  -1 1277.77 139.550   5
   2  -1   1 1197.40 131.455   5
   2  -1   2 11103.9 381.209   1
  -2   1  -2 10594.2 385.482   1
   2  -1   2 11178.7 410.371   5
  -2   1  -2 10659.3 412.681   5
  -2   1  -3 13514.5 402.180   1
   2  -1   3 14310.3 398.354   1
  -2   1  -3 14382.7 569.881   4
  -2   1  -3 13380.4 489.696   5
   2  -1   3 14238.3 485.277   5
  -2   1  -4 42.5198 30.9372   5
  -2   1  -4 68.2913 32.7400   1
   2  -1   4 69.2098 43.7166   5
  -2   1  -4 15.5595 33.5964   4
   2  -1   4 61.7755 27.2903   1
  -2   1  -5 5918.75 218.929   1
   2  -1   5 6329.00 222.695   1
   2  -1   5 6680.86 374.331   5
  -2   1  -5 6348.11 401.604   4
  -2   1  -5 6309.50 375.472   5
  -2   1  -6 12616.3 568.839   5
   2  -1   6 12297.7 279.628   1
  -2   1  -6 12686.0 605.186   4
   2  -1   7 1041.03 72.7509   1
  -2   1  -7 1461.92 214.146   4
  -2   1  -7 1125.25 177.761   5
  -2   1  -8 501.169 127.302   5
  -2   1  -8 781.924 171.342   4
  -2   1  -9 2571.09 306.854   4
  -2   1  -9 2662.59 311.977   5
  -2   1 -10 263.643 137.299   4
  -2   1 -10 47.9542 30.0366   5
  -2   1 -11 4698.19 444.170   4
  -2   1 -11 4276.15 432.341   5
  -2   1 -12 78.9383 106.689   5
  -2   1 -12 257.686 149.578   4
   2  -1  13 22.6316 12.4487   1
  -2   1 -13 46.9173 59.3376   5
  -2   1 -14 314.165 180.535   4
  -2   1 -14 54.5976 74.6950   5
  -2   1 -15 499.515 181.389   4
  -2   1 -15 62.8736 69.8651   5
  -2   1 -16 21.4319 95.1314   5
  -2   1 -16 234.659 163.083   4
  -2   1 -17 159.280 106.745   5
  -2   1 -17 267.440 148.025   4
  -2   1 -18 451.157 192.384   4
  -2   1 -18 125.158 111.953   5
  -2   1 -19 333.053 178.258   4
  -2   1 -19 13.2291 118.958   5
  -2   1 -20-2.25706 59.0208   5
  -2   1 -20 255.453 164.577   4
  -2   1 -21 1637.77 372.170   4
  -2   1 -21 1576.77 385.715   5
  -2   1 -22 1304.15 338.931   4
   2   0 -20 7.38057 80.7561   4
  -2   0  19-92.2464 89.0853   1
   2   0 -19-0.22279 55.9942   4
   2   0 -18 657.551 239.144   4
  -2   0  18 613.912 195.635   1
   2   0 -17 41.3620 107.864   4
  -2   0  17 39.6842 53.5434   1
   2   0 -16 297.856 163.373   4
  -2   0  16 462.428 174.258   1
   2   0 -15 148.779 134.272   4
  -2   0  15 35.8082 77.5515   1
   2   0 -14 1248.26 280.722   4
  -2   0  14 1020.54 243.273   1
   2   0 -13 275.234 131.471   4
  -2   0  13 213.485 107.943   1
   2   0 -12 1146.22 243.733   4
  -2   0  12 1174.72 244.579   1
   2   0 -11 1513.27 152.364   2
  -2   0  11 1333.17 244.492   1
   2   0 -11 1448.54 259.837   4
   2   0 -10 1655.37 272.047   4
  -2   0  10 1627.84 264.767   1
   2   0 -10 1741.76 154.437   2
   2   0  -9 484.830 77.5952   2
   2   0  -9 394.435 121.560   4
  -2   0   9 421.412 132.383   1
   2   0  -8 1262.70 111.235   2
  -2   0   8 1594.21 247.412   1
   2   0  -8 1514.89 233.946   4
   2   0  -7 221.154 111.086   4
   2   0  -7 128.172 31.3310   2
  -2   0   7 180.324 87.5303   1
  -2   0   6 1067.44 189.860   1
   2   0  -6 575.628 53.2182   2
   2   0  -6 789.372 153.429   4
   2   0  -5 55.8188 35.1212   4
  -2   0   5 36.5237 70.1716   1
  -2   0   4 238.712 76.2072   1
  -2   0   3 289.453 85.7052   1
  -2   0   3 228.621 67.0495   3
  -2   0   2 472.670 97.5748   4
  -2   0   2 546.552 109.512   1
   2   0  -2 562.766 102.761   1
  -2   0   2 501.547 93.8160   3
   2   0  -1 455.982 100.016   1
  -2   0   1 387.895 81.6131   3
  -2   0   1 486.258 103.808   1
  -2   0   0 629.810 105.902   5
  -2   0   0 670.592 106.333   1
  -2   0   0 655.202 90.9686   3
   2   0   0 741.906 113.762   1
   2   0   1 6139.54 315.567   5
  -2   0  -1 5571.59 299.425   1
  -2   0  -1 5513.36 316.516   5
   2   0   1 6152.82 299.651   1
  -2   0  -1 5960.21 239.536   3
  -2   0  -2 2641.81 192.249   1
  -2   0  -2 2891.63 226.747   5
   2   0   2 2835.09 219.133   5
   2   0   2 2811.66 193.378   1
  -2   0  -3 1558.91 144.258   1
   2   0   3 1802.16 150.588   1
   2   0   3 1665.24 90.4666   3
  -2   0  -3 1585.63 174.300   5
   2   0   3 1676.11 173.473   5
  -2   0  -4 1564.21 143.611   1
  -2   0  -4 1441.10 172.247   4
  -2   0  -4 1429.16 175.522   5
   2   0   4 1637.03 137.966   1
   2   0   4 1525.12 174.673   5
   2   0   5 3481.08 194.204   1
  -2   0  -5 3331.51 271.554   4
  -2   0  -5 3119.57 274.051   5
  -2   0  -6 10614.0 535.445   5
   2   0   6 10371.1 332.879   1
  -2   0  -6 10494.2 503.322   4
   2   0   7 68.3642 31.8641   1
  -2   0  -7 144.946 104.222   4
  -2   0  -7-20.7801 58.7585   5
   2   0   8 988.665 110.917   1
  -2   0  -8 1058.23 180.243   4
  -2   0  -8 1055.16 189.683   5
  -2   0  -9-30.0686 27.5598   5
   2   0   9-2.61232 11.9482   1
   2   0  10 883.622 111.183   1
  -2   0 -10 883.260 191.275   5
  -2   0 -10 1140.44 220.144   4
  -2   0 -11 3231.43 348.943   4
  -2   0 -11 3351.51 385.857   5
   2   0  11 3088.87 235.664   3
   2   0  11 2837.93 202.137   1
  -2   0 -12 157.932 78.8039   5
  -2   0 -12 529.424 179.629   4
  -2   0 -13 1015.23 236.455   4
   2   0  13 648.336 110.175   1
  -2   0 -13 739.011 196.595   5
   2   0  14 638.843 115.093   1
  -2   0 -14 655.596 201.752   4
  -2   0 -14 659.891 199.270   5
  -2   0 -15 239.444 138.475   4
  -2   0 -15-81.5218 79.0532   5
  -2   0 -16 417.678 177.124   4
  -2   0 -16 284.391 147.334   5
  -2   0 -17 301.257 174.115   4
  -2   0 -17 140.332 97.1114   5
  -2   0 -18 487.944 198.306   4
  -2   0 -18 180.150 135.388   5
  -2   0 -19 377.500 202.257   4
  -2   0 -19 114.542 76.1975   5
  -2   0 -20 805.719 256.972   4
  -2   0 -20 228.730 125.474   5
  -2   0 -21 609.981 230.934   4
  -2   0 -21 584.489 238.587   5
  -2   0 -22 120.610 120.184   4
   2   1 -20 363.713 182.583   4
   2   1 -19 978.050 282.045   4
  -2  -1  18 88.6927 93.3281   1
   2   1 -18 189.606 114.141   4
   2   1 -17-139.614 77.9516   4
  -2  -1  17 139.839 81.5116   1
   2   1 -16 205.648 116.615   4
  -2  -1  16 38.1267 42.2043   1
   2   1 -15 678.563 224.965   4
  -2  -1  15 570.769 171.625   1
  -2  -1  14 1878.96 306.722   1
   2   1 -14 2136.71 371.418   4
  -2  -1  13 3223.78 390.579   1
   2   1 -13 3238.80 430.118   4
   2   1 -12 933.494 232.628   4
  -2  -1  12 926.683 206.061   1
   2   1 -11 371.175 169.576   4
  -2  -1  11-38.5365 60.2450   1
  -2  -1  10 1821.74 266.008   1
   2   1 -10 1908.21 298.063   4
   2   1 -10 1797.21 173.145   2
   2   1  -9 797.785 112.655   2
   2   1  -9 971.541 208.967   4
  -2  -1   9 786.827 173.066   1
   2   1  -8 878.670 111.239   2
  -2  -1   8 824.953 168.501   1
   2   1  -8 877.390 185.508   4
  -2  -1   7 695.881 151.755   1
   2   1  -7 694.532 150.667   4
   2   1  -7 736.387 95.1425   2
   2   1  -6 1371.63 117.912   2
  -2  -1   6 1573.84 215.283   1
   2   1  -6 1599.51 217.659   4
   2   1  -5 5970.62 228.589   2
  -2  -1   5 6202.64 411.296   1
   2   1  -5 6178.86 407.185   4
  -2  -1   4 57.6885 25.3816   2
  -2  -1   4 101.420 64.9436   1
   2   1  -4 112.673 59.1162   4
   2   1  -4 50.7917 17.9406   2
  -2  -1   3 1542.24 192.394   1
   2   1  -3 1524.90 109.022   2
   2   1  -3 1588.94 185.658   4
  -2  -1   3 1745.05 191.368   4
  -2  -1   3 1443.79 108.263   2
   2   1  -3 1556.23 192.755   3
   2   1  -2 3958.88 180.985   2
  -2  -1   2 4028.43 292.345   1
  -2  -1   2 4009.67 263.578   4
   2   1  -2 4266.79 291.691   3
   2   1  -2 4202.37 292.800   1
  -2  -1   2 3854.54 183.872   2
   2   1  -1 3180.71 237.839   1
  -2  -1   1 3088.12 173.000   2
  -2  -1   1 2828.74 238.442   1
   2   1  -1 3083.85 170.814   2
   2   1  -1 3080.26 233.574   3
  -2  -1   1 2751.65 213.396   4
   2   1   0 26.8472 29.0737   3
  -2  -1   0 1.42572 23.9696   2
   2   1   0-13.5125 36.5078   1
  -2  -1   0 22.0647 26.4668   5
  -2  -1   0 6.21502 37.3519   1
   2   1   1 156.128 59.1983   1
  -2  -1  -1 282.873 69.3090   2
  -2  -1  -1 210.341 69.8328   5
   2   1   1 271.503 75.2997   5
  -2  -1  -1 293.785 80.2216   1
   2   1   2 3715.91 244.014   1
  -2  -1  -2 3698.91 243.961   2
  -2  -1  -2 3509.35 266.822   5
  -2  -1  -2 3410.10 242.527   1
   2   1   2 3645.76 261.949   5
   2   1   3 9014.66 381.692   1
  -2  -1  -3 9038.22 391.945   1
  -2  -1  -3 8824.39 354.738   4
  -2  -1  -3 8803.33 433.315   5
   2   1   3 9634.31 434.894   5
   2   1   4 1087.39 133.669   1
   2   1   4 1118.36 156.654   5
  -2  -1  -4 1088.34 129.764   4
  -2  -1  -4 1071.89 162.585   5
  -2  -1  -5 417.646 105.720   5
   2   1   5 430.388 87.7591   1
  -2  -1  -5 542.963 99.1248   4
  -2  -1  -6 70.4645 64.7689   5
   2   1   6 109.906 44.2695   1
  -2  -1  -6 187.195 73.5881   4
   2   1   6 77.6816 32.2314   4
   2   1   7 7.22932 18.2020   1
   2   1   7 3.85822 14.4884   4
  -2  -1  -7-4.67320 53.0684   5
  -2  -1  -8 1809.31 213.384   4
   2   1   8 1691.27 182.024   1
  -2  -1  -8 1819.98 252.274   5
  -2  -1  -9 2346.69 254.246   4
  -2  -1  -9 2271.65 290.988   5
  -2  -1 -10 1270.51 233.590   5
  -2  -1 -10 1369.53 206.887   4
  -2  -1 -11 83.9148 91.2616   5
  -2  -1 -11 272.242 134.452   4
  -2  -1 -12 511.891 170.681   5
  -2  -1 -12 844.878 189.512   4
  -2  -1 -13 1338.11 264.457   5
  -2  -1 -13 1611.48 272.395   4
  -2  -1 -14 159.326 101.368   4
  -2  -1 -14 8.73045 42.5358   5
  -2  -1 -15 144.891 104.591   4
   2   1  15-2.84746 23.1251   1
  -2  -1 -15-74.8318 99.1085   5
  -2  -1 -16 137.688 116.396   4
  -2  -1 -16 12.9930 50.6906   5
  -2  -1 -17 242.817 138.064   4
  -2  -1 -17 84.8980 47.3361   5
  -2  -1 -18 329.167 154.487   4
  -2  -1 -18-35.2551 43.1632   5
  -2  -1 -19 178.803 151.769   4
  -2  -1 -19-27.7561 72.7295   5
  -2  -1 -20 611.037 217.450   4
  -2  -1 -20 449.028 188.094   5
  -2  -1 -21 284.391 160.941   4
  -2  -1 -21 114.157 154.981   2
  -2  -1 -21 118.080 151.929   5
  -2  -1 -22 642.056 235.195   4
  -2  -1 -22 381.409 186.347   2
  -2  -1 -23 476.039 202.648   2
   2   2 -20 226.237 138.662   4
   2   2 -19 435.945 213.334   4
   2   2 -18 243.880 146.241   4
   2   2 -17 415.485 205.967   4
  -2  -2  17 89.8869 68.1178   1
   2   2 -16 727.466 240.439   4
  -2  -2  16 650.531 183.782   1
  -2  -2  15 225.009 107.075   1
   2   2 -15 311.440 170.334   4
  -2  -2  14 256.831 110.286   1
   2   2 -14 536.353 205.576   4
  -2  -2  13 312.392 126.720   1
   2   2 -13 507.965 183.952   4
  -2  -2  12 2582.93 325.164   1
   2   2 -12 2580.91 382.182   4
  -2  -2  11 118.772 85.3114   1
   2   2 -11 589.654 211.727   4
   2   2 -10 1148.76 236.201   4
  -2  -2  10 915.197 185.385   1
  -2  -2   9 327.890 104.038   1
   2   2  -9 610.453 184.156   4
   2   2  -8 1483.61 166.572   2
  -2  -2   8 1429.85 219.134   1
   2   2  -8 1674.90 260.500   4
  -2  -2   7 339.372 105.778   1
   2   2  -7 325.820 108.270   3
   2   2  -7 556.062 163.044   4
   2   2  -7 280.068 69.5806   2
  -2  -2   6 38.1992 34.1093   2
   2   2  -6 13.8347 62.3868   3
   2   2  -6 16.9619 21.4240   2
  -2  -2   6 20.0804 56.7598   1
  -2  -2   5 9383.50 387.974   2
  -2  -2   5 9532.03 508.941   1
   2   2  -5 9594.63 504.607   4
   2   2  -5 9776.56 393.222   2
   2   2  -5 9803.06 559.507   3
  -2  -2   4 1261.26 141.283   2
   2   2  -4 1447.90 151.313   2
   2   2  -4 1402.18 181.059   4
  -2  -2   4 1298.03 179.030   1
   2   2  -4 1262.81 197.147   3
   2   2  -3 213.949 50.6619   2
   2   2  -3 162.416 60.1539   4
  -2  -2   3 309.537 92.0220   4
  -2  -2   3 167.032 54.4060   2
  -2  -2   3 192.819 71.0218   1
   2   2  -3 155.154 65.9526   3
  -2  -2   2 24456.4 757.541   1
   2   2  -2 24669.0 659.724   4
  -2  -2   2 24095.1 611.965   2
   2   2  -2 25021.8 594.751   2
  -2  -2   2 24183.7 622.254   4
   2   2  -2 24508.2 768.522   3
  -2  -2   1 2409.35 197.288   2
  -2  -2   1 2604.42 248.834   1
  -2  -2   1 2468.14 182.331   4
   2   2  -1 2290.70 186.511   2
  -2  -2   0 1992.75 156.148   4
   2   2   0 2099.10 210.726   1
   2   2   0 2190.77 187.465   2
  -2  -2   0 2140.79 217.617   1
  -2  -2   0 1969.72 212.063   5
  -2  -2   0 2176.51 191.758   2
  -2  -2  -1 1451.92 178.696   1
   2   2   1 1658.32 185.495   1
  -2  -2  -1 1481.31 122.478   4
  -2  -2  -1 1479.48 182.826   5
  -2  -2  -1 1564.88 171.124   2
   2   2   1 1595.81 165.588   2
  -2  -2  -2 1062.36 155.612   2
  -2  -2  -2 999.622 152.871   5
   2   2   2 1105.34 151.940   1
   2   2   2 1194.34 151.980   2
   2   2   2 1103.63 154.073   5
  -2  -2  -2 1089.99 155.934   1
  -2  -2  -3 179.775 79.1057   5
  -2  -2  -3 181.659 87.5564   2
   2   2   3 160.737 59.0446   1
  -2  -2  -3 144.963 40.7695   4
   2   2   4 1182.73 163.353   1
  -2  -2  -4 1374.84 191.878   2
  -2  -2  -4 1177.88 114.200   4
  -2  -2  -4 1077.98 165.756   5
  -2  -2  -5 575.636 133.726   2
  -2  -2  -5 670.501 96.5334   4
   2   2   5 491.268 105.172   1
  -2  -2  -5 514.518 118.837   5
  -2  -2  -6 1857.90 236.934   2
  -2  -2  -6 1009.93 141.268   4
   2   2   6 1729.69 161.700   4
  -2  -2  -6 1837.54 231.609   5
  -2  -2  -7 286.126 117.785   2
  -2  -2  -7 275.558 86.7530   4
   2   2   7 236.699 64.5039   4
  -2  -2  -7 229.208 86.3605   5
  -2  -2  -8 27779.4 748.598   4
  -2  -2  -8 27980.5 994.891   5
   2   2   8 27208.5 742.316   4
  -2  -2  -8 27675.9 969.663   2
  -2  -2  -9 17400.4 639.385   4
  -2  -2  -9 18282.0 839.298   5
  -2  -2  -9 17699.6 807.366   2
  -2  -2 -10 3744.20 321.609   4
  -2  -2 -10 3916.26 404.071   5
  -2  -2 -10 3874.78 399.763   2
  -2  -2 -11 593.766 181.667   2
  -2  -2 -11 74.9097 78.5921   5
  -2  -2 -11 404.130 127.240   4
  -2  -2 -12 1038.15 193.560   4
  -2  -2 -12 1051.18 237.124   2
  -2  -2 -12 862.416 210.473   5
  -2  -2 -13 3301.16 347.007   4
  -2  -2 -13 2814.41 373.444   2
  -2  -2 -13 3234.14 415.808   5
  -2  -2 -14 1047.85 242.067   5
  -2  -2 -14 1232.20 230.504   4
  -2  -2 -14 1126.79 258.416   2
  -2  -2 -15 218.494 154.344   2
  -2  -2 -15 275.871 131.756   4
  -2  -2 -15 68.6563 62.5261   5
  -2  -2 -16 293.726 139.132   2
  -2  -2 -16 482.603 163.907   4
  -2  -2 -16 112.881 85.7020   5
  -2  -2 -17 289.732 158.601   2
  -2  -2 -17 176.723 121.077   4
   2   2  17-84.0345 65.2934   1
  -2  -2 -17 78.2405 100.790   5
  -2  -2 -18 267.205 159.292   2
  -2  -2 -18 439.055 167.670   4
  -2  -2 -18 149.777 100.008   5
  -2  -2 -19 316.168 189.795   2
  -2  -2 -19 122.477 144.191   5
  -2  -2 -19 208.638 134.453   4
  -2  -2 -20 315.606 175.639   2
  -2  -2 -20 334.293 164.343   4
  -2  -2 -20 135.060 139.900   5
  -2  -2 -21 136.111 153.305   2
  -2  -2 -21 76.0171 92.2340   5
  -2  -2 -22 360.888 174.781   2
  -2  -2 -22 209.585 143.104   4
   2   3 -19 349.862 192.034   4
   2   3 -18 285.922 190.845   4
   2   3 -17 527.727 224.540   4
  -2  -3  16 166.447 81.7811   1
   2   3 -16 237.988 148.842   4
   2   3 -15 413.511 182.186   4
  -2  -3  15 78.2376 83.1472   1
   2   3 -14 378.214 188.193   4
  -2  -3  14-30.1989 37.9307   1
  -2  -3  13 1119.57 217.523   1
   2   3 -13 1322.05 293.042   4
  -2  -3  12 341.782 116.965   1
   2   3 -12 529.898 200.019   4
  -2  -3  11 9393.49 596.430   1
   2   3 -11 9160.96 672.909   4
   2   3 -10 235.714 145.032   4
  -2  -3  10 58.0632 31.0841   1
   2   3  -9-13.7781 36.7021   3
  -2  -3   9-4.82239 58.8022   1
   2   3  -8 2810.20 325.775   4
  -2  -3   8 2716.68 297.355   1
   2   3  -8 2268.81 315.455   3
  -2  -3   7-6.36284 16.7775   2
   2   3  -7 43.3106 61.6981   3
  -2  -3   7 54.5439 60.2246   1
  -2  -3   6 36.1214 42.4227   2
   2   3  -6 217.366 117.946   4
  -2  -3   6 64.7931 55.8763   1
   2   3  -6 136.650 92.2463   3
  -2  -3   5 1184.96 190.538   1
   2   3  -5 1181.81 194.370   4
   2   3  -5 1025.77 196.350   3
  -2  -3   5 1011.14 157.837   2
   2   3  -4 1291.99 177.423   4
   2   3  -4 1338.01 217.692   3
  -2  -3   4 1195.61 162.410   2
  -2  -3   4 1411.28 201.447   1
  -2  -3   3 6827.90 392.751   2
  -2  -3   3 7379.51 451.553   1
   2   3  -3 7192.10 382.486   4
  -2  -3   3 6741.78 353.976   4
   2   3  -2 4013.00 257.096   4
  -2  -3   2 4050.33 251.016   4
  -2  -3   2 4024.23 333.225   1
  -2  -3   2 3959.74 296.568   2
  -2  -3   1 4521.84 317.961   2
   2   3  -1 4292.54 247.783   4
  -2  -3   1 4279.13 231.827   4
  -2  -3   1 4500.94 349.715   1
  -2  -3   0 919.628 154.003   2
  -2  -3   0 958.048 158.318   5
  -2  -3   0 1022.71 100.104   4
  -2  -3   0 979.146 161.782   1
  -2  -3  -1 295.398 50.1346   4
  -2  -3  -1 240.428 81.5982   5
  -2  -3  -1 242.884 84.1315   2
  -2  -3  -2 181.316 87.1111   2
  -2  -3  -2 158.179 30.2955   4
  -2  -3  -2 142.825 63.5382   5
  -2  -3  -3 9753.02 512.924   2
  -2  -3  -3 9248.80 191.197   4
  -2  -3  -3 10025.3 502.972   5
  -2  -3  -4 10898.5 538.219   5
  -2  -3  -4 10706.1 557.543   2
  -2  -3  -4 10774.6 240.441   4
  -2  -3  -5 766.512 143.827   5
  -2  -3  -5 822.891 162.370   2
  -2  -3  -5 880.788 79.6591   4
  -2  -3  -6 496.666 134.158   5
  -2  -3  -6 549.508 158.060   2
  -2  -3  -6 578.305 81.9148   4
   2   3   6 418.188 68.8066   4
  -2  -3  -7 1615.30 249.648   2
   2   3   7 1484.59 143.050   4
  -2  -3  -7 1642.97 237.777   5
  -2  -3  -7 1910.25 159.324   4
  -2  -3  -8 5795.68 304.784   4
  -2  -3  -8 5623.58 461.286   2
   2   3   8 5435.06 299.291   4
  -2  -3  -8 5584.16 449.613   5
  -2  -3  -9 1108.35 238.353   2
   2   3   9 1001.78 138.947   4
  -2  -3  -9 1181.23 158.711   4
  -2  -3  -9 1120.27 213.122   5
  -2  -3 -10 142.678 97.3349   2
  -2  -3 -10 101.882 105.203   5
  -2  -3 -10 327.777 112.485   4
  -2  -3 -11 284.946 148.917   2
  -2  -3 -11 279.182 111.099   4
  -2  -3 -11 130.496 101.864   5
  -2  -3 -12 44.2387 83.9142   5
  -2  -3 -12 191.444 94.2693   4
  -2  -3 -12 50.3548 108.068   2
  -2  -3 -13 117.293 110.651   2
  -2  -3 -13 206.381 102.010   4
  -2  -3 -13-3.55064 38.0437   5
  -2  -3 -14 279.883 149.629   2
  -2  -3 -14 157.618 88.1346   5
  -2  -3 -14 452.741 140.968   4
  -2  -3 -15 707.584 221.623   2
  -2  -3 -15 873.924 236.721   5
  -2  -3 -15 665.652 174.064   4
  -2  -3 -16 94.7815 97.9508   2
  -2  -3 -16 213.455 111.894   4
  -2  -3 -16-3.58593 59.9823   5
  -2  -3 -17 435.344 202.810   2
  -2  -3 -17 579.754 181.488   4
  -2  -3 -17 253.793 125.263   5
  -2  -3 -18 167.725 108.033   5
  -2  -3 -18 277.302 164.293   2
   2   3  18 180.859 103.568   1
  -2  -3 -18 267.070 132.411   4
  -2  -3 -19-54.2652 68.3005   2
  -2  -3 -19 204.526 125.342   4
  -2  -3 -19 92.2608 107.049   5
  -2  -3 -20 430.780 194.299   2
  -2  -3 -20 374.732 164.405   4
  -2  -3 -20 365.825 198.009   5
  -2  -3 -21 514.957 210.524   2
  -2  -3 -21 426.526 194.871   5
  -2  -3 -22 20.8866 86.2719   2
   2   4 -19 1448.01 363.460   4
   2   4 -18 232.401 187.161   4
   2   4 -17 321.265 172.780   4
   2   4 -16 306.607 184.616   4
   2   4 -15 176.664 122.740   4
  -2  -4  15 2.61721 59.0498   1
   2   4 -14 233.174 164.342   4
  -2  -4  14 64.0766 68.5858   1
   2   4 -13 212.083 130.376   4
  -2  -4  13 90.9958 70.8542   1
   2   4 -12 381.159 173.325   4
  -2  -4  12 160.012 96.5797   1
   2   4 -11 669.782 212.288   4
  -2  -4  11 561.412 154.866   1
   2   4 -11 463.028 158.603   3
   2   4 -10 54.7442 89.7436   3
   2   4 -10 256.567 152.819   4
  -2  -4  10 56.6070 54.2107   1
  -2  -4   9 1439.45 226.341   1
   2   4  -9 1738.51 283.011   4
   2   4  -9 1111.82 234.890   3
  -2  -4   8 3780.77 365.037   1
  -2  -4   8 3491.74 344.392   2
   2   4  -8 3818.01 387.204   4
   2   4  -8 3036.15 382.445   3
   2   4  -7 683.607 169.440   4
  -2  -4   7 494.025 131.783   1
   2   4  -7 487.627 155.809   3
  -2  -4   7 504.992 132.774   2
  -2  -4   6 137.283 57.1623   1
  -2  -4   6 82.9512 58.7231   2
   2   4  -6 211.077 96.7696   3
   2   4  -6 384.057 124.072   4
  -2  -4   5 1836.57 240.484   2
   2   4  -5 1883.54 229.988   4
  -2  -4   5 1843.07 248.942   1
  -2  -4   4 1291.77 195.204   1
   2   4  -4 1457.74 195.634   4
  -2  -4   4 1269.17 199.270   2
  -2  -4   3 2086.17 252.835   2
  -2  -4   3 2317.01 267.808   1
   2   4  -3 2150.97 212.006   4
  -2  -4   3 1955.96 193.718   4
  -2  -4   2 1214.34 192.909   2
   2   4  -2 1268.15 149.718   4
  -2  -4   2 1110.79 136.960   4
  -2  -4   2 1112.19 177.976   1
  -2  -4   1 1809.53 233.858   2
   2   4  -1 1836.66 158.686   4
  -2  -4   1 1536.29 140.424   4
  -2  -4   1 1617.20 217.912   5
  -2  -4   0 4436.98 368.384   2
  -2  -4   0 4389.19 347.695   5
   2   4   0 4307.63 206.698   4
  -2  -4  -1 1380.47 206.353   2
  -2  -4  -1 1408.61 88.2206   4
  -2  -4  -1 1382.68 199.205   5
  -2  -4  -2 409.723 96.5218   5
  -2  -4  -2 439.008 119.981   2
  -2  -4  -3 109.004 67.5304   5
  -2  -4  -3 166.996 91.2262   2
  -2  -4  -4 290.333 106.784   2
  -2  -4  -4 295.059 95.2253   5
  -2  -4  -5 284.637 130.151   2
  -2  -4  -5 303.434 92.9643   5
  -2  -4  -6 163.622 74.0220   5
  -2  -4  -6 107.537 92.6410   2
  -2  -4  -7 47.9152 62.9953   5
  -2  -4  -7 115.094 98.2678   2
  -2  -4  -7 49.9663 21.5711   4
   2   4   7 21.5600 17.8008   4
  -2  -4  -8 484.931 138.364   5
  -2  -4  -8 624.043 87.5033   4
  -2  -4  -8 545.305 160.982   2
   2   4   8 396.067 69.2526   4
  -2  -4  -9 466.884 94.1553   4
   2   4   9 197.772 54.6103   4
  -2  -4  -9 420.863 148.609   2
  -2  -4  -9 229.584 106.797   5
  -2  -4 -10 450.841 104.173   4
  -2  -4 -10 397.527 150.495   2
  -2  -4 -10 166.115 73.4279   5
   2   4  10 169.558 54.7291   4
  -2  -4 -11 33749.6 869.715   4
  -2  -4 -11 34428.4 1274.60   5
  -2  -4 -11 32921.8 1280.34   2
  -2  -4 -12 769.263 206.985   5
  -2  -4 -12 810.373 211.845   2
  -2  -4 -12 802.190 152.996   4
  -2  -4 -13 147.535 102.919   2
  -2  -4 -13 200.568 96.3818   4
  -2  -4 -13 108.043 93.2804   5
  -2  -4 -14 627.166 194.341   2
  -2  -4 -14 654.407 157.864   4
  -2  -4 -14 611.340 192.225   5
  -2  -4 -15 40.0293 78.7647   2
  -2  -4 -15 127.581 105.308   5
  -2  -4 -15 282.645 124.951   4
  -2  -4 -16-18.4626 33.4429   2
  -2  -4 -16 199.639 93.0888   4
  -2  -4 -16 39.8958 105.651   5
  -2  -4 -17 156.017 121.007   2
  -2  -4 -17 110.116 105.521   5
  -2  -4 -18 85.1052 84.2191   2
  -2  -4 -18 49.4295 64.9853   5
  -2  -4 -19 187.831 126.062   2
  -2  -4 -19 116.952 108.494   5
  -2  -4 -20 87.4236 107.184   2
  -2  -4 -20 176.719 161.304   5
  -2  -4 -21 469.572 196.365   2
  -2  -4 -21 270.783 151.160   5
  -2  -4 -22 176.021 127.407   2
   2   5 -18 656.111 263.110   4
   2   5 -17 404.109 188.872   4
   2   5 -16 329.052 186.617   4
   2   5 -15 505.470 221.867   4
   2   5 -14 334.047 179.860   4
   2   5 -13 657.490 211.003   4
  -2  -5  13 604.382 167.245   1
  -2  -5  12 1290.96 232.619   1
   2   5 -12 1378.46 290.222   4
   2   5 -12 995.214 264.128   3
  -2  -5  11 1327.71 233.737   1
   2   5 -11 1232.34 261.395   4
   2   5 -11 1025.82 254.283   3
   2   5 -10 507.250 186.834   3
  -2  -5  10 369.988 129.132   1
   2   5 -10 652.705 187.842   4
   2   5  -9 653.403 196.720   4
  -2  -5   9 473.823 150.230   2
   2   5  -9 505.161 171.289   3
  -2  -5   9 639.760 158.684   1
   2   5  -8 1217.60 233.165   4
   2   5  -8 1122.50 245.807   3
  -2  -5   8 871.463 198.420   2
  -2  -5   8 971.133 189.451   1
   2   5  -7 520.490 177.881   4
   2   5  -7 219.842 103.675   3
  -2  -5   7 209.153 92.4903   1
  -2  -5   7 161.302 84.8204   2
   2   5  -6 650.732 176.000   4
  -2  -5   6 352.474 99.5147   1
  -2  -5   6 276.898 99.0062   2
   2   5  -5 1113.60 186.804   4
  -2  -5   5 714.598 164.889   2
   2   5  -4 1036.64 169.960   4
  -2  -5   4 762.919 175.049   2
   2   5  -3 426.227 108.807   4
  -2  -5   3 308.950 116.879   2
   2   5  -2 156.863 77.0356   4
  -2  -5   2 96.4768 66.3970   2
  -2  -5   2 134.264 60.5523   4
  -2  -5   1 179.424 72.3480   5
   2   5  -1 341.978 78.9245   4
  -2  -5   1 251.308 111.166   2
  -2  -5   1 323.194 71.4939   4
  -2  -5   0 49.3539 36.6819   5
   2   5   0 91.9198 34.6623   4
  -2  -5   0 92.7972 26.0444   2
  -2  -5   0 64.3022 28.9969   4
  -2  -5  -1 617.646 134.796   5
  -2  -5  -1 698.672 161.297   2
  -2  -5  -2-5.74771 20.0082   5
  -2  -5  -2 40.6957 35.2130   2
  -2  -5  -3 395.577 106.589   5
  -2  -5  -3 378.962 128.005   2
  -2  -5  -4 1069.73 214.447   2
  -2  -5  -4 856.698 168.189   5
  -2  -5  -5 1120.30 223.864   2
  -2  -5  -5 1239.54 200.834   5
  -2  -5  -6 154.172 70.5552   5
  -2  -5  -6 252.490 111.492   2
  -2  -5  -7 128.446 89.9012   2
  -2  -5  -7 80.6682 66.7167   5
  -2  -5  -8 268.751 103.063   5
  -2  -5  -8 456.991 166.910   2
   2   5   8 170.408 32.6020   4
  -2  -5  -9 66.9328 72.1059   2
   2   5   9 47.1853 24.0319   4
  -2  -5  -9-4.18091 35.3036   5
  -2  -5 -10 529.755 90.3966   4
  -2  -5 -10 569.660 166.764   2
  -2  -5 -10 539.217 159.740   5
  -2  -5 -11 1413.99 279.302   2
  -2  -5 -11 1384.27 159.710   4
  -2  -5 -11 1348.18 257.222   5
  -2  -5 -12 60.7345 78.0633   2
  -2  -5 -12 86.6700 44.1866   4
  -2  -5 -12 30.9137 31.4536   5
  -2  -5 -13 818.314 218.669   2
  -2  -5 -13 853.007 213.776   5
  -2  -5 -14-13.0715 38.1661   5
  -2  -5 -14 105.907 105.031   2
  -2  -5 -15 342.144 162.414   5
  -2  -5 -15 455.919 177.608   2
  -2  -5 -16-4.05942 44.6813   5
  -2  -5 -16-11.7162 32.8211   2
  -2  -5 -17 237.985 130.241   2
  -2  -5 -17-2.26295 72.4134   5
  -2  -5 -18 661.397 225.349   2
  -2  -5 -18 495.267 212.676   5
  -2  -5 -19 261.768 148.317   2
  -2  -5 -19 260.179 161.865   5
  -2  -5 -20 82.4027 84.6060   2
  -2  -5 -20 75.7825 82.3478   5
  -2  -5 -21 3.18029 72.0734   2
   2   6 -17 526.878 222.830   4
   2   6 -16 843.651 258.574   4
   2   6 -15 870.794 273.096   4
   2   6 -14 392.886 176.588   4
   2   6 -13 343.034 174.476   4
   2   6 -13 139.428 77.2255   3
   2   6 -12 319.906 191.978   4
   2   6 -12 90.9249 77.8054   3
   2   6 -11 273.705 159.336   3
   2   6 -11 606.881 211.555   4
   2   6 -10 497.765 193.694   4
  -2  -6  10 165.288 91.3817   2
   2   6 -10 213.914 130.798   3
   2   6  -9 566.275 196.897   4
  -2  -6   9 341.578 139.238   2
   2   6  -9 312.560 148.492   3
   2   6  -8 909.978 202.595   4
   2   6  -8 720.376 203.543   3
  -2  -6   8 674.953 186.610   2
   2   6  -7 405.652 138.454   4
  -2  -6   7 334.134 132.708   2
  -2  -6   6 4530.61 462.605   2
   2   6  -6 5356.49 430.812   4
  -2  -6   5 13448.5 791.266   2
   2   6  -5 13636.1 642.383   4
   2   6  -4 442.655 126.681   4
  -2  -6   4 247.804 121.218   2
   2   6  -3 232.020 93.3028   4
  -2  -6   3 73.1141 51.5389   2
  -2  -6   2 61.5377 52.6774   5
  -2  -6   2 72.1284 33.1857   4
   2   6  -2 335.719 90.1407   4
  -2  -6   2 157.838 96.4811   2
   2   6  -1 816.059 114.152   4
  -2  -6   1 614.067 94.6732   4
  -2  -6   1 741.421 193.447   2
  -2  -6   1 618.871 143.731   5
  -2  -6   0 245.137 89.3370   5
   2   6   0 475.946 72.6814   4
  -2  -6   0 336.688 125.823   2
  -2  -6  -1-12.3784 24.0936   5
   2   6   1 23.2035 11.3265   4
  -2  -6  -2 634.205 140.976   5
  -2  -6  -2 757.552 190.823   2
  -2  -6  -3 47.8003 52.4416   5
  -2  -6  -3 149.971 111.459   2
  -2  -6  -4-8.67605 29.5889   5
  -2  -6  -4 6.45353 42.3759   2
  -2  -6  -5 224.041 99.3924   5
  -2  -6  -5 214.430 107.726   2
  -2  -6  -6 145.443 76.6479   5
  -2  -6  -6 137.635 109.092   2
  -2  -6  -7 136.441 89.2744   5
  -2  -6  -7 118.037 88.2551   2
  -2  -6  -8 64.3479 63.2783   5
  -2  -6  -8 85.8308 86.7163   2
  -2  -6  -9 388.226 160.115   2
  -2  -6  -9 302.942 104.384   5
  -2  -6 -10 147.508 98.6932   5
  -2  -6 -10 84.1974 76.5032   2
  -2  -6 -11 369.785 142.874   2
  -2  -6 -11 337.806 126.542   5
  -2  -6 -12 569.388 195.279   2
  -2  -6 -12 607.741 174.189   5
  -2  -6 -13 2447.78 397.556   2
  -2  -6 -13 2595.23 383.112   5
  -2  -6 -14 2999.71 450.358   2
  -2  -6 -14 3236.61 435.236   5
  -2  -6 -15 257.388 131.358   5
  -2  -6 -15 335.022 161.683   2
  -2  -6 -16 8.77088 57.0405   5
  -2  -6 -16 100.731 65.6438   2
  -2  -6 -17 56.4494 77.9096   2
  -2  -6 -17 51.2803 78.1979   5
  -2  -6 -18-41.2742 75.2472   2
  -2  -6 -18 2.86046 60.0442   5
  -2  -6 -19 56.0825 77.8872   2
  -2  -6 -19 61.1784 80.2455   5
  -2  -6 -20-188.025 157.150   2
  -2  -6 -20 157.630 125.609   5
   2   7 -16 534.621 223.786   4
   2   7 -15 1218.91 308.462   4
   2   7 -14 369.609 181.492   4
   2   7 -14 176.974 121.785   3
   2   7 -13 253.664 145.268   4
   2   7 -13 240.199 159.816   3
   2   7 -12 459.072 186.084   4
   2   7 -12 17.9906 62.3797   3
   2   7 -11 727.302 213.974   4
   2   7 -11 391.674 153.686   3
  -2  -7  10 15.7601 47.8286   2
   2   7 -10-35.4674 69.0588   3
   2   7  -9 18.9437 66.5450   3
  -2  -7   9 99.3854 85.8203   2
   2   7  -8-0.16398 65.2730   3
  -2  -7   8-86.7062 92.0629   2
   2   7  -7 351.775 127.813   4
  -2  -7   7 185.888 93.9589   2
   2   7  -6 703.186 179.674   4
  -2  -7   6 447.760 165.978   2
   2   7  -5 180.719 94.9969   4
  -2  -7   5 49.8722 84.0947   2
   2   7  -4 1608.11 219.025   4
  -2  -7   4 1289.89 269.613   2
  -2  -7   3 25.4749 27.5962   5
   2   7  -3 107.066 68.5242   4
  -2  -7   3 17.9207 43.9093   2
  -2  -7   2 5271.57 536.326   2
  -2  -7   2 5002.03 416.333   5
  -2  -7   1 168.994 71.9312   5
   2   7  -1 455.192 90.4700   4
  -2  -7   1 396.004 156.133   2
  -2  -7   0 116.432 72.0352   5
   2   7   0 214.496 53.5091   4
  -2  -7   0 105.958 66.4656   2
  -2  -7  -1 522.302 170.637   2
  -2  -7  -1 456.220 119.623   5
  -2  -7  -2-29.0108 37.3210   5
  -2  -7  -2 153.066 95.3017   2
  -2  -7  -3 39.8163 39.5608   5
  -2  -7  -3 57.9811 65.6431   2
  -2  -7  -4 135.585 82.9164   5
  -2  -7  -4 153.047 100.890   2
  -2  -7  -5 191.927 88.5468   5
  -2  -7  -5 108.170 64.7931   2
  -2  -7  -6 34.9236 38.9756   5
  -2  -7  -6 112.560 87.6920   2
  -2  -7  -7 82.2598 43.4579   5
  -2  -7  -7 77.3042 104.723   2
  -2  -7  -8 430.197 160.922   2
  -2  -7  -8 495.085 140.537   5
  -2  -7  -9 885.264 232.089   2
  -2  -7  -9 779.925 186.070   5
  -2  -7 -10 19.7321 35.8651   2
  -2  -7 -10 249.165 111.990   5
  -2  -7 -11 24.3238 77.8497   2
  -2  -7 -11 28.1239 29.7921   5
  -2  -7 -12-190.060 114.758   2
  -2  -7 -12-47.2567 75.4900   5
  -2  -7 -13 12.4143 36.0041   2
  -2  -7 -13-6.84899 66.3742   5
  -2  -7 -14 10.3249 48.3399   2
  -2  -7 -14 22.8651 42.5091   5
  -2  -7 -15 46.4498 92.0079   2
  -2  -7 -15-12.1926 34.5726   5
  -2  -7 -16 478.049 195.922   2
  -2  -7 -16 455.959 174.296   5
  -2  -7 -17 88.4291 64.8037   2
  -2  -7 -17 251.899 140.774   5
  -2  -7 -18 86.3093 97.3195   2
   2   8 -15 200.661 148.564   4
   2   8 -15-36.9715 72.5043   3
   2   8 -14-33.5769 85.7390   3
   2   8 -14 254.687 142.759   4
   2   8 -13 414.163 188.884   4
   2   8 -13 290.042 181.497   3
   2   8 -12 735.139 226.035   4
   2   8 -12 606.769 226.303   3
   2   8 -11 200.707 143.861   4
   2   8 -11 18.3578 52.9729   3
   2   8 -10 34.9326 60.0731   3
  -2  -8  10 93.3912 51.8231   2
   2   8  -9-3.63476 68.1159   3
  -2  -8   9-30.7203 75.5529   2
   2   8  -8 751.279 191.280   4
  -2  -8   8 544.058 193.075   2
   2   8  -7 234.116 122.406   4
  -2  -8   7 175.919 112.734   2
   2   8  -6 172.806 103.413   4
  -2  -8   6 17.8261 75.8567   2
  -2  -8   5 460.894 136.377   5
   2   8  -5 743.078 173.181   4
  -2  -8   5 358.689 148.442   2
  -2  -8   4 73.5814 53.9671   5
  -2  -8   4 0.32944 66.9310   2
  -2  -8   3 4843.13 550.113   2
  -2  -8   3 5080.33 434.154   5
  -2  -8   2 8620.19 550.882   5
  -2  -8   2 8202.00 717.247   2
  -2  -8   1-35.2084 19.2285   5
  -2  -8   1 238.945 148.342   2
  -2  -8   0 361.319 113.199   5
  -2  -8   0 236.557 127.091   2
  -2  -8  -1 914.739 238.103   2
  -2  -8  -1 1053.56 182.563   5
  -2  -8  -2 87.7392 63.7740   5
  -2  -8  -2 1.44740 66.6421   2
  -2  -8  -3 74.4968 54.5307   5
  -2  -8  -3 68.5231 58.6984   2
  -2  -8  -4 368.832 109.326   5
  -2  -8  -4 268.489 128.802   2
  -2  -8  -5 215.530 89.0370   5
  -2  -8  -5 292.957 147.488   2
  -2  -8  -6 240.737 143.183   2
  -2  -8  -6 145.417 83.3227   5
  -2  -8  -7-33.8828 82.4425   2
  -2  -8  -7 6.71381 19.8738   5
  -2  -8  -8 598.776 196.598   2
  -2  -8  -9-16.8418 53.3529   2
  -2  -8 -10 192.890 138.443   2
  -2  -8 -11 124.437 101.101   2
  -2  -8 -12 558.237 211.633   2
  -2  -8 -13-11.3362 93.4531   2
  -2  -8 -14 82.1547 79.9855   2
  -2  -8 -15-103.958 123.820   2
  -2  -8 -16 628.431 227.123   2
   2   9 -13 177.735 158.300   3
   2   9 -12 197.586 133.264   3
   2   9 -11 35.4468 87.3183   3
  -2  -9  10 281.821 153.183   2
   2   9 -10 220.035 153.733   3
  -2  -9   9 216.328 130.806   2
   2   9  -9 122.662 62.8328   3
  -2  -9   8 57.8899 37.2552   2
  -2  -9   7-13.3803 93.6608   2
  -2  -9   6 127.990 99.8895   2
  -2  -9   5 130.858 116.123   2
  -2  -9   4-6.89827 37.8570   2
  -2  -9   3 788.595 234.390   2
  -2  -9   2 87.9259 100.125   2
  -2  -9   1 668.128 229.043   2
  -2  -9   0 38.8146 99.7101   2
  -2  -9  -1 1010.52 277.849   2
  -2  -9  -2 160.032 121.648   2
  -2  -9  -3-35.8902 81.6957   2
  -2  -9  -4 88.3756 99.9205   2
  -2  -9  -5 216.338 138.629   2
  -2  -9  -6 156.148 131.993   2
  -2  -9  -7 71.1137 92.2905   2
  -2  -9  -8 36.5162 80.0640   2
  -2  -9  -9 286.106 148.708   2
  -2  -9 -10 244.951 134.574   2
  -2  -9 -11 475.086 188.657   2
  -2  -9 -12 235.618 139.281   2
  -2  -9 -13-61.4514 82.1586   2
  -2  -9 -14-36.6823 39.5606   2
  -2 -10   9 178.078 113.050   2
   2  10  -9 14.6477 43.3823   3
  -2 -10   8-153.652 120.305   2
  -2 -10   7-71.6117 119.824   2
  -2 -10   6-44.9208 62.1971   2
  -2 -10   5 310.418 184.796   2
  -2 -10   4 683.878 239.357   2
  -2 -10   3 515.376 203.912   2
  -2 -10   2 314.295 169.495   2
  -2 -10   1-93.2161 113.325   2
  -2 -10   0 2654.35 459.596   2
  -2 -10  -1 235.496 127.712   2
  -2 -10  -2 87.7068 45.2685   2
  -2 -10  -3-13.0716 57.5578   2
  -2 -10  -4 24.7186 69.0051   2
  -2 -10  -5 12.7613 55.0208   2
  -2 -10  -6-10.7082 67.9578   2
  -2 -10  -7-79.0624 108.903   2
  -2 -10  -8 234.133 145.690   2
  -2 -10  -9 147.044 139.845   2
  -2 -10 -10 155.915 140.188   2
  -2 -11   1 1467.07 367.921   2
  -2 -11   0 731.316 266.867   2
  -2 -11  -1 21.9943 61.8147   2
  -2 -11  -2 316.438 169.327   2
  -3  10   3 456.207 190.774   1
   3 -10  -2 114.928 117.181   2
  -3  10   2-72.0148 119.459   1
  -3  10   1 90.4682 39.1754   1
   3 -10  -1 122.969 112.651   2
  -3  10  -4 348.737 145.624   4
  -3  10  -5 359.397 153.292   4
  -3  10  -6 483.357 184.949   4
  -3   9   7-51.5285 65.5377   1
  -3   9   6 173.827 133.061   1
  -3   9   5 737.635 255.714   1
  -3   9   4 7.30188 45.8357   1
   3  -9  -3 432.851 173.889   2
  -3   9   3 435.770 179.878   1
  -3   9   3 421.518 161.025   4
   3  -9  -2 162.575 109.842   2
  -3   9   2-0.39642 62.1580   1
  -3   9   2 108.560 76.2268   4
   3  -9  -1 36.6139 67.9635   2
  -3   9   1-36.5528 58.3102   1
  -3   9   1-98.3485 84.0195   4
   3  -9   0 408.782 172.465   2
  -3   9   0 336.249 142.898   1
  -3   9   0 287.891 138.886   4
  -3   9  -1 162.227 100.734   1
  -3   9  -1 164.991 115.739   4
  -3   9  -2 283.238 135.817   4
  -3   9  -3 109.490 96.0375   4
  -3   9  -4 196.516 127.178   4
  -3   9  -5 366.389 177.660   4
  -3   9  -6 413.758 179.801   4
  -3   9  -7 271.367 174.710   4
  -3   9  -8 184.370 139.864   4
  -3   9  -9 287.171 163.626   4
  -3   9 -10 232.210 151.248   4
  -3   8  10 162.141 130.477   1
  -3   8   9 56.4702 69.3116   1
  -3   8   8 17.5132 88.9522   1
  -3   8   7 2.84467 68.5703   1
  -3   8   6 55.9417 70.1179   1
  -3   8   5 251.427 162.870   1
  -3   8   4-71.0180 102.018   1
   3  -8  -4 207.410 106.046   2
  -3   8   3 98.6441 81.2677   1
  -3   8   3 21.8717 35.8438   4
   3  -8  -3 54.7849 45.4900   2
  -3   8   2-13.7116 25.7589   4
  -3   8   2 66.1587 64.6650   1
   3  -8  -2-23.1241 52.6810   2
   3  -8  -1 766.513 218.131   2
  -3   8   1 482.691 176.022   4
  -3   8   1 630.348 196.655   1
  -3   8   0 375.840 154.232   1
  -3   8   0 440.180 173.476   4
   3  -8   0 514.746 176.164   2
   3  -8   1 415.369 169.878   2
  -3   8  -1 182.228 89.1952   1
  -3   8  -1 221.463 116.252   4
  -3   8  -2 184.278 113.582   1
  -3   8  -2 94.1103 87.7256   4
  -3   8  -3 427.556 144.376   1
  -3   8  -3 619.188 212.231   4
  -3   8  -4 1275.52 297.384   4
  -3   8  -5 156.226 115.452   4
  -3   8  -6 187.028 136.013   4
  -3   8  -7 71.5406 91.2985   4
  -3   8  -8 223.443 160.247   4
  -3   8  -9 208.906 160.159   4
  -3   8 -10 226.004 160.169   4
  -3   8 -11 533.445 219.508   4
  -3   8 -12 314.980 180.915   4
  -3   7  12 174.563 101.303   1
  -3   7  11 154.562 115.071   1
  -3   7  10 474.651 205.993   1
  -3   7   9 285.237 165.359   1
  -3   7   8 157.754 131.666   1
  -3   7   7 121.889 111.639   1
  -3   7   6 138.598 115.725   1
  -3   7   5-155.287 138.545   1
   3  -7  -5 73.9576 67.5972   2
  -3   7   4 570.063 197.464   1
   3  -7  -4 325.005 127.790   2
  -3   7   3 146.112 80.8826   1
   3  -7  -3 211.572 105.538   2
   3  -7  -2 2404.45 340.596   2
  -3   7   2 2044.02 342.920   1
   3  -7  -1 5796.07 538.143   2
  -3   7   1 5349.99 544.651   1
  -3   7   1 5453.66 548.401   4
   3  -7   0 389.493 147.993   2
  -3   7   0 482.844 160.902   1
  -3   7   0 512.075 155.868   4
   3  -7   1 1305.88 264.219   2
  -3   7  -1 945.566 218.802   1
  -3   7  -1 1207.26 267.579   4
  -3   7  -2 390.649 136.216   1
  -3   7  -2 431.537 172.945   4
  -3   7  -3 94.9319 82.7397   1
  -3   7  -3 53.9146 70.8255   4
  -3   7  -4 279.788 105.915   1
  -3   7  -4 401.363 185.979   4
  -3   7  -5 315.719 158.433   4
  -3   7  -6 288.172 151.347   4
  -3   7  -7 103.900 90.7414   4
  -3   7  -8 385.203 180.087   4
  -3   7  -9 367.287 190.429   4
  -3   7 -10 221.592 162.493   4
  -3   7 -11 393.756 207.949   4
  -3   7 -12 154.162 128.122   4
  -3   7 -13 426.558 211.064   4
  -3   7 -14 828.561 276.220   4
  -3   6  14-73.4894 106.415   1
  -3   6  13-35.2412 101.885   1
  -3   6  12 1040.36 300.222   1
  -3   6  11 317.517 160.918   1
  -3   6  10 109.700 130.871   1
  -3   6   9-58.2203 75.8652   1
  -3   6   8 40.3963 93.5684   1
  -3   6   7 282.279 143.743   1
   3  -6  -6 7.93124 21.5157   2
  -3   6   6 39.2429 50.3793   1
   3  -6  -5 692.786 159.753   2
  -3   6   5 635.417 196.361   1
  -3   6   4 668.572 212.083   1
   3  -6  -4 424.900 129.069   2
   3  -6  -3 88.8979 37.9962   2
  -3   6   3 129.392 90.5355   1
   3  -6  -2 2139.74 291.756   2
  -3   6   2 1864.16 311.461   1
   3  -6  -1 519.609 150.818   2
  -3   6   1 465.744 155.522   1
  -3   6   0 235.320 103.043   1
   3  -6   0 195.114 105.189   2
  -3   6  -1 29.6883 29.7538   1
  -3   6  -1 59.4009 51.6513   4
  -3   6  -2 47.9678 41.6124   1
  -3   6  -2-4.33501 47.2576   4
  -3   6  -3 281.064 106.347   1
  -3   6  -3 205.925 117.917   4
  -3   6  -4 57.9865 56.9581   4
  -3   6  -4 120.995 51.7945   1
  -3   6  -5 30.2415 54.1431   1
  -3   6  -5 39.7470 68.6131   4
  -3   6  -6 149.052 66.9966   1
  -3   6  -6 129.117 95.4755   4
  -3   6  -7 202.937 139.008   4
  -3   6  -8 388.370 183.538   4
  -3   6  -9 998.630 269.076   4
  -3   6 -10 268.365 165.681   4
  -3   6 -11 362.239 174.913   4
  -3   6 -12 659.932 239.320   4
  -3   6 -13 591.429 242.557   4
  -3   6 -14 294.208 179.092   4
  -3   6 -15 443.733 207.802   4
  -3   6 -16 417.510 203.895   4
  -3   5  16-17.3036 69.5185   1
  -3   5  15 232.992 176.394   1
  -3   5  14 189.407 154.652   1
  -3   5  13 119.713 114.298   1
  -3   5  12 273.279 155.670   1
  -3   5  11 182.099 152.679   1
  -3   5  10 51.9235 97.9448   1
  -3   5   9 658.896 225.499   1
  -3   5   8 129.824 116.057   1
   3  -5  -7 251.791 80.0510   2
  -3   5   7 227.375 134.719   1
  -3   5   6 137.972 120.847   1
   3  -5  -6 273.056 92.1981   2
  -3   5   5 94.8555 74.4142   1
   3  -5  -5 54.8601 43.4677   2
  -3   5   5 100.346 47.5355   5
  -3   5   4 65.8561 79.0079   1
  -3   5   4 19.2345 21.8288   5
   3  -5  -4 119.101 65.6248   2
  -3   5   3 12.5939 14.3627   5
  -3   5   3-7.42842 32.6336   1
   3  -5  -2 760.395 156.556   2
  -3   5   2 740.469 184.749   1
  -3   5   2 500.314 68.3620   5
  -3   5   1 110.726 28.6326   5
  -3   5   1 76.2229 48.3838   1
   3  -5  -1 82.2479 48.4989   2
  -3   5   0 152.922 76.9375   1
  -3   5   0 183.296 32.9802   5
  -3   5  -1 9654.58 267.008   5
  -3   5  -1 9490.65 600.942   1
  -3   5  -2 19366.5 822.931   1
  -3   5  -2 19911.8 980.172   4
  -3   5  -2 19420.5 433.578   5
  -3   5  -3 406.241 70.7499   5
  -3   5  -3 438.298 116.194   1
  -3   5  -3 460.557 143.371   4
  -3   5  -4 313.769 104.012   1
  -3   5  -4 224.108 107.762   4
  -3   5  -4 236.951 60.2615   5
  -3   5  -5 220.901 78.3648   1
  -3   5  -5 101.659 84.4868   4
  -3   5  -5 130.434 42.2470   5
  -3   5  -6 78.7150 54.0341   1
  -3   5  -6-22.5688 78.9363   4
  -3   5  -6 48.3886 33.8400   5
  -3   5  -7 591.572 182.510   4
  -3   5  -7 548.636 96.9418   1
  -3   5  -7 638.548 135.418   5
  -3   5  -8-22.7154 51.5499   4
  -3   5  -8 49.6298 49.5483   5
  -3   5  -9 166.392 128.931   4
  -3   5  -9 61.2395 71.5243   5
  -3   5 -10 113.755 115.149   4
  -3   5 -10-33.8011 46.6598   5
  -3   5 -11 323.115 128.916   5
  -3   5 -11 449.491 175.075   4
  -3   5 -12 702.305 246.622   4
  -3   5 -12 805.855 206.874   5
  -3   5 -13 191.491 128.577   4
  -3   5 -13 110.950 88.4665   5
  -3   5 -14 413.403 206.991   4
  -3   5 -14 105.789 90.3046   5
  -3   5 -15 492.112 220.842   4
  -3   5 -15 32.9651 53.4267   5
  -3   5 -16 233.082 170.716   4
  -3   5 -17 261.498 155.811   4
  -3   4  17 26.8093 76.0260   1
  -3   4  16-17.4404 75.4861   1
  -3   4  15-83.0875 105.033   1
  -3   4  14 293.176 152.504   1
  -3   4  13 10.1712 51.3873   1
  -3   4  12 294.609 159.848   1
  -3   4  11 200.321 137.397   1
  -3   4  10 33.7174 59.1144   1
  -3   4   9 849.665 237.653   1
  -3   4   8 258.123 144.658   1
  -3   4   7 324.298 162.336   1
   3  -4  -7 244.404 66.2989   2
   3  -4  -6 28.7610 33.3183   2
  -3   4   6 153.686 81.1664   1
   3  -4  -5-6.99983 31.0660   2
  -3   4   5 9.79852 53.9955   1
  -3   4   4 495.163 173.768   1
   3  -4  -4 506.042 103.084   2
  -3   4   3 373.326 88.1922   5
   3  -4  -3 403.618 100.173   2
  -3   4   3 402.329 144.942   1
   3  -4  -2 23.4343 45.8635   2
  -3   4   2 16.5974 27.4546   5
  -3   4   2 80.9578 82.3708   1
  -3   4   1 227.211 60.1060   5
  -3   4   1 405.740 127.507   1
  -3   4   0 377.405 116.233   1
  -3   4   0 508.160 83.6316   5
  -3   4  -1 3472.56 340.269   1
  -3   4  -1 3480.39 222.463   5
  -3   4  -2 43.7576 52.1831   1
  -3   4  -2 19.6728 20.8767   5
  -3   4  -3 39.4735 28.1545   5
  -3   4  -3 61.7721 48.6034   1
  -3   4  -3 26.2795 40.0156   4
  -3   4  -4 913.260 154.567   1
  -3   4  -4 910.024 205.810   4
  -3   4  -4 822.076 127.859   5
   3  -4   4 736.348 113.565   5
  -3   4  -5 170.424 88.1804   4
  -3   4  -5 211.860 75.7864   1
  -3   4  -5 195.861 60.6072   5
  -3   4  -6 14.1202 29.2861   5
  -3   4  -6 54.7138 49.7565   1
  -3   4  -6-0.62573 40.6556   4
  -3   4  -7 23.4078 21.7147   1
  -3   4  -7 50.4015 95.1289   4
  -3   4  -7 19.6287 32.5295   5
  -3   4  -8 64.7341 61.6019   5
  -3   4  -8 24.2793 12.9392   1
  -3   4  -9 216.874 89.1975   5
  -3   4  -9 622.544 204.878   4
  -3   4  -9 271.928 63.7831   3
  -3   4 -10 1407.82 299.391   4
  -3   4 -10 989.395 195.608   5
  -3   4 -11 281.764 144.419   4
  -3   4 -11 117.183 76.1787   5
  -3   4 -12 953.223 267.799   4
  -3   4 -12 684.566 178.529   5
  -3   4 -13 572.582 213.846   4
  -3   4 -13 355.727 138.990   5
  -3   4 -14 135.442 153.664   4
  -3   4 -14 205.339 117.872   5
  -3   4 -15 794.074 255.302   4
  -3   4 -15 468.757 191.551   5
  -3   4 -16 80.8776 112.608   5
  -3   4 -16 185.839 131.231   4
  -3   4 -17 361.591 179.206   4
  -3   4 -17-89.0780 86.8516   5
  -3   4 -18 316.996 201.912   4
  -3   4 -18-85.6316 72.0184   5
  -3   4 -19 369.469 196.608   4
  -3   3  18-51.1958 136.583   1
  -3   3  17 705.185 253.056   1
  -3   3  16 1115.20 311.230   1
  -3   3  15 4471.20 581.763   1
  -3   3  14 1877.81 379.600   1
  -3   3  13 94.1409 99.2865   1
  -3   3  12 35.2848 42.7022   1
  -3   3  11-44.2212 94.9577   1
  -3   3  10 271.258 105.781   1
  -3   3   9 516.419 177.849   1
  -3   3   8 298.677 141.425   1
   3  -3  -8 444.352 68.5411   2
  -3   3   7 202.231 128.374   1
   3  -3  -7 149.438 44.5170   2
  -3   3   6 59.8207 33.5301   2
   3  -3  -6 19.0304 11.9063   2
  -3   3   6 140.535 116.778   1
  -3   3   5-13.0044 39.0568   1
  -3   3   5 82.1429 42.1101   2
   3  -3  -5 33.2878 33.7040   2
  -3   3   4 878.080 196.044   1
  -3   3   4 918.690 116.030   2
  -3   3   3 102.762 42.0219   2
  -3   3   3 97.7175 67.0643   1
  -3   3   2 200.062 107.164   1
  -3   3   2 102.416 46.9025   2
  -3   3   2 103.816 49.6408   5
  -3   3   1 560.797 104.920   5
  -3   3   1 764.001 173.070   1
  -3   3   0 454.011 97.5051   5
  -3   3   0 434.072 107.752   1
  -3   3  -1 84.8492 45.4417   5
  -3   3  -1-5.19943 45.0131   1
  -3   3  -2 52.8466 40.5598   5
  -3   3  -2-18.8669 49.9806   1
  -3   3  -3 685.532 124.114   5
   3  -3   3 660.849 116.064   5
  -3   3  -3 593.386 151.056   4
  -3   3  -3 619.120 119.871   1
  -3   3  -4 12270.8 512.344   1
  -3   3  -4 12052.7 706.462   4
  -3   3  -4 12147.1 529.240   5
  -3   3  -5 11868.4 464.406   1
  -3   3  -5 12021.8 712.856   4
  -3   3  -5 12070.5 555.911   5
  -3   3  -6 932.982 115.932   1
  -3   3  -6 1012.87 212.709   4
  -3   3  -6 769.485 152.646   5
  -3   3  -7 79.3106 81.3766   4
  -3   3  -7 7.46411 6.75371   3
  -3   3  -7-3.18123 12.6444   1
  -3   3  -7 13.6957 51.8426   5
  -3   3  -8 145.491 116.777   4
  -3   3  -8 17.5252 32.1452   5
  -3   3  -9 204.545 88.4280   5
  -3   3  -9 441.522 181.226   4
  -3   3 -10 146.480 164.523   4
  -3   3 -10 8.48562 42.2633   5
  -3   3 -11 274.659 153.837   4
  -3   3 -11 44.2378 59.6093   5
  -3   3 -12 177.245 77.3456   5
  -3   3 -12 346.791 193.630   4
  -3   3 -13 250.650 124.996   5
  -3   3 -13 396.403 178.603   4
  -3   3 -14 494.534 186.609   4
  -3   3 -14 163.831 94.8488   5
  -3   3 -15 223.411 120.616   5
  -3   3 -15 691.214 228.184   4
  -3   3 -16 476.912 208.504   4
  -3   3 -16 173.375 85.6470   5
  -3   3 -17 550.762 227.970   4
  -3   3 -17 257.487 143.743   5
  -3   3 -18 487.726 218.604   4
  -3   3 -18 100.856 98.2514   5
  -3   3 -19 300.972 181.082   4
  -3   3 -19 16.3878 89.5371   5
  -3   3 -20 636.253 252.974   4
  -3   3 -20 323.853 174.901   5
  -3   2  19 157.630 118.166   1
  -3   2  18 230.366 153.688   1
  -3   2  17 101.192 86.2369   1
  -3   2  16-43.5324 106.243   1
  -3   2  15-47.6403 85.5617   1
  -3   2  14-107.735 97.6823   1
  -3   2  13 88.9485 77.6634   1
  -3   2  12 1450.28 304.327   1
  -3   2  11 4174.50 498.233   1
  -3   2  10 1876.26 328.012   1
  -3   2   9 532.002 174.887   1
  -3   2   8 28.0537 50.9703   1
  -3   2   7-30.3540 64.4905   1
  -3   2   6 671.230 166.788   1
  -3   2   5 189.363 86.0626   1
  -3   2   5 195.962 32.3189   2
  -3   2   4 1174.30 96.5913   2
  -3   2   4 1295.34 228.731   1
  -3   2   3 832.401 182.922   1
  -3   2   3 833.895 94.0267   2
  -3   2   2-19.8784 44.7980   1
  -3   2   2-4.61981 13.5544   2
  -3   2   2-22.5555 29.5145   5
  -3   2   1 4818.51 274.619   2
  -3   2   1 4643.35 377.713   1
  -3   2   1 4599.37 323.731   5
  -3   2   0 14.6123 31.1830   5
  -3   2   0 21.3315 24.7547   2
  -3   2   0 47.5796 47.3407   1
  -3   2  -1 983.045 160.529   1
  -3   2  -1 882.602 141.474   5
  -3   2  -2 30.9134 40.3611   5
  -3   2  -2 10.2933 18.5091   1
   3  -2   3 832.162 131.702   1
  -3   2  -3 809.697 138.904   1
  -3   2  -3 726.635 136.259   5
  -3   2  -4 635.182 124.938   5
   3  -2   4 530.312 103.433   1
  -3   2  -4 412.740 82.8217   1
  -3   2  -4 569.695 153.870   4
  -3   2  -5 2018.92 181.754   1
  -3   2  -5 2216.11 251.127   5
   3  -2   5 2138.26 186.913   1
  -3   2  -5 2265.63 292.563   4
  -3   2  -5 1672.91 88.8959   3
  -3   2  -6 3396.99 213.686   1
  -3   2  -6 3435.38 367.995   4
  -3   2  -6 3213.52 312.668   5
  -3   2  -7 1809.60 139.225   1
  -3   2  -7 2303.77 308.118   4
  -3   2  -7 2081.76 263.025   5
  -3   2  -8 212.769 108.967   4
  -3   2  -8 32.6515 26.0589   5
  -3   2  -9 264.422 131.499   4
  -3   2  -9 41.9973 39.2933   5
  -3   2 -10 653.456 202.418   4
  -3   2 -10 391.524 137.864   5
  -3   2 -11 252.973 100.391   5
  -3   2 -11 606.193 199.584   4
  -3   2 -12 1744.94 315.074   4
  -3   2 -12 1799.24 309.660   5
  -3   2 -13 1090.26 245.989   5
  -3   2 -13 777.431 253.050   4
  -3   2 -14 921.333 261.278   4
  -3   2 -14 712.688 199.320   5
  -3   2 -15 538.868 206.341   4
  -3   2 -15 370.998 151.856   5
  -3   2 -16 118.845 140.406   4
  -3   2 -16 34.2241 62.4508   5
  -3   2 -17-33.0485 62.8836   5
  -3   2 -17 142.845 130.782   4
  -3   2 -18 719.924 257.869   4
  -3   2 -18 304.399 167.486   5
  -3   2 -19 413.903 180.615   5
  -3   2 -19 806.365 265.858   4
  -3   2 -20 273.058 150.591   4
  -3   2 -20 33.9765 40.9937   5
  -3   1  20 158.504 125.970   1
  -3   1  19 172.939 132.354   1
   3  -1 -19-175.415 144.827   4
   3  -1 -18 132.143 85.2179   4
  -3   1  18 118.098 85.1020   1
  -3   1  17 77.4688 86.7814   1
   3  -1 -17 175.668 111.750   4
   3  -1 -16 264.505 119.416   4
  -3   1  16 390.095 172.397   1
   3  -1 -15 379.586 177.588   4
  -3   1  15 281.922 159.917   1
   3  -1 -14 643.338 210.019   4
  -3   1  14 447.921 166.168   1
   3  -1 -13 4017.80 499.260   4
  -3   1  13 4614.68 531.475   1
  -3   1  12 7130.83 651.323   1
  -3   1  11 5076.98 538.244   1
  -3   1  10 2620.71 379.657   1
  -3   1   9 354.319 126.064   1
  -3   1   8 1635.42 281.745   1
  -3   1   7 99.9623 80.4769   1
  -3   1   6 40.7758 56.5403   1
  -3   1   5 1954.72 277.431   1
  -3   1   4 19.9965 33.8709   1
  -3   1   3 2169.07 102.798   2
  -3   1   3 3058.57 326.217   1
  -3   1   2 6084.92 230.313   2
  -3   1   2 6346.75 454.041   1
  -3   1   1 2357.94 166.184   2
  -3   1   1 2304.57 264.346   1
  -3   1   1 2302.79 241.020   5
  -3   1   0 1173.39 150.581   3
  -3   1   0 1296.53 191.917   1
  -3   1   0 1186.50 170.333   5
  -3   1  -1 5555.43 375.610   1
  -3   1  -1 5501.69 366.286   5
  -3   1  -1 5318.08 287.785   3
  -3   1  -2 56.5117 48.0200   5
  -3   1  -2 47.6250 49.5739   1
  -3   1  -2 10.8159 15.1478   3
  -3   1  -3 3606.69 276.812   1
   3  -1   3 4042.52 278.044   1
  -3   1  -3 3623.77 184.128   3
  -3   1  -3 3677.75 306.793   5
  -3   1  -4 29.6607 31.6263   5
   3  -1   4 15.2889 23.6108   1
  -3   1  -4 48.5774 26.5629   4
  -3   1  -4 50.2500 36.8809   1
   3  -1   5 2290.67 192.887   1
  -3   1  -5 2100.39 260.561   4
  -3   1  -5 2175.31 194.529   1
  -3   1  -5 2281.32 257.784   5
  -3   1  -6-35.9511 51.4044   5
   3  -1   6-3.32185 22.8262   1
  -3   1  -6 2.20291 18.4399   1
  -3   1  -6 7.17703 35.7929   4
  -3   1  -7 5991.22 284.745   1
   3  -1   7 6225.97 282.688   1
  -3   1  -7 6387.38 479.450   4
  -3   1  -7 6144.85 460.105   5
   3  -1   8 1176.67 113.886   1
  -3   1  -8 1369.92 236.049   4
  -3   1  -8 1117.00 210.616   5
   3  -1   9 65.6876 26.7471   1
  -3   1  -9 71.1139 74.2428   5
   3  -1  10 237.241 43.8739   1
  -3   1 -10 235.870 108.723   5
  -3   1 -10 378.613 134.533   4
  -3   1 -11 294.574 163.102   4
  -3   1 -11 92.5103 81.6885   5
  -3   1 -12 504.369 184.567   4
  -3   1 -12 377.050 152.936   5
  -3   1 -13 820.030 216.098   4
  -3   1 -13 749.306 198.569   5
  -3   1 -14 251.756 152.977   4
  -3   1 -14 12.0114 31.6229   5
  -3   1 -15 116.221 145.858   4
  -3   1 -15 86.1553 96.1270   5
  -3   1 -16 192.548 156.885   4
  -3   1 -16 81.2309 81.8587   5
  -3   1 -17 394.165 182.148   4
  -3   1 -17-59.1910 70.1059   5
  -3   1 -18 376.347 175.930   4
  -3   1 -18 226.204 148.849   5
  -3   1 -19 685.213 238.361   4
  -3   1 -19 328.379 152.457   5
  -3   1 -20 600.024 242.105   4
  -3   1 -20 389.988 176.815   5
  -3   1 -21 275.413 190.559   4
  -3   1 -21-15.8798 46.5525   5
  -3   0  19 190.421 137.896   1
   3   0 -19-6.12419 41.1544   4
  -3   0  18 274.430 151.754   1
   3   0 -18 25.3010 68.1773   4
   3   0 -17 89.4669 126.199   4
  -3   0  17 154.478 118.606   1
   3   0 -16 29.8585 54.7114   4
  -3   0  16-32.0674 38.6324   1
   3   0 -15 55.9106 83.3732   4
  -3   0  15-57.1580 76.7916   1
   3   0 -14-67.0415 65.9237   4
  -3   0  14 183.902 123.609   1
   3   0 -13 182.568 108.898   4
  -3   0  13 345.519 152.164   1
   3   0 -12-6.56786 74.7513   4
  -3   0  12 198.109 102.666   1
   3   0 -11 53.8474 39.3945   4
  -3   0  11 103.092 107.357   1
   3   0 -10 284.019 113.160   4
  -3   0  10 159.869 81.8059   1
  -3   0   9 5022.24 493.732   1
   3   0  -9 4655.48 473.915   4
  -3   0   8 282.596 114.497   1
  -3   0   7 272.832 124.257   1
  -3   0   6 344.725 129.937   1
  -3   0   5 366.316 118.571   1
  -3   0   4-1.04618 79.2040   1
  -3   0   3 3427.53 340.184   1
  -3   0   2 5269.71 200.129   2
  -3   0   2 5688.44 416.588   1
  -3   0   1 542.188 125.660   5
  -3   0   1 721.452 154.708   1
  -3   0   1 840.880 97.7772   2
  -3   0   0 401.349 87.8811   3
  -3   0   0 433.263 110.170   1
  -3   0   0 451.255 114.902   5
  -3   0  -1 4566.29 337.000   1
  -3   0  -1 4834.53 360.658   5
  -3   0  -1 4699.74 276.912   3
  -3   0  -2 5454.73 381.656   5
  -3   0  -2 5571.35 360.646   1
  -3   0  -3 119.672 69.7002   5
  -3   0  -3 62.7134 36.3446   1
   3   0   3 154.892 65.9318   1
  -3   0  -4 1865.13 198.585   1
   3   0   4 2031.68 202.911   1
  -3   0  -4 1868.85 234.587   5
  -3   0  -4 1946.16 231.853   4
  -3   0  -5 302.822 105.180   5
   3   0   5 381.941 84.5029   1
  -3   0  -5 333.255 85.7768   1
  -3   0  -5 323.296 101.651   4
  -3   0  -6 429.831 114.394   5
   3   0   6 423.827 86.5683   1
  -3   0  -6 420.969 92.2074   1
  -3   0  -6 426.240 119.247   4
   3   0   7 7243.22 345.013   1
  -3   0  -7 7198.60 476.688   4
  -3   0  -7 7005.26 498.349   5
  -3   0  -8 86.6542 80.2569   5
   3   0   8 115.439 42.5131   1
  -3   0  -8 251.993 124.295   4
   3   0   9 4099.86 246.980   1
  -3   0  -9 4426.57 398.457   4
  -3   0  -9 3685.06 395.773   5
  -3   0 -10 2310.78 307.980   4
   3   0  10 2023.04 170.761   1
   3   0  10 1527.38 102.747   3
  -3   0 -10 2023.01 305.078   5
   3   0  11 3016.33 206.366   1
  -3   0 -11 3072.42 372.702   4
  -3   0 -11 2943.51 377.719   5
   3   0  11 2627.58 153.900   3
  -3   0 -12 755.375 207.510   4
  -3   0 -12 911.377 220.571   5
  -3   0 -13 5547.97 507.890   4
  -3   0 -13 5000.36 535.834   5
  -3   0 -14 1731.89 304.351   4
  -3   0 -14 1316.84 284.092   5
  -3   0 -15 151.499 143.584   4
  -3   0 -15 50.8080 84.0027   5
  -3   0 -16 598.366 205.712   4
  -3   0 -16 290.367 141.292   5
  -3   0 -17 331.509 154.594   4
  -3   0 -17 58.6762 88.0331   5
  -3   0 -18 300.796 169.644   4
  -3   0 -18 32.1522 93.2487   5
  -3   0 -19 149.241 114.441   4
  -3   0 -19 83.6211 91.9786   5
  -3   0 -20 347.604 178.126   4
  -3   0 -20 39.5947 85.2934   5
  -3   0 -21 201.673 148.855   4
  -3   0 -21 153.768 72.8616   5
  -3   0 -22 479.790 212.809   4
   3   1 -19 77.3707 121.028   4
   3   1 -18 68.1905 70.1443   4
  -3  -1  18 82.8008 90.2642   1
  -3  -1  17 164.533 114.179   1
   3   1 -17 112.476 106.819   4
  -3  -1  16 52.9991 70.6785   1
   3   1 -16-55.9106 66.9298   4
  -3  -1  15 39.1266 71.0456   1
   3   1 -15 46.5071 81.6587   4
  -3  -1  14 352.181 154.358   1
   3   1 -14 283.098 150.275   4
  -3  -1  13 239.477 129.015   1
   3   1 -13 303.236 136.930   4
  -3  -1  12 2156.94 343.432   1
   3   1 -12 2299.74 368.754   4
  -3  -1  11 1586.39 286.786   1
   3   1 -11 1764.17 309.119   4
  -3  -1  10 231.226 112.791   1
   3   1 -10 251.130 107.102   4
   3   1  -9 7991.00 248.470   2
  -3  -1   9 9262.91 649.978   1
   3   1  -9 9770.61 675.273   4
  -3  -1   8 16.2764 59.1019   1
   3   1  -8 11.2509 12.5149   2
   3   1  -8 40.0155 46.0375   4
   3   1  -7 30.1785 16.5922   2
  -3  -1   7 47.3023 65.6689   1
   3   1  -7 65.7215 43.5025   4
   3   1  -6 61.7090 22.2769   2
   3   1  -6-13.0325 48.9728   4
  -3  -1   6-6.57368 38.7009   1
  -3  -1   5 336.447 105.067   1
  -3  -1   4 266.082 103.409   1
  -3  -1   4 213.545 41.1831   2
  -3  -1   3 13.2612 9.38225   2
  -3  -1   3 35.6288 45.0578   1
  -3  -1   2 1373.15 123.403   2
  -3  -1   2 1231.08 201.763   1
  -3  -1   1 138.454 68.3052   5
  -3  -1   1 163.871 55.5604   2
   3   1  -1 110.552 65.7469   3
  -3  -1   1 123.001 82.6073   1
  -3  -1   0 68.3996 55.1944   5
  -3  -1   0 130.054 57.0840   2
  -3  -1   0 53.6787 38.2976   1
   3   1   0 95.6617 45.4006   3
  -3  -1  -1 965.336 170.995   5
  -3  -1  -1 1075.61 142.121   2
  -3  -1  -1 862.873 146.390   1
   3   1   1 1023.37 143.776   3
  -3  -1  -2 1073.14 168.466   1
  -3  -1  -2 936.883 143.447   2
   3   1   2 1106.05 138.741   3
  -3  -1  -2 980.587 176.531   5
  -3  -1  -3 2912.90 268.045   1
   3   1   3 2948.45 208.348   3
  -3  -1  -3 2772.48 291.116   5
  -3  -1  -4 140.755 62.7371   5
  -3  -1  -4 241.591 80.0008   1
  -3  -1  -4 198.542 65.8592   4
  -3  -1  -5 8124.34 439.994   1
  -3  -1  -5 8281.97 450.686   4
  -3  -1  -5 8425.42 523.392   5
  -3  -1  -6 81.6606 58.5164   5
  -3  -1  -6 121.236 69.9464   4
  -3  -1  -7 926.884 188.869   5
  -3  -1  -7 893.038 169.901   4
  -3  -1  -8 50.0849 70.5386   5
  -3  -1  -8 86.9502 91.7436   4
  -3  -1  -9 928.528 192.774   4
  -3  -1  -9 828.314 193.838   5
  -3  -1 -10 2515.71 301.841   4
  -3  -1 -10 2113.07 320.404   5
  -3  -1 -11 374.701 138.075   4
  -3  -1 -11 113.000 88.2258   5
  -3  -1 -12 400.938 134.298   4
  -3  -1 -12 168.571 95.1764   5
  -3  -1 -13 937.989 209.537   4
  -3  -1 -13 620.634 194.895   5
  -3  -1 -14 893.468 208.846   4
  -3  -1 -14 740.342 210.146   5
  -3  -1 -15 738.336 219.505   5
  -3  -1 -15 980.328 221.713   4
  -3  -1 -16-2.32646 34.7557   5
  -3  -1 -16 353.936 150.077   4
  -3  -1 -17 171.086 129.684   4
  -3  -1 -17 51.1842 85.2152   5
  -3  -1 -18 169.275 116.597   4
  -3  -1 -18 52.9804 94.8006   5
  -3  -1 -19 378.534 163.642   4
  -3  -1 -19 261.682 146.899   5
  -3  -1 -20 629.859 220.593   4
  -3  -1 -20 458.324 203.464   5
  -3  -1 -21 454.970 193.091   4
  -3  -1 -21 212.079 142.815   5
  -3  -1 -22 318.957 161.457   4
   3   2 -18 285.585 174.540   4
  -3  -2  17 492.655 173.857   1
   3   2 -17 340.786 181.869   4
  -3  -2  16-6.47284 55.0700   1
   3   2 -16-148.746 125.336   4
  -3  -2  15 431.167 152.897   1
   3   2 -15 645.489 221.835   4
  -3  -2  14 35.8885 49.5029   1
   3   2 -14-0.70757 54.7180   4
  -3  -2  13 236.256 114.358   1
   3   2 -13 223.397 133.307   4
  -3  -2  12 1.99136 35.5498   1
   3   2 -12 74.7146 100.229   4
  -3  -2  11 51.7859 51.7924   1
   3   2 -11 24.5618 59.8452   4
  -3  -2  10 3025.51 378.938   1
   3   2 -10 2987.58 392.382   4
  -3  -2   9 1461.75 254.370   1
   3   2  -9 1285.39 241.585   4
  -3  -2   8 135.185 98.1521   1
   3   2  -8 118.513 78.8178   4
   3   2  -8 66.1993 29.0213   2
  -3  -2   7 1046.81 201.336   1
   3   2  -7 976.808 199.180   4
   3   2  -7 898.534 115.172   2
   3   2  -6 55.0657 32.1724   2
   3   2  -6 17.4723 33.2206   4
  -3  -2   6 12.8166 18.8210   2
  -3  -2   6-17.0938 63.4013   1
  -3  -2   5 31.0568 42.0005   1
   3   2  -5 78.7479 41.9288   2
   3   2  -5 54.5706 52.5059   4
  -3  -2   5 23.4894 15.8291   2
   3   2  -5 0.76724 33.0936   3
   3   2  -4 91.9062 53.2577   4
   3   2  -4 149.180 48.8456   2
  -3  -2   4 136.649 49.7412   2
  -3  -2   4 19.5717 54.0065   1
   3   2  -4 132.800 83.2003   3
  -3  -2   3 2504.15 290.318   1
  -3  -2   3 2344.68 193.466   2
   3   2  -3 2422.80 284.018   3
   3   2  -3 2625.98 201.406   2
  -3  -2   2 1726.41 236.568   1
   3   2  -2 1650.68 223.834   3
   3   2  -2 1698.07 167.971   2
  -3  -2   2 1686.06 171.086   2
   3   2  -1 181.017 65.2506   2
  -3  -2   1 182.719 74.3789   5
  -3  -2   1 214.625 67.4457   2
   3   2  -1 157.284 81.3424   3
  -3  -2   1 303.795 117.210   1
  -3  -2   0 701.044 121.215   2
  -3  -2   0 681.720 160.564   5
  -3  -2   0 674.309 116.260   4
  -3  -2   0 799.335 155.129   1
   3   2   0 688.320 132.536   3
  -3  -2  -1-17.3637 52.9833   5
  -3  -2  -1 29.3496 49.4234   2
  -3  -2  -1 29.9569 36.6121   1
  -3  -2  -2 53.0640 39.2667   5
  -3  -2  -2 95.2538 60.1855   2
  -3  -2  -2-49.9451 36.1123   1
  -3  -2  -3 29.1604 50.6242   5
  -3  -2  -3 40.1500 70.5920   2
  -3  -2  -3 8.02699 27.9778   1
  -3  -2  -4 52.2766 54.8474   5
  -3  -2  -4 50.7788 57.2875   2
  -3  -2  -4-25.3570 29.2154   1
  -3  -2  -4-0.37274 27.2424   4
  -3  -2  -5 2474.37 221.898   4
  -3  -2  -5 2530.50 295.221   5
  -3  -2  -5 2776.45 295.820   2
  -3  -2  -6-4.62682 38.3261   5
  -3  -2  -6 16.8412 28.9726   4
  -3  -2  -7 522.017 141.425   5
  -3  -2  -7 780.729 189.038   2
  -3  -2  -7 655.717 130.703   4
  -3  -2  -8 44.8913 30.2373   5
  -3  -2  -8 302.055 160.878   2
  -3  -2  -8 162.584 85.4329   4
  -3  -2  -9 56.9120 54.1894   5
  -3  -2  -9 210.535 110.821   4
  -3  -2  -9 163.274 150.822   2
  -3  -2 -10 1323.74 257.754   2
  -3  -2 -10 1430.18 212.739   4
  -3  -2 -10 1198.86 244.307   5
  -3  -2 -11 980.283 226.997   5
  -3  -2 -11 1261.24 205.821   4
  -3  -2 -12 264.411 109.019   4
  -3  -2 -12 82.8902 76.6472   5
  -3  -2 -13 6191.91 479.320   4
  -3  -2 -13 6350.67 606.172   5
  -3  -2 -14 339.717 136.778   4
  -3  -2 -14 318.892 149.292   2
  -3  -2 -14-97.7704 102.194   5
  -3  -2 -15 778.644 242.774   2
  -3  -2 -15 879.871 213.743   4
  -3  -2 -15 739.902 222.257   5
  -3  -2 -16 365.419 181.963   2
  -3  -2 -16 27.9428 81.2031   5
  -3  -2 -16 355.622 142.533   4
  -3  -2 -17 437.467 189.497   2
  -3  -2 -17 376.499 154.808   4
  -3  -2 -17 101.001 87.3174   5
  -3  -2 -18 431.111 182.473   2
  -3  -2 -18 525.628 175.845   4
  -3  -2 -18 191.870 145.804   5
  -3  -2 -19 404.878 190.958   2
  -3  -2 -19 459.808 179.916   4
  -3  -2 -19 55.6534 95.5997   5
  -3  -2 -20 165.652 140.828   2
  -3  -2 -20 528.005 185.884   4
  -3  -2 -20 179.335 153.355   5
  -3  -2 -21 327.548 178.940   2
  -3  -2 -21 387.355 171.420   4
  -3  -2 -21 200.136 153.565   5
   3   3 -18 201.175 133.121   4
   3   3 -17 86.7440 116.066   4
   3   3 -16 26.0470 94.7996   4
  -3  -3  16 32.6770 61.3812   1
  -3  -3  15 149.065 97.0824   1
   3   3 -15 388.450 158.328   4
   3   3 -14 100.879 121.445   4
  -3  -3  14 68.3114 94.5468   1
   3   3 -13 193.857 123.913   4
  -3  -3  13 117.307 77.9318   1
   3   3 -12 171.962 109.669   4
  -3  -3  12 116.305 77.5474   1
  -3  -3  11 2031.00 318.331   1
   3   3 -11 1677.84 302.865   4
   3   3 -10 1027.66 233.990   4
  -3  -3  10 972.416 212.470   1
   3   3  -9 146.847 84.5316   4
  -3  -3   9 10.0385 45.6825   1
   3   3  -8 772.846 189.467   4
  -3  -3   8 623.385 164.770   1
   3   3  -8 687.645 196.436   3
  -3  -3   7 596.690 125.300   2
   3   3  -7 591.474 153.506   4
  -3  -3   7 566.833 146.361   1
   3   3  -7 588.607 173.866   3
   3   3  -6 245.780 96.7803   4
  -3  -3   6 159.766 84.3875   1
  -3  -3   6 185.280 62.3960   2
   3   3  -6 147.398 92.2752   3
   3   3  -5 81.1320 71.2421   4
  -3  -3   5 62.1365 43.9346   2
  -3  -3   5-13.8622 66.9323   1
   3   3  -5 11.8008 50.7293   3
   3   3  -4 661.327 134.526   4
  -3  -3   4 645.183 175.132   1
  -3  -3   4 682.669 124.673   2
   3   3  -4 516.086 133.904   3
   3   3  -3-39.5914 25.4189   4
  -3  -3   3 28.0048 38.3439   2
  -3  -3   3-7.44327 39.4624   1
   3   3  -3 7.84156 60.4634   3
  -3  -3   2 219.478 67.2258   2
  -3  -3   2 248.074 102.443   1
   3   3  -2 221.629 93.2665   3
  -3  -3   1 1692.84 203.942   2
  -3  -3   1 1811.12 258.449   1
  -3  -3   1 1542.93 239.436   5
  -3  -3   1 1689.73 178.557   4
  -3  -3   0 3759.63 312.301   2
  -3  -3   0 3587.60 247.055   4
  -3  -3   0 3735.31 358.510   1
  -3  -3   0 3812.57 363.320   5
  -3  -3  -1 491.334 127.882   2
  -3  -3  -1 479.084 84.2470   4
  -3  -3  -1 547.298 142.299   1
  -3  -3  -1 525.788 136.643   5
  -3  -3  -2 4192.69 347.461   2
  -3  -3  -2 4195.98 377.120   1
  -3  -3  -2 4310.55 244.035   4
  -3  -3  -2 4144.21 379.907   5
  -3  -3  -3 362.960 110.909   5
  -3  -3  -3 434.962 124.092   2
  -3  -3  -4 122.888 81.2648   5
  -3  -3  -4 137.106 80.8906   2
  -3  -3  -4 113.105 42.0235   4
  -3  -3  -5 70.6012 70.0229   5
  -3  -3  -5 189.889 117.165   2
  -3  -3  -5 95.4161 37.9927   4
  -3  -3  -6 1634.42 253.034   2
  -3  -3  -6 1602.89 156.540   4
  -3  -3  -6 1274.16 221.062   5
  -3  -3  -7 521.954 170.500   2
  -3  -3  -7 419.680 101.349   4
  -3  -3  -7 498.778 146.311   5
  -3  -3  -8 551.070 159.220   5
  -3  -3  -8 648.970 187.207   2
  -3  -3  -8 646.021 121.647   4
  -3  -3  -9 8.63083 35.9001   5
  -3  -3  -9 145.836 148.051   2
  -3  -3  -9 235.225 91.1368   4
  -3  -3 -10 206.546 94.1130   5
  -3  -3 -10 352.899 180.498   2
  -3  -3 -10 292.453 92.9894   4
  -3  -3 -11 123.363 81.5322   5
  -3  -3 -11 394.806 188.286   2
  -3  -3 -11 418.736 127.572   4
  -3  -3 -12 6642.03 449.531   4
  -3  -3 -12 6784.25 612.474   5
  -3  -3 -12 6515.06 594.339   2
  -3  -3 -13 1687.48 238.479   4
  -3  -3 -13 1577.92 306.925   2
  -3  -3 -13 1417.60 289.601   5
  -3  -3 -14 102.505 131.068   2
  -3  -3 -14 102.203 78.1999   4
  -3  -3 -14 86.8431 102.051   5
  -3  -3 -15 1069.20 277.646   2
  -3  -3 -15 806.912 180.171   4
  -3  -3 -15 720.474 222.186   5
  -3  -3 -16 258.026 127.649   4
  -3  -3 -16 87.7714 115.588   2
  -3  -3 -16 35.8011 50.2476   5
  -3  -3 -17 553.774 210.767   2
  -3  -3 -17 619.506 172.965   4
  -3  -3 -17 352.121 165.794   5
  -3  -3 -18 151.283 145.006   2
  -3  -3 -18 319.973 136.661   4
  -3  -3 -18 190.040 155.929   5
  -3  -3 -19 451.266 199.783   2
  -3  -3 -19 158.965 117.587   5
  -3  -3 -20 379.602 200.134   2
  -3  -3 -20 274.801 163.079   5
  -3  -3 -21 172.008 131.958   2
   3   4 -18 102.042 125.697   4
   3   4 -17 20.5628 56.2003   4
   3   4 -16 304.562 169.140   4
   3   4 -15 13.9288 69.5545   4
  -3  -4  15 174.449 105.499   1
   3   4 -14-29.9455 35.8931   4
  -3  -4  14 201.575 128.380   1
   3   4 -13 256.912 160.046   4
  -3  -4  13 184.662 112.270   1
  -3  -4  12 383.087 139.810   1
   3   4 -12 478.525 172.063   4
   3   4 -11 264.207 134.901   4
  -3  -4  11 134.603 95.0575   1
   3   4 -10 908.270 239.696   3
   3   4 -10 973.129 226.585   4
  -3  -4  10 1194.05 242.202   1
   3   4  -9 15.9724 63.5797   4
  -3  -4   9-5.40570 34.2689   1
   3   4  -9 40.9506 51.2518   3
   3   4  -8 435.490 144.100   4
  -3  -4   8 571.228 171.637   1
   3   4  -8 305.494 120.927   3
  -3  -4   8 355.061 103.663   2
  -3  -4   7 3405.94 390.302   1
  -3  -4   7 3322.70 321.451   2
   3   4  -7 3145.00 349.545   4
   3   4  -7 3297.71 410.495   3
  -3  -4   6 2668.29 339.954   1
   3   4  -6 2577.72 304.198   4
  -3  -4   6 2615.20 286.077   2
   3   4  -6 2665.65 364.761   3
   3   4  -5 571.576 133.159   4
  -3  -4   5 647.177 163.456   1
  -3  -4   5 663.116 146.167   2
   3   4  -5 536.505 160.368   3
  -3  -4   4 2355.85 310.660   1
  -3  -4   4 2111.42 253.175   2
   3   4  -4 2416.41 263.521   4
   3   4  -4 2188.23 314.291   3
  -3  -4   3 924.449 177.823   2
   3   4  -3 834.630 144.226   4
  -3  -4   3 761.177 171.419   1
   3   4  -2 28.8581 16.8372   4
  -3  -4   2 30.1807 60.6971   1
  -3  -4   2-5.39848 30.7069   2
  -3  -4   1 612.507 151.313   5
  -3  -4   1 650.568 110.682   4
  -3  -4   1 522.325 143.157   1
  -3  -4   1 465.032 120.862   2
  -3  -4   0 2940.53 339.970   1
  -3  -4   0 2678.32 301.847   2
  -3  -4   0 2572.94 191.582   4
  -3  -4   0 2357.97 298.386   5
  -3  -4  -1 4017.89 216.892   4
  -3  -4  -1 4147.36 376.716   2
  -3  -4  -1 3833.39 375.146   5
  -3  -4  -2 2152.15 274.922   2
  -3  -4  -2 2276.16 147.240   4
  -3  -4  -2 2110.50 277.696   5
  -3  -4  -3 607.120 139.215   5
  -3  -4  -3 631.575 70.9641   4
  -3  -4  -3 518.016 66.2818   4
  -3  -4  -3 834.642 182.529   2
  -3  -4  -4 52.3132 61.4227   5
  -3  -4  -4 79.1141 65.9384   2
  -3  -4  -4 96.7616 29.4828   4
  -3  -4  -4 102.857 30.8669   4
  -3  -4  -5 638.498 158.603   5
  -3  -4  -5 418.705 54.0306   4
  -3  -4  -5 371.514 52.1347   4
  -3  -4  -5 703.997 181.763   2
  -3  -4  -6 694.920 172.573   5
  -3  -4  -6 611.560 168.626   2
  -3  -4  -6 693.225 72.2899   4
  -3  -4  -7 541.223 157.537   5
  -3  -4  -7 596.383 178.053   2
  -3  -4  -7 696.842 84.8761   4
  -3  -4  -8 465.902 147.123   5
  -3  -4  -8 522.760 157.855   2
  -3  -4  -8 624.899 88.7003   4
  -3  -4  -9 130.744 76.9526   5
  -3  -4  -9 303.742 146.494   2
  -3  -4  -9 406.802 86.6001   4
  -3  -4 -10 1099.76 250.261   2
  -3  -4 -10 1176.44 147.010   4
  -3  -4 -10 1002.70 227.277   5
  -3  -4 -11 758.290 206.555   2
  -3  -4 -11 750.788 127.568   4
  -3  -4 -11 651.883 194.696   5
  -3  -4 -12 575.034 179.934   2
  -3  -4 -12 720.937 139.733   4
  -3  -4 -12 702.531 208.050   5
  -3  -4 -13 1008.62 270.317   2
  -3  -4 -13 808.751 154.533   4
  -3  -4 -13 910.134 243.780   5
  -3  -4 -14 2.30370 64.4857   5
  -3  -4 -14 126.498 128.820   2
  -3  -4 -14 207.512 108.380   4
  -3  -4 -15 402.062 171.624   2
  -3  -4 -15 231.542 136.341   5
  -3  -4 -16 570.385 201.573   2
  -3  -4 -16 315.422 144.746   5
  -3  -4 -17 0.77549 55.8233   2
  -3  -4 -17 51.6079 102.894   5
  -3  -4 -18 343.010 190.179   2
  -3  -4 -18 80.0912 66.5472   5
  -3  -4 -19 206.528 157.228   2
  -3  -4 -19 63.9385 105.245   5
  -3  -4 -20 307.918 188.456   2
  -3  -4 -20 150.941 131.207   5
   3   5 -17 200.253 143.950   4
   3   5 -16 150.545 119.427   4
   3   5 -15 535.799 208.538   4
   3   5 -14 173.023 160.195   4
  -3  -5  14 62.3467 70.4300   1
   3   5 -13 191.994 121.866   4
  -3  -5  13 46.4294 35.0304   1
   3   5 -12 265.948 166.434   4
  -3  -5  12 50.3201 47.8268   1
  -3  -5  11 21.9810 62.0157   1
   3   5 -11-92.1177 59.6386   3
   3   5 -10 314.190 156.791   4
  -3  -5  10 71.1073 64.2086   1
   3   5 -10 152.740 104.510   3
  -3  -5   9 62.9375 47.7874   2
   3   5  -9 173.279 125.762   4
  -3  -5   9 86.0934 65.4213   1
   3   5  -9 98.0241 33.1931   3
   3   5  -8 670.134 186.494   4
  -3  -5   8 446.883 150.101   1
   3   5  -8 499.481 178.338   3
  -3  -5   8 550.511 150.726   2
   3   5  -7 571.352 168.564   4
  -3  -5   7 517.304 152.453   1
  -3  -5   7 501.298 139.327   2
   3   5  -7 364.234 155.029   3
   3   5  -6 40.4394 63.2918   4
  -3  -5   6 28.5344 49.2757   1
  -3  -5   6 46.4221 54.8504   2
   3   5  -6 83.7458 96.4663   3
   3   5  -5 683.713 153.008   4
  -3  -5   5 733.157 168.496   2
   3   5  -5 680.328 183.639   3
  -3  -5   5 674.797 161.178   1
  -3  -5   4 1602.88 255.762   1
  -3  -5   4 1427.48 236.607   2
   3   5  -4 1658.77 219.411   4
  -3  -5   3-43.1335 77.0239   1
   3   5  -3 19.0997 31.3523   4
  -3  -5   3 123.314 68.3355   2
  -3  -5   2-48.9483 50.1462   1
  -3  -5   2 3.80053 40.0229   5
   3   5  -2-3.06510 30.7185   4
  -3  -5   2-29.0675 45.4878   2
  -3  -5   1 76.7242 70.3356   5
  -3  -5   1 131.895 80.7859   2
  -3  -5   1 263.131 73.8068   4
  -3  -5   0 97.4135 45.7267   5
  -3  -5   0 88.8351 46.0423   2
  -3  -5   0 160.629 54.5943   4
  -3  -5  -1 281.298 107.996   5
  -3  -5  -1 242.487 55.1783   4
  -3  -5  -1 260.002 97.0785   2
  -3  -5  -2 1726.10 273.913   2
  -3  -5  -2 1884.23 270.681   5
  -3  -5  -3 1641.05 268.731   2
  -3  -5  -3 1718.35 257.299   5
  -3  -5  -4 1059.64 222.242   2
  -3  -5  -4 1064.59 209.010   5
  -3  -5  -5 1257.81 250.584   2
  -3  -5  -5 1246.82 229.761   5
  -3  -5  -6 117.586 96.7842   5
  -3  -5  -6 92.9121 89.8955   2
  -3  -5  -7 472.850 152.023   5
  -3  -5  -7 562.911 179.239   2
  -3  -5  -8 524.464 167.959   5
  -3  -5  -8 542.702 173.499   2
  -3  -5  -9 67.0940 81.7624   5
  -3  -5  -9 93.1240 112.889   2
  -3  -5 -10 95.8030 87.2721   5
  -3  -5 -10 34.3308 38.4709   2
  -3  -5 -11 202.874 108.694   2
  -3  -5 -11 243.701 138.861   5
  -3  -5 -12 74.4951 114.529   2
  -3  -5 -12 68.4523 94.8621   5
  -3  -5 -13 822.635 235.177   2
  -3  -5 -13 754.523 208.390   5
  -3  -5 -14 285.930 163.159   2
  -3  -5 -14 114.651 106.544   5
  -3  -5 -15 6540.24 671.069   5
  -3  -5 -15 5817.40 633.099   2
  -3  -5 -16 1973.61 373.857   5
  -3  -5 -16 2035.02 381.319   2
  -3  -5 -17-46.9290 91.4675   5
  -3  -5 -17 175.873 114.082   2
  -3  -5 -18 102.567 123.835   2
  -3  -5 -18 108.240 113.641   5
  -3  -5 -19 14.2567 80.1498   2
  -3  -5 -19-26.4020 51.3104   5
  -3  -5 -20 77.3770 62.8634   2
  -3  -5 -20 61.5603 108.462   5
   3   6 -16 353.906 190.501   4
   3   6 -15 843.925 265.225   4
   3   6 -14 350.455 158.574   4
  -3  -6  13 621.583 187.260   1
   3   6 -13 786.252 238.483   4
  -3  -6  12 98.7021 74.1733   1
   3   6 -12 350.315 167.936   4
   3   6 -12 189.371 115.384   3
   3   6 -11 348.486 164.606   4
   3   6 -11 285.915 166.314   3
  -3  -6  10 178.318 105.268   2
   3   6 -10 389.170 170.268   4
   3   6 -10 297.135 154.206   3
  -3  -6   9-32.9586 52.7327   1
   3   6  -9-21.3790 41.7341   3
  -3  -6   9-16.3757 36.2846   2
  -3  -6   8 186.314 111.879   1
   3   6  -8 185.143 122.372   4
   3   6  -8 116.952 99.4175   3
  -3  -6   8 78.3904 54.6034   2
  -3  -6   7 89.1447 68.1598   1
  -3  -6   7 164.547 87.3394   2
   3   6  -7 77.7898 76.2501   3
  -3  -6   6 51.9635 61.8803   2
   3   6  -6 45.5487 39.2697   3
   3   6  -5 332.722 113.054   4
  -3  -6   5 303.716 121.198   2
   3   6  -4 1082.39 179.075   4
  -3  -6   4 1088.91 223.357   2
  -3  -6   3 219.197 114.182   5
   3   6  -3 229.470 72.5984   4
  -3  -6   3 132.675 80.1740   2
  -3  -6   2 2124.37 317.717   2
  -3  -6   2 2106.57 311.208   5
   3   6  -2 2080.06 210.569   4
  -3  -6   1 180.024 92.2356   5
  -3  -6   1 358.480 122.070   2
  -3  -6   0 578.628 156.295   5
  -3  -6   0 659.365 193.044   2
  -3  -6  -1 438.605 139.306   5
  -3  -6  -1 277.803 102.701   2
  -3  -6  -2 1500.66 271.938   2
  -3  -6  -2 1437.40 246.111   5
  -3  -6  -3 260.525 104.817   5
  -3  -6  -3 208.837 117.059   2
  -3  -6  -4 437.356 129.550   5
  -3  -6  -4 686.055 194.327   2
  -3  -6  -5 242.400 96.4962   5
  -3  -6  -5 216.209 120.391   2
  -3  -6  -6 285.721 129.760   5
  -3  -6  -6 335.115 149.550   2
  -3  -6  -7 57.6136 55.3094   5
  -3  -6  -7-56.2741 45.0821   2
  -3  -6  -8 15.1454 69.3225   5
  -3  -6  -8-55.6023 72.1408   2
  -3  -6  -9 73.5965 75.7835   2
  -3  -6  -9 63.7721 84.9975   5
  -3  -6 -10 243.496 130.545   2
  -3  -6 -10 168.497 99.6452   5
  -3  -6 -11 102.774 97.8988   2
  -3  -6 -11 86.7732 50.9347   5
  -3  -6 -12-31.8279 72.6806   2
  -3  -6 -12 70.9347 122.923   5
  -3  -6 -13 156.855 119.468   2
  -3  -6 -13 144.727 100.006   5
  -3  -6 -14 1042.93 274.107   2
  -3  -6 -14 1339.74 295.416   5
  -3  -6 -15 356.079 174.864   2
  -3  -6 -15 540.736 195.073   5
  -3  -6 -16 556.123 212.998   2
  -3  -6 -16 338.362 154.722   5
  -3  -6 -17 125.669 104.365   2
  -3  -6 -17 99.1952 100.287   5
  -3  -6 -18 805.565 267.529   2
  -3  -6 -18 167.958 116.098   5
  -3  -6 -19 448.121 212.920   5
   3   7 -15 196.762 135.068   4
   3   7 -14 710.644 232.131   4
   3   7 -13 330.230 170.633   4
   3   7 -13 105.284 73.3183   3
   3   7 -12 825.103 244.311   4
   3   7 -12 827.487 264.632   3
   3   7 -11 702.764 210.038   4
   3   7 -11 627.974 205.279   3
   3   7 -10-24.3834 96.0479   3
   3   7 -10 285.146 137.679   4
  -3  -7  10 192.410 129.436   2
   3   7  -9 274.454 130.980   4
   3   7  -9 29.7422 53.9076   3
  -3  -7   9 156.644 77.6158   2
  -3  -7   8 143.768 98.4871   2
   3   7  -8 251.876 132.035   4
   3   7  -8 427.622 182.596   3
   3   7  -7 671.431 184.964   4
  -3  -7   7 514.626 171.727   2
   3   7  -7 367.908 164.664   3
   3   7  -6 133.466 90.6054   4
  -3  -7   6-79.9586 70.3324   2
   3   7  -5 202.760 95.3961   4
  -3  -7   5 82.7963 70.1836   2
  -3  -7   4 123.969 72.7345   5
   3   7  -4 290.464 102.517   4
  -3  -7   4 124.517 87.8081   2
  -3  -7   3 121.664 67.7392   5
   3   7  -3 155.811 66.9806   4
  -3  -7   3 137.615 71.4757   2
  -3  -7   2 1404.34 254.071   5
  -3  -7   2 1501.01 286.118   2
   3   7  -2 1665.72 183.205   4
  -3  -7   1 8978.44 703.552   2
  -3  -7   1 9289.74 634.454   5
  -3  -7   0 37.8673 35.6482   5
  -3  -7   0 59.8998 86.0924   2
  -3  -7  -1 81.0487 62.6470   5
  -3  -7  -1 265.128 152.350   2
  -3  -7  -2 35.7526 47.7699   5
  -3  -7  -2 31.7588 81.3431   2
  -3  -7  -3-55.5517 54.8335   5
  -3  -7  -3-4.75607 38.7472   2
  -3  -7  -4 84.8261 75.2482   5
  -3  -7  -4 79.1778 96.9308   2
  -3  -7  -5 291.144 116.076   5
  -3  -7  -5 172.041 97.3691   2
  -3  -7  -6 153.154 94.2754   5
  -3  -7  -6 31.1975 64.1030   2
  -3  -7  -7-60.3039 37.3219   5
  -3  -7  -7-0.16478 57.3276   2
  -3  -7  -8 342.947 147.394   5
  -3  -7  -8 160.395 100.501   2
  -3  -7  -9-25.6960 50.6651   5
  -3  -7  -9 4.39148 55.7341   2
  -3  -7 -10-83.1719 95.8154   2
  -3  -7 -10 107.409 81.6075   5
  -3  -7 -11 1.30997 46.7231   2
  -3  -7 -11 15.3788 57.7825   5
  -3  -7 -12 20.5007 70.1952   2
  -3  -7 -12-72.4322 67.9754   5
  -3  -7 -13 59.3436 79.8800   2
  -3  -7 -13 55.3521 72.4823   5
  -3  -7 -14 7.95735 79.2131   2
  -3  -7 -14 45.8591 56.3237   5
  -3  -7 -15-40.8073 58.7906   5
  -3  -7 -15-125.540 106.442   2
  -3  -7 -16 284.402 167.398   2
  -3  -7 -16 443.169 189.494   5
  -3  -7 -17 471.557 211.636   2
  -3  -7 -17 543.257 207.236   5
  -3  -7 -18 2615.96 443.596   5
   3   8 -14 382.636 165.560   4
   3   8 -13 387.234 166.163   4
   3   8 -13 91.3651 102.439   3
   3   8 -12 164.510 138.213   4
   3   8 -12-36.3818 85.0655   3
  -3  -8  11 1553.91 327.813   2
   3   8 -11 1281.82 285.883   4
   3   8 -11 1450.92 352.385   3
   3   8 -10 380.352 162.442   4
   3   8 -10 197.775 125.779   3
  -3  -8  10 283.526 143.872   2
   3   8  -9 187.834 118.548   4
   3   8  -9 93.9545 106.224   3
  -3  -8   9 44.7626 73.0223   2
   3   8  -8 287.039 163.141   3
  -3  -8   8 325.272 148.098   2
   3   8  -7 792.681 244.047   3
  -3  -8   7 615.149 206.018   2
  -3  -8   6 42.1627 54.0577   5
  -3  -8   6 31.2428 33.3202   2
  -3  -8   5 73.8368 53.7363   5
  -3  -8   5-11.3376 58.2264   2
  -3  -8   4-2.13691 49.8158   5
  -3  -8   4 123.878 97.6688   2
  -3  -8   3 86.8130 79.4602   5
  -3  -8   3 103.022 71.9585   2
  -3  -8   2 125.486 73.1863   5
  -3  -8   2 233.579 131.958   2
  -3  -8   1 807.200 236.523   2
  -3  -8   1 891.777 203.355   5
  -3  -8   0 2499.87 393.455   2
  -3  -8   0 2783.80 346.900   5
  -3  -8  -1-27.8286 59.0137   5
  -3  -8  -1 68.1504 33.2240   2
  -3  -8  -2 437.130 144.741   5
  -3  -8  -2 587.174 203.359   2
  -3  -8  -3 659.454 165.169   5
  -3  -8  -3 785.327 236.374   2
  -3  -8  -4 166.114 97.0561   5
  -3  -8  -4 204.190 130.930   2
  -3  -8  -5-6.87323 50.3905   5
  -3  -8  -5 134.880 122.104   2
  -3  -8  -6 418.597 138.200   5
  -3  -8  -6 352.865 156.596   2
  -3  -8  -7 153.372 92.5202   5
  -3  -8  -7 128.911 97.0713   2
  -3  -8  -8 131.168 84.6992   5
  -3  -8  -8 166.992 107.347   2
  -3  -8  -9 52.7122 86.6944   5
  -3  -8  -9 59.2615 100.250   2
  -3  -8 -10 161.925 140.134   2
  -3  -8 -10 52.6420 67.9611   5
  -3  -8 -11 119.277 111.618   2
  -3  -8 -11 1.22696 46.5738   5
  -3  -8 -12 62.7298 97.0593   2
  -3  -8 -12 46.5924 60.4134   5
  -3  -8 -13 145.545 135.088   2
  -3  -8 -13 30.9244 41.7266   5
  -3  -8 -14 177.394 154.934   2
  -3  -8 -15 168.126 160.691   2
  -3  -9  11 43.5774 92.1699   2
  -3  -9  10-20.1187 36.1668   2
   3   9 -10 71.0995 89.4081   3
   3   9  -9 870.256 293.934   3
  -3  -9   9 621.364 233.415   2
   3   9  -8 185.148 100.442   3
  -3  -9   8 190.896 121.359   2
  -3  -9   7 57.6105 78.4732   2
  -3  -9   6 103.079 55.3936   2
  -3  -9   5 108.789 113.149   2
  -3  -9   4 753.722 225.260   2
  -3  -9   3-5.41897 63.6524   2
  -3  -9   2 105.774 71.9708   2
  -3  -9   1-38.8296 38.8401   2
  -3  -9   0 577.728 207.361   2
  -3  -9  -1 6209.63 674.101   2
  -3  -9  -2 4462.96 582.429   2
  -3  -9  -3 562.987 226.258   2
  -3  -9  -4-34.6634 47.2741   2
  -3  -9  -5-40.6367 58.5468   2
  -3  -9  -6 306.821 138.585   2
  -3  -9  -7 95.6601 123.830   2
  -3  -9  -8 64.8453 99.3331   2
  -3  -9  -9 85.7783 84.9467   2
  -3  -9 -10 203.906 151.095   2
  -3  -9 -11 40.6846 75.3790   2
  -3  -9 -12 654.047 249.256   2
  -3  -9 -13-55.0528 121.281   2
  -3 -10   8 389.785 186.327   2
  -3 -10   7 113.525 83.7799   2
  -3 -10   6 111.732 89.9500   2
  -3 -10   5-192.877 147.742   2
  -3 -10   4 80.0122 89.0466   2
  -3 -10   3 141.916 112.235   2
  -3 -10   2 100.147 86.4275   2
  -3 -10   1 105.560 94.7136   2
  -3 -10   0 177.130 119.547   2
  -3 -10  -1 305.191 177.351   2
  -3 -10  -2-81.8964 62.2838   2
  -3 -10  -3 881.775 272.294   2
  -3 -10  -4 44.3447 64.7014   2
  -3 -10  -5 762.263 256.861   2
  -3 -10  -6 758.609 267.464   2
  -3 -10  -7 33.9736 101.724   2
  -3 -10  -8 304.676 166.148   2
  -3 -10  -9 6.43939 85.6290   2
  -4   9   4 214.156 146.092   1
  -4   9   4 67.9054 66.9119   4
  -4   9   3 650.970 228.815   1
  -4   9   3 407.109 168.281   4
  -4   9   2 450.016 182.055   1
  -4   9   2 247.161 132.412   4
  -4   9   1 261.635 134.436   1
  -4   9   1 228.774 136.256   4
  -4   9   0 417.309 165.383   4
  -4   9  -1 478.834 189.015   4
  -4   9  -2 370.917 169.665   4
  -4   9  -3 246.380 152.223   4
  -4   9  -4 465.328 201.653   4
  -4   9  -5 610.773 221.239   4
  -4   9  -6 190.265 144.234   4
  -4   8   7 19.5160 58.7422   1
  -4   8   6 147.154 140.629   1
  -4   8   5 267.432 151.848   1
  -4   8   4 658.699 234.625   1
  -4   8   3 221.584 148.610   1
  -4   8   3-4.03503 29.1750   4
  -4   8   2-31.8715 39.9853   1
  -4   8   2-34.2645 86.5714   4
  -4   8   1 80.1056 86.6561   1
  -4   8   1-179.629 147.200   4
  -4   8   0 156.676 100.110   1
  -4   8   0 236.531 114.989   4
  -4   8  -1-39.2370 75.0862   1
  -4   8  -1 194.338 127.190   4
  -4   8  -2 49.2665 54.0354   4
  -4   8  -3 48.4623 63.9166   4
  -4   8  -4 258.915 146.723   4
  -4   8  -5 466.596 201.002   4
  -4   8  -6 182.115 113.243   4
  -4   8  -7 118.979 132.089   4
  -4   8  -8 245.206 150.597   4
  -4   8  -9 258.864 171.777   4
  -4   8 -10 307.611 186.641   4
  -4   7   9 83.8542 91.3929   1
  -4   7   8 198.654 166.671   1
  -4   7   7 12.1391 73.3406   1
  -4   7   6 216.175 141.541   1
  -4   7   5 320.402 152.409   1
  -4   7   4 145.548 113.668   1
  -4   7   3 193.563 152.955   1
  -4   7   2 126.800 95.6399   1
  -4   7   1-15.8144 54.6526   1
  -4   7   1-122.576 95.4135   4
  -4   7   0 420.812 159.401   1
  -4   7   0 477.443 179.981   4
  -4   7  -1-47.9059 78.2720   1
  -4   7  -1 152.184 125.593   4
  -4   7  -2 138.922 64.1448   1
  -4   7  -2 251.056 133.710   4
  -4   7  -3 569.246 164.546   1
  -4   7  -3 609.159 193.934   4
  -4   7  -4 1817.58 360.727   4
  -4   7  -5 208.166 123.480   4
  -4   7  -6 66.9237 85.3446   4
  -4   7  -7-57.5432 38.3523   4
  -4   7  -8 537.287 232.581   4
  -4   7  -9 512.519 213.944   4
  -4   7 -10 314.941 212.320   4
  -4   7 -11 169.391 152.944   4
  -4   7 -12 228.603 156.103   4
  -4   6  11 301.077 176.638   1
  -4   6  10 51.2707 101.546   1
  -4   6   9 329.617 175.369   1
  -4   6   8 1213.63 309.622   1
  -4   6   7 53.9478 70.5170   1
  -4   6   6 102.526 106.173   1
  -4   6   5 147.639 119.745   1
  -4   6   4 86.3610 93.2331   1
  -4   6   3 69.2823 95.1020   1
  -4   6   2 532.326 176.408   1
  -4   6   1 68.3446 108.127   1
  -4   6   0 14.8587 41.6584   1
  -4   6  -1 86.9638 57.1130   1
  -4   6  -1 128.387 99.6705   4
  -4   6  -2 1151.81 233.444   1
  -4   6  -2 935.284 245.876   4
  -4   6  -3 2758.17 348.565   1
  -4   6  -3 2608.17 414.796   4
  -4   6  -4 268.912 99.2997   1
  -4   6  -4 218.529 116.460   4
  -4   6  -5 295.943 152.433   4
  -4   6  -6 127.959 109.155   4
  -4   6  -7 920.199 248.746   4
  -4   6  -8 68.9257 80.9775   4
  -4   6  -9 314.958 172.607   4
  -4   6 -10 426.657 198.398   4
  -4   6 -11 213.699 128.085   4
  -4   6 -12 306.009 189.868   4
  -4   6 -13 301.707 179.255   4
  -4   6 -14 497.251 240.648   4
  -4   5  13 206.636 124.678   1
  -4   5  12 213.886 168.575   1
  -4   5  11 14.1683 40.8199   1
  -4   5  10 83.8834 105.336   1
  -4   5   9 29.7309 60.1704   1
  -4   5   8 2084.50 389.499   1
  -4   5   7-136.771 109.093   1
  -4   5   6 12.9262 63.2252   1
  -4   5   5 19.9892 70.7592   1
  -4   5   4 77.8046 109.153   1
  -4   5   3 181.258 114.432   1
  -4   5   2-141.884 104.616   1
  -4   5   1 562.919 160.943   1
  -4   5   0 204.717 72.2716   1
  -4   5  -1-91.5022 105.549   1
  -4   5  -2 1037.52 204.734   1
  -4   5  -2 778.879 214.800   4
  -4   5  -3 852.052 228.680   4
  -4   5  -3 586.055 149.180   1
  -4   5  -4 95.0622 90.6782   4
  -4   5  -4 113.075 66.4516   1
  -4   5  -5 190.989 85.4206   1
  -4   5  -5 86.6424 43.4978   4
  -4   5  -6 191.572 74.9377   1
  -4   5  -6 69.8187 63.5183   4
  -4   5  -6 202.847 76.5656   5
  -4   5  -7 1243.97 279.438   4
  -4   5  -7 1081.30 183.285   5
  -4   5  -8 22.7892 45.6695   4
  -4   5  -8 25.4240 21.5134   5
  -4   5  -9 171.911 124.854   4
  -4   5  -9 30.9103 50.9297   5
  -4   5 -10 311.653 162.543   4
  -4   5 -10 32.2192 42.7080   5
  -4   5 -11 187.564 145.430   4
  -4   5 -11 50.9349 70.2093   5
  -4   5 -12 369.851 187.663   4
  -4   5 -12 63.9876 72.8536   5
  -4   5 -13 284.783 163.216   4
  -4   5 -13 11.2589 67.4685   5
  -4   5 -14 369.687 215.359   4
  -4   5 -15 259.644 160.700   4
  -4   5 -16 258.740 190.317   4
  -4   4  15 96.2753 55.0376   1
  -4   4  14 365.929 197.627   1
  -4   4  13 143.799 122.454   1
  -4   4  12 123.763 140.597   1
  -4   4  11 148.356 109.995   1
  -4   4  10 171.356 126.066   1
  -4   4   9 704.709 235.015   1
  -4   4   8 57.6522 80.0998   1
  -4   4   7 721.878 229.922   1
  -4   4   6 84.9065 77.4804   1
  -4   4   5 837.792 223.819   1
  -4   4   5 824.005 165.894   5
  -4   4   4 44.3003 52.6471   5
  -4   4   4-77.3138 105.051   1
  -4   4   3 287.522 124.701   1
  -4   4   3 262.743 83.0426   5
  -4   4   2-22.4047 42.5102   1
  -4   4   2 18.0544 41.9407   5
  -4   4   1 1484.58 265.435   1
  -4   4   1 1503.56 192.852   5
  -4   4   0 326.604 115.635   1
  -4   4   0 460.412 104.597   5
  -4   4  -1 307.184 91.1866   5
  -4   4  -1 208.635 96.1068   1
  -4   4  -2 129.408 60.0523   5
  -4   4  -2 142.544 76.1830   1
  -4   4  -3 547.535 117.670   5
  -4   4  -3 448.347 125.047   1
  -4   4  -3 474.517 171.889   4
  -4   4  -4 20.3744 19.4750   5
  -4   4  -4 1.60078 27.3346   1
  -4   4  -5 6368.75 427.037   1
  -4   4  -5 5914.07 580.300   4
  -4   4  -5 6721.42 440.967   5
  -4   4  -6 11046.4 529.904   1
  -4   4  -6 10489.8 779.291   4
  -4   4  -6 10444.7 586.907   5
  -4   4  -7 222.103 72.5388   1
  -4   4  -7 272.404 109.821   5
  -4   4  -7 357.784 151.234   4
  -4   4  -8 1423.63 300.024   4
  -4   4  -8 1226.15 213.778   5
  -4   4  -9 430.181 185.584   4
  -4   4  -9 275.201 124.155   5
  -4   4 -10 77.1084 114.479   4
  -4   4 -10 124.739 73.3197   5
  -4   4 -11 681.268 230.820   4
  -4   4 -11 402.089 147.712   5
  -4   4 -12 217.705 149.422   4
  -4   4 -12 84.0723 66.7617   5
  -4   4 -13 374.032 193.977   4
  -4   4 -13 86.0003 69.2452   5
  -4   4 -14 916.670 291.661   4
  -4   4 -14 925.277 229.936   5
  -4   4 -15 983.775 305.398   4
  -4   4 -15 1623.60 329.669   5
  -4   4 -16 268.990 172.985   4
  -4   4 -16 151.833 103.741   5
  -4   4 -17 241.264 159.285   4
  -4   4 -17 154.733 85.9013   5
  -4   4 -18 8.71332 36.0407   5
  -4   4 -19-2.27254 75.5337   5
  -4   3  16-49.7745 78.7749   1
  -4   3  15 247.864 139.459   1
  -4   3  14 419.824 213.675   1
  -4   3  13 551.224 211.529   1
  -4   3  12 50.6090 95.5839   1
  -4   3  11 842.218 255.680   1
  -4   3  10 718.903 231.971   1
  -4   3   9 986.913 270.348   1
  -4   3   8 213.191 105.164   1
  -4   3   7 1133.55 269.730   1
  -4   3   6 1003.10 245.227   1
  -4   3   5 461.089 161.805   1
  -4   3   4 33.0175 58.5275   5
  -4   3   4-52.4830 72.3824   1
  -4   3   3-13.2724 48.1144   1
  -4   3   3 6.12674 45.5561   5
  -4   3   2 70.7661 58.0452   5
  -4   3   2-38.6566 56.0451   1
  -4   3   1-0.21935 27.6137   5
  -4   3   1-98.3729 79.5909   1
  -4   3   0 514.537 117.899   5
  -4   3   0 581.699 170.039   1
  -4   3  -1 6.82680 16.4766   5
  -4   3  -1 22.7356 65.9142   1
  -4   3  -2 38.1487 46.3704   5
  -4   3  -2 128.785 61.4145   1
  -4   3  -3 135.204 59.1247   5
  -4   3  -3 179.574 89.2899   1
  -4   3  -4-22.0160 21.4001   5
  -4   3  -4 43.5294 51.0292   1
  -4   3  -4-22.1987 50.0633   4
  -4   3  -5 8533.52 475.637   1
  -4   3  -5 8505.65 666.075   4
  -4   3  -5 8381.83 523.152   5
  -4   3  -6-7.90456 26.5073   1
  -4   3  -6-51.6610 68.3803   5
  -4   3  -6 53.4393 48.9009   4
  -4   3  -7 299.248 130.855   4
  -4   3  -7 273.009 80.3444   1
  -4   3  -7 202.191 94.9363   5
  -4   3  -8 56.3218 37.3867   1
  -4   3  -8 48.8883 69.6938   4
  -4   3  -8 132.514 81.9947   5
  -4   3  -9 324.525 131.809   4
  -4   3  -9 246.434 113.551   5
  -4   3 -10 142.394 123.883   4
  -4   3 -10 26.5831 25.9612   5
  -4   3 -11 353.043 180.431   4
  -4   3 -11 114.241 84.8316   5
  -4   3 -12 64.2230 126.373   4
  -4   3 -12-52.7712 84.5308   5
  -4   3 -13 490.711 192.315   4
  -4   3 -13 266.829 127.449   5
  -4   3 -14 423.226 203.189   4
  -4   3 -14 283.529 137.126   5
  -4   3 -15 193.478 152.578   4
  -4   3 -15 98.9570 94.8262   5
  -4   3 -16 639.323 231.351   4
  -4   3 -16 269.725 129.535   5
  -4   3 -17 128.546 124.177   4
  -4   3 -17-0.99583 34.8245   5
  -4   3 -18 514.007 214.493   4
  -4   3 -18 192.547 127.974   5
  -4   3 -19 526.841 223.836   4
  -4   3 -19 193.753 130.326   5
  -4   2  17 135.818 146.728   1
  -4   2  16 340.842 179.277   1
  -4   2  15 135.643 118.737   1
  -4   2  14-15.9606 45.9252   1
  -4   2  13 578.971 216.915   1
  -4   2  12 383.111 189.034   1
  -4   2  11 3918.95 527.574   1
  -4   2  10 2812.13 439.334   1
  -4   2   9 106.297 127.394   1
  -4   2   8-16.3215 63.3936   1
  -4   2   7 129.984 96.4907   1
  -4   2   6 105.532 88.5034   1
  -4   2   5 81.7466 91.7311   1
  -4   2   4 123.241 25.9253   2
  -4   2   4 107.274 82.1218   1
  -4   2   3 878.946 176.027   5
  -4   2   3 901.196 96.8261   2
  -4   2   3 1039.44 222.835   1
  -4   2   2 174.509 81.1797   5
  -4   2   2 171.729 49.3154   2
  -4   2   2 247.440 97.1230   1
  -4   2   1 173.001 80.3180   5
  -4   2   1 107.273 62.2945   1
  -4   2   1 208.559 59.9138   2
  -4   2   0 347.212 111.348   5
  -4   2   0 380.745 129.152   1
  -4   2  -1 811.002 155.617   5
  -4   2  -1 1003.80 198.900   1
  -4   2  -2 202.950 79.9555   5
  -4   2  -2 356.432 130.371   1
  -4   2  -2 108.379 33.1293   3
  -4   2  -3 23.2436 58.0892   5
  -4   2  -3 11.9403 47.8530   1
  -4   2  -3-14.5915 28.5949   3
  -4   2  -4 194.318 88.7196   5
  -4   2  -4 198.082 78.0368   1
  -4   2  -4 158.269 42.8829   3
  -4   2  -5 422.772 123.817   5
  -4   2  -5 453.890 152.971   4
  -4   2  -5 377.232 103.556   1
  -4   2  -6-37.5380 43.2523   5
  -4   2  -6 20.5545 52.4056   4
  -4   2  -6 51.1640 58.5083   1
  -4   2  -7 86.3410 47.4521   1
  -4   2  -7 41.5773 44.4683   5
  -4   2  -7 86.3971 49.7752   4
  -4   2  -8 8817.00 386.519   1
  -4   2  -8 8731.28 668.092   4
  -4   2  -8 8802.69 610.436   5
  -4   2  -9 9443.88 710.014   4
  -4   2  -9 9073.80 642.871   5
  -4   2 -10 265.224 168.612   4
  -4   2 -10-50.5522 58.5665   5
  -4   2 -11 1013.38 272.859   4
  -4   2 -11 888.712 213.818   5
  -4   2 -12 958.176 260.517   4
  -4   2 -12 680.190 195.326   5
  -4   2 -13 1640.69 325.195   4
  -4   2 -13 1746.35 320.806   5
  -4   2 -14 193.970 135.507   4
  -4   2 -14 242.126 119.992   5
  -4   2 -15 424.215 212.186   4
  -4   2 -15 414.916 162.433   5
  -4   2 -16 505.578 207.520   4
  -4   2 -16 398.109 159.855   5
  -4   2 -17 384.814 198.944   4
  -4   2 -17 269.530 151.058   5
  -4   2 -18 630.649 236.717   4
  -4   2 -18-20.9380 67.9493   5
  -4   2 -19 489.439 217.751   4
  -4   2 -19 250.624 151.468   5
  -4   2 -20 673.384 239.190   4
  -4   2 -20 245.383 143.892   5
  -4   1  18 307.197 176.519   1
  -4   1  17 109.881 132.597   1
  -4   1  16 216.767 156.091   1
  -4   1  15 227.979 129.741   1
  -4   1  14 146.463 107.802   1
  -4   1  13 160.489 103.448   1
  -4   1  12 7.38091 42.9936   1
  -4   1  11 378.473 190.168   1
  -4   1  10 493.866 187.754   1
  -4   1   9 2162.95 367.389   1
  -4   1   8 2404.78 373.564   1
  -4   1   7 1023.92 242.742   1
  -4   1   6 131.081 108.396   1
  -4   1   5 270.306 125.367   1
  -4   1   4 870.286 201.456   1
  -4   1   3 379.800 49.0784   2
  -4   1   3 688.383 187.945   1
  -4   1   3 469.769 53.4800   2
  -4   1   2 925.392 100.391   2
  -4   1   2 1108.36 220.073   1
  -4   1   2 1077.54 205.180   5
  -4   1   1 221.928 97.8554   5
  -4   1   1 292.290 122.108   1
  -4   1   1 202.014 51.4378   2
  -4   1   0 666.795 112.035   2
  -4   1   0 587.387 142.601   5
  -4   1   0 543.117 149.968   1
  -4   1  -1 31.5485 49.7015   5
  -4   1  -1 25.0727 47.4366   1
  -4   1  -2 234.903 90.6120   5
  -4   1  -2 278.663 100.388   1
  -4   1  -2 350.458 79.4269   3
  -4   1  -3 361.586 110.309   1
  -4   1  -3 447.745 123.173   5
  -4   1  -4-33.1630 42.6273   5
  -4   1  -4 72.0361 62.4081   1
  -4   1  -5 79.7953 75.8942   5
  -4   1  -5 62.2107 59.7765   4
  -4   1  -5 29.9569 43.9180   1
  -4   1  -6 697.757 162.501   5
  -4   1  -6 751.247 139.454   1
  -4   1  -6 903.013 191.795   4
  -4   1  -7 2980.97 260.228   1
  -4   1  -7 2527.52 331.169   4
  -4   1  -7 3081.73 357.515   5
  -4   1  -8 117.385 91.2017   5
  -4   1  -8 146.111 47.5905   1
  -4   1  -8 81.2888 71.2762   4
  -4   1  -9-31.5859 52.9141   5
  -4   1  -9 81.5392 74.6670   4
  -4   1 -10 606.185 200.708   4
  -4   1 -10 528.383 159.840   5
  -4   1 -11 818.960 211.529   4
  -4   1 -11 818.276 201.457   5
  -4   1 -12 401.491 173.195   4
  -4   1 -12 162.652 98.0042   5
  -4   1 -13 710.833 223.896   4
  -4   1 -13 981.095 244.430   5
  -4   1 -14 738.525 217.691   5
  -4   1 -14 432.756 199.886   4
  -4   1 -15 349.942 174.506   4
  -4   1 -15 133.320 82.2741   5
  -4   1 -16 281.514 169.055   4
  -4   1 -16 67.0469 103.479   5
  -4   1 -17 175.882 148.160   4
  -4   1 -17 20.4363 82.6561   5
  -4   1 -18 224.982 143.121   4
  -4   1 -18 310.296 156.581   5
  -4   1 -19 562.146 228.453   4
  -4   1 -19 148.421 82.0592   5
  -4   1 -20 485.284 218.800   4
  -4   1 -20 214.931 168.213   5
  -4   0  18 648.937 241.738   1
  -4   0  17-38.5539 85.8581   1
  -4   0  16 162.108 118.645   1
  -4   0  15 196.663 154.895   1
  -4   0  14 301.542 156.007   1
  -4   0  13 167.346 108.400   1
  -4   0  12 234.223 132.331   1
  -4   0  11 224.825 144.191   1
  -4   0  10 640.976 195.104   1
  -4   0   9 1092.70 257.495   1
  -4   0   8 20401.1 1072.75   1
  -4   0   7 3353.24 432.312   1
  -4   0   6 425.763 153.977   1
  -4   0   5 26.5060 51.7632   1
  -4   0   4-11.8813 38.1937   1
  -4   0   3 319.981 44.9514   2
  -4   0   3 290.556 42.0573   2
  -4   0   3 374.912 134.848   1
  -4   0   2 191.291 86.9759   5
  -4   0   2 245.080 55.0264   2
  -4   0   2 168.610 84.4892   1
  -4   0   1 1337.71 225.584   5
  -4   0   1 1455.62 232.847   1
  -4   0   1 1612.00 155.223   2
  -4   0   0 92.7571 86.8516   1
  -4   0   0 56.6762 53.4293   5
  -4   0   0 224.032 82.3858   2
  -4   0  -1 1185.68 205.496   1
  -4   0  -1 1214.79 215.527   5
  -4   0  -2 1122.21 202.699   1
  -4   0  -2 1005.83 196.023   5
  -4   0  -3 2731.85 296.512   1
  -4   0  -3 2694.75 317.394   5
  -4   0  -4 428.463 136.008   5
  -4   0  -4 489.123 132.710   1
  -4   0  -5 858.748 163.832   1
  -4   0  -5 811.831 178.091   5
  -4   0  -5 868.816 180.517   4
  -4   0  -6 199.293 111.079   5
  -4   0  -6 246.351 95.5417   1
  -4   0  -6 307.738 106.997   4
  -4   0  -7 38.9089 32.1474   5
  -4   0  -7-4.86418 34.7532   1
  -4   0  -7-58.6958 25.9350   4
  -4   0  -8 407.198 145.647   5
  -4   0  -8 525.538 147.315   4
  -4   0  -9-71.0585 77.5008   5
  -4   0  -9 42.5602 84.1194   4
  -4   0 -10 224.070 107.518   5
  -4   0 -10 591.855 186.424   4
  -4   0 -11 2646.21 349.016   4
  -4   0 -11 2243.96 349.920   5
  -4   0 -12 3796.84 439.632   4
  -4   0 -12 3082.98 429.425   5
  -4   0 -13 579.355 180.923   5
  -4   0 -13 715.494 211.529   4
  -4   0 -14 253.508 164.117   4
  -4   0 -14 60.0521 63.2847   5
  -4   0 -15 468.304 168.943   4
  -4   0 -15 478.560 204.720   5
  -4   0 -16 38.4934 71.3162   5
  -4   0 -16 405.824 171.276   4
  -4   0 -17 414.523 178.180   4
  -4   0 -17 154.760 111.096   5
  -4   0 -18 273.690 146.984   4
  -4   0 -18 56.5994 78.2420   5
  -4   0 -19 309.520 161.481   4
  -4   0 -19-136.955 114.389   5
  -4   0 -20 170.251 121.813   4
  -4   0 -20 185.655 138.768   5
  -4   0 -21 181.450 133.326   4
  -4  -1  18 678.596 234.769   1
   4   1 -17 197.889 158.814   4
  -4  -1  17 8.63850 64.7293   1
  -4  -1  16 89.9719 108.711   1
   4   1 -16 123.044 96.6385   4
  -4  -1  15-90.9122 92.8958   1
   4   1 -15 75.1431 41.2296   4
  -4  -1  14 47.9413 59.5416   1
   4   1 -14 134.420 95.4439   4
  -4  -1  13 72.4686 97.8049   1
  -4  -1  12 121.171 75.1018   1
  -4  -1  11 119.924 110.981   1
  -4  -1  10 189.727 116.629   1
  -4  -1   9 198.317 122.689   1
  -4  -1   8 81.9821 65.4398   1
  -4  -1   7 477.406 175.868   1
  -4  -1   6 483.734 149.144   1
  -4  -1   5 4437.32 456.467   1
  -4  -1   4 1228.29 95.5762   2
  -4  -1   4 1607.36 268.951   1
  -4  -1   3 295.316 58.7264   2
  -4  -1   3 246.743 100.436   1
  -4  -1   2 38.9511 56.1371   5
  -4  -1   2 29.8414 20.2595   2
  -4  -1   2 34.1190 82.2110   1
  -4  -1   1 2762.61 330.711   1
  -4  -1   1 2886.89 342.406   5
  -4  -1   1 2872.01 221.779   2
  -4  -1   0 659.856 162.164   5
  -4  -1   0 695.164 165.180   1
  -4  -1   0 898.532 137.158   2
  -4  -1  -1 606.005 162.132   5
  -4  -1  -1 588.817 149.806   1
  -4  -1  -1 843.347 145.049   2
  -4  -1  -2 1053.21 202.734   1
  -4  -1  -2 904.634 190.341   5
   4   1   2 936.131 145.733   3
  -4  -1  -2 1117.28 167.190   2
  -4  -1  -3 87.5145 57.2619   5
  -4  -1  -3 408.523 134.527   2
  -4  -1  -3 256.269 98.1433   1
   4   1   3 226.883 74.7576   3
  -4  -1  -4-15.7078 47.3882   5
  -4  -1  -4 40.7976 52.1113   1
   4   1   4 26.1205 35.5694   3
  -4  -1  -5 1395.27 218.995   1
  -4  -1  -5 1714.82 232.774   4
   4   1   5 1883.40 170.704   3
  -4  -1  -5 1676.39 269.218   5
  -4  -1  -6 1650.67 230.692   1
  -4  -1  -6 1665.30 230.661   4
   4   1   6 1804.14 152.392   3
  -4  -1  -6 1759.05 273.911   5
  -4  -1  -7 315.621 126.284   5
  -4  -1  -7 235.006 109.998   4
   4   1   7 226.166 50.4371   3
  -4  -1  -8 894.949 203.640   5
  -4  -1  -8 1114.40 200.926   4
   4   1   8 823.779 92.2431   3
  -4  -1  -9 226.834 89.7083   5
  -4  -1  -9 506.053 150.275   4
  -4  -1 -10 30.1221 75.3303   5
  -4  -1 -10 223.479 121.424   4
  -4  -1 -11 1762.48 276.242   4
  -4  -1 -11 1557.12 296.612   5
  -4  -1 -12 195.380 114.935   4
  -4  -1 -12-56.0647 94.2326   5
  -4  -1 -13 396.902 162.314   4
  -4  -1 -13 303.965 147.035   5
  -4  -1 -14 2827.65 381.698   4
  -4  -1 -14 2596.75 416.407   5
  -4  -1 -15 353.001 160.279   4
  -4  -1 -15 110.064 103.295   5
  -4  -1 -16 309.542 151.035   4
  -4  -1 -16 49.7377 75.6735   5
  -4  -1 -17 418.660 169.150   4
  -4  -1 -17 170.381 116.908   5
  -4  -1 -18 126.964 127.435   4
  -4  -1 -18 19.6316 61.8383   5
  -4  -1 -19 347.846 167.856   4
  -4  -1 -19 72.3431 86.7445   5
  -4  -1 -20 290.804 155.945   4
  -4  -1 -20-52.2202 70.3644   5
  -4  -1 -21 308.766 180.501   4
  -4  -2  18 67.2536 91.9450   1
   4   2 -17 128.949 100.634   4
  -4  -2  17 96.6868 93.7793   1
   4   2 -16 508.374 204.015   4
  -4  -2  16 202.182 116.835   1
   4   2 -15-70.0422 100.252   4
  -4  -2  15-98.5394 103.181   1
  -4  -2  14 398.115 172.260   1
   4   2 -14 250.358 138.315   4
  -4  -2  13 250.011 140.544   1
   4   2 -13 61.6933 58.6173   4
  -4  -2  12-35.9863 62.1440   1
   4   2 -12-149.740 128.364   4
  -4  -2  11 177.373 119.450   1
   4   2 -11 138.400 89.7625   4
  -4  -2  10 156.193 104.639   1
   4   2 -10 85.3924 38.6501   4
  -4  -2   9 60.9911 64.8143   1
   4   2  -9-20.3528 58.0639   4
  -4  -2   8 262.837 128.118   1
  -4  -2   7 335.906 129.602   1
  -4  -2   6 4852.74 241.400   2
  -4  -2   6 4971.81 497.062   1
  -4  -2   5 10506.4 378.074   2
  -4  -2   5 10783.4 717.458   1
  -4  -2   4 1277.99 140.262   2
  -4  -2   4 1140.96 232.498   1
  -4  -2   3 110.612 43.7290   2
  -4  -2   3 56.4106 58.8453   1
   4   2  -3 78.7211 76.0527   3
  -4  -2   2 92.4886 76.4306   5
  -4  -2   2 75.6107 33.3713   2
  -4  -2   2 55.8959 87.8938   1
   4   2  -2 136.769 77.8045   3
  -4  -2   1 132.327 86.2276   5
  -4  -2   1 101.983 64.0368   2
  -4  -2   1 64.4320 57.4045   1
   4   2  -1 98.9229 78.0306   3
  -4  -2   0 658.965 129.632   2
  -4  -2   0 472.616 159.827   5
  -4  -2   0 617.083 172.138   1
   4   2   0 502.901 116.988   3
  -4  -2  -1 653.980 169.446   5
  -4  -2  -1 744.156 170.035   1
   4   2   1 663.863 148.172   3
  -4  -2  -1 710.108 139.116   2
  -4  -2  -2 3273.83 357.687   1
   4   2   2 3349.11 305.244   3
  -4  -2  -2 3251.43 373.911   5
  -4  -2  -2 3308.31 310.085   2
  -4  -2  -3 595.585 155.381   5
  -4  -2  -3 756.977 160.553   2
  -4  -2  -3 561.606 151.839   1
   4   2   3 476.144 109.644   3
  -4  -2  -4 109.139 78.5630   5
  -4  -2  -4 259.368 110.367   2
  -4  -2  -4 105.082 74.0824   1
  -4  -2  -5 1545.69 237.024   1
  -4  -2  -5 1497.22 207.671   4
  -4  -2  -5 1791.50 282.232   5
  -4  -2  -5 1799.26 265.356   2
  -4  -2  -6 318.208 122.917   5
  -4  -2  -6 620.591 170.223   2
  -4  -2  -6 411.310 112.982   4
  -4  -2  -7 99.8994 67.7754   5
  -4  -2  -7 107.514 67.3565   4
  -4  -2  -8 381.664 139.255   5
  -4  -2  -8 704.865 211.062   2
  -4  -2  -8 583.443 142.864   4
  -4  -2  -9 496.185 171.959   5
  -4  -2  -9 685.411 203.340   2
  -4  -2  -9 668.035 158.948   4
  -4  -2 -10 1654.60 246.656   4
  -4  -2 -10 1564.01 294.752   5
  -4  -2 -10 1517.39 300.545   2
  -4  -2 -11 25.9433 44.8883   5
  -4  -2 -11 244.027 145.413   2
  -4  -2 -11 146.359 87.3579   4
  -4  -2 -12 94.3115 69.9790   5
  -4  -2 -12 213.938 121.443   4
  -4  -2 -12 169.236 115.312   2
  -4  -2 -13 460.946 144.740   4
  -4  -2 -13 405.887 182.755   2
  -4  -2 -13 198.287 120.896   5
  -4  -2 -14 602.929 193.665   5
  -4  -2 -14 848.665 193.161   4
  -4  -2 -14 874.830 249.813   2
  -4  -2 -15 231.575 154.518   2
  -4  -2 -15 142.688 109.573   4
  -4  -2 -15 143.085 90.9130   5
  -4  -2 -16 787.016 252.122   2
  -4  -2 -16 386.979 155.991   4
  -4  -2 -16 430.916 202.533   5
  -4  -2 -17 275.676 179.251   2
  -4  -2 -17 431.469 164.144   4
  -4  -2 -17 124.567 106.319   5
  -4  -2 -18 202.381 195.414   2
  -4  -2 -18 388.957 160.784   4
  -4  -2 -18-70.2412 70.4390   5
  -4  -2 -19 839.465 275.490   2
  -4  -2 -19 916.798 240.373   4
  -4  -2 -19 344.373 170.262   5
  -4  -2 -20 126.752 110.027   2
  -4  -2 -20 20.7569 109.303   5
   4   3 -17 149.602 139.363   4
  -4  -3  17 277.264 163.814   1
   4   3 -16 20.1728 114.927   4
  -4  -3  16 50.5186 63.0394   1
   4   3 -15 113.282 91.1946   4
  -4  -3  15 108.484 81.5168   1
   4   3 -14-92.3749 74.7326   4
  -4  -3  14 5.12535 65.0709   1
   4   3 -13 5.26805 39.3837   4
  -4  -3  13 66.4288 83.3461   1
   4   3 -12 67.2697 55.1399   4
  -4  -3  12-9.09565 83.3923   1
   4   3 -11 114.449 69.8552   4
  -4  -3  11 97.9141 61.4039   1
   4   3 -10 351.228 148.172   4
  -4  -3  10 301.888 159.542   1
   4   3  -9 489.684 161.984   4
  -4  -3   9 412.868 156.410   1
   4   3  -8 85.4100 108.479   4
  -4  -3   8 12.8026 52.7392   1
   4   3  -7 119.315 96.9133   4
  -4  -3   7 151.641 113.161   1
  -4  -3   7 162.894 62.1113   2
  -4  -3   6 362.793 136.570   1
  -4  -3   6 348.184 85.6181   2
   4   3  -6 255.979 113.099   3
  -4  -3   5 1629.72 191.769   2
  -4  -3   5 1608.06 285.144   1
   4   3  -5 1533.67 284.219   3
  -4  -3   4 412.496 104.153   2
  -4  -3   4 466.885 167.744   1
   4   3  -4 242.960 105.650   3
  -4  -3   3 533.834 115.226   2
  -4  -3   3 582.462 179.534   1
   4   3  -3 528.260 155.932   3
  -4  -3   2 492.580 161.495   5
  -4  -3   2 460.748 112.088   2
  -4  -3   2 468.922 154.614   1
   4   3  -2 481.449 150.649   3
  -4  -3   1 70.6335 82.1329   5
  -4  -3   1 72.0297 49.9908   2
  -4  -3   1 68.9200 100.353   1
   4   3  -1 134.962 90.1206   3
  -4  -3   0 64.9134 64.6060   5
  -4  -3   0 120.848 76.6742   2
  -4  -3   0 101.498 76.8878   1
   4   3   0 65.1206 62.5416   3
  -4  -3  -1 234.721 100.594   5
  -4  -3  -1 273.946 103.373   2
  -4  -3  -1 400.071 138.265   1
   4   3   1 296.157 113.114   3
  -4  -3  -2 424.987 146.165   5
  -4  -3  -2 266.485 98.7922   2
  -4  -3  -2 245.973 93.9173   1
  -4  -3  -3 110.686 95.4573   5
  -4  -3  -3 177.409 90.6881   2
  -4  -3  -3-14.0871 45.0537   1
  -4  -3  -4 158.508 98.6530   5
  -4  -3  -4 212.573 108.570   1
  -4  -3  -4 270.557 128.728   2
  -4  -3  -5 18.9418 40.5016   5
  -4  -3  -5 168.195 106.028   2
  -4  -3  -5 36.8928 50.3316   4
  -4  -3  -6-39.0139 83.5460   5
  -4  -3  -6 69.3597 79.5101   2
  -4  -3  -6 10.6349 26.0516   4
  -4  -3  -7 14.4261 76.6177   5
  -4  -3  -7 170.217 125.214   2
  -4  -3  -7 169.042 77.0477   4
  -4  -3  -8 96.2666 85.6309   5
  -4  -3  -8 270.164 142.666   2
  -4  -3  -8 305.081 104.671   4
  -4  -3  -9 2416.43 357.695   2
  -4  -3  -9 2103.14 337.318   5
  -4  -3 -10 3.39035 51.9646   5
  -4  -3 -10 115.087 125.925   2
  -4  -3 -10 117.835 75.2336   4
  -4  -3 -11 149.803 113.176   5
  -4  -3 -11 269.918 145.709   2
  -4  -3 -11 243.264 99.7511   4
  -4  -3 -12 85.8130 75.3391   5
  -4  -3 -12 281.173 162.502   2
  -4  -3 -12 158.643 92.2943   4
  -4  -3 -13 280.020 154.839   2
  -4  -3 -13 388.292 127.206   4
  -4  -3 -13 239.049 146.556   5
  -4  -3 -14 519.954 205.315   2
  -4  -3 -14 538.664 151.308   4
  -4  -3 -14 562.268 208.709   5
  -4  -3 -15 188.678 155.100   2
  -4  -3 -15 152.964 86.1140   4
  -4  -3 -15 165.834 128.168   5
  -4  -3 -16 298.528 163.186   2
  -4  -3 -16 182.338 121.708   5
  -4  -3 -17 1486.62 354.337   5
  -4  -3 -17 1540.64 358.351   2
  -4  -3 -18 477.269 200.045   2
  -4  -3 -18 329.935 178.206   5
  -4  -3 -19 86.9436 86.1711   2
  -4  -3 -19 178.747 158.220   5
  -4  -3 -20 402.047 207.010   2
   4   4 -16-1.62902 71.1633   4
  -4  -4  16 104.872 104.964   1
   4   4 -15 44.7242 74.5471   4
  -4  -4  15 26.1016 64.6612   1
   4   4 -14 882.146 250.879   4
  -4  -4  14 1433.90 308.725   1
   4   4 -13 531.102 196.778   4
  -4  -4  13 652.880 199.175   1
   4   4 -12 51.5673 46.2925   4
  -4  -4  12 337.080 152.694   1
   4   4 -11 99.9630 68.5693   4
  -4  -4  11 93.6578 93.2542   1
   4   4 -10 117.149 77.9607   4
  -4  -4  10 86.9982 87.1973   1
   4   4  -9 126.314 94.4992   4
  -4  -4   9 120.070 92.4262   1
   4   4  -8 70.6378 114.346   3
   4   4  -8 186.374 114.487   4
  -4  -4   8 6.78471 73.8125   1
  -4  -4   8 100.475 68.1752   2
  -4  -4   7 1169.78 186.977   2
   4   4  -7 1161.66 220.793   4
  -4  -4   7 1246.76 264.075   1
   4   4  -7 1089.72 261.061   3
   4   4  -6-10.2250 59.5779   4
  -4  -4   6 166.748 116.620   1
  -4  -4   6 40.2568 41.6739   2
   4   4  -6 146.119 122.271   3
  -4  -4   5 43.8668 77.0225   1
  -4  -4   5 0.07911 33.3026   2
   4   4  -5 25.4399 49.2306   3
  -4  -4   4 606.313 188.891   1
  -4  -4   4 495.608 125.687   2
   4   4  -4 521.085 165.224   3
  -4  -4   3 1917.34 251.904   2
  -4  -4   3 1921.43 302.147   1
   4   4  -3 2100.93 326.203   3
  -4  -4   3 1961.58 323.502   5
  -4  -4   2 205.026 90.6707   5
  -4  -4   2 175.444 82.7728   1
  -4  -4   2 165.065 75.0860   2
   4   4  -2 195.928 107.870   3
  -4  -4   1 1161.60 202.992   2
  -4  -4   1 1006.91 208.373   1
   4   4  -1 1025.25 224.344   3
  -4  -4   1 1159.39 245.777   5
  -4  -4   0 700.709 189.674   5
  -4  -4   0 567.811 162.275   1
  -4  -4   0 588.204 147.032   2
  -4  -4  -1 703.499 186.986   5
  -4  -4  -1 759.661 194.590   1
  -4  -4  -1 816.524 185.884   2
  -4  -4  -2 1136.09 211.486   2
  -4  -4  -2 1136.10 231.109   5
  -4  -4  -2 1230.90 144.151   4
  -4  -4  -2 992.503 215.966   1
  -4  -4  -3 1754.71 262.695   2
  -4  -4  -3 1819.50 166.843   4
  -4  -4  -3 1815.92 296.021   5
  -4  -4  -4 69.5133 76.8901   5
  -4  -4  -4 300.561 121.641   2
  -4  -4  -4 85.7539 36.0129   4
  -4  -4  -4 104.202 45.1826   4
  -4  -4  -5 26.3515 35.5019   5
  -4  -4  -5-7.94842 15.2345   4
  -4  -4  -5 139.556 101.947   2
  -4  -4  -5 64.5301 37.1099   4
  -4  -4  -6 285.175 119.118   5
  -4  -4  -6 503.852 164.902   2
  -4  -4  -6 565.748 99.4555   4
  -4  -4  -7 54.0602 47.7612   5
  -4  -4  -7 214.760 136.632   2
  -4  -4  -7 179.195 63.6271   4
  -4  -4  -8 5.82846 60.6989   5
  -4  -4  -8 152.508 96.2488   2
  -4  -4  -8 161.935 69.5534   4
  -4  -4  -9 186.287 98.3169   5
  -4  -4  -9 208.790 114.152   2
  -4  -4  -9 330.366 87.3940   4
  -4  -4 -10-13.0641 77.9919   5
  -4  -4 -10 138.946 120.567   2
  -4  -4 -10 165.464 73.8004   4
  -4  -4 -11 7.27970 55.8285   5
  -4  -4 -11 264.125 162.915   2
  -4  -4 -11 160.650 75.3273   4
  -4  -4 -12 596.994 196.346   5
  -4  -4 -12 758.553 227.055   2
  -4  -4 -13 460.096 195.418   2
  -4  -4 -13 338.847 169.940   5
  -4  -4 -14 195.480 136.173   2
  -4  -4 -14 215.260 135.009   5
  -4  -4 -15 198.758 155.410   2
  -4  -4 -15 2.70582 36.4636   5
  -4  -4 -16 624.948 236.340   2
  -4  -4 -16 161.479 85.4472   5
  -4  -4 -17 1072.54 292.361   2
  -4  -4 -17 903.072 273.600   5
  -4  -4 -18 248.978 162.703   2
  -4  -4 -18 192.706 137.519   5
  -4  -4 -19 113.474 88.5504   2
  -4  -4 -19 319.355 183.062   5
   4   5 -16 250.479 151.111   4
   4   5 -15 71.0178 106.843   4
  -4  -5  15 55.8519 76.7695   1
   4   5 -14 24.3725 82.9762   4
  -4  -5  14 43.2552 83.3914   1
   4   5 -13 121.180 100.029   4
  -4  -5  13 163.162 117.757   1
   4   5 -12 40.7779 96.1018   4
  -4  -5  12-37.2962 73.0971   1
   4   5 -11 8.76118 57.1346   4
  -4  -5  11 39.9919 79.3992   1
   4   5 -10 110.934 53.4969   4
  -4  -5  10 406.961 171.284   1
   4   5 -10 221.985 135.781   3
   4   5  -9 38.5311 43.2366   4
  -4  -5   9 159.476 110.930   1
   4   5  -9 144.917 144.363   3
  -4  -5   9 137.947 91.8851   2
  -4  -5   8 1919.33 338.939   1
  -4  -5   8 1969.73 284.046   2
   4   5  -8 1782.89 293.870   4
   4   5  -8 1618.65 333.711   3
   4   5  -7 154.353 85.0675   4
  -4  -5   7-31.6430 61.3731   1
  -4  -5   7 89.5162 81.1895   2
   4   5  -7 58.9162 84.5271   3
   4   5  -6 191.907 97.3574   4
  -4  -5   6 198.300 120.318   1
  -4  -5   6 313.769 119.761   2
   4   5  -6 291.234 145.191   3
   4   5  -5 100.440 81.7817   4
  -4  -5   5-54.6068 99.5693   1
  -4  -5   5 23.3210 21.0331   2
   4   5  -5 43.0265 85.4584   3
  -4  -5   4 83.3177 64.2940   1
  -4  -5   4 102.484 64.6554   2
   4   5  -4 144.848 117.887   3
  -4  -5   3 1859.67 309.413   1
  -4  -5   3 1946.37 279.710   2
   4   5  -3 1560.38 292.308   3
  -4  -5   3 1746.27 313.104   5
  -4  -5   2 3682.28 442.213   1
  -4  -5   2 3399.55 370.923   2
  -4  -5   2 3228.72 416.525   5
  -4  -5   1 1174.42 219.668   2
  -4  -5   1 1260.58 259.732   1
  -4  -5   1 1261.27 258.561   5
  -4  -5   0 91.3642 75.3252   1
  -4  -5   0 111.323 77.6084   5
  -4  -5   0 94.8948 65.8035   2
  -4  -5  -1 3083.19 371.112   2
  -4  -5  -1 2994.28 389.712   5
  -4  -5  -2 901.784 214.001   5
  -4  -5  -2 791.197 187.918   2
  -4  -5  -3 1093.98 229.796   5
  -4  -5  -3 804.298 95.3120   4
  -4  -5  -3 1057.60 232.971   2
  -4  -5  -4 376.347 133.120   5
  -4  -5  -4 417.369 58.5296   4
  -4  -5  -4 535.974 164.974   2
  -4  -5  -5 222.858 111.742   5
  -4  -5  -5 324.409 134.275   2
  -4  -5  -6 1157.59 253.304   2
  -4  -5  -6 1159.57 249.711   5
  -4  -5  -7 89.3504 90.8437   5
  -4  -5  -7 15.7695 32.9014   2
  -4  -5  -8 36.9304 83.2735   5
  -4  -5  -8 152.560 121.383   2
  -4  -5  -9 53.5694 68.0226   5
  -4  -5  -9 202.130 112.815   2
  -4  -5 -10 259.992 125.075   5
  -4  -5 -10 333.362 150.664   2
  -4  -5 -11 116.014 110.440   5
  -4  -5 -11 32.0995 76.6213   2
  -4  -5 -12 87.6005 85.7535   5
  -4  -5 -12 128.369 136.246   2
  -4  -5 -13 134.810 133.153   2
  -4  -5 -13 141.792 108.865   5
  -4  -5 -14 521.516 188.610   2
  -4  -5 -14 586.482 205.705   5
  -4  -5 -15 339.750 166.895   2
  -4  -5 -15 307.018 166.830   5
  -4  -5 -16-80.2450 63.6221   2
  -4  -5 -16 51.5522 86.2695   5
  -4  -5 -17 434.911 222.434   2
  -4  -5 -17 244.079 159.141   5
  -4  -5 -18 12.6953 65.1599   2
  -4  -5 -18 26.7597 74.3918   5
   4   6 -15 42.6948 64.2156   4
   4   6 -14 34.6488 89.5889   4
  -4  -6  14 228.530 119.673   1
   4   6 -13 156.999 123.616   4
  -4  -6  13 89.2926 73.8259   1
   4   6 -12 297.993 146.011   4
  -4  -6  12 286.940 139.287   1
   4   6 -11 20.7760 44.1940   4
  -4  -6  11 32.2953 71.7605   1
   4   6 -11 125.196 99.0753   3
   4   6 -10 211.312 122.162   4
  -4  -6  10 97.9269 53.3985   1
   4   6 -10 16.2478 54.4818   3
  -4  -6  10 150.404 87.7434   2
   4   6  -9 111.474 74.8906   4
  -4  -6   9-52.0924 73.9659   1
   4   6  -9-18.8454 67.1504   3
  -4  -6   9 165.623 109.149   2
   4   6  -8 438.726 157.307   4
  -4  -6   8 328.499 146.773   1
  -4  -6   8 527.387 165.302   2
   4   6  -8 460.294 197.272   3
   4   6  -7 97.9615 61.3305   4
  -4  -6   7 149.144 85.2027   1
  -4  -6   7 84.6115 52.2368   2
   4   6  -7 197.844 124.133   3
   4   6  -6 103.686 84.1800   4
  -4  -6   6-109.054 99.5614   1
   4   6  -6 55.8574 104.947   3
  -4  -6   6 175.127 89.1028   2
   4   6  -5 544.820 145.158   4
  -4  -6   5 908.769 236.819   1
  -4  -6   5 598.492 167.630   2
   4   6  -5 705.623 215.734   3
  -4  -6   4 316.791 141.981   5
  -4  -6   4 357.964 145.645   1
  -4  -6   4 309.209 123.509   2
   4   6  -4 291.913 139.221   3
  -4  -6   3-10.6684 29.8227   5
  -4  -6   3 43.0584 66.5036   2
  -4  -6   2-11.8270 74.6798   5
  -4  -6   2-126.282 90.3587   2
  -4  -6   1 1665.89 291.023   2
  -4  -6   1 1233.84 259.500   5
  -4  -6   0 3.55324 53.6915   5
  -4  -6   0-28.5760 65.9184   2
  -4  -6  -1 898.838 221.231   5
  -4  -6  -1 959.486 222.099   2
  -4  -6  -2 284.483 137.351   5
  -4  -6  -2 347.880 163.050   2
  -4  -6  -3 201.939 120.129   5
  -4  -6  -3 93.7074 76.4307   2
  -4  -6  -4 4.48592 38.1831   5
  -4  -6  -4 80.8054 87.7145   2
  -4  -6  -5 379.427 154.967   5
  -4  -6  -5 214.467 133.563   2
  -4  -6  -6 1029.78 235.344   5
  -4  -6  -6 959.225 238.215   2
  -4  -6  -7 318.593 141.208   5
  -4  -6  -7 213.325 131.702   2
  -4  -6  -8 53.3153 86.7157   5
  -4  -6  -8 30.1005 57.1328   2
  -4  -6  -9 1400.58 284.251   5
  -4  -6  -9 1210.78 286.543   2
  -4  -6 -10 200.241 113.290   5
  -4  -6 -10 298.415 173.936   2
  -4  -6 -11 110.872 79.1861   5
  -4  -6 -11 71.9729 94.6035   2
  -4  -6 -12 95.4478 88.2969   5
  -4  -6 -12 138.139 116.486   2
  -4  -6 -13 9.71520 81.9718   2
  -4  -6 -13 118.642 105.388   5
  -4  -6 -14 283.875 167.952   2
  -4  -6 -14 207.207 144.604   5
  -4  -6 -15 147.336 105.642   2
  -4  -6 -15-138.867 139.760   5
  -4  -6 -16 53.5498 70.5540   2
  -4  -6 -16 5.42248 65.4363   5
  -4  -6 -17 252.640 174.524   2
  -4  -6 -17 91.8902 37.9799   5
  -4  -6 -18 26.5943 54.0013   5
   4   7 -14 358.723 163.136   4
   4   7 -13 15.8572 63.8265   4
  -4  -7  12-11.2130 53.2014   1
   4   7 -12-28.2062 33.0525   4
   4   7 -12 84.0864 123.288   3
  -4  -7  11 51.2592 46.1681   1
   4   7 -11-23.0163 44.3652   4
   4   7 -11 100.063 130.589   3
  -4  -7  10-53.6420 76.4762   1
   4   7 -10 61.7385 61.0077   4
  -4  -7  10 123.473 100.832   2
   4   7  -9 129.843 90.0153   4
   4   7  -9 308.277 173.631   3
  -4  -7   9 174.215 102.933   2
   4   7  -8-25.8206 52.9607   4
  -4  -7   8-14.6250 26.5867   2
   4   7  -8 34.5347 41.2032   3
   4   7  -7 21.5988 26.9988   4
  -4  -7   7 6.45019 37.1893   2
   4   7  -7-0.19888 88.6887   3
  -4  -7   6-5.05976 52.4074   5
   4   7  -6 110.825 68.4362   4
  -4  -7   6 82.4245 98.5688   2
   4   7  -6-58.4557 90.8482   3
  -4  -7   5 19.4131 93.7152   5
   4   7  -5-30.5503 38.2136   4
  -4  -7   5 50.8826 53.9663   2
   4   7  -5 146.462 115.654   3
  -4  -7   4 43.2977 77.9226   5
  -4  -7   4-17.7311 54.1310   2
  -4  -7   3 38.8963 86.7345   5
  -4  -7   3 67.8250 91.8921   2
  -4  -7   2 355.035 144.654   5
  -4  -7   2 450.248 173.199   2
  -4  -7   1 114.414 95.3216   5
  -4  -7   1 2.07199 61.2010   2
  -4  -7   0 3686.09 461.643   2
  -4  -7   0 4029.74 474.691   5
  -4  -7  -1 253.018 121.123   5
  -4  -7  -1 118.416 84.6014   2
  -4  -7  -2 34.2075 38.7237   5
  -4  -7  -2-107.957 96.7583   2
  -4  -7  -3 1080.56 239.237   5
  -4  -7  -3 1335.20 294.420   2
  -4  -7  -4 47.1237 51.4275   5
  -4  -7  -4-6.37917 61.0229   2
  -4  -7  -5 50.2421 42.7130   5
  -4  -7  -5 139.286 118.647   2
  -4  -7  -6 240.113 118.629   5
  -4  -7  -6 368.188 153.183   2
  -4  -7  -7 58.0079 81.8346   5
  -4  -7  -7 77.5979 72.7008   2
  -4  -7  -8 688.665 206.445   5
  -4  -7  -8 443.995 190.729   2
  -4  -7  -9 196.339 100.579   5
  -4  -7  -9 246.652 149.471   2
  -4  -7 -10 215.587 128.193   5
  -4  -7 -10 93.0846 125.486   2
  -4  -7 -11-0.69709 50.7947   5
  -4  -7 -11-85.5831 94.0478   2
  -4  -7 -12-6.68256 75.7077   2
  -4  -7 -12 25.3212 34.7697   5
  -4  -7 -13 49.9404 105.079   2
  -4  -7 -13-13.3409 80.2465   5
  -4  -7 -14 488.941 186.958   5
  -4  -7 -14 466.243 226.890   2
  -4  -7 -15 188.481 121.983   2
  -4  -7 -15 159.351 110.367   5
  -4  -7 -16 351.148 187.596   2
  -4  -7 -16 116.769 103.009   5
  -4  -7 -17 32.1372 64.9417   5
   4   8 -11 34.0954 83.0523   3
  -4  -8  10 308.198 145.176   2
   4   8 -10 226.777 164.248   3
   4   8  -9 259.735 160.950   3
  -4  -8   9 198.473 114.552   2
  -4  -8   8 882.010 236.494   2
   4   8  -8 717.831 253.043   3
  -4  -8   7 129.817 111.842   5
  -4  -8   7 170.916 113.152   2
   4   8  -7 437.163 201.819   3
  -4  -8   6-40.2587 56.5513   5
  -4  -8   6-84.4652 89.6059   2
   4   8  -6 34.6006 64.9560   3
  -4  -8   5 105.128 87.8915   5
  -4  -8   5 139.591 120.185   2
   4   8  -5 193.123 125.577   3
  -4  -8   4-41.6102 73.4551   5
  -4  -8   4 38.0243 82.5451   2
  -4  -8   3 39.5320 72.8066   5
  -4  -8   3-20.5973 29.9866   2
  -4  -8   2-4.30486 75.6848   5
  -4  -8   2 9.14276 71.9454   2
  -4  -8   1 245.869 134.402   5
  -4  -8   1 211.393 119.093   2
  -4  -8   0-5.15384 39.3334   5
  -4  -8   0-99.7124 128.024   2
  -4  -8  -1 43.4371 31.3668   5
  -4  -8  -1 83.1073 113.337   2
  -4  -8  -2 565.456 175.443   5
  -4  -8  -2 788.886 224.238   2
  -4  -8  -3 2703.54 438.011   2
  -4  -8  -3 2119.10 340.055   5
  -4  -8  -4 294.235 131.374   5
  -4  -8  -4 411.651 166.449   2
  -4  -8  -5 108.091 73.7704   5
  -4  -8  -5 205.355 128.773   2
  -4  -8  -6 148.576 114.303   5
  -4  -8  -6 42.3137 86.9447   2
  -4  -8  -7 6.94731 36.5188   5
  -4  -8  -7-113.365 110.291   2
  -4  -8  -8 563.764 185.918   5
  -4  -8  -8 282.195 168.057   2
  -4  -8  -9 7.83991 60.1738   5
  -4  -8  -9-87.4364 103.721   2
  -4  -8 -10 117.762 80.4204   5
  -4  -8 -10 328.823 175.625   2
  -4  -8 -11-19.6307 55.2154   2
  -4  -8 -11-27.8178 46.3369   5
  -4  -8 -12-7.93859 68.6883   2
  -4  -8 -12 152.808 112.797   5
  -4  -8 -13 213.836 139.090   2
  -4  -8 -13-63.1275 73.0016   5
  -4  -8 -14 15.8560 90.0312   5
  -4  -8 -15 74.9862 72.2580   5
  -4  -9  10 209.151 132.637   5
  -4  -9  10 152.922 104.273   2
  -4  -9   9 122.009 129.176   5
  -4  -9   9 23.0507 90.4895   2
  -4  -9   8 45.2914 86.4614   5
   4   9  -8 156.770 122.430   3
  -4  -9   8 56.1802 72.3341   2
  -4  -9   7 453.497 185.891   5
  -4  -9   7 632.783 229.441   2
   4   9  -7 471.063 216.311   3
  -4  -9   6 366.047 167.619   5
  -4  -9   6 447.186 169.043   2
   4   9  -6 525.399 212.885   3
  -4  -9   5-81.3724 97.3165   5
  -4  -9   5 126.916 116.582   2
  -4  -9   4 35.5229 31.8094   5
  -4  -9   4 229.088 143.605   2
  -4  -9   3-16.7466 52.5807   5
  -4  -9   3 38.6544 65.4611   2
  -4  -9   2 179.714 99.4191   5
  -4  -9   2 204.904 128.416   2
  -4  -9   1 433.206 169.016   5
  -4  -9   1 428.841 176.485   2
  -4  -9   0 248.530 119.669   5
  -4  -9   0 238.832 165.596   2
  -4  -9  -1 109.133 103.917   5
  -4  -9  -1 197.897 139.407   2
  -4  -9  -2-24.7014 43.0178   5
  -4  -9  -2 50.1798 85.4080   2
  -4  -9  -3 16.9186 51.0660   5
  -4  -9  -3-27.3227 83.8969   2
  -4  -9  -4 421.698 157.399   5
  -4  -9  -4 125.193 88.0402   2
  -4  -9  -5 377.714 142.457   5
  -4  -9  -5 481.794 201.499   2
  -4  -9  -6-59.1254 107.619   2
  -4  -9  -7 112.193 154.780   2
  -4  -9  -8 65.5427 78.7955   2
  -4  -9  -9-69.3800 106.934   2
  -4  -9 -10 195.708 158.555   2
  -4  -9 -11 98.0331 121.661   2
  -4 -10   7 541.412 205.585   2
  -4 -10   6-52.5952 95.8214   2
  -4 -10   5 271.124 155.675   2
  -4 -10   4 319.462 155.597   2
  -4 -10   3-46.4255 116.887   2
  -4 -10   2-2.51344 76.2154   2
  -4 -10   1 119.141 97.7068   2
  -4 -10   0 134.076 144.220   2
  -4 -10  -1-12.9125 63.8308   2
  -4 -10  -2 336.150 183.236   2
  -4 -10  -3 216.869 126.073   2
  -4 -10  -4 32.3002 87.8978   2
  -4 -10  -5 1171.60 329.841   2
  -4 -10  -6 4024.12 605.735   2
  -5   8   3-125.776 124.356   1
  -5   8   3-10.8212 93.7673   4
  -5   8   2 9.72275 38.3042   1
  -5   8   2-142.925 104.924   4
  -5   8   1 241.385 142.104   4
  -5   8   0-57.7421 85.4239   4
  -5   8  -1 325.405 185.317   4
  -5   8  -2 69.5463 46.1293   4
  -5   8  -3 53.5475 85.6398   4
  -5   8  -4 593.868 236.817   4
  -5   7   6 281.654 167.093   1
  -5   7   5 171.782 124.210   1
  -5   7   4 188.453 113.961   1
  -5   7   3 15.8393 64.8512   1
  -5   7   2 237.948 147.248   1
  -5   7   1 13.4687 42.6751   4
  -5   7   1-0.75684 73.1667   1
  -5   7   0 511.223 206.492   4
  -5   7   0 369.153 156.819   1
  -5   7  -1 215.502 132.684   4
  -5   7  -1 178.728 105.509   1
  -5   7  -2-12.2308 66.2126   4
  -5   7  -3-32.2072 41.3215   4
  -5   7  -4 192.607 101.979   4
  -5   7  -5 302.155 160.267   4
  -5   7  -6 183.148 141.166   4
  -5   7  -7 519.614 218.970   4
  -5   7  -8 310.507 158.411   4
  -5   7  -9 394.450 214.333   4
  -5   6   8-170.802 173.275   1
  -5   6   7 101.507 85.9436   1
  -5   6   6-3.29551 58.6388   1
  -5   6   5 73.0847 92.1435   1
  -5   6   4-12.6357 72.1671   1
  -5   6   3 113.507 83.9793   1
  -5   6   2 227.008 126.577   1
  -5   6   1-27.9531 69.9902   1
  -5   6   0 656.038 197.718   1
  -5   6  -1 243.169 119.151   4
  -5   6  -1 434.248 160.150   1
  -5   6  -2-142.920 102.609   1
  -5   6  -2-34.3201 64.5078   4
  -5   6  -3 38.7850 97.2483   4
  -5   6  -4 510.673 193.049   4
  -5   6  -5 221.258 136.862   4
  -5   6  -6 126.304 123.513   4
  -5   6  -7 739.247 223.277   4
  -5   6  -8 1595.35 360.486   4
  -5   6  -9 487.383 212.650   4
  -5   6 -10 317.052 194.523   4
  -5   6 -11 171.966 152.858   4
  -5   5  10 59.0825 56.8810   1
  -5   5   9 14.9496 72.1478   1
  -5   5   8 420.806 201.205   1
  -5   5   7 171.617 133.638   1
  -5   5   6 950.764 260.848   1
  -5   5   5 69.0739 67.9861   1
  -5   5   4 84.0555 64.2621   1
  -5   5   3 4.94944 44.1002   1
  -5   5   2 130.330 87.8792   1
  -5   5   1 156.093 106.058   1
  -5   5   0 100.679 110.409   1
  -5   5  -1 101.155 114.148   1
  -5   5  -2 180.387 107.879   1
  -5   5  -2 117.837 113.322   4
  -5   5  -3 482.925 154.286   1
  -5   5  -3 455.598 164.034   4
  -5   5  -4 50.7066 57.5110   1
  -5   5  -4 139.822 94.8858   4
  -5   5  -5 292.260 153.848   4
  -5   5  -6 933.986 254.889   4
  -5   5  -7 255.002 157.552   4
  -5   5  -8 380.313 182.837   4
  -5   5  -9 404.983 167.359   4
  -5   5 -10 276.589 170.982   4
  -5   5 -11 397.445 201.857   4
  -5   5 -12 478.087 215.491   4
  -5   5 -13 327.596 184.297   4
  -5   5 -14 377.988 206.281   4
  -5   4  12 1105.22 322.194   1
  -5   4  11 99.1531 85.2210   1
  -5   4  10 659.530 252.446   1
  -5   4   9 237.192 150.030   1
  -5   4   8 118.123 114.521   1
  -5   4   7-185.964 105.283   1
  -5   4   6 489.360 197.687   1
  -5   4   5-64.7867 84.3022   1
  -5   4   4 487.829 178.170   1
  -5   4   3 471.466 131.106   5
  -5   4   3 405.103 167.177   1
  -5   4   2 43.3773 43.4210   5
  -5   4   2 254.243 125.886   1
  -5   4   1-3.02794 31.5434   5
  -5   4   1-31.8839 38.2776   1
  -5   4   0 110.929 64.3077   5
  -5   4   0 68.3363 83.8319   1
  -5   4  -1 238.682 83.4693   5
  -5   4  -1 339.089 133.507   1
  -5   4  -2 291.174 98.0301   5
  -5   4  -2 345.226 134.916   1
  -5   4  -3 385.254 144.176   1
  -5   4  -3 243.376 90.6788   5
  -5   4  -3 150.872 118.016   4
  -5   4  -4 66.4883 42.0316   5
  -5   4  -4 42.8416 42.4175   1
  -5   4  -4 61.4724 103.376   4
  -5   4  -5 124.234 76.5884   5
  -5   4  -5 49.0670 32.3387   1
  -5   4  -5 176.694 122.856   4
  -5   4  -6 404.130 132.623   5
  -5   4  -6 483.076 185.951   4
  -5   4  -7-35.3764 73.3731   4
  -5   4  -7 8.09205 35.1928   5
  -5   4  -8 121.886 119.195   4
  -5   4  -8 66.1859 59.2222   5
  -5   4  -9 72.5163 98.9429   4
  -5   4  -9 14.6223 53.4398   5
  -5   4 -10 1087.84 297.685   4
  -5   4 -10 1121.60 234.686   5
  -5   4 -11 1382.29 337.040   4
  -5   4 -11 925.320 228.077   5
  -5   4 -12 369.385 200.257   4
  -5   4 -12 178.915 100.975   5
  -5   4 -13 528.924 230.225   4
  -5   4 -13 149.945 102.735   5
  -5   4 -14 644.677 256.295   4
  -5   4 -14 156.484 103.109   5
  -5   4 -15 282.732 217.774   4
  -5   4 -15 476.045 176.003   5
  -5   4 -16 55.6920 52.7435   5
  -5   4 -17 61.5217 100.804   5
  -5   3  13 193.399 141.689   1
  -5   3  12 180.625 120.438   1
  -5   3  11 90.0901 117.487   1
  -5   3  10 386.293 158.360   1
  -5   3   9-10.4433 56.0381   1
  -5   3   8 484.986 207.737   1
  -5   3   7 46.0008 78.3047   1
  -5   3   6-27.1477 58.1162   5
  -5   3   6-49.3460 93.2339   1
  -5   3   5 215.462 111.243   5
  -5   3   5 219.054 129.572   1
  -5   3   4 321.501 133.206   5
  -5   3   4 295.949 137.756   1
  -5   3   3 827.986 188.946   5
  -5   3   3 889.120 225.035   1
  -5   3   2-12.3452 35.2526   5
  -5   3   2-2.03510 39.5913   1
  -5   3   1 319.582 112.860   5
  -5   3   1 328.955 140.565   1
  -5   3   0 203.832 91.6577   5
  -5   3   0 196.707 118.763   1
  -5   3  -1 611.510 150.971   5
  -5   3  -1 912.300 218.047   1
  -5   3  -2 10.6030 45.6109   5
  -5   3  -2-41.5359 42.4193   1
  -5   3  -3 408.687 120.060   5
  -5   3  -3 356.632 120.099   1
  -5   3  -4 59.0510 79.5533   5
  -5   3  -4-58.9261 51.6125   1
  -5   3  -4-18.9109 48.6927   4
  -5   3  -5-7.02427 41.8981   5
  -5   3  -5 7.00345 24.1063   1
  -5   3  -6 100.397 69.1071   5
  -5   3  -6-20.1404 28.8670   1
  -5   3  -7 919.740 209.448   5
  -5   3  -7 901.373 169.318   1
  -5   3  -7 679.078 207.787   4
  -5   3  -8 38.5546 41.2106   5
  -5   3  -8 75.2957 102.486   4
  -5   3  -9 1704.68 337.818   4
  -5   3  -9 1471.11 266.033   5
  -5   3 -10 5317.32 602.815   4
  -5   3 -10 5048.17 513.002   5
  -5   3 -11 279.896 173.337   4
  -5   3 -11 176.975 101.304   5
  -5   3 -12 1171.93 292.322   4
  -5   3 -12 966.757 238.394   5
  -5   3 -13 421.255 204.450   4
  -5   3 -13-50.9655 71.0048   5
  -5   3 -14 257.156 178.498   4
  -5   3 -14-48.1986 67.9829   5
  -5   3 -15 471.526 241.069   4
  -5   3 -15 144.906 107.037   5
  -5   3 -16 757.729 277.688   4
  -5   3 -16 376.004 182.669   5
  -5   3 -17 630.458 250.376   4
  -5   3 -17 167.421 109.368   5
  -5   3 -18 51.8499 74.3724   5
  -5   2  14-129.458 110.070   1
  -5   2  13 93.1700 117.994   1
  -5   2  12 444.074 208.291   1
  -5   2  11 61.8081 97.3845   1
  -5   2  10 769.513 257.576   1
  -5   2   9 1721.23 374.389   1
  -5   2   8 250.044 164.276   1
  -5   2   7 365.817 192.010   1
  -5   2   6 596.944 204.883   1
  -5   2   5 47.7616 75.1913   5
  -5   2   5 86.4371 101.910   1
  -5   2   4 292.672 125.123   5
  -5   2   4 227.538 116.999   1
  -5   2   3 333.581 138.425   5
  -5   2   3 398.858 149.257   1
  -5   2   2 115.460 70.0147   5
  -5   2   2 159.267 101.464   1
  -5   2   1 1470.82 278.436   1
  -5   2   1 1518.57 253.851   5
  -5   2   0 10.9300 29.0737   5
  -5   2   0 19.0954 50.9938   1
  -5   2  -1 189.805 103.833   5
  -5   2  -1 260.671 124.290   1
  -5   2  -2 302.970 130.951   5
  -5   2  -2 267.536 128.316   1
  -5   2  -3 81.1514 72.5602   5
  -5   2  -3 35.6105 39.4222   1
  -5   2  -4 532.546 146.477   1
  -5   2  -4 509.199 138.430   5
  -5   2  -5 39.1216 44.9991   5
  -5   2  -5-25.7282 69.7095   4
  -5   2  -5 38.1919 38.9339   1
  -5   2  -6 200.238 103.645   5
  -5   2  -6 159.709 110.823   4
  -5   2  -6 150.277 84.3328   1
  -5   2  -7 540.225 154.922   5
  -5   2  -7 452.888 117.242   1
  -5   2  -7 450.073 163.949   4
  -5   2  -8 74.7578 90.2805   5
  -5   2  -8 130.001 72.9781   1
  -5   2  -8 179.781 105.062   4
  -5   2  -9 2637.85 407.646   4
  -5   2  -9 2611.65 369.767   5
  -5   2 -10 1213.29 260.157   5
  -5   2 -10 1396.16 305.906   4
  -5   2 -11 315.827 196.136   4
  -5   2 -11-15.0736 69.2892   5
  -5   2 -12 488.388 193.453   4
  -5   2 -12 304.357 129.414   5
  -5   2 -13 435.301 207.226   4
  -5   2 -13 170.564 93.8045   5
  -5   2 -14 244.801 150.860   4
  -5   2 -14 121.087 103.488   5
  -5   2 -15 397.244 193.180   4
  -5   2 -15 26.5158 67.0568   5
  -5   2 -16 251.514 162.888   4
  -5   2 -16-32.2714 73.6458   5
  -5   2 -17 325.646 180.530   4
  -5   2 -17 54.1843 96.6241   5
  -5   2 -18 217.389 159.086   4
  -5   2 -18 16.3877 46.6137   5
  -5   1  15-112.359 89.9665   1
  -5   1  14 171.157 155.200   1
  -5   1  13 261.285 141.730   1
  -5   1  12 55.1719 75.0368   1
  -5   1  11 261.499 156.438   1
  -5   1  10 111.229 104.859   1
  -5   1   9 355.131 188.355   1
  -5   1   8-8.68564 84.6922   1
  -5   1   7 2740.30 429.108   1
  -5   1   6 1196.68 287.586   1
  -5   1   5 53.8802 65.8725   1
  -5   1   4 394.506 166.968   5
  -5   1   4 538.349 188.075   1
  -5   1   3 137.512 92.3765   5
  -5   1   3 70.7708 65.7471   1
  -5   1   2 234.257 60.0816   2
  -5   1   2 315.898 126.646   5
  -5   1   2 234.561 111.715   1
  -5   1   1 292.073 117.875   5
  -5   1   1 317.612 128.885   1
  -5   1   0 72.2356 83.3800   5
  -5   1   0 59.9225 54.6325   1
  -5   1  -1 192.730 110.816   1
  -5   1  -1 73.0966 72.0265   5
  -5   1  -2 229.846 121.465   1
  -5   1  -2 119.785 88.6316   5
  -5   1  -3 57.2328 43.7241   5
  -5   1  -3 16.7638 34.1231   1
  -5   1  -4 666.721 174.432   5
  -5   1  -4 442.048 130.978   1
  -5   1  -5 237.637 118.375   5
  -5   1  -5 177.233 83.8309   1
  -5   1  -5 274.554 137.119   4
  -5   1  -6 8.13154 30.6528   5
  -5   1  -6-23.0376 26.8249   1
  -5   1  -6 53.7910 36.3529   4
  -5   1  -7 14.9972 31.9020   5
  -5   1  -7 113.727 72.3414   1
  -5   1  -7 86.6407 94.6852   4
  -5   1  -8 237.651 110.245   5
  -5   1  -8 84.8856 49.8947   1
  -5   1  -8 89.7154 61.6520   4
  -5   1  -9 1041.58 171.174   1
  -5   1  -9 920.212 222.067   5
  -5   1  -9 811.316 225.104   4
  -5   1 -10 63.2599 60.2173   5
  -5   1 -10 36.1985 67.9685   4
  -5   1 -11 279.443 153.118   4
  -5   1 -11 12.9750 59.5731   5
  -5   1 -12 3621.65 477.219   4
  -5   1 -12 3203.59 445.371   5
  -5   1 -13 6918.72 674.599   4
  -5   1 -13 6953.48 675.797   5
  -5   1 -14 200.883 153.107   4
  -5   1 -14-40.3576 100.199   5
  -5   1 -15 402.773 189.574   4
  -5   1 -15 267.360 164.555   5
  -5   1 -16 216.849 136.062   4
  -5   1 -16-49.8953 38.0180   5
  -5   1 -17 247.129 163.356   4
  -5   1 -17 65.8841 72.7396   5
  -5   1 -18 494.692 213.057   4
  -5   1 -18 7.95240 54.0245   5
  -5   1 -19 281.090 168.212   4
  -5   1 -19 46.4618 122.235   5
  -5   0  15 84.7239 88.7214   1
  -5   0  14-42.2340 114.294   1
  -5   0  13-36.8647 87.2655   1
  -5   0  12 709.179 236.313   1
  -5   0  11 178.327 116.261   1
  -5   0  10 281.413 160.043   1
  -5   0   9 157.259 101.501   1
  -5   0   8-24.5159 42.1718   1
  -5   0   7-81.0543 86.1689   1
  -5   0   6 67.5017 47.8945   1
  -5   0   5 575.042 199.421   1
  -5   0   4-8.97043 48.5804   1
  -5   0   4 21.6563 62.8543   5
  -5   0   3 354.160 136.627   1
  -5   0   3 336.382 144.186   5
  -5   0   2 24.4090 43.5321   1
  -5   0   2 43.1798 28.8971   5
  -5   0   2 21.0901 19.1665   2
  -5   0   1 878.385 202.263   1
  -5   0   1 846.437 203.989   5
  -5   0   1 897.099 129.919   2
  -5   0   0 687.287 174.711   5
  -5   0   0 757.281 131.605   2
  -5   0   0 711.345 216.231   1
  -5   0  -1 160.064 90.3480   2
  -5   0  -1 56.0125 68.5472   5
  -5   0  -1 48.4858 59.3761   1
  -5   0  -2 330.369 129.236   5
  -5   0  -2 393.670 139.915   1
  -5   0  -3 869.666 202.903   5
  -5   0  -3 647.777 167.182   1
  -5   0  -4 1281.90 230.170   1
  -5   0  -4 1309.60 251.900   5
  -5   0  -5-54.2685 61.8857   5
  -5   0  -5 71.2827 61.4378   1
  -5   0  -5-98.7535 91.2026   4
  -5   0  -6 110.589 102.890   5
  -5   0  -6-11.5414 38.1383   1
  -5   0  -6-21.0405 48.5776   4
  -5   0  -7-69.2917 75.2336   5
  -5   0  -7-7.34270 39.4585   1
  -5   0  -8 101.464 67.2464   5
  -5   0  -8 28.6731 58.5410   1
  -5   0  -8 13.9568 50.3563   4
  -5   0  -9 98.9878 87.9361   5
  -5   0  -9 130.568 83.8725   4
  -5   0 -10 14.2456 72.9017   5
  -5   0 -10 107.804 92.6155   4
  -5   0 -11 306.534 131.644   5
  -5   0 -11 408.639 175.300   4
  -5   0 -12 2463.44 373.267   4
  -5   0 -12 2316.84 387.359   5
  -5   0 -13 360.866 164.403   4
  -5   0 -13 75.9416 98.2007   5
  -5   0 -14 248.665 146.946   4
  -5   0 -14 125.964 89.9962   5
  -5   0 -15 610.633 236.619   4
  -5   0 -15 779.427 243.650   5
  -5   0 -16 224.029 162.006   4
  -5   0 -16 4.22763 75.7212   5
  -5   0 -17 202.013 143.870   4
  -5   0 -17 97.3224 123.238   5
  -5   0 -18 298.001 162.992   4
  -5   0 -18 21.6094 63.8287   5
  -5   0 -19 168.693 143.048   4
  -5   0 -19 17.9979 77.7028   5
  -5   0 -20 453.231 189.225   4
  -5  -1  16 340.960 163.891   1
  -5  -1  15 637.880 224.618   1
  -5  -1  14 717.154 255.104   1
  -5  -1  13-31.6064 73.7809   1
  -5  -1  12 404.990 176.401   1
  -5  -1  11 119.685 110.581   1
  -5  -1  10 132.695 129.584   1
  -5  -1   9 205.615 118.236   1
  -5  -1   8 83.4441 128.067   1
  -5  -1   7 246.415 132.362   1
  -5  -1   6 2224.43 364.071   1
  -5  -1   5 939.705 236.421   1
  -5  -1   4 12324.5 833.458   1
  -5  -1   4 12011.2 819.857   5
  -5  -1   3 5675.93 266.339   2
  -5  -1   3 5897.90 559.060   1
  -5  -1   3 6092.22 572.427   5
  -5  -1   2 288.583 129.333   5
  -5  -1   2 210.946 60.1945   2
  -5  -1   2 177.493 101.504   1
  -5  -1   1 335.777 128.861   5
  -5  -1   1 555.424 108.451   2
  -5  -1   1 429.035 135.783   1
  -5  -1   0 709.743 195.087   5
  -5  -1   0 708.043 179.375   1
  -5  -1   0 876.701 144.925   2
  -5  -1  -1 408.664 148.866   5
  -5  -1  -1 616.439 134.228   2
  -5  -1  -1 482.872 142.857   1
  -5  -1  -2 671.996 182.651   5
  -5  -1  -2 788.635 198.226   1
  -5  -1  -2 777.692 163.327   2
  -5  -1  -3 838.685 207.945   5
  -5  -1  -3 923.343 200.298   1
  -5  -1  -3 1110.40 196.748   2
  -5  -1  -4 42.1771 32.3373   5
  -5  -1  -4 24.4554 61.9645   1
  -5  -1  -5-117.857 90.1285   5
  -5  -1  -5-37.4260 45.6014   1
  -5  -1  -5-21.7766 61.0505   4
  -5  -1  -6 60.9466 63.8876   5
  -5  -1  -6-14.3792 26.8796   1
  -5  -1  -6 97.1985 69.0881   4
  -5  -1  -7 809.091 212.731   5
  -5  -1  -7 659.635 165.001   1
  -5  -1  -7 717.710 184.084   4
  -5  -1  -8 28.8040 40.4969   5
  -5  -1  -8 21.1871 44.2958   4
  -5  -1  -9 170.394 102.655   5
  -5  -1  -9 176.774 82.3514   4
  -5  -1 -10 119.516 81.3459   5
  -5  -1 -10 197.621 116.944   4
  -5  -1 -11 417.872 172.754   5
  -5  -1 -11 629.383 183.178   4
  -5  -1 -12 19.9883 46.6515   5
  -5  -1 -12 263.859 135.241   4
  -5  -1 -13 227.907 130.482   4
  -5  -1 -13 57.5154 90.0462   5
  -5  -1 -14 329.488 160.498   4
  -5  -1 -14 169.116 136.690   5
  -5  -1 -15 1576.43 353.370   5
  -5  -1 -15 1259.86 284.009   4
  -5  -1 -16 3002.22 423.728   4
  -5  -1 -16 2755.44 469.196   5
  -5  -1 -17 526.623 195.245   4
  -5  -1 -17 350.576 199.715   5
  -5  -1 -18 560.147 200.436   4
  -5  -1 -18 17.0825 81.2907   5
  -5  -1 -19 451.421 180.722   4
  -5  -2  16-32.5525 42.8478   1
  -5  -2  15-0.88800 76.9710   1
  -5  -2  14 1123.30 297.127   1
  -5  -2  13 145.089 121.838   1
  -5  -2  12 95.4720 72.5586   1
  -5  -2  11 468.567 189.490   1
  -5  -2  10 521.460 195.895   1
  -5  -2   9 187.426 130.489   1
  -5  -2   8 185.859 119.885   1
  -5  -2   7 138.276 83.6136   1
  -5  -2   6 503.651 167.344   1
  -5  -2   5 457.084 154.483   1
  -5  -2   4 93.9469 73.6526   5
  -5  -2   4 83.5193 34.8115   2
  -5  -2   4 51.0738 69.5031   1
  -5  -2   3 794.700 124.227   2
  -5  -2   3 682.998 208.185   5
  -5  -2   3 655.476 190.433   1
  -5  -2   2 641.393 199.391   5
  -5  -2   2 603.573 117.338   2
  -5  -2   2 672.644 184.785   1
  -5  -2   1 478.916 145.674   5
  -5  -2   1 526.527 114.411   2
  -5  -2   1 567.056 199.221   1
  -5  -2   0 3392.81 305.514   2
  -5  -2   0 3719.55 439.913   1
   5   2   0 3447.84 364.358   3
  -5  -2   0 3296.09 421.332   5
  -5  -2  -1 1292.88 255.356   1
  -5  -2  -1 1103.57 249.821   5
   5   2   1 1271.67 212.724   3
  -5  -2  -1 1218.46 190.631   2
  -5  -2  -2 328.754 130.400   5
  -5  -2  -2 582.785 148.725   2
  -5  -2  -2 555.059 183.581   1
   5   2   2 382.136 104.411   3
  -5  -2  -3 234.537 111.998   5
  -5  -2  -3 355.937 123.629   2
  -5  -2  -3 328.941 128.059   1
   5   2   3 283.728 95.2616   3
  -5  -2  -4 165.425 103.224   5
  -5  -2  -4 283.491 114.887   2
  -5  -2  -4 87.9898 77.8263   1
   5   2   4 164.726 69.7414   3
  -5  -2  -5 970.677 228.833   5
  -5  -2  -5 954.624 205.624   1
  -5  -2  -5 937.271 180.073   4
   5   2   5 1252.90 178.882   3
  -5  -2  -5 1220.03 229.843   2
  -5  -2  -6 284.193 113.668   5
  -5  -2  -6 540.425 179.318   2
  -5  -2  -6 527.517 158.197   1
  -5  -2  -6 361.032 129.630   4
   5   2   6 397.298 97.1885   3
  -5  -2  -7 394.723 149.686   5
  -5  -2  -7 521.756 179.971   2
  -5  -2  -7 502.704 140.170   4
   5   2   7 389.787 91.6164   3
  -5  -2  -8 12.2662 36.5284   5
  -5  -2  -8 252.792 141.644   2
  -5  -2  -8 145.275 80.3247   4
   5   2   8 142.916 57.5105   3
  -5  -2  -9 93.5566 74.1976   5
  -5  -2  -9 200.668 143.587   2
  -5  -2  -9 122.982 89.9383   4
  -5  -2 -10 1202.29 287.974   5
  -5  -2 -10 1671.25 260.417   4
  -5  -2 -10 1500.58 317.209   2
  -5  -2 -11-48.1094 51.3513   5
  -5  -2 -11 188.264 140.028   2
  -5  -2 -11 161.170 111.432   4
  -5  -2 -12 2.47312 43.8600   5
  -5  -2 -12 124.078 136.383   2
  -5  -2 -12 203.262 118.925   4
  -5  -2 -13 147.827 115.757   5
  -5  -2 -13 300.632 162.825   2
  -5  -2 -13 258.252 123.804   4
  -5  -2 -14 583.633 245.463   2
  -5  -2 -14 500.636 165.065   4
  -5  -2 -14 476.886 190.287   5
  -5  -2 -15 311.794 183.760   2
  -5  -2 -15 189.754 114.139   4
  -5  -2 -15-62.9264 43.9043   5
  -5  -2 -16 287.317 180.034   2
  -5  -2 -16 201.861 116.789   4
  -5  -2 -16-64.9624 101.678   5
  -5  -2 -17 730.171 264.442   2
  -5  -2 -17 360.093 163.856   5
  -5  -2 -18 671.904 246.481   2
  -5  -2 -18 519.705 221.930   5
  -5  -3  16 221.448 155.660   1
  -5  -3  15-158.634 114.029   1
  -5  -3  14 642.017 221.350   1
  -5  -3  13 454.969 198.586   1
  -5  -3  12 243.432 156.756   1
  -5  -3  11 423.978 185.014   1
  -5  -3  10 87.6562 67.0323   1
  -5  -3   9 185.126 100.791   1
  -5  -3   8 66.8569 83.9571   1
  -5  -3   7 97.0271 80.1723   1
  -5  -3   6 154.951 81.5170   1
  -5  -3   5 280.409 78.1520   2
  -5  -3   5 258.450 134.339   1
  -5  -3   4 350.171 149.092   5
  -5  -3   4 318.860 93.9564   2
  -5  -3   4 327.071 165.392   1
   5   3  -4 175.827 104.589   3
  -5  -3   3 851.439 150.496   2
  -5  -3   3 691.842 198.520   5
  -5  -3   3 829.252 224.643   1
   5   3  -3 856.062 210.754   3
  -5  -3   2 4551.16 358.497   2
  -5  -3   2 4453.15 499.767   1
   5   3  -2 4400.04 466.777   3
  -5  -3   2 4043.37 487.931   5
  -5  -3   1 9906.65 551.055   2
  -5  -3   1 9853.68 734.502   1
   5   3  -1 10003.6 681.639   3
  -5  -3   1 10212.9 758.126   5
  -5  -3   0 5618.00 429.944   2
  -5  -3   0 5794.50 553.748   1
   5   3   0 5777.81 503.594   3
  -5  -3   0 5653.33 560.246   5
  -5  -3  -1 1734.77 247.791   2
  -5  -3  -1 1867.72 318.888   1
   5   3   1 1779.65 270.648   3
  -5  -3  -1 1865.91 316.534   5
  -5  -3  -2 1454.20 240.338   2
  -5  -3  -2 1472.33 279.677   1
   5   3   2 1515.37 247.253   3
  -5  -3  -2 1329.72 276.872   5
  -5  -3  -3 1775.99 301.284   1
   5   3   3 2102.89 272.975   3
  -5  -3  -3 1712.94 308.509   5
  -5  -3  -3 1948.94 278.252   2
  -5  -3  -4 65.9993 65.5711   5
  -5  -3  -4 178.178 121.559   2
  -5  -3  -4 56.4976 49.0294   1
   5   3   4 191.420 87.8616   3
  -5  -3  -5 20.4901 52.9885   1
  -5  -3  -5 25.6092 43.2869   5
  -5  -3  -5 176.597 102.683   2
  -5  -3  -5 19.9848 33.9382   4
   5   3   5-24.7877 56.2038   3
  -5  -3  -6 184.371 100.421   5
  -5  -3  -6 458.442 163.795   2
  -5  -3  -6 166.870 82.6127   4
  -5  -3  -7 3.10007 41.1266   5
  -5  -3  -7 166.270 137.548   2
  -5  -3  -7 36.9737 37.5268   4
  -5  -3  -8 309.502 142.169   5
  -5  -3  -8 401.520 182.071   2
  -5  -3  -8 340.902 109.803   4
  -5  -3  -9 655.163 214.154   5
  -5  -3  -9 810.178 227.760   2
  -5  -3  -9 789.461 169.877   4
  -5  -3 -10 420.311 177.406   5
  -5  -3 -10 375.447 170.185   2
  -5  -3 -10 591.541 151.264   4
  -5  -3 -11 51.4494 104.044   5
  -5  -3 -11 74.1683 115.147   2
  -5  -3 -11 129.197 87.7668   4
  -5  -3 -12 448.780 185.397   5
  -5  -3 -12 569.809 214.857   2
  -5  -3 -12 427.648 143.137   4
  -5  -3 -13-55.4165 59.8618   5
  -5  -3 -13 162.045 154.203   2
  -5  -3 -14 1021.33 283.405   2
  -5  -3 -14 637.500 205.299   5
  -5  -3 -15 163.177 129.371   2
  -5  -3 -15 105.369 92.0853   5
  -5  -3 -16 321.768 188.273   2
  -5  -3 -16 342.597 172.717   5
  -5  -3 -17 98.1020 130.034   2
  -5  -3 -17-42.4372 128.766   5
  -5  -3 -18 882.411 280.318   2
  -5  -3 -18 825.667 286.567   5
  -5  -4  15-72.7971 89.1649   1
  -5  -4  14 179.266 133.527   1
  -5  -4  13 59.1274 66.6612   1
  -5  -4  12 79.5021 114.829   1
  -5  -4  11 352.128 176.031   1
  -5  -4  10 82.9635 118.492   1
  -5  -4   9 263.899 126.951   1
  -5  -4   8 196.233 136.824   1
  -5  -4   7 191.915 126.017   1
  -5  -4   6 72.6552 103.726   1
   5   4  -6 26.5518 44.5485   3
  -5  -4   5 182.126 133.812   1
  -5  -4   5 51.3631 45.5043   2
   5   4  -5 55.0032 96.1699   3
  -5  -4   4 375.690 169.221   5
  -5  -4   4 373.660 181.856   1
  -5  -4   4 256.293 98.5549   2
   5   4  -4 198.453 119.657   3
  -5  -4   3 121.736 113.684   5
  -5  -4   3 167.861 112.628   1
  -5  -4   3 70.2987 62.6679   2
   5   4  -3 72.7188 71.5540   3
  -5  -4   2 7.40842 76.3622   5
  -5  -4   2-25.3283 31.6116   2
  -5  -4   2 28.0515 68.5680   1
   5   4  -2-6.02889 38.9903   3
  -5  -4   1 173.651 106.570   5
  -5  -4   1 111.335 42.0735   2
  -5  -4   1 110.454 96.6993   1
   5   4  -1 150.393 92.2250   3
  -5  -4   0 258.561 133.140   5
  -5  -4   0 197.028 95.3380   2
  -5  -4   0 227.215 108.107   1
   5   4   0 207.680 96.1570   3
  -5  -4  -1 1230.94 224.471   2
  -5  -4  -1 1041.27 248.071   5
  -5  -4  -1 1207.67 262.491   1
   5   4   1 1120.93 237.702   3
  -5  -4  -2 784.628 212.902   5
  -5  -4  -2 734.515 179.979   2
  -5  -4  -2 713.971 207.690   1
   5   4   2 738.238 179.697   3
  -5  -4  -3 445.570 168.705   5
  -5  -4  -3 363.204 141.200   2
  -5  -4  -3 274.090 135.546   1
  -5  -4  -4 59.1677 71.0067   5
  -5  -4  -4 123.253 106.749   2
  -5  -4  -5 48.1657 55.5176   5
  -5  -4  -5 53.6435 61.0133   2
  -5  -4  -5-12.0774 19.5054   4
  -5  -4  -6 92.6477 86.7684   5
  -5  -4  -6 121.654 64.1899   2
  -5  -4  -6 98.0733 56.2076   4
  -5  -4  -7 16.9789 54.2940   5
  -5  -4  -7 161.595 122.400   2
  -5  -4  -7 115.474 67.8028   4
  -5  -4  -8 66.0627 72.8066   5
  -5  -4  -8 146.651 129.954   2
  -5  -4  -9 390.391 161.440   5
  -5  -4  -9 841.363 227.142   2
  -5  -4 -10 209.866 113.614   5
  -5  -4 -10 451.954 179.575   2
  -5  -4 -11 164.539 104.436   5
  -5  -4 -11 314.630 161.318   2
  -5  -4 -12 207.649 116.030   5
  -5  -4 -12 481.756 196.655   2
  -5  -4 -13 850.031 258.981   5
  -5  -4 -13 575.183 232.905   2
  -5  -4 -14 20.3975 88.2070   2
  -5  -4 -14 44.8026 87.4896   5
  -5  -4 -15 107.206 94.4659   2
  -5  -4 -15 50.4172 117.182   5
  -5  -4 -16 125.648 114.764   2
  -5  -4 -16 24.0863 84.1117   5
  -5  -4 -17 125.016 83.8596   2
  -5  -4 -17-34.0500 68.6074   5
  -5  -5  15 60.0558 50.5036   1
   5   5 -14 140.731 75.0382   4
  -5  -5  14 51.2451 59.2868   1
   5   5 -13 664.991 228.200   4
  -5  -5  13 746.112 241.046   1
  -5  -5  12 343.289 149.549   1
  -5  -5  11 255.080 145.954   1
  -5  -5  10 919.827 264.771   1
  -5  -5   9 36.4551 86.0034   1
  -5  -5   8-42.0857 67.9772   1
   5   5  -8-45.7035 53.2196   3
  -5  -5   7 168.298 138.043   1
   5   5  -7 254.999 103.726   3
  -5  -5   6-17.0590 45.2632   1
  -5  -5   6-16.9798 26.6457   2
   5   5  -6-37.4934 55.3185   3
  -5  -5   5-44.3523 58.7611   5
  -5  -5   5 17.7087 47.7941   1
  -5  -5   5 14.9948 45.2639   2
   5   5  -5 58.3899 86.9158   3
  -5  -5   4 1.85842 52.6564   5
  -5  -5   4-27.7392 42.0079   1
  -5  -5   4-18.9587 22.7133   2
   5   5  -4 74.7279 91.1651   3
  -5  -5   3 313.289 172.732   5
  -5  -5   3 573.236 203.153   1
  -5  -5   3 218.827 104.418   2
   5   5  -3 346.635 156.720   3
  -5  -5   2 150.608 99.3978   5
  -5  -5   2 255.690 138.634   1
  -5  -5   2 243.226 99.8358   2
   5   5  -2 194.128 129.098   3
  -5  -5   1 615.764 205.373   5
  -5  -5   1 669.307 203.200   1
  -5  -5   1 686.023 180.306   2
   5   5  -1 626.868 200.166   3
  -5  -5   0 988.603 248.992   5
  -5  -5   0 1218.45 280.207   1
  -5  -5   0 997.989 214.341   2
   5   5   0 975.402 236.711   3
  -5  -5  -1 597.256 194.787   1
  -5  -5  -1 558.694 194.088   5
  -5  -5  -1 509.927 152.451   2
  -5  -5  -2 5073.05 505.232   2
  -5  -5  -2 5155.01 563.571   5
  -5  -5  -3 62.7345 95.9313   5
  -5  -5  -3 20.7716 48.6284   2
  -5  -5  -4 166.551 98.3867   5
  -5  -5  -4 260.307 124.425   2
  -5  -5  -5 135.030 94.6217   5
  -5  -5  -5 143.870 120.992   2
  -5  -5  -6 67.2215 37.4238   5
  -5  -5  -6 100.549 108.404   2
  -5  -5  -7 161.043 107.174   5
  -5  -5  -7 167.548 103.819   2
  -5  -5  -8 18.3905 41.8255   5
  -5  -5  -8 161.174 123.028   2
  -5  -5  -9 185.496 125.834   5
  -5  -5  -9 83.1131 99.7254   2
  -5  -5 -10-0.17913 43.7580   5
  -5  -5 -10 316.668 166.913   2
  -5  -5 -11-20.4986 83.5263   5
  -5  -5 -11 5.00576 87.5219   2
  -5  -5 -12 127.926 122.923   5
  -5  -5 -12 137.809 121.775   2
  -5  -5 -13 229.161 157.776   5
  -5  -5 -13 62.1308 101.785   2
  -5  -5 -14 73.9836 90.6036   2
  -5  -5 -14 93.7029 128.524   5
  -5  -5 -15 84.2431 118.374   2
  -5  -5 -15 141.190 131.654   5
  -5  -5 -16 572.471 209.998   2
  -5  -5 -16 577.535 227.030   5
  -5  -5 -17 139.070 118.641   5
   5   6 -14 1268.25 311.205   4
   5   6 -13 308.096 156.875   4
  -5  -6  13 435.147 174.767   1
   5   6 -12-44.0720 74.0231   4
  -5  -6  12 54.7714 73.0415   1
  -5  -6  11 204.026 118.482   1
  -5  -6  10 223.498 150.372   1
   5   6 -10 27.0534 62.9391   3
  -5  -6   9 87.0479 70.4587   1
   5   6  -9 108.001 152.686   3
  -5  -6   8 2.16736 45.9629   1
   5   6  -8 320.685 158.456   3
  -5  -6   7 31.5858 66.2956   1
   5   6  -7 138.574 128.247   3
  -5  -6   6 335.129 151.886   5
  -5  -6   6 656.657 216.175   1
  -5  -6   6 495.967 163.925   2
   5   6  -6 382.508 170.429   3
  -5  -6   5-68.9839 87.5390   5
  -5  -6   5-20.7715 57.1506   1
  -5  -6   5 54.8281 59.2346   2
   5   6  -5 57.6736 112.760   3
  -5  -6   4 530.509 192.321   5
  -5  -6   4 533.976 188.189   1
  -5  -6   4 461.829 143.857   2
   5   6  -4 333.241 174.624   3
  -5  -6   3 328.925 168.659   5
  -5  -6   3 297.767 139.909   1
  -5  -6   3 276.419 118.861   2
   5   6  -3 399.434 171.823   3
  -5  -6   2 433.172 174.937   1
  -5  -6   2 266.165 160.885   5
  -5  -6   2 569.973 172.324   2
   5   6  -2 404.781 169.615   3
  -5  -6   1-57.0790 31.0616   5
  -5  -6   1 51.2011 39.2169   2
   5   6  -1-10.9126 52.5608   3
  -5  -6   0-36.3384 62.4523   5
  -5  -6   0 88.8439 47.9263   2
  -5  -6  -1 1340.89 269.351   2
  -5  -6  -1 1253.51 292.531   5
  -5  -6  -2 526.204 170.354   5
  -5  -6  -2 645.974 199.515   2
  -5  -6  -3 135.628 99.4380   5
  -5  -6  -3 121.745 76.0442   2
  -5  -6  -4 743.479 218.591   5
  -5  -6  -4 806.047 215.081   2
  -5  -6  -5 19.6212 44.0302   5
  -5  -6  -5 46.0740 42.9969   2
  -5  -6  -6 110.953 110.457   5
  -5  -6  -6 114.055 111.940   2
  -5  -6  -7 38.3146 47.7986   5
  -5  -6  -7 148.965 108.634   2
  -5  -6  -8 589.122 212.323   5
  -5  -6  -8 444.017 184.698   2
  -5  -6  -9 180.287 112.677   5
  -5  -6  -9 56.3274 47.9794   2
  -5  -6 -10 211.039 112.847   5
  -5  -6 -10 361.968 170.082   2
  -5  -6 -11 50.5912 39.3904   5
  -5  -6 -11-23.9015 85.8109   2
  -5  -6 -12-12.7295 47.6803   5
  -5  -6 -12 126.599 148.594   2
  -5  -6 -13 15.2039 72.2904   5
  -5  -6 -13 144.260 129.351   2
  -5  -6 -14 201.368 161.478   2
  -5  -6 -14-42.6259 33.3308   5
  -5  -6 -15 24.6454 81.4391   2
  -5  -6 -15 162.729 126.096   5
  -5  -6 -16 518.051 227.739   5
  -5  -7  12-209.095 137.435   1
  -5  -7  11 142.136 82.8619   1
  -5  -7  10 272.643 144.934   1
   5   7 -10 240.460 150.087   3
  -5  -7   9 88.8629 59.9401   1
   5   7  -9 85.7131 104.090   3
  -5  -7   8 271.659 151.050   5
  -5  -7   8 555.637 215.001   1
   5   7  -8 334.554 183.239   3
  -5  -7   7 213.213 140.715   1
  -5  -7   7 245.255 136.409   5
   5   7  -7 31.9702 50.6490   3
  -5  -7   6 40.0540 108.026   5
  -5  -7   6 66.8684 92.5481   2
   5   7  -6 172.941 137.571   3
  -5  -7   5-14.9051 38.1766   5
  -5  -7   5-56.8556 84.7599   2
   5   7  -5 44.8061 42.2640   3
  -5  -7   4 235.898 136.398   5
  -5  -7   4 77.2370 75.2510   2
   5   7  -4 325.354 165.300   3
  -5  -7   3 185.388 128.070   5
  -5  -7   3-18.1180 28.3101   2
   5   7  -3 183.247 115.975   3
  -5  -7   2 41.9797 84.4545   5
  -5  -7   2-12.6684 39.0024   2
   5   7  -2 166.423 127.639   3
  -5  -7   1 130.738 94.9777   5
  -5  -7   1 183.410 110.711   2
  -5  -7   0 1187.55 285.180   5
  -5  -7   0 987.705 235.997   2
  -5  -7  -1 30.8914 65.2369   5
  -5  -7  -1-42.9580 68.1101   2
  -5  -7  -2 9.07613 70.7015   5
  -5  -7  -2 93.9070 93.2284   2
  -5  -7  -3 365.135 169.962   5
  -5  -7  -3 501.440 183.499   2
  -5  -7  -4 365.721 162.107   5
  -5  -7  -4 315.627 141.373   2
  -5  -7  -5 342.752 169.539   5
  -5  -7  -5 330.976 150.471   2
  -5  -7  -6 14.8490 39.6046   5
  -5  -7  -6 159.986 121.543   2
  -5  -7  -7-52.2243 36.9499   5
  -5  -7  -7-34.5042 42.8612   2
  -5  -7  -8 27.3714 41.0136   5
  -5  -7  -8-23.1425 61.8405   2
  -5  -7  -9 123.652 105.384   5
  -5  -7  -9 19.1131 94.5982   2
  -5  -7 -10 321.482 156.257   5
  -5  -7 -10 388.484 177.884   2
  -5  -7 -11 151.972 120.003   5
  -5  -7 -11 251.577 178.021   2
  -5  -7 -12 162.141 142.865   5
  -5  -7 -12-64.0590 77.2870   2
  -5  -7 -13 93.9666 98.6441   5
  -5  -7 -13 414.312 201.489   2
  -5  -7 -14 390.220 204.475   2
  -5  -7 -14 137.440 123.516   5
  -5  -7 -15-12.9777 48.2908   5
  -5  -8  10 189.220 152.529   5
  -5  -8   9 80.0614 106.218   5
  -5  -8   8-14.0033 88.2645   5
   5   8  -8 30.5986 95.7689   3
  -5  -8   7-13.9321 99.2796   5
   5   8  -7-10.5228 55.4651   3
  -5  -8   6 8.59852 61.6218   5
  -5  -8   6 46.8415 59.4350   2
   5   8  -6-89.4370 67.4636   3
  -5  -8   5 50.6863 93.0631   5
  -5  -8   5-40.1574 72.1607   2
   5   8  -5 69.7006 120.980   3
  -5  -8   4 138.498 106.911   5
  -5  -8   4 21.8482 55.1670   2
   5   8  -4 141.532 113.255   3
  -5  -8   3 6.49333 73.2990   5
  -5  -8   3 75.8073 86.6415   2
   5   8  -3 201.106 126.442   3
  -5  -8   2 45.9985 52.8439   5
  -5  -8   2 21.4673 55.7003   2
  -5  -8   1 569.311 197.184   5
  -5  -8   1 444.804 199.348   2
  -5  -8   0 87.5657 102.781   5
  -5  -8   0-27.3562 48.9643   2
  -5  -8  -1 56.1667 83.2157   5
  -5  -8  -1-30.2783 61.8184   2
  -5  -8  -2 70.7037 30.7975   5
  -5  -8  -2 21.7760 42.3278   2
  -5  -8  -3 262.334 141.738   5
  -5  -8  -3 87.7310 95.0583   2
  -5  -8  -4 823.060 232.791   5
  -5  -8  -4 845.244 252.781   2
  -5  -8  -5 231.852 144.222   5
  -5  -8  -5 246.910 117.679   2
  -5  -8  -6 96.4369 74.6312   5
  -5  -8  -6 166.484 112.875   2
  -5  -8  -7 509.273 194.385   5
  -5  -8  -7 554.475 216.071   2
  -5  -8  -8 80.5503 70.0908   5
  -5  -8  -8 206.748 121.109   2
  -5  -8  -9 17.3136 51.9743   5
  -5  -8  -9 19.4581 35.2683   2
  -5  -8 -10 134.554 101.265   5
  -5  -8 -10-51.1514 105.462   2
  -5  -8 -11 303.394 155.093   5
  -5  -8 -11 280.894 152.816   2
  -5  -8 -12 497.535 209.032   5
  -5  -8 -13 128.048 131.256   5
  -5  -8 -14 121.033 101.767   5
  -5  -9   8 71.4885 89.9749   5
  -5  -9   7 29.3729 76.7785   5
  -5  -9   6 51.7033 96.1691   5
  -5  -9   6 199.244 119.833   2
  -5  -9   5-5.06279 67.9180   5
  -5  -9   5-22.5210 73.6396   2
  -5  -9   4 140.807 103.972   5
  -5  -9   4 200.342 114.116   2
   5   9  -4 186.188 146.442   3
  -5  -9   3-87.9102 98.3146   5
  -5  -9   3-12.1528 66.2402   2
   5   9  -3 111.315 138.335   3
  -5  -9   2 38.8555 31.1637   5
  -5  -9   2 191.449 134.411   2
  -5  -9   1-2.48547 54.3938   5
  -5  -9   1 22.5684 48.0920   2
  -5  -9   0-7.54139 91.6251   5
  -5  -9   0-31.8745 61.5947   2
  -5  -9  -1 65.2922 81.2248   5
  -5  -9  -1-45.2142 82.5886   2
  -5  -9  -2-76.9913 84.8299   5
  -5  -9  -2 24.7757 90.7118   2
  -5  -9  -3 836.191 236.210   5
  -5  -9  -3 697.167 243.124   2
  -5  -9  -4-12.2648 37.2992   5
  -5  -9  -4 25.7788 50.1160   2
  -5  -9  -5 143.036 137.157   5
  -5  -9  -5 168.095 100.035   2
  -5  -9  -6 278.276 149.654   5
  -5  -9  -6 201.273 152.604   2
  -5  -9  -7 871.663 243.335   5
  -5  -9  -7 522.636 224.835   2
  -5  -9  -8 88.0370 108.272   5
  -5  -9  -8 126.607 122.935   2
  -5  -9  -9 22.4420 52.9223   5
  -5  -9 -10 61.5248 79.0749   5
  -5 -10   3 268.732 159.934   2
  -5 -10   2 618.296 224.004   2
  -5 -10   1 110.155 125.053   2
  -5 -10   0 359.345 199.965   2
  -5 -10  -1 76.8293 55.3127   2
  -6   6   5-46.1252 79.6619   1
  -6   6   4 146.848 126.203   1
  -6   6   3 326.390 183.454   1
  -6   6   2 27.9066 49.7072   1
  -6   6   1 148.603 127.450   1
  -6   6   0 528.399 192.007   1
  -6   6  -1-19.7539 49.8724   4
  -6   6  -2 291.699 160.908   4
  -6   6  -3 113.870 147.477   4
  -6   6  -4 245.230 169.241   4
  -6   6  -5 62.7052 78.6321   4
  -6   6  -6 108.778 95.2196   4
  -6   5   7 710.339 248.635   1
  -6   5   6 84.1005 58.4969   1
  -6   5   5 73.9259 105.798   1
  -6   5   4 198.027 145.936   1
  -6   5   3 131.225 137.257   1
  -6   5   2 186.688 124.952   1
  -6   5   1 177.657 135.736   1
  -6   5   0 303.380 172.382   1
  -6   5  -1 284.063 172.979   1
  -6   5  -2 89.6312 81.8010   1
  -6   5  -2-136.922 136.898   4
  -6   5  -3 458.730 202.431   4
  -6   5  -4 602.405 232.886   4
  -6   5  -5 53.8831 73.5277   4
  -6   5  -6 98.3561 103.321   4
  -6   5  -7 28.3571 40.4938   4
  -6   5  -8 167.910 117.658   4
  -6   5  -9 239.108 146.689   4
  -6   5 -10 215.744 145.185   4
  -6   4   8 1547.69 370.246   1
  -6   4   7 789.013 268.360   1
  -6   4   6-51.8474 56.4882   1
  -6   4   5-21.9462 77.4026   1
  -6   4   4 30.7880 89.7979   1
  -6   4   3 14.2188 43.9347   1
  -6   4   2 100.292 94.3429   1
  -6   4   1 10.2930 42.8800   1
  -6   4   0 94.3813 90.8364   1
  -6   4  -1-20.8019 78.4282   1
  -6   4  -2 9.09271 39.5113   1
  -6   4  -3 649.040 201.146   1
  -6   4  -3 312.221 157.613   4
  -6   4  -4 211.149 111.693   1
  -6   4  -4 101.404 90.3626   4
  -6   4  -5 64.6582 94.4931   4
  -6   4  -6 188.275 140.289   4
  -6   4  -7 599.518 226.086   4
  -6   4  -8 254.114 139.899   4
  -6   4  -9 19.2033 83.8280   4
  -6   4 -10-3.70582 66.1816   4
  -6   4 -11 508.865 216.213   4
  -6   4 -12 488.957 218.379   4
  -6   3  10 99.0799 120.288   1
  -6   3   9 239.895 178.727   1
  -6   3   8 941.958 288.337   1
  -6   3   7 126.434 112.426   1
  -6   3   6 47.4151 66.9214   5
  -6   3   6 177.626 148.953   1
  -6   3   5 486.917 160.505   5
  -6   3   5 563.297 222.095   1
  -6   3   4 139.251 89.8576   5
  -6   3   4 70.7446 93.3739   1
  -6   3   3 9.85833 34.7180   5
  -6   3   3 105.457 103.467   1
  -6   3   2 117.380 97.0526   5
  -6   3   2 65.4926 52.3078   1
  -6   3   1 49.8555 68.0624   5
  -6   3   1-139.561 133.728   1
  -6   3   0 232.602 109.372   5
  -6   3   0 180.080 122.097   1
  -6   3  -1 288.833 121.843   5
  -6   3  -1 368.699 141.465   1
  -6   3  -2-8.86375 26.1302   5
  -6   3  -2 105.817 92.1801   1
  -6   3  -3 22.5968 49.1371   5
  -6   3  -3 77.2296 101.747   1
  -6   3  -4 117.226 86.7381   1
  -6   3  -4 47.1072 24.5872   5
  -6   3  -4 36.5059 73.5293   4
  -6   3  -5 279.383 127.184   5
  -6   3  -5 175.645 97.0172   4
  -6   3  -5 172.671 97.8274   1
  -6   3  -6 542.641 167.124   5
  -6   3  -6 583.688 220.543   4
  -6   3  -7 308.191 138.542   5
  -6   3  -7 208.585 158.316   4
  -6   3  -8 150.904 104.397   5
  -6   3  -8 96.6038 68.6495   4
  -6   3  -9 157.940 119.401   4
  -6   3  -9 140.284 95.6893   5
  -6   3 -10-29.1255 39.7419   4
  -6   3 -10 66.4358 57.7307   5
  -6   3 -11 210.778 150.308   4
  -6   3 -11 84.5777 80.2897   5
  -6   3 -12 239.428 167.491   4
  -6   3 -12-22.8475 37.1355   5
  -6   3 -13 345.984 175.593   4
  -6   3 -13-80.6261 79.1859   5
  -6   3 -14 810.665 270.772   4
  -6   3 -14 563.797 194.381   5
  -6   3 -15 1139.86 288.030   5
  -6   3 -16 176.449 143.010   5
  -6   2  11-147.903 140.562   1
  -6   2  10 551.556 236.662   1
  -6   2   9 314.011 182.518   1
  -6   2   8 88.3723 89.4834   5
  -6   2   8-78.7366 88.5485   1
  -6   2   7 55.5731 67.8097   5
  -6   2   7 24.7954 79.2931   1
  -6   2   6 626.164 204.558   5
  -6   2   6 817.456 253.166   1
  -6   2   5 133.426 103.787   5
  -6   2   5-45.1164 99.5308   1
  -6   2   4 255.637 120.010   5
  -6   2   4 259.501 129.008   1
  -6   2   3 56.4794 44.1150   5
  -6   2   3 60.2643 61.2292   1
  -6   2   2-21.7059 68.8094   5
  -6   2   2 50.7491 90.9567   1
  -6   2   1 29.7611 73.9513   5
  -6   2   1-33.2259 79.4178   1
  -6   2   0 450.100 147.711   5
  -6   2   0 455.917 162.673   1
  -6   2  -1 458.619 175.368   1
  -6   2  -1 161.599 64.5291   5
  -6   2  -2 127.217 85.3499   1
  -6   2  -2 267.287 119.106   5
  -6   2  -3 1300.55 254.966   5
  -6   2  -3 1072.22 237.201   1
  -6   2  -4 48.9386 43.1086   5
  -6   2  -4 137.629 80.6513   1
  -6   2  -5-10.8710 52.1699   5
  -6   2  -5-51.0451 108.862   4
  -6   2  -5 93.1888 73.6816   1
  -6   2  -6 101.928 89.3140   5
  -6   2  -6 135.631 92.0352   1
  -6   2  -6 148.737 114.300   4
  -6   2  -7 198.358 100.654   5
  -6   2  -7 149.886 103.916   4
  -6   2  -8 7.89827 78.1198   5
  -6   2  -8 76.9264 85.2980   4
  -6   2  -9 293.767 148.287   5
  -6   2  -9 300.101 152.436   4
  -6   2 -10 40.0470 77.0855   5
  -6   2 -10-22.8688 66.9395   4
  -6   2 -11 106.300 71.5335   4
  -6   2 -11 2.12077 80.7560   5
  -6   2 -12 461.028 203.643   4
  -6   2 -12 247.552 152.153   5
  -6   2 -13 931.305 274.158   4
  -6   2 -13 789.802 255.140   5
  -6   2 -14 1126.20 300.869   4
  -6   2 -14 992.968 265.671   5
  -6   2 -15 293.727 167.633   4
  -6   2 -15 202.958 150.140   5
  -6   2 -16 489.486 237.438   4
  -6   2 -16 255.542 120.619   5
  -6   2 -17 300.304 157.946   5
  -6   1  11-44.7230 95.4542   1
  -6   1  10 515.414 228.841   1
  -6   1   9-65.4516 109.522   1
  -6   1   8-116.173 100.078   1
  -6   1   7 7.15888 64.3216   5
  -6   1   7-26.4215 65.2923   1
  -6   1   6 1692.57 357.722   1
  -6   1   6 1474.86 315.082   5
  -6   1   5 1005.53 253.432   5
  -6   1   5 1069.56 287.269   1
  -6   1   4 113.907 130.194   1
  -6   1   4 39.4338 59.1802   5
  -6   1   3 944.554 253.709   1
  -6   1   3 1002.90 242.329   5
  -6   1   2 498.547 174.550   1
  -6   1   2 650.869 190.532   5
  -6   1   1 97.1835 103.288   1
  -6   1   1 108.126 96.0273   5
  -6   1   0 387.288 156.779   1
  -6   1   0 462.949 167.573   5
  -6   1  -1 40.2666 61.9327   5
  -6   1  -1 57.7086 59.1180   2
  -6   1  -1-36.9300 67.6925   1
  -6   1  -2 510.075 176.472   5
  -6   1  -2 491.882 174.402   1
  -6   1  -3 3565.82 425.045   1
  -6   1  -3 3419.82 427.575   5
  -6   1  -4 51.2344 53.7413   5
  -6   1  -4 125.070 86.6808   1
  -6   1  -5 156.527 111.308   5
  -6   1  -5 194.885 90.8959   1
  -6   1  -5 83.1164 48.3056   4
  -6   1  -6 32.0399 59.6005   5
  -6   1  -6 6.10369 32.2093   1
  -6   1  -6-34.2665 53.0728   4
  -6   1  -7 22.1812 72.2606   5
  -6   1  -7 125.009 88.8582   1
  -6   1  -7 124.464 78.0091   4
  -6   1  -8 63.2065 49.2891   5
  -6   1  -8-2.17752 24.1052   1
  -6   1  -8 107.884 108.727   4
  -6   1  -9 23.1223 48.4734   5
  -6   1  -9 34.6967 46.3737   4
  -6   1 -10 101.402 52.6752   5
  -6   1 -10 5.25148 48.8565   4
  -6   1 -11 292.141 156.638   5
  -6   1 -11 453.642 187.934   4
  -6   1 -12 128.889 133.971   4
  -6   1 -12-88.8436 115.341   5
  -6   1 -13 889.387 272.012   4
  -6   1 -13 591.491 192.584   5
  -6   1 -14 1153.28 300.626   4
  -6   1 -14 1065.73 293.613   5
  -6   1 -15 340.910 179.979   4
  -6   1 -15 12.9588 41.1443   5
  -6   1 -16 423.659 203.593   4
  -6   1 -16 215.914 149.521   5
  -6   1 -17 275.711 162.548   4
  -6   1 -17 383.410 207.681   5
  -6   0  12 95.2424 117.933   1
  -6   0  11 73.2503 96.5292   1
  -6   0  10 134.573 107.838   1
  -6   0   9-4.29805 50.1711   1
  -6   0   8 207.911 145.231   1
  -6   0   7 252.254 136.044   1
  -6   0   7 234.563 135.307   5
  -6   0   6 736.386 230.706   1
  -6   0   6 721.170 220.525   5
  -6   0   5 309.219 136.087   1
  -6   0   5 298.934 144.823   5
  -6   0   4 270.427 117.035   1
  -6   0   4 278.670 126.951   5
  -6   0   3 414.375 178.712   1
  -6   0   3 291.721 136.053   5
  -6   0   2 779.696 213.358   5
  -6   0   2 915.586 253.012   1
  -6   0   1-25.7438 29.4338   5
  -6   0   1-53.0009 84.1781   1
  -6   0   0 93.9705 91.1615   5
  -6   0   0 69.7958 41.7335   1
  -6   0  -1 55.8026 66.3048   5
  -6   0  -1 148.186 86.5500   2
  -6   0  -1-3.14296 42.7186   1
  -6   0  -2 752.870 198.155   5
  -6   0  -2 697.504 197.362   1
  -6   0  -2 916.415 182.088   2
  -6   0  -3 302.097 137.247   5
  -6   0  -3 306.982 127.465   2
  -6   0  -3 189.765 120.326   1
  -6   0  -4 476.160 172.814   5
  -6   0  -4 571.610 183.126   1
  -6   0  -4 908.250 206.549   2
  -6   0  -5 25.6179 68.5677   5
  -6   0  -5 63.3890 55.8756   1
  -6   0  -5-11.3841 68.2968   4
  -6   0  -6 105.254 97.4053   5
  -6   0  -6 70.3586 55.3727   1
  -6   0  -6 170.222 109.508   4
  -6   0  -7-19.0465 47.5605   5
  -6   0  -7 101.255 69.4911   1
  -6   0  -7 97.7511 89.8920   4
  -6   0  -8 156.399 119.554   5
  -6   0  -8 212.886 107.678   1
  -6   0  -8 128.393 81.2415   4
  -6   0  -9 218.093 123.077   5
  -6   0  -9 21.1558 55.2330   4
  -6   0 -10 448.626 169.960   5
  -6   0 -10 517.494 181.656   4
  -6   0 -11 206.106 132.607   5
  -6   0 -11 465.294 183.165   4
  -6   0 -12 315.860 154.084   5
  -6   0 -12 646.138 221.729   4
  -6   0 -13 190.035 143.031   4
  -6   0 -13 223.322 150.948   5
  -6   0 -14 470.040 184.878   4
  -6   0 -14 442.697 192.385   5
  -6   0 -15 220.725 171.950   4
  -6   0 -15 98.0199 116.272   5
  -6   0 -16 667.420 238.674   4
  -6   0 -16 979.901 302.805   5
  -6   0 -17 2065.49 400.478   4
  -6   0 -17 2233.85 445.138   5
  -6   0 -18 376.160 191.696   4
  -6  -1  12 63.7793 104.153   1
  -6  -1  11 505.584 210.353   1
  -6  -1  10 258.984 148.477   1
  -6  -1   9 37.7005 84.0143   1
  -6  -1   8-18.2250 43.6012   1
  -6  -1   7 107.176 127.755   1
  -6  -1   6 74.6751 96.1782   5
  -6  -1   6 48.9528 74.2650   1
  -6  -1   5 89.7957 76.1876   5
  -6  -1   5-64.7612 81.0617   1
  -6  -1   4 302.952 141.544   5
  -6  -1   4 403.651 192.965   1
  -6  -1   3 153.791 113.168   5
  -6  -1   3 244.965 120.894   1
  -6  -1   2 203.526 106.888   5
  -6  -1   2 119.854 114.557   1
  -6  -1   1 197.944 111.038   5
  -6  -1   1 17.7552 36.0659   1
  -6  -1   0 941.315 241.583   5
  -6  -1   0 822.322 208.152   1
  -6  -1   0 1088.74 172.661   2
  -6  -1  -1 375.391 147.402   5
  -6  -1  -1 289.379 98.0522   2
  -6  -1  -1 272.476 130.576   1
  -6  -1  -2 1620.97 301.232   1
  -6  -1  -2 1274.23 276.433   5
  -6  -1  -2 1648.77 241.308   2
  -6  -1  -3 11.6481 54.7848   5
  -6  -1  -3 144.149 89.7129   2
  -6  -1  -3 86.0972 93.6848   1
  -6  -1  -4 1028.29 246.189   5
  -6  -1  -4 1194.38 253.684   1
  -6  -1  -4 1143.44 220.058   2
  -6  -1  -5 1286.03 290.061   5
  -6  -1  -5 1310.79 264.451   4
  -6  -1  -5 1185.91 245.812   1
  -6  -1  -5 1479.72 257.521   2
  -6  -1  -6-0.95842 55.8984   5
  -6  -1  -6 186.179 125.960   2
  -6  -1  -6 44.8224 35.5311   1
  -6  -1  -6 104.808 78.8925   4
  -6  -1  -7 32.1159 47.2022   5
  -6  -1  -7 46.8450 78.9727   2
  -6  -1  -7-6.14452 45.7445   1
  -6  -1  -7 66.7027 78.8827   4
  -6  -1  -8 3.80653 34.2799   1
  -6  -1  -8 65.5077 103.339   5
  -6  -1  -8-63.0734 75.5091   4
  -6  -1  -9 149.217 108.444   5
  -6  -1  -9 43.5112 41.8047   4
  -6  -1  -9 211.901 140.426   2
  -6  -1 -10 97.4550 116.684   5
  -6  -1 -10 22.8239 61.9893   4
  -6  -1 -10 194.913 116.273   2
  -6  -1 -11 33.4808 104.249   5
  -6  -1 -11 214.117 123.687   4
  -6  -1 -12 106.537 84.7230   5
  -6  -1 -12 164.359 117.157   4
  -6  -1 -13 86.4914 109.657   5
  -6  -1 -13 265.967 139.338   4
  -6  -1 -14 286.023 148.831   4
  -6  -1 -14 23.4712 49.2859   5
  -6  -1 -15 330.275 152.131   4
  -6  -1 -15 173.084 137.072   2
  -6  -1 -15 112.922 108.938   5
  -6  -1 -16 1813.28 355.859   4
  -6  -1 -16 2298.22 445.573   5
  -6  -1 -16 2353.87 449.187   2
  -6  -1 -17 238.769 160.626   5
  -6  -2  12 600.755 228.009   1
  -6  -2  11 237.874 178.720   1
  -6  -2  10 1336.53 323.086   1
  -6  -2   9 153.002 98.4788   1
  -6  -2   8 277.185 156.690   1
  -6  -2   7 82.6128 130.230   1
  -6  -2   6 52.5600 75.9184   5
  -6  -2   6 32.8877 46.6346   1
  -6  -2   5 252.494 138.488   5
  -6  -2   5 228.695 128.353   1
  -6  -2   4 335.548 167.838   5
  -6  -2   4 267.595 134.880   1
  -6  -2   3 78.6165 97.9748   5
  -6  -2   3-32.0580 66.9021   1
  -6  -2   2 365.812 156.666   5
  -6  -2   2 339.590 176.229   1
  -6  -2   1 36.5854 63.0986   5
  -6  -2   1 107.951 114.663   1
  -6  -2   0 5148.93 401.851   2
  -6  -2   0 5381.58 573.559   1
  -6  -2   0 5229.06 580.280   5
  -6  -2  -1 4348.71 387.178   2
  -6  -2  -1 4103.38 497.048   1
  -6  -2  -1 4303.97 516.054   5
  -6  -2  -2 196.903 128.012   5
  -6  -2  -2 203.600 93.4904   2
  -6  -2  -2 139.843 114.767   1
  -6  -2  -3 246.495 119.948   5
  -6  -2  -3 188.677 97.5506   2
  -6  -2  -3 72.4235 70.1611   1
  -6  -2  -4 158.247 107.886   5
  -6  -2  -4 124.930 91.9228   2
  -6  -2  -4 74.1572 73.2382   1
  -6  -2  -5 215.283 136.998   5
  -6  -2  -5 238.920 124.976   2
  -6  -2  -5 112.464 73.0776   1
  -6  -2  -5 318.673 126.478   4
  -6  -2  -6 8.45496 49.8079   5
  -6  -2  -6 41.0217 44.8694   1
  -6  -2  -6-5.22852 51.4009   4
  -6  -2  -7-19.8605 27.0836   1
  -6  -2  -7 68.5629 97.9990   5
  -6  -2  -7 18.3376 47.5047   4
  -6  -2  -8 76.7661 106.180   5
  -6  -2  -8 244.844 135.361   2
  -6  -2  -8 105.655 81.6837   4
  -6  -2  -9 53.0499 52.0517   5
  -6  -2  -9 173.183 138.216   2
  -6  -2  -9 97.9549 75.5689   4
  -6  -2 -10 89.1592 95.2011   5
  -6  -2 -10 299.289 176.492   2
  -6  -2 -10 291.687 125.268   4
  -6  -2 -11 39.4706 47.9172   5
  -6  -2 -11 136.496 101.452   4
  -6  -2 -12 136.697 110.573   5
  -6  -2 -12 284.615 157.005   2
  -6  -2 -12 269.485 115.231   4
  -6  -2 -13 163.460 100.077   5
  -6  -2 -13 371.600 197.811   2
  -6  -2 -13 320.452 148.902   4
  -6  -2 -14-35.2008 73.5855   5
  -6  -2 -14 138.251 116.603   2
  -6  -2 -15 240.985 167.935   2
  -6  -2 -15 274.521 151.844   5
  -6  -2 -16 598.878 245.021   2
  -6  -2 -16 158.932 123.227   5
  -6  -3  12 193.227 113.695   1
  -6  -3  11 59.9975 85.4791   1
  -6  -3  10 846.662 280.503   1
  -6  -3   9 479.701 185.470   1
  -6  -3   8-61.2954 47.2801   1
  -6  -3   7 276.253 164.536   1
  -6  -3   6 98.5299 102.954   5
  -6  -3   6 207.806 141.258   1
  -6  -3   5 433.504 168.558   5
  -6  -3   5 743.259 245.064   1
  -6  -3   4 28.0952 65.8077   5
  -6  -3   4 256.015 154.614   1
  -6  -3   3-21.5298 57.7272   5
  -6  -3   3-62.5886 79.7930   1
  -6  -3   2 211.608 124.337   5
  -6  -3   2 317.140 161.700   1
  -6  -3   1 109.160 125.654   5
  -6  -3   1 89.9541 72.4935   2
  -6  -3   1 17.7404 47.1895   1
  -6  -3   0 723.602 210.865   5
  -6  -3   0 541.127 141.681   2
  -6  -3   0 690.817 225.620   1
   6   3   0 557.862 171.622   3
  -6  -3  -1-12.5692 70.6360   5
  -6  -3  -1 68.7473 75.9389   2
  -6  -3  -1 43.6845 36.2157   1
   6   3   1 113.679 95.7917   3
  -6  -3  -2 1801.12 274.717   2
  -6  -3  -2 2010.82 355.900   1
   6   3   2 1671.20 271.862   3
  -6  -3  -2 1810.44 350.233   5
  -6  -3  -3 220.292 99.0326   5
  -6  -3  -3 208.413 100.119   2
  -6  -3  -3 284.322 140.024   1
   6   3   3 278.242 110.254   3
  -6  -3  -4 164.297 111.613   5
  -6  -3  -4 304.241 125.359   2
  -6  -3  -4 181.328 117.540   1
   6   3   4 199.957 102.023   3
  -6  -3  -5 42.7212 82.7624   5
  -6  -3  -5 69.1377 71.2560   2
  -6  -3  -5-22.7267 55.8407   1
  -6  -3  -5 103.049 62.9971   4
   6   3   5 20.2467 33.4646   3
  -6  -3  -6 15.1830 62.3682   5
  -6  -3  -6 131.752 91.5049   2
  -6  -3  -6 86.4504 74.9566   4
  -6  -3  -7 155.446 93.2089   5
  -6  -3  -7 409.175 178.814   2
  -6  -3  -7 269.912 108.519   4
  -6  -3  -8 133.644 116.365   5
  -6  -3  -8 200.391 122.409   2
  -6  -3  -8 249.449 98.5182   4
  -6  -3  -9 257.014 161.753   5
  -6  -3  -9 440.851 170.820   2
  -6  -3  -9 375.938 135.236   4
  -6  -3 -10 42.3305 64.9409   5
  -6  -3 -10 60.1389 70.4505   2
  -6  -3 -11 261.416 149.382   5
  -6  -3 -11 368.008 179.357   2
  -6  -3 -12-32.7702 66.8369   5
  -6  -3 -12 153.031 124.480   2
  -6  -3 -13 13.5621 85.4691   5
  -6  -3 -13 170.734 137.320   2
  -6  -3 -14 55.5423 46.2841   5
  -6  -3 -14 243.742 163.387   2
  -6  -3 -15 160.627 176.975   2
  -6  -3 -15 9.03903 94.2118   5
  -6  -3 -16-2.13101 70.3262   2
  -6  -3 -16 176.595 149.117   5
  -6  -4  12 414.112 200.334   1
  -6  -4  11 193.137 171.948   1
  -6  -4  10 401.987 193.186   1
  -6  -4   9 469.569 211.589   1
  -6  -4   8 965.483 278.861   1
  -6  -4   7 545.077 204.687   5
  -6  -4   7 658.398 229.286   1
  -6  -4   6 38.6585 35.8291   5
  -6  -4   6 470.128 222.510   1
  -6  -4   5 122.492 113.941   5
  -6  -4   5 35.8561 61.0651   1
  -6  -4   4 61.5764 71.7781   5
  -6  -4   4-0.19085 39.1995   1
  -6  -4   3 265.139 142.412   5
  -6  -4   3 321.039 171.351   1
   6   4  -3 90.9355 51.4567   3
  -6  -4   2 91.8098 101.701   5
  -6  -4   2 51.7802 85.9928   1
  -6  -4   2 30.4859 29.8143   2
   6   4  -2 17.3994 49.2711   3
  -6  -4   1-79.1837 110.946   5
  -6  -4   1 25.3461 34.4504   2
  -6  -4   1-24.7397 88.0067   1
   6   4  -1 32.0916 67.8582   3
  -6  -4   0-59.3652 33.7447   5
  -6  -4   0 52.4860 75.2798   2
  -6  -4   0-73.5948 73.3739   1
   6   4   0 58.2976 56.6426   3
  -6  -4  -1 724.577 226.043   5
  -6  -4  -1 675.347 180.173   2
  -6  -4  -1 674.297 213.967   1
   6   4   1 602.782 180.659   3
  -6  -4  -2 464.543 189.017   5
  -6  -4  -2 608.812 176.456   2
  -6  -4  -2 394.224 160.718   1
   6   4   2 652.420 185.246   3
  -6  -4  -3 10388.1 712.647   2
  -6  -4  -3 10848.5 838.805   1
   6   4   3 11208.0 726.885   3
  -6  -4  -3 10616.2 851.524   5
  -6  -4  -4 2246.69 342.891   2
  -6  -4  -4 2259.57 378.734   1
   6   4   4 2352.59 327.200   3
  -6  -4  -4 2136.54 385.741   5
  -6  -4  -5 68.4754 83.6119   5
  -6  -4  -5 179.383 114.263   2
   6   4   5 60.8349 51.4811   3
  -6  -4  -6 22.6089 47.7917   5
  -6  -4  -6 61.3639 71.1615   2
   6   4   6-50.5382 59.7874   3
  -6  -4  -7 29.6108 33.9469   5
  -6  -4  -7 33.2449 78.4280   2
  -6  -4  -8 182.992 124.593   5
  -6  -4  -8 21.9151 59.2038   2
  -6  -4  -9 8.15035 50.1394   5
  -6  -4  -9 240.658 129.201   2
  -6  -4 -10 43.8669 119.133   5
  -6  -4 -10 33.9213 68.0828   2
  -6  -4 -11 77.1746 117.387   5
  -6  -4 -11 147.150 148.291   2
  -6  -4 -12 202.279 140.274   5
  -6  -4 -12 152.025 129.062   2
  -6  -4 -13 186.305 149.569   5
  -6  -4 -13 371.496 203.951   2
  -6  -4 -14 82.6461 86.3775   5
  -6  -4 -14 175.524 133.045   2
  -6  -4 -15 131.265 142.757   2
  -6  -4 -15 81.1647 102.421   5
  -6  -5  11 178.247 120.535   1
  -6  -5  10 27.1317 65.8035   1
  -6  -5   9 191.095 112.763   1
  -6  -5   8 179.960 132.474   5
  -6  -5   8 151.593 115.664   1
  -6  -5   7 182.904 161.492   5
  -6  -5   7 322.477 166.276   1
  -6  -5   6 323.371 178.583   5
  -6  -5   6 463.127 213.587   1
   6   5  -6 210.785 130.911   3
  -6  -5   5-51.4724 96.7552   5
  -6  -5   5 157.294 132.556   1
   6   5  -5-9.69782 50.6240   3
  -6  -5   4 3.03591 97.3687   5
  -6  -5   4-121.474 105.256   1
   6   5  -4 54.2393 100.153   3
  -6  -5   3 46.2161 35.9086   5
  -6  -5   3 120.977 108.908   1
   6   5  -3-3.26964 66.5537   3
  -6  -5   2-77.6015 44.4505   5
  -6  -5   2-4.13556 25.7932   2
   6   5  -2 14.6345 78.1085   3
  -6  -5   1 86.0029 116.000   5
  -6  -5   1 93.1841 77.3089   1
  -6  -5   1 99.7557 76.7430   2
   6   5  -1 87.1123 84.3348   3
  -6  -5   0 132.000 111.269   5
  -6  -5   0-61.7862 116.884   1
  -6  -5   0 53.8328 57.3771   2
   6   5   0 8.55326 45.0421   3
  -6  -5  -1-48.1514 56.6218   5
  -6  -5  -1 54.2735 71.6931   1
  -6  -5  -1 13.6004 36.5107   2
   6   5   1-9.01949 37.0750   3
  -6  -5  -2 324.608 152.371   1
  -6  -5  -2 269.505 167.153   5
  -6  -5  -2 341.871 144.925   2
   6   5   2 239.231 125.802   3
  -6  -5  -3 98.8150 113.164   5
  -6  -5  -3 65.6360 63.0474   2
   6   5   3 103.701 74.0539   3
  -6  -5  -4 72.6174 36.2665   5
  -6  -5  -4 197.571 120.903   2
   6   5   4 184.037 97.8514   3
  -6  -5  -5 1369.65 290.176   2
  -6  -5  -5 1428.38 315.252   5
   6   5   5 1316.35 263.008   3
  -6  -5  -6 452.340 181.220   5
  -6  -5  -6 395.834 158.219   2
  -6  -5  -7 303.771 153.954   5
  -6  -5  -7 398.051 166.477   2
  -6  -5  -8 28.3484 81.8951   5
  -6  -5  -8 101.547 96.5308   2
  -6  -5  -9-30.6956 73.2937   5
  -6  -5  -9-29.1009 70.3843   2
  -6  -5 -10 242.542 175.141   5
  -6  -5 -10 187.601 105.696   2
  -6  -5 -11 38.0615 115.164   5
  -6  -5 -11 176.606 98.2982   2
  -6  -5 -12 64.9236 71.4371   5
  -6  -5 -12 215.434 151.303   2
  -6  -5 -13 267.567 185.037   5
  -6  -5 -13 333.865 170.554   2
  -6  -5 -14-51.7902 81.8575   5
  -6  -5 -14 42.3446 56.1656   2
  -6  -6  10 99.7132 103.192   1
  -6  -6   9 232.006 154.412   5
  -6  -6   9 312.581 167.372   1
  -6  -6   8-38.2807 101.738   5
  -6  -6   8 152.578 137.433   1
  -6  -6   7-13.7137 92.3157   5
  -6  -6   7 48.5151 104.561   1
   6   6  -7 38.7175 89.1119   3
  -6  -6   6 277.623 161.093   5
  -6  -6   6 164.598 142.857   1
   6   6  -6 176.348 135.077   3
  -6  -6   5 87.0229 139.357   5
  -6  -6   5 69.1648 58.4290   1
   6   6  -5 142.023 124.694   3
  -6  -6   4 158.154 108.969   5
  -6  -6   4 131.027 103.932   1
   6   6  -4 81.6309 101.704   3
  -6  -6   3 305.905 168.686   5
  -6  -6   3 217.249 94.6566   1
   6   6  -3 204.609 113.300   3
  -6  -6   2 31.1046 43.7290   5
  -6  -6   2 86.6450 81.4105   2
   6   6  -2-1.53781 38.3348   3
  -6  -6   1-18.1855 42.0335   1
  -6  -6   1-95.8743 103.721   5
  -6  -6   1 73.8930 49.8427   2
   6   6  -1-7.43410 60.5269   3
  -6  -6   0 197.954 156.363   5
  -6  -6   0 33.1688 57.7313   2
   6   6   0 16.5365 68.4753   3
  -6  -6  -1-73.0847 76.0564   5
  -6  -6  -1 35.6590 36.8892   2
   6   6   1-13.1884 76.4190   3
  -6  -6  -2 162.461 129.621   5
  -6  -6  -2 83.4976 65.2723   2
   6   6   2 119.253 108.063   3
  -6  -6  -3 25.4352 65.1493   5
  -6  -6  -3 153.693 100.276   2
   6   6   3 128.544 91.5059   3
  -6  -6  -4 28.0983 43.6260   5
  -6  -6  -4 23.0604 54.1565   2
  -6  -6  -5 1236.70 306.360   5
  -6  -6  -5 1123.77 283.090   2
  -6  -6  -6 3178.27 464.759   2
  -6  -6  -6 3445.81 502.597   5
  -6  -6  -7 552.836 206.649   5
  -6  -6  -7 483.521 182.947   2
  -6  -6  -8 60.7702 98.5224   5
  -6  -6  -8 94.2384 107.733   2
  -6  -6  -9 13.6273 99.3066   5
  -6  -6  -9 58.0171 79.7298   2
  -6  -6 -10 20.5935 85.7206   5
  -6  -6 -10 10.1292 44.6031   2
  -6  -6 -11 104.589 94.7955   5
  -6  -6 -11 130.320 118.854   2
  -6  -6 -12 432.566 187.808   5
  -6  -6 -12 359.931 192.931   2
  -6  -6 -13 234.004 118.989   5
  -6  -6 -13 211.247 172.965   2
  -6  -7   8 406.454 196.702   1
  -6  -7   7 32.0613 88.3267   5
  -6  -7   7 189.714 154.970   1
   6   7  -7 39.3045 125.111   3
  -6  -7   6-0.47040 84.4825   5
  -6  -7   6 170.895 99.7725   1
   6   7  -6-85.4782 68.2757   3
  -6  -7   5-56.1770 119.298   1
  -6  -7   5 117.919 103.620   5
   6   7  -5 332.031 199.894   3
  -6  -7   4 20.3890 50.5090   5
   6   7  -4-60.4028 60.3270   3
  -6  -7   3 120.558 100.235   5
   6   7  -3 18.1787 49.6924   3
  -6  -7   2-70.3389 61.5923   5
  -6  -7   2-66.2544 73.1230   2
   6   7  -2 25.6583 73.6555   3
  -6  -7   1 109.330 114.743   5
  -6  -7   1-34.9112 45.7014   2
   6   7  -1 111.438 120.094   3
  -6  -7   0 233.954 124.631   5
  -6  -7   0 254.263 129.372   2
   6   7   0 199.010 117.366   3
  -6  -7  -1 331.122 162.669   5
  -6  -7  -1 301.179 160.146   2
   6   7   1 272.100 134.108   3
  -6  -7  -2 194.576 118.257   5
  -6  -7  -2 197.626 134.467   2
  -6  -7  -3 127.066 114.313   5
  -6  -7  -3-115.340 91.2837   2
  -6  -7  -4 48.1469 79.3421   5
  -6  -7  -4 33.0748 34.0774   2
  -6  -7  -5 17.6429 92.5982   5
  -6  -7  -5-52.9697 63.8758   2
  -6  -7  -6 344.206 173.782   5
  -6  -7  -6 374.862 179.377   2
  -6  -7  -7 438.124 193.863   5
  -6  -7  -7 561.695 215.777   2
  -6  -7  -8 353.108 175.731   5
  -6  -7  -8 640.897 227.178   2
  -6  -7  -9 85.7516 79.6104   5
  -6  -7  -9 48.2165 67.9135   2
  -6  -7 -10-142.039 99.5998   5
  -6  -7 -10 70.8517 91.9574   2
  -6  -7 -11-87.5161 106.878   5
  -6  -7 -11 110.407 137.730   2
  -6  -7 -12 289.380 161.280   5
  -6  -8   5-158.481 135.061   5
  -6  -8   4 64.0238 91.4044   5
   6   8  -4 53.8302 84.5483   3
  -6  -8   3 650.070 224.409   5
   6   8  -3 615.609 240.670   3
  -6  -8   2 145.660 82.8699   5
  -6  -8   2 360.522 155.184   2
   6   8  -2 117.543 103.692   3
  -6  -8   1 153.074 111.836   5
  -6  -8   1 48.7884 58.4498   2
   6   8  -1 80.2968 112.753   3
  -6  -8   0 26.2755 100.021   5
  -6  -8   0 4.07943 40.4478   2
   6   8   0-9.11226 80.6909   3
  -6  -8  -1 92.0360 125.809   5
  -6  -8  -1 77.9080 70.3296   2
  -6  -8  -2 121.868 83.8218   5
  -6  -8  -2 66.2910 37.9361   2
  -6  -8  -3 62.3225 84.1867   5
  -6  -8  -3 103.008 97.3569   2
  -6  -8  -4 632.818 229.292   5
  -6  -8  -4 642.269 215.440   2
  -6  -8  -5-112.938 122.246   5
  -6  -8  -5 92.7407 90.4066   2
  -6  -8  -6 66.0933 112.942   5
  -6  -8  -6 165.306 129.893   2
  -6  -8  -7 121.096 133.717   5
  -6  -8  -7 277.702 161.426   2
  -6  -8  -8 904.001 272.260   5
  -6  -8  -8 539.192 216.164   2
  -6  -8  -9 123.413 139.252   5
  -6  -8  -9-15.0929 66.9270   2
  -6  -8 -10 194.979 150.981   5
  -6  -9   3-64.0285 62.8377   5
  -6  -9   2 12.2905 56.2010   5
  -6  -9   2 40.1291 38.1126   2
  -6  -9   1 81.5892 91.9069   5
  -6  -9   1 45.8172 67.7892   2
  -6  -9   0 53.1455 63.9252   5
  -6  -9   0 172.753 114.681   2
  -6  -9  -1 118.582 119.112   5
  -6  -9  -1 143.189 124.593   2
  -6  -9  -2 4.70561 47.7904   5
  -6  -9  -2 85.0234 78.2921   2
  -6  -9  -3 553.157 210.193   5
  -6  -9  -3 393.745 193.026   2
  -6  -9  -4 41.0328 77.8964   5
  -6  -9  -4 135.015 123.656   2
  -6  -9  -5-70.1154 79.6271   5
  -6  -9  -6 97.6256 93.0510   5
  -6  -9  -7-22.1897 86.3683   5
  -6  -9  -8 355.125 178.923   5
  -7   5   2-69.5353 63.5626   1
  -7   5   1 173.042 118.287   1
  -7   4   4 288.896 166.054   1
  -7   4   3 448.841 189.427   1
  -7   4   2-23.9217 70.4388   1
  -7   4   1-26.8169 51.1947   1
  -7   4   0 36.0603 46.4380   1
  -7   4  -1 80.2048 106.812   1
  -7   4  -2 330.371 168.494   4
  -7   4  -3-11.0593 56.4665   4
  -7   4  -4 47.3343 75.2597   4
  -7   4  -5 123.751 106.960   4
  -7   4  -6 317.415 166.586   4
  -7   3   5 208.589 145.895   1
  -7   3   4 3216.42 514.988   1
  -7   3   3 1388.54 336.038   1
  -7   3   2-23.5570 52.2514   1
  -7   3   1 73.1520 101.725   1
  -7   3   0 67.4342 68.8512   1
  -7   3  -1 70.8102 96.7568   1
  -7   3  -2 168.075 134.943   1
  -7   3  -3 209.634 144.924   4
  -7   3  -3 391.977 152.194   1
  -7   3  -4 749.510 252.387   4
  -7   3  -5 504.666 231.175   4
  -7   3  -6 160.069 126.046   4
  -7   3  -7 59.2227 43.3810   4
  -7   3  -8 121.993 130.780   4
  -7   3  -9 76.9588 121.562   4
  -7   3 -10 16.6785 68.1467   4
  -7   2   6 67.0127 103.130   1
  -7   2   6-56.7218 63.8007   5
  -7   2   5 83.9786 101.461   1
  -7   2   5 4.78315 38.3486   5
  -7   2   4 26.6742 68.0236   1
  -7   2   4-50.9940 78.7695   5
  -7   2   3 365.732 187.305   1
  -7   2   3 260.288 138.472   5
  -7   2   2 698.439 237.650   1
  -7   2   2 629.313 202.557   5
  -7   2   1 330.164 169.983   1
  -7   2   1 126.860 94.2174   5
  -7   2   0 111.807 121.236   5
  -7   2   0 248.342 149.055   1
  -7   2  -1 122.253 103.044   5
  -7   2  -1 85.9282 96.5403   1
  -7   2  -2 102.142 106.687   5
  -7   2  -2 49.1753 53.4125   1
  -7   2  -3 81.3920 79.2848   5
  -7   2  -3 74.4787 96.4914   1
  -7   2  -4-45.9698 77.9413   5
  -7   2  -4 20.2119 107.865   4
  -7   2  -4 99.2352 88.7835   1
  -7   2  -5 7.81094 46.4000   5
  -7   2  -5 85.1469 117.433   4
  -7   2  -6 41.1382 35.1525   5
  -7   2  -6 304.860 169.520   4
  -7   2  -7 33.4917 72.5094   5
  -7   2  -7 179.638 121.717   4
  -7   2  -8 43.4819 66.5061   5
  -7   2  -8-24.8473 61.4862   4
  -7   2  -9-39.6290 81.3153   5
  -7   2  -9-106.841 101.320   4
  -7   2 -10 199.196 131.767   5
  -7   2 -10 269.253 141.675   4
  -7   2 -11 1054.94 313.603   4
  -7   2 -11 838.018 241.236   5
  -7   2 -12 221.939 137.251   4
  -7   2 -12 108.880 89.5349   5
  -7   2 -13-131.515 120.419   5
  -7   2 -14-67.9505 94.9153   5
  -7   1  10 293.102 179.327   5
  -7   1   9 355.763 182.504   5
  -7   1   8 20.4210 94.5588   5
  -7   1   7 254.288 171.152   1
  -7   1   7 35.5375 73.3257   5
  -7   1   6 400.378 226.376   1
  -7   1   6 38.8859 56.2326   5
  -7   1   5 337.511 182.610   1
  -7   1   5 288.008 150.868   5
  -7   1   4 89.6371 114.906   1
  -7   1   4 15.3954 40.6318   5
  -7   1   3 93.2781 105.105   1
  -7   1   3-59.5982 48.5645   5
  -7   1   2 436.897 179.912   5
  -7   1   2 528.978 203.529   1
  -7   1   1 679.962 212.779   5
  -7   1   1 722.207 226.877   1
  -7   1   0 168.041 109.050   5
  -7   1   0 161.018 110.499   1
  -7   1  -1 61.0252 69.3220   5
  -7   1  -1 104.278 77.0748   1
  -7   1  -2 213.563 103.463   5
  -7   1  -2 258.548 143.161   1
  -7   1  -3 85.9257 74.7368   5
  -7   1  -3 76.2747 75.4678   1
  -7   1  -4 164.356 103.141   5
  -7   1  -4 139.080 109.721   1
  -7   1  -5 1045.92 262.171   5
  -7   1  -5 1067.78 253.770   1
  -7   1  -5 916.378 262.589   4
  -7   1  -6-6.12986 32.5714   5
  -7   1  -6-15.7924 28.0561   1
  -7   1  -6 52.1262 36.0281   4
  -7   1  -7 212.776 126.267   5
  -7   1  -7-6.46427 41.9572   4
  -7   1  -8 75.3307 84.4731   5
  -7   1  -8-73.0156 107.428   4
  -7   1  -9-62.0453 115.212   5
  -7   1  -9 54.1729 81.9630   4
  -7   1 -10 31.3327 33.6147   5
  -7   1 -10 64.2154 70.2620   4
  -7   1 -11 121.598 104.466   5
  -7   1 -11-19.2966 79.8604   4
  -7   1 -12 81.5190 101.398   5
  -7   1 -12 194.548 158.376   4
  -7   1 -13 165.759 137.151   4
  -7   1 -13 149.164 122.162   5
  -7   1 -14 313.159 175.243   4
  -7   1 -14 199.525 127.114   5
  -7   0  10 85.3762 80.1823   5
  -7   0   9 21.1154 33.4898   5
  -7   0   8 53.2197 67.1498   5
  -7   0   8 67.5870 64.2717   1
  -7   0   7 231.769 139.838   5
  -7   0   7 307.260 201.072   1
  -7   0   6 474.788 185.188   5
  -7   0   6 541.242 217.431   1
  -7   0   5 105.182 72.4977   5
  -7   0   5-64.3614 38.3475   1
  -7   0   4-15.8426 91.9777   5
  -7   0   4 65.4933 70.5626   1
  -7   0   3-16.6332 87.5478   5
  -7   0   3 140.220 113.160   1
  -7   0   2 305.661 157.524   5
  -7   0   2 185.875 101.522   1
  -7   0   1 1854.31 363.604   1
  -7   0   1 1870.22 362.878   5
  -7   0   0 48.9583 84.1160   5
  -7   0   0 18.2968 79.9047   1
  -7   0  -1 829.008 238.260   5
  -7   0  -1 717.233 217.342   1
  -7   0  -2 301.931 136.972   5
  -7   0  -2 447.585 177.870   1
  -7   0  -3 217.560 122.088   5
  -7   0  -3 278.200 148.607   1
  -7   0  -4-27.6518 64.9831   5
  -7   0  -4-20.6706 58.7440   1
  -7   0  -5 448.600 179.434   5
  -7   0  -5 622.302 187.836   2
  -7   0  -5 580.571 195.894   1
  -7   0  -5 518.277 183.171   4
  -7   0  -6 96.4790 90.5244   5
  -7   0  -6 177.033 109.310   2
  -7   0  -6 170.352 105.191   1
  -7   0  -6 51.7505 69.0891   4
  -7   0  -7 253.082 141.750   5
  -7   0  -7 113.904 92.4308   1
  -7   0  -7 92.1317 60.9683   4
  -7   0  -8 256.127 145.756   5
  -7   0  -8 305.762 140.882   4
  -7   0  -8 676.933 213.961   2
  -7   0  -9 71.6706 47.9300   5
  -7   0  -9 91.4464 95.0030   4
  -7   0 -10 170.835 126.358   5
  -7   0 -10 33.2271 65.3843   4
  -7   0 -11 11.4667 36.9141   5
  -7   0 -11 202.591 131.388   4
  -7   0 -12 30.2723 124.506   5
  -7   0 -12 185.271 144.618   4
  -7   0 -13 122.925 100.587   5
  -7   0 -13 482.085 202.819   4
  -7   0 -14 276.083 136.958   4
  -7   0 -14 94.7404 96.3882   5
  -7   0 -15 372.645 191.993   4
  -7  -1   9 52.3781 47.8675   5
  -7  -1   8 13.9035 43.2331   5
  -7  -1   8-65.3556 82.3277   1
  -7  -1   7 188.443 138.631   5
  -7  -1   7 244.818 181.873   1
  -7  -1   6 7.57534 58.0592   5
  -7  -1   6 140.898 65.7980   1
  -7  -1   5 76.1635 78.2338   5
  -7  -1   5 89.7771 104.172   1
  -7  -1   4 25.8558 105.843   5
  -7  -1   4 88.4591 77.0598   1
  -7  -1   3 617.436 220.440   5
  -7  -1   3 365.591 147.173   1
  -7  -1   2 542.931 196.334   5
  -7  -1   2 575.493 207.567   1
  -7  -1   1 145.800 108.931   5
  -7  -1   1 28.9295 42.5605   1
  -7  -1   0-6.61710 66.4205   5
  -7  -1   0 15.4517 88.0408   1
  -7  -1  -1 510.575 185.939   5
  -7  -1  -1 697.290 218.836   1
  -7  -1  -2 38.8648 56.3676   5
  -7  -1  -2 251.591 146.715   1
  -7  -1  -3 170.221 110.118   5
  -7  -1  -3 12.2341 62.3557   1
  -7  -1  -4 136.492 92.5228   5
  -7  -1  -4 372.366 132.577   2
  -7  -1  -4 226.813 130.890   1
  -7  -1  -5 49.9135 69.9532   5
  -7  -1  -5 165.014 99.1279   2
  -7  -1  -5 99.1731 104.508   1
  -7  -1  -5 3.04659 41.3714   4
  -7  -1  -6 210.669 136.611   5
  -7  -1  -6 289.828 138.705   2
  -7  -1  -6 342.441 157.939   1
  -7  -1  -6 211.832 113.711   4
  -7  -1  -7 306.979 172.834   5
  -7  -1  -7 552.415 200.660   2
  -7  -1  -7 206.291 113.477   1
  -7  -1  -7 427.461 175.095   4
  -7  -1  -8 391.136 188.138   5
  -7  -1  -8 661.602 223.048   2
  -7  -1  -8 368.591 154.473   1
  -7  -1  -8 444.042 179.278   4
  -7  -1  -9 58.3479 96.8266   5
  -7  -1  -9 155.776 103.646   2
  -7  -1  -9 86.9740 64.4545   4
  -7  -1 -10-42.9347 59.7003   5
  -7  -1 -10 17.1037 54.9498   4
  -7  -1 -11 132.334 103.359   5
  -7  -1 -11 226.804 128.284   2
  -7  -1 -11 172.225 146.584   4
  -7  -1 -12 112.387 120.425   5
  -7  -1 -12 74.6950 93.2033   2
  -7  -1 -12 363.176 166.100   4
  -7  -1 -13 87.3114 136.401   5
  -7  -1 -13 154.048 162.940   2
  -7  -1 -13 217.104 111.279   4
  -7  -1 -14 194.764 138.991   2
  -7  -1 -14 52.4555 98.7736   5
  -7  -2   9-9.45708 63.1509   5
  -7  -2   8 221.221 161.568   5
  -7  -2   8 166.145 95.2501   1
  -7  -2   7 215.332 177.860   5
  -7  -2   7 190.046 140.600   1
  -7  -2   6 55.0159 124.973   5
  -7  -2   6 23.8428 46.3694   1
  -7  -2   5 27.4477 62.9018   5
  -7  -2   5 102.962 121.585   1
  -7  -2   4-7.62718 39.8635   5
  -7  -2   4 280.833 171.815   1
  -7  -2   3 35.7323 70.6499   5
  -7  -2   3 156.801 127.861   1
  -7  -2   2 272.502 171.433   5
  -7  -2   2 180.343 133.864   1
  -7  -2   1 127.839 129.337   5
  -7  -2   1 199.624 158.334   1
  -7  -2   0 15.3469 75.7893   5
  -7  -2   0 110.361 113.810   1
  -7  -2  -1 925.055 264.398   5
  -7  -2  -1 810.244 234.809   1
  -7  -2  -2 337.902 151.460   5
  -7  -2  -2 142.031 99.1578   1
  -7  -2  -3 162.914 132.692   5
  -7  -2  -3 201.518 140.365   1
  -7  -2  -4 174.574 98.7437   5
  -7  -2  -4 245.709 110.805   2
  -7  -2  -4 226.092 112.563   1
  -7  -2  -5 475.194 200.653   5
  -7  -2  -5 527.675 170.345   2
  -7  -2  -5 266.769 125.838   1
  -7  -2  -5 484.134 168.020   4
  -7  -2  -6 237.975 133.962   5
  -7  -2  -6 357.658 149.826   2
  -7  -2  -6 201.150 117.789   1
  -7  -2  -6 109.567 97.0816   4
  -7  -2  -7 37.3677 60.9199   5
  -7  -2  -7 198.939 107.977   2
  -7  -2  -7 96.8615 36.1454   1
  -7  -2  -7 78.0687 81.3134   4
  -7  -2  -8 184.825 123.347   5
  -7  -2  -8 277.474 146.899   2
  -7  -2  -8 328.001 137.523   4
  -7  -2  -9 16.5683 93.3119   5
  -7  -2  -9 79.2966 89.7562   2
  -7  -2  -9 138.194 94.7129   4
  -7  -2 -10 275.982 156.122   5
  -7  -2 -10 629.553 227.577   2
  -7  -2 -11-29.5870 76.6824   5
  -7  -2 -11-7.15589 66.8329   2
  -7  -2 -12 28.7812 75.1127   5
  -7  -2 -12 127.586 140.560   2
  -7  -2 -13 347.867 188.035   5
  -7  -2 -13 352.298 176.281   2
  -7  -2 -14 177.720 133.370   2
  -7  -3   8 1218.03 342.100   5
  -7  -3   8 1668.79 389.573   1
  -7  -3   7 317.276 195.076   5
  -7  -3   7 197.362 142.671   1
  -7  -3   6 151.336 118.605   5
  -7  -3   6 135.978 117.181   1
  -7  -3   5 160.278 131.918   5
  -7  -3   5 113.843 108.414   1
  -7  -3   4 166.339 92.4311   5
  -7  -3   4 262.631 165.512   1
  -7  -3   3-66.1874 69.3608   5
  -7  -3   3 65.3326 108.811   1
  -7  -3   2 14.1405 41.5505   5
  -7  -3   2 374.988 184.010   1
  -7  -3   1 82.7600 73.5307   5
  -7  -3   1 122.536 98.2142   1
  -7  -3   0 171.646 143.517   5
  -7  -3   0 276.457 158.008   1
  -7  -3  -1 296.696 164.460   5
  -7  -3  -1 302.701 144.710   1
  -7  -3  -2 164.531 159.495   5
  -7  -3  -2 14.9509 73.1115   1
  -7  -3  -3-44.4748 88.7180   5
  -7  -3  -3 38.5958 76.3186   2
  -7  -3  -3 108.149 100.541   1
  -7  -3  -4 1884.43 312.675   2
  -7  -3  -4 1933.02 371.472   1
  -7  -3  -4 2217.17 419.476   5
  -7  -3  -5 891.829 272.264   5
  -7  -3  -5 903.389 227.302   2
  -7  -3  -5 742.063 226.268   1
  -7  -3  -5 775.718 213.671   4
  -7  -3  -6 123.378 118.818   1
  -7  -3  -6 5.58299 96.7603   5
  -7  -3  -6 177.439 121.457   2
  -7  -3  -7 717.547 237.507   5
  -7  -3  -7 781.906 223.710   2
  -7  -3  -8-70.8446 97.2860   5
  -7  -3  -8 118.638 93.2292   2
  -7  -3  -9 23.5744 60.6108   5
  -7  -3  -9 156.793 110.947   2
  -7  -3 -10 75.4878 85.1515   5
  -7  -3 -10 120.168 98.8761   2
  -7  -3 -11-57.7041 114.184   5
  -7  -3 -11 237.986 156.793   2
  -7  -3 -12 3.87308 69.3630   5
  -7  -3 -12 41.3614 56.4827   2
  -7  -3 -13 86.5114 117.491   5
  -7  -3 -13 193.990 148.965   2
  -7  -3 -14 295.899 173.518   2
  -7  -4   7 20.2574 79.0435   5
  -7  -4   7 166.010 133.183   1
  -7  -4   6 307.469 175.723   5
  -7  -4   6 456.035 214.172   1
  -7  -4   5 527.754 208.222   5
  -7  -4   5 498.633 216.007   1
  -7  -4   4 1.60341 98.1843   5
  -7  -4   4 6.61251 56.0477   1
  -7  -4   3 30.2311 60.1202   5
  -7  -4   3-10.4608 64.0452   1
  -7  -4   2 14.3103 57.0797   5
  -7  -4   2 102.133 104.240   1
  -7  -4   1 894.202 259.089   5
  -7  -4   1 747.561 240.954   1
  -7  -4   0 405.837 176.563   5
  -7  -4   0 318.573 148.534   1
  -7  -4  -1-40.1494 77.1872   5
  -7  -4  -1-48.9242 86.6912   1
  -7  -4  -2 95.4185 100.236   5
  -7  -4  -2-43.3306 63.0138   1
   7   4   2-35.4942 75.4254   3
  -7  -4  -3 77.5072 76.8514   5
  -7  -4  -3 9.06224 99.5518   1
  -7  -4  -3 51.1612 67.4513   2
  -7  -4  -4 189.505 133.730   5
  -7  -4  -4 73.8448 96.0938   1
  -7  -4  -4 184.816 110.476   2
  -7  -4  -5 16.7275 69.7284   5
  -7  -4  -5 114.314 107.811   2
  -7  -4  -6 563.004 220.611   5
  -7  -4  -6 526.179 188.989   2
  -7  -4  -7 7.69690 55.2395   5
  -7  -4  -7 77.0262 68.4874   2
  -7  -4  -8 32.8169 73.1006   5
  -7  -4  -8 41.0555 72.7422   2
  -7  -4  -9 0.45622 49.8889   5
  -7  -4  -9 164.307 116.548   2
  -7  -4 -10 217.592 109.346   5
  -7  -4 -10 216.697 136.588   2
  -7  -4 -11 61.5065 65.3535   5
  -7  -4 -11 187.202 157.862   2
  -7  -4 -12 78.8446 99.4811   5
  -7  -4 -12 77.4122 77.5486   2
  -7  -4 -13 225.623 132.907   2
  -7  -5   6 874.175 285.217   1
  -7  -5   5 293.404 163.772   5
  -7  -5   5 310.057 180.412   1
  -7  -5   4 138.093 78.5426   5
  -7  -5   4 49.4297 54.9863   1
  -7  -5   3 443.919 201.829   5
  -7  -5   3 321.665 175.285   1
  -7  -5   2 21.1492 89.5774   5
  -7  -5   2 34.7060 97.3923   1
   7   5  -2-41.9742 60.1480   3
  -7  -5   1 255.810 158.023   5
  -7  -5   1 289.085 134.540   1
   7   5  -1 299.983 164.544   3
  -7  -5   0 209.064 158.802   5
  -7  -5   0 81.1437 98.5585   1
   7   5   0 27.9395 50.4945   3
  -7  -5  -1 222.481 145.893   5
  -7  -5  -1-48.2648 107.440   1
   7   5   1-116.971 96.2440   3
  -7  -5  -2 18.7384 75.9343   1
  -7  -5  -2 20.8811 46.1748   5
  -7  -5  -2 88.2177 79.7191   2
   7   5   2 89.4628 78.6910   3
  -7  -5  -3 90.5610 111.038   5
  -7  -5  -3-83.2226 50.7536   2
   7   5   3 31.7572 73.2940   3
  -7  -5  -4 83.1574 123.283   5
  -7  -5  -4 15.2797 28.9064   2
  -7  -5  -5 947.224 277.190   5
  -7  -5  -5 742.651 218.611   2
  -7  -5  -6 187.941 77.6766   5
  -7  -5  -6 211.546 126.543   2
  -7  -5  -7 2753.94 442.239   2
  -7  -5  -7 3085.57 517.956   5
  -7  -5  -8 2034.43 388.753   2
  -7  -5  -8 2219.40 441.660   5
  -7  -5  -9-41.1712 94.5873   5
  -7  -5  -9 6.64672 84.8316   2
  -7  -5 -10 237.925 142.006   5
  -7  -5 -10 82.0015 66.7105   2
  -7  -5 -11 115.446 102.394   5
  -7  -5 -11 88.6690 59.6112   2
  -7  -5 -12 310.582 164.095   2
  -7  -6   4 80.6807 137.493   5
   7   6  -4-107.882 117.023   3
  -7  -6   3 609.472 249.237   5
  -7  -6   3 518.818 219.970   1
   7   6  -3 303.505 183.569   3
  -7  -6   2 230.749 153.315   5
  -7  -6   2 140.249 126.307   1
   7   6  -2 172.570 125.717   3
  -7  -6   1 150.489 86.2079   5
  -7  -6   1 114.266 138.764   1
   7   6  -1-1.46368 43.3098   3
  -7  -6   0 82.2977 48.9319   5
   7   6   0 190.213 116.237   3
  -7  -6  -1 130.402 125.431   5
   7   6   1 84.3927 52.3251   3
  -7  -6  -2-9.19197 53.9482   5
   7   6   2 9.29735 34.6421   3
  -7  -6  -3 79.1357 58.4494   5
  -7  -6  -3 135.948 91.1829   2
   7   6   3-40.0706 75.4311   3
  -7  -6  -4 25.7761 70.6091   5
  -7  -6  -4-1.69283 61.2198   2
   7   6   4 119.159 81.3102   3
  -7  -6  -5 189.689 152.780   5
  -7  -6  -5 192.391 125.614   2
  -7  -6  -6 384.352 160.170   5
  -7  -6  -6 493.761 197.033   2
  -7  -6  -7 26.6330 79.4378   5
  -7  -6  -7 149.087 121.320   2
  -7  -6  -8 363.191 194.065   5
  -7  -6  -8 395.618 168.658   2
  -7  -6  -9 521.442 224.052   5
  -7  -6  -9 340.160 177.610   2
  -7  -6 -10 131.351 84.1249   2
   7   7  -3 475.472 200.198   3
   7   7  -2 204.265 137.604   3
  -7  -7   1 53.9665 98.2449   5
   7   7  -1 95.6601 100.964   3
  -7  -7   0 81.4759 102.514   5
   7   7   0 251.243 150.280   3
  -7  -7  -1-56.9542 118.106   5
   7   7   1 36.7143 61.4235   3
  -7  -7  -2 102.643 114.462   5
  -7  -7  -2-46.2496 60.9281   2
   7   7   2-52.0432 84.3857   3
  -7  -7  -3-69.4694 75.6061   5
  -7  -7  -3-7.83296 47.3395   2
   7   7   3-7.82839 39.5902   3
  -7  -7  -4-21.3094 98.6148   5
  -7  -7  -4 68.3348 105.518   2
   7   7   4 53.7889 70.0451   3
  -7  -7  -5 23.3936 95.9984   5
  -7  -7  -5-27.2985 88.2999   2
  -7  -7  -6 210.404 148.183   5
  -7  -7  -6-5.11429 56.7567   2
  -7  -7  -7-146.105 126.684   2
  -7  -7  -8-86.1246 67.8261   2
   7   8   1 69.9263 117.539   3
  -7  -8  -2-88.5289 90.0850   2
   7   8   2 60.2666 90.1337   3
  -7  -8  -3-166.260 106.744   2
   7   8   3-25.4485 88.2989   3
  -7  -8  -4-14.9238 69.7262   2
   7   8   4-2.69420 53.0367   3
  -8   2   1 15.8858 43.7162   1
  -8   2   0 2226.05 411.002   1
  -8   2  -1 2411.01 414.624   1
  -8   2  -2-41.4777 42.7005   1
  -8   1   4-12.9063 72.7723   5
  -8   1   3 78.5318 67.8392   5
  -8   1   2 126.965 119.563   5
  -8   1   2 326.000 190.332   1
  -8   1   1 208.836 130.806   5
  -8   1   1 374.817 192.809   1
  -8   1   0-82.5136 128.662   5
  -8   1   0-17.2378 33.7731   1
  -8   1  -1 7.56134 42.4210   5
  -8   1  -1 106.299 98.4372   1
  -8   1  -2 123.964 83.7747   5
  -8   1  -2 402.491 183.776   1
  -8   1  -3 322.426 157.385   5
  -8   1  -3 434.501 178.926   1
  -8   1  -4 283.558 138.026   5
  -8   1  -4 195.165 140.962   4
  -8   1  -5 47.4847 68.3045   5
  -8   1  -5 333.478 186.872   4
  -8   1  -6 41.4564 75.1938   5
  -8   1  -6 58.4243 79.5992   4
  -8   1  -7 62.0331 81.9130   5
  -8   1  -7 136.582 115.719   4
  -8   1  -8-42.4482 98.7553   5
  -8   1  -8 92.1799 99.4750   4
  -8   1  -9 20.9178 49.4522   5
  -8   1 -10 159.451 122.923   5
  -8   0   4 2.56207 35.6036   5
  -8   0   3 245.837 132.186   5
  -8   0   2 51.4790 84.4389   5
  -8   0   2 77.0254 64.5886   1
  -8   0   1 143.659 92.4620   5
  -8   0   1 83.7000 102.154   1
  -8   0   0 134.660 118.748   5
  -8   0   0 179.393 134.789   1
  -8   0  -1-9.39961 56.2498   5
  -8   0  -1 242.982 151.830   1
  -8   0  -2 137.714 104.480   5
  -8   0  -2 156.372 116.596   1
  -8   0  -3 1412.70 331.142   5
  -8   0  -3 1456.81 326.259   1
  -8   0  -4 392.123 176.539   5
  -8   0  -4 620.807 218.148   1
  -8   0  -4 218.393 145.257   4
  -8   0  -5-35.5440 60.7696   5
  -8   0  -5 93.4398 104.401   1
  -8   0  -5 138.360 123.617   4
  -8   0  -6 18.7056 102.296   5
  -8   0  -6 103.243 99.3909   4
  -8   0  -7-23.0650 84.3662   5
  -8   0  -7-55.0440 53.1596   4
  -8   0  -8-77.5936 106.478   5
  -8   0  -8 100.360 107.421   4
  -8   0  -9 199.771 118.935   5
  -8   0  -9 237.515 135.714   4
  -8   0 -10 135.819 115.002   2
  -8   0 -10 46.8723 63.2156   4
  -8   0 -11 72.6893 103.221   2
  -8   0 -11 47.7586 52.7383   4
  -8  -1   4-21.0517 49.3495   5
  -8  -1   3 65.0001 108.607   5
  -8  -1   2 693.625 242.218   5
  -8  -1   2 458.988 215.047   1
  -8  -1   1-17.3917 99.1570   5
  -8  -1   1-13.4066 53.2375   1
  -8  -1   0 198.623 160.054   5
  -8  -1   0 180.240 135.946   1
  -8  -1  -1-72.7477 102.091   5
  -8  -1  -1 157.909 111.609   1
  -8  -1  -2 102.554 92.2992   5
  -8  -1  -2 187.566 148.047   1
  -8  -1  -3 415.661 180.251   5
  -8  -1  -3 507.104 206.916   1
  -8  -1  -4 48.6567 65.4926   1
  -8  -1  -4 26.8682 39.6045   4
  -8  -1  -5 289.768 160.331   5
  -8  -1  -5 344.111 154.492   1
  -8  -1  -5 361.087 176.100   4
  -8  -1  -6 513.379 200.199   5
  -8  -1  -6 440.177 178.520   1
  -8  -1  -6 487.010 203.662   4
  -8  -1  -7 84.6693 124.943   5
  -8  -1  -7 126.577 106.074   4
  -8  -1  -8 169.643 143.996   5
  -8  -1  -8 58.8374 83.0706   4
  -8  -1  -9 31.6527 90.4742   5
  -8  -1  -9 110.993 93.1357   4
  -8  -1 -10 214.640 152.504   2
  -8  -1 -11 323.752 170.990   2
  -8  -2   2 133.865 116.397   5
  -8  -2   2 242.243 146.283   1
  -8  -2   1 127.759 97.7308   5
  -8  -2   1 214.016 106.112   1
  -8  -2   0 83.7409 71.1365   5
  -8  -2   0 313.246 178.253   1
  -8  -2  -1 513.926 225.963   5
  -8  -2  -1 420.979 191.983   1
  -8  -2  -2 368.955 181.749   5
  -8  -2  -2 224.218 131.170   1
  -8  -2  -3 112.619 121.378   5
  -8  -2  -3 115.480 84.0883   1
  -8  -2  -4 29.8486 96.3322   5
  -8  -2  -4-59.0794 79.3715   1
  -8  -2  -4-48.8853 64.0314   4
  -8  -2  -5 635.034 235.571   5
  -8  -2  -5 611.245 213.400   1
  -8  -2  -5 579.062 203.586   4
  -8  -2  -6 153.502 149.499   5
  -8  -2  -6 14.4402 55.1787   1
  -8  -2  -7 124.827 97.0764   1
  -8  -2  -7 201.571 136.446   5
  -8  -2  -8 182.310 136.662   5
  -8  -2  -9 175.502 98.9078   2
  -8  -2 -10-15.4100 91.0644   2
  -8  -2 -11 217.178 141.355   2
  -8  -3   1 42.9368 93.4188   5
  -8  -3   1 337.369 175.490   1
  -8  -3   0 9.26181 79.1397   5
  -8  -3   0 114.324 113.092   1
  -8  -3  -1 601.937 237.522   5
  -8  -3  -1 616.255 239.179   1
  -8  -3  -2 5.54919 59.5345   5
  -8  -3  -2-67.8545 72.0360   1
  -8  -3  -3 35.7411 91.0037   5
  -8  -3  -3 65.0671 92.5218   1
  -8  -3  -4 16.5529 131.635   5
  -8  -3  -4 148.331 123.680   1
  -8  -3  -5 467.543 220.742   5
  -8  -3  -5 533.298 203.902   1
  -8  -3  -6 204.307 153.998   5
  -8  -3  -8 190.015 105.622   2
  -8  -3  -9 300.450 151.636   2
  -8  -3 -10 280.747 152.566   2
  -8  -3 -11 129.972 107.362   2
  -8  -4  -1 236.882 155.555   1
  -8  -4  -2 171.784 135.801   1
  -8  -4  -3-32.3463 37.8362   1
  -8  -4  -4 161.626 96.1133   1
  -8  -4  -8 161.608 105.717   2
  -8  -4  -9 782.207 236.670   2
  -8  -4 -10-67.7088 77.4784   2
  -8  -5  -7-253.708 122.206   2
  -8  -5  -8-95.4309 114.800   2
   0   0   0    0.00    0.00   0
;
_shelx_hkl_checksum              47104
loop_
_space_group_symop_operation_xyz
'x, y, z'
'-x, -y, -z'
loop_
_atom_site_label
_atom_site_type_symbol
_atom_site_fract_x
_atom_site_fract_y
_atom_site_fract_z
_atom_site_U_iso_or_equiv
_atom_site_adp_type
_atom_site_occupancy
_atom_site_site_symmetry_order
_atom_site_calc_flag
_atom_site_refinement_flags_posn
_atom_site_refinement_flags_adp
O1 O -0.7709(3) -0.1869(2) 1.24730(11) 0.0325(5) Uani 1 1 d . .
N2 N -0.8438(3) -0.0534(2) 1.21832(12) 0.0240(5) Uani 1 1 d . .
O2 O -1.0380(3) 0.0166(2) 1.23725(11) 0.0352(5) Uani 1 1 d . .
N1 N 0.6176(3) 0.6643(2) 0.69480(12) 0.0236(5) Uani 1 1 d . .
C5 C -0.1148(4) 0.3224(3) 0.94210(14) 0.0198(5) Uani 1 1 d . .
C1 C 0.4684(4) 0.5962(3) 0.74635(15) 0.0209(6) Uani 1 1 d . .
C4 C 0.0403(4) 0.3953(3) 0.88984(15) 0.0215(5) Uani 1 1 d . .
C3 C 0.1803(4) 0.4596(3) 0.84515(15) 0.0206(5) Uani 1 1 d . .
C7 C -0.4023(4) 0.1812(3) 1.04673(14) 0.0181(5) Uani 1 1 d . .
C6 C -0.2495(4) 0.2597(3) 0.98863(14) 0.0188(5) Uani 1 1 d . .
C9 C -0.4681(4) -0.0413(3) 1.14211(14) 0.0193(5) Uani 1 1 d . .
H9 H -0.4152 -0.1400 1.1692 0.023 Uiso 1 1 calc R U
C2 C 0.3344(4) 0.5329(3) 0.79398(15) 0.0216(6) Uani 1 1 d . .
C12 C -0.6295(4) 0.2491(3) 1.06389(14) 0.0204(5) Uani 1 1 d . .
H12 H -0.6837 0.3476 1.0369 0.024 Uiso 1 1 calc R U
C11 C -0.7747(4) 0.1724(3) 1.12031(14) 0.0213(5) Uani 1 1 d . .
H11 H -0.9287 0.2177 1.1327 0.026 Uiso 1 1 calc R U
C15 C 0.5917(4) 0.7958(3) 0.55658(14) 0.0186(5) Uani 1 1 d . .
C10 C -0.6915(4) 0.0289(3) 1.15808(14) 0.0189(5) Uani 1 1 d . .
C8 C -0.3244(4) 0.0357(3) 1.08584(14) 0.0204(5) Uani 1 1 d . .
H8 H -0.1709 -0.0109 1.0736 0.025 Uiso 1 1 calc R U
C13 C 0.8544(3) 0.5901(3) 0.68211(15) 0.0277(6) Uani 1 1 d . .
H13A H 0.8738 0.4904 0.7162 0.041 Uiso 1 1 calc R U
H13B H 0.9486 0.6684 0.6985 0.041 Uiso 1 1 calc R U
H13C H 0.8992 0.5618 0.6231 0.041 Uiso 1 1 calc R U
C14 C 0.5516(4) 0.8178(3) 0.64992(14) 0.0244(6) Uani 1 1 d . .
H14A H 0.6386 0.9033 0.6655 0.029 Uiso 1 1 calc R U
H14B H 0.3899 0.8564 0.6673 0.029 Uiso 1 1 calc R U
C20 C 0.7823(4) 0.8420(3) 0.51079(15) 0.0270(6) Uani 1 1 d . .
H20 H 0.8873 0.8889 0.5384 0.032 Uiso 1 1 calc R U
C19 C 0.8223(4) 0.8209(3) 0.42498(16) 0.0347(7) Uani 1 1 d . .
H19 H 0.9550 0.8523 0.3944 0.042 Uiso 1 1 calc R U
C17 C 0.4811(5) 0.7071(3) 0.42876(17) 0.0377(7) Uani 1 1 d . .
H17 H 0.3771 0.6600 0.4008 0.045 Uiso 1 1 calc R U
C18 C 0.6716(5) 0.7551(3) 0.38395(17) 0.0363(7) Uani 1 1 d . .
H18 H 0.6982 0.7425 0.3250 0.044 Uiso 1 1 calc R U
C16 C 0.4408(4) 0.7277(3) 0.51496(16) 0.0308(7) Uani 1 1 d . .
H16 H 0.3090 0.6947 0.5455 0.037 Uiso 1 1 calc R U
loop_
_atom_site_aniso_label
_atom_site_aniso_U_11
_atom_site_aniso_U_22
_atom_site_aniso_U_33
_atom_site_aniso_U_23
_atom_site_aniso_U_13
_atom_site_aniso_U_12
O1 0.0409(11) 0.0289(11) 0.0269(12) 0.0101(9) -0.0002(9) -0.0074(8)
N2 0.0272(12) 0.0284(13) 0.0177(12) 0.0013(10) -0.0041(10) -0.0072(9)
O2 0.0222(10) 0.0504(12) 0.0303(12) 0.0111(9) 0.0019(9) -0.0030(8)
N1 0.0236(11) 0.0257(12) 0.0204(12) 0.0104(9) -0.0004(10) -0.0038(9)
C5 0.0233(13) 0.0171(13) 0.0191(14) -0.0013(11) -0.0061(11) 0.0006(10)
C1 0.0253(13) 0.0211(14) 0.0176(14) -0.0006(11) -0.0076(11) -0.0038(10)
C4 0.0245(13) 0.0190(13) 0.0209(15) 0.0029(11) -0.0074(11) 0.0008(10)
C3 0.0222(13) 0.0206(14) 0.0194(14) -0.0009(11) -0.0069(11) -0.0001(10)
C7 0.0207(12) 0.0193(13) 0.0151(13) -0.0036(10) -0.0031(10) -0.0045(10)
C6 0.0211(12) 0.0185(13) 0.0168(14) 0.0003(11) -0.0061(11) 0.0010(10)
C9 0.0244(13) 0.0144(12) 0.0181(14) 0.0039(10) -0.0039(11) 0.0016(10)
C2 0.0227(13) 0.0223(14) 0.0198(14) 0.0023(11) -0.0039(11) -0.0025(10)
C12 0.0250(13) 0.0171(13) 0.0196(14) 0.0021(11) -0.0067(11) -0.0010(10)
C11 0.0195(12) 0.0237(14) 0.0201(14) -0.0026(11) -0.0024(11) -0.0007(10)
C15 0.0246(13) 0.0163(12) 0.0144(13) 0.0035(10) -0.0031(11) -0.0011(10)
C10 0.0236(13) 0.0227(13) 0.0114(13) 0.0022(10) -0.0020(10) -0.0073(10)
C8 0.0192(12) 0.0192(13) 0.0213(14) -0.0002(11) -0.0009(11) 0.0011(10)
C13 0.0201(13) 0.0354(16) 0.0275(16) 0.0077(12) -0.0038(12) -0.0048(11)
C14 0.0285(14) 0.0229(14) 0.0201(15) 0.0034(11) 0.0002(12) -0.0018(10)
C20 0.0278(14) 0.0345(16) 0.0206(15) 0.0057(12) -0.0047(12) -0.0107(12)
C19 0.0379(16) 0.0409(17) 0.0227(16) 0.0071(13) 0.0025(14) -0.0039(13)
C17 0.0537(19) 0.0309(16) 0.0345(18) 0.0000(14) -0.0238(16) -0.0096(14)
C18 0.062(2) 0.0262(16) 0.0180(16) 0.0025(12) -0.0089(15) 0.0057(14)
C16 0.0293(15) 0.0347(16) 0.0316(17) 0.0065(13) -0.0080(13) -0.0124(12)
loop_
_atom_type_symbol
_atom_type_description
_atom_type_scat_dispersion_real
_atom_type_scat_dispersion_imag
_atom_type_scat_source
C C 0.0033 0.0016 'International Tables Vol C Tables 4.2.6.8 and 6.1.1.4'
H H 0.0000 0.0000 'International Tables Vol C Tables 4.2.6.8 and 6.1.1.4'
N N 0.0061 0.0033 'International Tables Vol C Tables 4.2.6.8 and 6.1.1.4'
O O 0.0106 0.0060 'International Tables Vol C Tables 4.2.6.8 and 6.1.1.4'
loop_
_geom_angle_atom_site_label_1
_geom_angle_atom_site_label_2
_geom_angle_atom_site_label_3
_geom_angle
O1 N2 O2 123.8(2)
O1 N2 C10 118.5(2)
O2 N2 C10 117.7(2)
C1 N1 C13 120.5(2)
C1 N1 C14 121.1(2)
C13 N1 C14 118.43(18)
C6 C5 C4 179.1(3)
C2 C1 N1 179.2(3)
C3 C4 C5 178.5(3)
C4 C3 C2 178.9(3)
C8 C7 C12 119.8(2)
C8 C7 C6 119.7(2)
C12 C7 C6 120.6(2)
C5 C6 C7 177.2(3)
C8 C9 C10 118.4(2)
C8 C9 H9 120.8
C10 C9 H9 120.8
C1 C2 C3 177.8(3)
C11 C12 C7 119.9(2)
C11 C12 H12 120.0
C7 C12 H12 120.0
C10 C11 C12 118.7(2)
C10 C11 H11 120.6
C12 C11 H11 120.6
C20 C15 C16 118.6(2)
C20 C15 C14 120.2(2)
C16 C15 C14 121.2(2)
C11 C10 C9 122.6(2)
C11 C10 N2 119.2(2)
C9 C10 N2 118.1(2)
C9 C8 C7 120.6(2)
C9 C8 H8 119.7
C7 C8 H8 119.7
N1 C13 H13A 109.5
N1 C13 H13B 109.5
H13A C13 H13B 109.5
N1 C13 H13C 109.5
H13A C13 H13C 109.5
H13B C13 H13C 109.5
N1 C14 C15 112.30(19)
N1 C14 H14A 109.1
C15 C14 H14A 109.1
N1 C14 H14B 109.1
C15 C14 H14B 109.1
H14A C14 H14B 107.9
C15 C20 C19 120.8(2)
C15 C20 H20 119.6
C19 C20 H20 119.6
C18 C19 C20 120.5(3)
C18 C19 H19 119.8
C20 C19 H19 119.8
C18 C17 C16 120.1(3)
C18 C17 H17 119.9
C16 C17 H17 119.9
C19 C18 C17 119.5(3)
C19 C18 H18 120.2
C17 C18 H18 120.2
C15 C16 C17 120.5(2)
C15 C16 H16 119.8
C17 C16 H16 119.8
loop_
_geom_bond_atom_site_label_1
_geom_bond_atom_site_label_2
_geom_bond_distance
O1 N2 1.231(2)
N2 O2 1.236(2)
N2 C10 1.471(3)
N1 C1 1.321(3)
N1 C13 1.466(3)
N1 C14 1.474(3)
C5 C6 1.197(3)
C5 C4 1.370(3)
C1 C2 1.206(3)
C4 C3 1.210(3)
C3 C2 1.360(3)
C7 C8 1.394(3)
C7 C12 1.403(3)
C7 C6 1.436(3)
C9 C8 1.380(3)
C9 C10 1.386(3)
C9 H9 0.9500
C12 C11 1.385(3)
C12 H12 0.9500
C11 C10 1.379(3)
C11 H11 0.9500
C15 C20 1.380(3)
C15 C16 1.387(3)
C15 C14 1.507(3)
C8 H8 0.9500
C13 H13A 0.9800
C13 H13B 0.9800
C13 H13C 0.9800
C14 H14A 0.9900
C14 H14B 0.9900
C20 C19 1.387(3)
C20 H20 0.9500
C19 C18 1.371(3)
C19 H19 0.9500
C17 C18 1.378(3)
C17 C16 1.392(3)
C17 H17 0.9500
C18 H18 0.9500
C16 H16 0.9500
loop_
_geom_torsion_atom_site_label_1
_geom_torsion_atom_site_label_2
_geom_torsion_atom_site_label_3
_geom_torsion_atom_site_label_4
_geom_torsion
C8 C7 C12 C11 0.8(3)
C6 C7 C12 C11 -179.8(2)
C7 C12 C11 C10 -0.5(3)
C12 C11 C10 C9 0.3(3)
C12 C11 C10 N2 179.8(2)
C8 C9 C10 C11 -0.3(3)
C8 C9 C10 N2 -179.8(2)
O1 N2 C10 C11 175.2(2)
O2 N2 C10 C11 -5.2(3)
O1 N2 C10 C9 -5.2(3)
O2 N2 C10 C9 174.3(2)
C10 C9 C8 C7 0.5(3)
C12 C7 C8 C9 -0.8(3)
C6 C7 C8 C9 179.7(2)
C1 N1 C14 C15 -118.8(2)
C13 N1 C14 C15 62.3(3)
C20 C15 C14 N1 -98.9(3)
C16 C15 C14 N1 80.4(3)
C16 C15 C20 C19 0.0(4)
C14 C15 C20 C19 179.3(2)
C15 C20 C19 C18 0.7(4)
C20 C19 C18 C17 -1.1(4)
C16 C17 C18 C19 0.9(4)
C20 C15 C16 C17 -0.2(4)
C14 C15 C16 C17 -179.6(2)
C18 C17 C16 C15 -0.2(4)
