#------------------------------------------------------------------------------
#$Date: 2017-09-12 06:51:09 +0300 (Tue, 12 Sep 2017) $
#$Revision: 200692 $
#$URL: file:///home/coder/svn-repositories/cod/cif/4/03/25/4032598.cif $
#------------------------------------------------------------------------------
#
# This file is available in the Crystallography Open Database (COD),
# http://www.crystallography.net/
#
# All data on this site have been placed in the public domain by the
# contributors.
#
data_4032598
loop_
_publ_author_name
'Parella, Ramarao'
'Babu, Srinivasarao Arulananda'
_publ_section_title
;
 Pd(II)-Catalyzed Arylation and Intramolecular Amidation of \g-C(sp(3))-H
 Bonds: En Route to Arylheteroarylmethane and Pyrrolidone Ring Annulated
 Furan/Thiophene Scaffolds.
;
_journal_issue                   14
_journal_name_full               'The Journal of organic chemistry'
_journal_page_first              7123
_journal_page_last               7150
_journal_paper_doi               10.1021/acs.joc.7b00582
_journal_volume                  82
_journal_year                    2017
_chemical_formula_moiety         'C21 H14 N2 O S'
_chemical_formula_sum            'C21 H14 N2 O S'
_chemical_formula_weight         342.40
_space_group_crystal_system      triclinic
_space_group_IT_number           2
_space_group_name_Hall           '-P 1'
_space_group_name_H-M_alt        'P -1'
_symmetry_space_group_name_Hall  '-P 1'
_symmetry_space_group_name_H-M   'P -1'
_atom_sites_solution_hydrogens   geom
_atom_sites_solution_primary     dual
_audit_creation_date             2017-03-09
_audit_creation_method
;
Olex2 1.2
(compiled 2017.03.02 svn.r3394 for OlexSys, GUI svn.r5324)
;
_cell_angle_alpha                101.490(4)
_cell_angle_beta                 100.828(4)
_cell_angle_gamma                94.569(3)
_cell_formula_units_Z            2
_cell_length_a                   8.417(2)
_cell_length_b                   8.741(2)
_cell_length_c                   11.876(3)
_cell_measurement_reflns_used    929
_cell_measurement_temperature    296.15
_cell_measurement_theta_max      20.71
_cell_measurement_theta_min      2.74
_cell_volume                     834.8(3)
_computing_cell_refinement       'SAINT v8.37A (Bruker, 2015)'
_computing_data_reduction        'SAINT v8.37A (Bruker, 2015)'
_computing_molecular_graphics    'Olex2 (Dolomanov et al., 2009)'
_computing_publication_material  'Olex2 (Dolomanov et al., 2009)'
_computing_structure_refinement  'XL (Sheldrick, 2008)'
_computing_structure_solution    'XT (Sheldrick, 2015)'
_diffrn_ambient_temperature      296.15
_diffrn_measured_fraction_theta_full 0.957
_diffrn_measured_fraction_theta_max 0.957
_diffrn_measurement_device_type  'Bruker APEX-II CCD'
_diffrn_measurement_method       '\f and \w scans'
_diffrn_radiation_type           MoK\a
_diffrn_radiation_wavelength     0.71073
_diffrn_reflns_av_R_equivalents  0.0463
_diffrn_reflns_av_unetI/netI     0.0719
_diffrn_reflns_Laue_measured_fraction_full 0.957
_diffrn_reflns_Laue_measured_fraction_max 0.957
_diffrn_reflns_limit_h_max       9
_diffrn_reflns_limit_h_min       -9
_diffrn_reflns_limit_k_max       6
_diffrn_reflns_limit_k_min       -10
_diffrn_reflns_limit_l_max       14
_diffrn_reflns_limit_l_min       -13
_diffrn_reflns_number            6480
_diffrn_reflns_point_group_measured_fraction_full 0.957
_diffrn_reflns_point_group_measured_fraction_max 0.957
_diffrn_reflns_theta_full        24.885
_diffrn_reflns_theta_max         24.885
_diffrn_reflns_theta_min         1.789
_diffrn_standards_number         0
_exptl_absorpt_coefficient_mu    0.205
_exptl_absorpt_correction_T_max  0.7451
_exptl_absorpt_correction_T_min  0.6585
_exptl_absorpt_correction_type   multi-scan
_exptl_absorpt_process_details
'SADABS-2014/5 (Bruker,2014/5) was used for absorption correction. wR2(int) was 0.0646 before and 0.0475 after correction. The Ratio of minimum to maximum transmission is 0.8838. The \l/2 correction factor is 0.00150.'
_exptl_crystal_colour            'clear light colourless'
_exptl_crystal_colour_lustre     clear
_exptl_crystal_colour_modifier   light
_exptl_crystal_colour_primary    colourless
_exptl_crystal_density_diffrn    1.362
_exptl_crystal_description       block
_exptl_crystal_F_000             356
_exptl_crystal_size_max          0.2
_exptl_crystal_size_mid          0.1
_exptl_crystal_size_min          0.1
_refine_diff_density_max         0.179
_refine_diff_density_min         -0.220
_refine_diff_density_rms         0.038
_refine_ls_extinction_method     none
_refine_ls_goodness_of_fit_ref   0.927
_refine_ls_hydrogen_treatment    constr
_refine_ls_matrix_type           full
_refine_ls_number_parameters     226
_refine_ls_number_reflns         2771
_refine_ls_number_restraints     0
_refine_ls_restrained_S_all      0.927
_refine_ls_R_factor_all          0.1046
_refine_ls_R_factor_gt           0.0519
_refine_ls_shift/su_max          0.001
_refine_ls_shift/su_mean         0.000
_refine_ls_structure_factor_coef Fsqd
_refine_ls_weighting_details
'w=1/[\s^2^(Fo^2^)+(0.0598P)^2^] where P=(Fo^2^+2Fc^2^)/3'
_refine_ls_weighting_scheme      calc
_refine_ls_wR_factor_gt          0.1137
_refine_ls_wR_factor_ref         0.1348
_reflns_Friedel_coverage         0.000
_reflns_number_gt                1538
_reflns_number_total             2771
_reflns_threshold_expression     'I > 2\s(I)'
_iucr_refine_instructions_details
;

    sci_272_pr_2770_c2_0m.res created by SHELXL-2014/7

TITL sci_272_pr_2770_c2_0m_a.res in P-1
REM Old TITL SCI_272_PR_2770_C2_0m in P-1
REM SHELXT solution in P-1
REM R1 0.203, Rweak 0.029, Alpha 0.048, Orientation as input
REM Formula found by SHELXT: C21 N2 O S
CELL 0.71073 8.4169 8.7412 11.876 101.49 100.828 94.569
ZERR 2 0.0022 0.0023 0.0031 0.004 0.004 0.003
LATT 1
SFAC C H N O S
UNIT 42 28 4 2 2
 
L.S. 10
PLAN  20
TEMP 23
BOND $H
list 4
fmap 2
ACTA
REM <olex2.extras>
REM <HklSrc "%.\\SCI_272_PR_2770_C2_0m.hkl">
REM </olex2.extras>
 
WGHT    0.059800
FVAR       1.07389
S1    5    0.177576    0.254274    1.063492    11.00000    0.07781    0.12996 =
         0.06132    0.03852    0.02380    0.01735
N2    3    0.279234    0.347531    0.771975    11.00000    0.04994    0.04289 =
         0.04048    0.01004    0.00574    0.00885
O1    4    0.172866    0.535841    0.893344    11.00000    0.08481    0.06930 =
         0.06837    0.00674    0.02180    0.02815
N1    3    0.098631    0.241430    0.543616    11.00000    0.04877    0.05640 =
         0.04669    0.01255    0.00538    0.00790
C15   1    0.326566    0.187369    0.765889    11.00000    0.04451    0.04275 =
         0.04844    0.01332    0.00246    0.00243
AFIX  13
H15   2    0.255151    0.114388    0.698737    11.00000   -1.20000
AFIX   0
C16   1    0.501996    0.179893    0.755599    11.00000    0.04375    0.03988 =
         0.04288    0.01367    0.00555    0.00554
C1    1    0.297082    0.431949    0.683926    11.00000    0.04203    0.04189 =
         0.05873    0.01621    0.01348    0.00876
C8    1    0.203293    0.376707    0.567703    11.00000    0.04576    0.04997 =
         0.05091    0.01760    0.01716    0.01195
C13   1    0.287749    0.155203    0.878800    11.00000    0.03618    0.06426 =
         0.05844    0.02385    0.00316    0.00095
C10   1    0.221435    0.407416    0.871019    11.00000    0.04314    0.06055 =
         0.04770    0.00475    0.00370    0.00672
C21   1    0.540823    0.075273    0.664658    11.00000    0.05543    0.04816 =
         0.05218    0.00866    0.00582    0.00631
AFIX  43
H21   2    0.458381    0.008183    0.609599    11.00000   -1.20000
AFIX   0
C9    1    0.219315    0.465540    0.481983    11.00000    0.06878    0.06291 =
         0.06200    0.03224    0.03065    0.02638
C20   1    0.700479    0.069099    0.654516    11.00000    0.06368    0.06607 =
         0.05524    0.01064    0.01981    0.01815
AFIX  43
H20   2    0.724929   -0.003538    0.593449    11.00000   -1.20000
AFIX   0
C14   1    0.229868    0.282130    0.936760    11.00000    0.04387    0.07653 =
         0.04472    0.01875    0.00787    0.00576
C17   1    0.626269    0.278555    0.835916    11.00000    0.04871    0.05793 =
         0.05568    0.00191    0.00694    0.00755
AFIX  43
H17   2    0.601845    0.348842    0.898317    11.00000   -1.20000
AFIX   0
C18   1    0.786768    0.274515    0.825028    11.00000    0.04666    0.06253 =
         0.06725    0.01903    0.00719    0.00342
AFIX  43
H18   2    0.869400    0.342647    0.879130    11.00000   -1.20000
AFIX   0
C19   1    0.823674    0.168435    0.733107    11.00000    0.04683    0.07760 =
         0.07202    0.03267    0.02208    0.01747
AFIX  43
H19   2    0.931126    0.164789    0.724908    11.00000   -1.20000
AFIX   0
C2    1    0.402020    0.566928    0.710257    11.00000    0.05890    0.05015 =
         0.08706    0.02172    0.00506    0.00325
AFIX  43
H2    2    0.463121    0.602772    0.786277    11.00000   -1.20000
AFIX   0
C7    1    0.009376    0.196722    0.435616    11.00000    0.06072    0.07788 =
         0.06000    0.00843    0.00249    0.01264
AFIX  43
H7    2   -0.063117    0.105094    0.417944    11.00000   -1.20000
AFIX   0
C5    1    0.120817    0.410949    0.369510    11.00000    0.10479    0.09121 =
         0.05833    0.03779    0.03706    0.04690
AFIX  43
H5    2    0.127459    0.466566    0.311120    11.00000   -1.20000
AFIX   0
C12   1    0.294268    0.030731    0.938338    11.00000    0.05890    0.08374 =
         0.08166    0.04463    0.01261    0.01153
AFIX  43
H12   2    0.331525   -0.064939    0.913069    11.00000   -1.20000
AFIX   0
C4    1    0.330037    0.604027    0.514051    11.00000    0.08049    0.07658 =
         0.11177    0.06178    0.04153    0.02893
AFIX  43
H4    2    0.341957    0.662987    0.458398    11.00000   -1.20000
AFIX   0
C6    1    0.017120    0.278687    0.346106    11.00000    0.09518    0.10789 =
         0.04053    0.01299    0.00709    0.04157
AFIX  43
H6    2   -0.048661    0.241803    0.271739    11.00000   -1.20000
AFIX   0
C3    1    0.419211    0.652343    0.624704    11.00000    0.06906    0.05871 =
         0.13726    0.04754    0.02430    0.00192
AFIX  43
H3    2    0.492781    0.743401    0.644085    11.00000   -1.20000
AFIX   0
C11   1    0.236973    0.073150    1.039361    11.00000    0.07135    0.12942 =
         0.08862    0.06841    0.01781    0.00977
AFIX  43
H11   2    0.231282    0.006614    1.090975    11.00000   -1.20000
AFIX   0
HKLF 4
 
REM  sci_272_pr_2770_c2_0m_a.res in P-1
REM R1 =  0.0519 for    1538 Fo > 4sig(Fo)  and  0.1046 for all    2771 data
REM    226 parameters refined using      0 restraints
 
END  
     
WGHT      0.0598      0.0000 

REM Highest difference peak  0.179,  deepest hole -0.220,  1-sigma level  0.038
Q1    1   0.2674  0.2634  0.7632  11.00000  0.05    0.17
Q2    1  -0.0069  0.5890  0.8431  11.00000  0.05    0.14
Q3    1   0.3824  0.4633  0.6817  11.00000  0.05    0.14
Q4    1   0.2130  0.0150  0.9586  11.00000  0.05    0.13
Q5    1   0.0906  0.3198  0.2312  11.00000  0.05    0.13
Q6    1   0.2938 -0.1679  0.8781  11.00000  0.05    0.13
Q7    1   0.2686  0.0801  0.8831  11.00000  0.05    0.13
Q8    1   0.0685  0.2145  0.9763  11.00000  0.05    0.13
Q9    1   0.3230  0.3345  0.4662  11.00000  0.05    0.12
Q10   1   0.7158  0.7443  0.7249  11.00000  0.05    0.12
Q11   1   0.2816 -0.0461  0.9022  11.00000  0.05    0.12
Q12   1   0.2605  0.7878  0.6793  11.00000  0.05    0.12
Q13   1   0.2836  0.1400  0.7406  11.00000  0.05    0.12
Q14   1   0.5694  0.4038  0.9755  11.00000  0.05    0.12
Q15   1   0.0867  0.1579  0.6371  11.00000  0.05    0.12
Q16   1   0.1869  0.1871  0.8703  11.00000  0.05    0.12
Q17   1   0.4570  0.7994  0.7037  11.00000  0.05    0.12
Q18   1   0.5959  0.5543  0.8028  11.00000  0.05    0.12
Q19   1   0.0864 -0.1880  1.0014  11.00000  0.05    0.12
Q20   1   0.6014  0.6322  0.8396  11.00000  0.05    0.12

  REM The information below was added by Olex2.
  REM
  REM R1 = 0.0519 for 1538 Fo > 4sig(Fo) and 0.1046 for all 6480 data
  REM n/a parameters refined using n/a restraints
  REM Highest difference peak 0.18, deepest hole -0.22
  REM Mean Shift 0, Max Shift 0.001.

  REM +++ Tabular Listing of Refinement Information +++
  REM R1_all = 0.1046
  REM R1_gt = 0.0519
  REM wR_ref = 0.1348
  REM GOOF = 0.927
  REM Shift_max = 0.001
  REM Shift_mean = 0
  REM Reflections_all = 6480
  REM Reflections_gt = 1538
  REM Parameters = n/a
  REM Hole = -0.22
  REM Peak = 0.18
  REM Flack = n/a

  
;
_cod_data_source_file            jo7b00582_si_003.cif
_cod_data_source_block           sci_272_pr_2770_c2_0m
_cod_depositor_comments
'Adding full bibliography for 4032597--4032598.cif.'
_cod_original_cell_volume        834.8(4)
_cod_database_code               4032598
_shelx_shelxl_version_number     2014/7
_shelx_space_group_comment
;
The symmetry employed for this shelxl refinement is uniquely defined
by the following loop, which should always be used as a source of
symmetry information in preference to the above space-group names.
They are only intended as comments.
;
_olex2_refinement_description
;
1. Fixed Uiso
 At 1.2 times of:
  All C(H) groups
2.a Ternary CH refined with riding coordinates:
 C15(H15)
2.b Aromatic/amide H refined with riding coordinates:
 C21(H21), C20(H20), C17(H17), C18(H18), C19(H19), C2(H2), C7(H7), C5(H5),
 C12(H12), C4(H4), C6(H6), C3(H3), C11(H11)
;
_olex2_submission_special_instructions 'No special instructions were received'
loop_
_space_group_symop_operation_xyz
'x, y, z'
'-x, -y, -z'
loop_
_atom_site_label
_atom_site_type_symbol
_atom_site_fract_x
_atom_site_fract_y
_atom_site_fract_z
_atom_site_U_iso_or_equiv
_atom_site_adp_type
_atom_site_occupancy
_atom_site_site_symmetry_order
_atom_site_calc_flag
_atom_site_refinement_flags_posn
S1 S 0.17758(13) 0.25427(14) 1.06349(8) 0.0857(4) Uani 1 1 d .
N2 N 0.2792(3) 0.3475(3) 0.7720(2) 0.0446(6) Uani 1 1 d .
O1 O 0.1729(3) 0.5358(3) 0.89334(19) 0.0735(7) Uani 1 1 d .
N1 N 0.0986(3) 0.2414(3) 0.5436(2) 0.0510(7) Uani 1 1 d .
C15 C 0.3266(3) 0.1874(3) 0.7659(3) 0.0459(8) Uani 1 1 d .
H15 H 0.2552 0.1144 0.6987 0.055 Uiso 1 1 calc R
C16 C 0.5020(3) 0.1799(3) 0.7556(2) 0.0420(7) Uani 1 1 d .
C1 C 0.2971(3) 0.4319(3) 0.6839(3) 0.0462(8) Uani 1 1 d .
C8 C 0.2033(4) 0.3767(3) 0.5677(3) 0.0467(8) Uani 1 1 d .
C13 C 0.2877(3) 0.1552(4) 0.8788(3) 0.0527(8) Uani 1 1 d .
C10 C 0.2214(4) 0.4074(4) 0.8710(3) 0.0522(8) Uani 1 1 d .
C21 C 0.5408(4) 0.0753(3) 0.6647(3) 0.0530(8) Uani 1 1 d .
H21 H 0.4584 0.0082 0.6096 0.064 Uiso 1 1 calc R
C9 C 0.2193(4) 0.4655(4) 0.4820(3) 0.0586(9) Uani 1 1 d .
C20 C 0.7005(4) 0.0691(4) 0.6545(3) 0.0605(9) Uani 1 1 d .
H20 H 0.7249 -0.0035 0.5934 0.073 Uiso 1 1 calc R
C14 C 0.2299(3) 0.2821(4) 0.9368(3) 0.0545(8) Uani 1 1 d .
C17 C 0.6263(4) 0.2786(3) 0.8359(3) 0.0561(9) Uani 1 1 d .
H17 H 0.6018 0.3488 0.8983 0.067 Uiso 1 1 calc R
C18 C 0.7868(4) 0.2745(4) 0.8250(3) 0.0589(9) Uani 1 1 d .
H18 H 0.8694 0.3426 0.8791 0.071 Uiso 1 1 calc R
C19 C 0.8237(4) 0.1684(4) 0.7331(3) 0.0613(9) Uani 1 1 d .
H19 H 0.9311 0.1648 0.7249 0.074 Uiso 1 1 calc R
C2 C 0.4020(4) 0.5669(4) 0.7103(3) 0.0660(10) Uani 1 1 d .
H2 H 0.4631 0.6028 0.7863 0.079 Uiso 1 1 calc R
C7 C 0.0094(4) 0.1967(4) 0.4356(3) 0.0683(10) Uani 1 1 d .
H7 H -0.0631 0.1051 0.4179 0.082 Uiso 1 1 calc R
C5 C 0.1208(5) 0.4109(5) 0.3695(3) 0.0771(11) Uani 1 1 d .
H5 H 0.1275 0.4666 0.3111 0.092 Uiso 1 1 calc R
C12 C 0.2943(4) 0.0307(4) 0.9383(3) 0.0711(10) Uani 1 1 d .
H12 H 0.3315 -0.0649 0.9131 0.085 Uiso 1 1 calc R
C4 C 0.3300(5) 0.6040(5) 0.5141(4) 0.0798(12) Uani 1 1 d .
H4 H 0.3420 0.6630 0.4584 0.096 Uiso 1 1 calc R
C6 C 0.0171(5) 0.2787(6) 0.3461(3) 0.0810(12) Uani 1 1 d .
H6 H -0.0487 0.2418 0.2717 0.097 Uiso 1 1 calc R
C3 C 0.4192(5) 0.6523(4) 0.6247(4) 0.0846(13) Uani 1 1 d .
H3 H 0.4928 0.7434 0.6441 0.101 Uiso 1 1 calc R
C11 C 0.2370(5) 0.0732(5) 1.0394(4) 0.0901(12) Uani 1 1 d .
H11 H 0.2313 0.0066 1.0910 0.108 Uiso 1 1 calc R
loop_
_atom_site_aniso_label
_atom_site_aniso_U_11
_atom_site_aniso_U_22
_atom_site_aniso_U_33
_atom_site_aniso_U_23
_atom_site_aniso_U_13
_atom_site_aniso_U_12
S1 0.0778(8) 0.1300(10) 0.0613(7) 0.0385(6) 0.0238(5) 0.0174(6)
N2 0.0499(16) 0.0429(14) 0.0405(15) 0.0100(12) 0.0057(12) 0.0089(12)
O1 0.0848(18) 0.0693(16) 0.0684(16) 0.0067(12) 0.0218(13) 0.0282(14)
N1 0.0488(17) 0.0564(17) 0.0467(16) 0.0125(13) 0.0054(13) 0.0079(13)
C15 0.0445(19) 0.0427(18) 0.0484(19) 0.0133(14) 0.0025(15) 0.0024(14)
C16 0.0437(19) 0.0399(17) 0.0429(18) 0.0137(14) 0.0055(15) 0.0055(14)
C1 0.0420(18) 0.0419(18) 0.059(2) 0.0162(16) 0.0135(16) 0.0088(15)
C8 0.0458(19) 0.0500(19) 0.051(2) 0.0176(16) 0.0172(16) 0.0119(15)
C13 0.0362(18) 0.064(2) 0.058(2) 0.0238(18) 0.0032(16) 0.0009(16)
C10 0.043(2) 0.061(2) 0.048(2) 0.0047(17) 0.0037(15) 0.0067(16)
C21 0.055(2) 0.048(2) 0.052(2) 0.0087(16) 0.0058(17) 0.0063(16)
C9 0.069(2) 0.063(2) 0.062(2) 0.0322(19) 0.0307(19) 0.0264(19)
C20 0.064(3) 0.066(2) 0.055(2) 0.0106(17) 0.0198(19) 0.0181(19)
C14 0.044(2) 0.077(2) 0.0447(19) 0.0187(18) 0.0079(15) 0.0058(17)
C17 0.049(2) 0.058(2) 0.056(2) 0.0019(16) 0.0069(17) 0.0075(16)
C18 0.047(2) 0.063(2) 0.067(2) 0.0190(18) 0.0072(18) 0.0034(16)
C19 0.047(2) 0.078(2) 0.072(2) 0.033(2) 0.0221(19) 0.0175(19)
C2 0.059(2) 0.050(2) 0.087(3) 0.022(2) 0.0051(19) 0.0033(18)
C7 0.061(2) 0.078(3) 0.060(2) 0.008(2) 0.002(2) 0.0126(18)
C5 0.105(3) 0.091(3) 0.058(3) 0.038(2) 0.037(2) 0.047(3)
C12 0.059(2) 0.084(3) 0.082(3) 0.045(2) 0.013(2) 0.0115(19)
C4 0.080(3) 0.077(3) 0.112(3) 0.062(3) 0.042(3) 0.029(2)
C6 0.095(3) 0.108(3) 0.041(2) 0.013(2) 0.007(2) 0.042(3)
C3 0.069(3) 0.059(2) 0.137(4) 0.048(3) 0.024(3) 0.002(2)
C11 0.071(3) 0.129(4) 0.089(3) 0.068(3) 0.018(2) 0.010(2)
loop_
_atom_type_symbol
_atom_type_description
_atom_type_scat_dispersion_real
_atom_type_scat_dispersion_imag
_atom_type_scat_source
C C 0.0033 0.0016 'International Tables Vol C Tables 4.2.6.8 and 6.1.1.4'
H H 0.0000 0.0000 'International Tables Vol C Tables 4.2.6.8 and 6.1.1.4'
N N 0.0061 0.0033 'International Tables Vol C Tables 4.2.6.8 and 6.1.1.4'
O O 0.0106 0.0060 'International Tables Vol C Tables 4.2.6.8 and 6.1.1.4'
S S 0.1246 0.1234 'International Tables Vol C Tables 4.2.6.8 and 6.1.1.4'
loop_
_geom_angle_atom_site_label_1
_geom_angle_atom_site_label_2
_geom_angle_atom_site_label_3
_geom_angle
C11 S1 C14 89.68(18)
C1 N2 C15 121.8(2)
C10 N2 C15 114.4(2)
C10 N2 C1 123.8(3)
C7 N1 C8 116.8(3)
N2 C15 H15 109.5
N2 C15 C16 112.4(2)
N2 C15 C13 100.4(2)
C16 C15 H15 109.5
C16 C15 C13 115.0(2)
C13 C15 H15 109.5
C21 C16 C15 120.5(3)
C21 C16 C17 118.6(3)
C17 C16 C15 120.9(3)
N2 C1 C8 119.9(3)
C2 C1 N2 120.3(3)
C2 C1 C8 119.7(3)
N1 C8 C1 118.6(3)
N1 C8 C9 122.4(3)
C9 C8 C1 119.0(3)
C14 C13 C15 109.8(3)
C14 C13 C12 112.8(3)
C12 C13 C15 137.4(3)
N2 C10 C14 104.2(3)
O1 C10 N2 125.7(3)
O1 C10 C14 130.1(3)
C16 C21 H21 119.7
C20 C21 C16 120.6(3)
C20 C21 H21 119.7
C5 C9 C8 117.6(3)
C5 C9 C4 123.6(4)
C4 C9 C8 118.8(3)
C21 C20 H20 119.6
C19 C20 C21 120.8(3)
C19 C20 H20 119.6
C13 C14 S1 113.0(2)
C13 C14 C10 111.2(3)
C10 C14 S1 135.7(3)
C16 C17 H17 119.5
C16 C17 C18 121.0(3)
C18 C17 H17 119.5
C17 C18 H18 120.2
C17 C18 C19 119.6(3)
C19 C18 H18 120.2
C20 C19 C18 119.3(3)
C20 C19 H19 120.3
C18 C19 H19 120.3
C1 C2 H2 119.5
C1 C2 C3 120.9(3)
C3 C2 H2 119.5
N1 C7 H7 117.9
N1 C7 C6 124.2(3)
C6 C7 H7 117.9
C9 C5 H5 120.0
C6 C5 C9 120.0(3)
C6 C5 H5 120.0
C13 C12 H12 125.4
C11 C12 C13 109.2(3)
C11 C12 H12 125.4
C9 C4 H4 119.6
C3 C4 C9 120.8(3)
C3 C4 H4 119.6
C7 C6 H6 120.5
C5 C6 C7 118.9(4)
C5 C6 H6 120.5
C2 C3 H3 119.7
C4 C3 C2 120.7(4)
C4 C3 H3 119.7
S1 C11 H11 122.3
C12 C11 S1 115.3(3)
C12 C11 H11 122.3
loop_
_geom_bond_atom_site_label_1
_geom_bond_atom_site_label_2
_geom_bond_distance
S1 C14 1.702(3)
S1 C11 1.685(4)
N2 C15 1.478(3)
N2 C1 1.417(3)
N2 C10 1.380(4)
O1 C10 1.222(3)
N1 C8 1.364(3)
N1 C7 1.324(4)
C15 H15 0.9800
C15 C16 1.510(4)
C15 C13 1.511(4)
C16 C21 1.377(4)
C16 C17 1.379(4)
C1 C8 1.423(4)
C1 C2 1.361(4)
C8 C9 1.417(4)
C13 C14 1.360(4)
C13 C12 1.410(4)
C10 C14 1.465(4)
C21 H21 0.9300
C21 C20 1.376(4)
C9 C5 1.402(5)
C9 C4 1.408(5)
C20 H20 0.9300
C20 C19 1.368(4)
C17 H17 0.9300
C17 C18 1.384(4)
C18 H18 0.9300
C18 C19 1.385(4)
C19 H19 0.9300
C2 H2 0.9300
C2 C3 1.397(5)
C7 H7 0.9300
C7 C6 1.403(5)
C5 H5 0.9300
C5 C6 1.340(5)
C12 H12 0.9300
C12 C11 1.370(5)
C4 H4 0.9300
C4 C3 1.351(5)
C6 H6 0.9300
C3 H3 0.9300
C11 H11 0.9300
loop_
_refln_index_h
_refln_index_k
_refln_index_l
_refln_F_squared_meas
_refln_F_squared_sigma
-1 0 0 7.7 2.8
-1 0 0 6.5 3
1 0 0 3.2 2.9
1 0 0 6.6 2.6
-2 0 0 7705.43 204.68
-2 0 0 7473.55 203.48
2 0 0 7450.05 203.38
2 0 0 7241.88 204.58
-3 0 0 384.36 17.7
-3 0 0 371.56 18.5
3 0 0 345.47 17.1
3 0 0 339.77 18.4
-4 0 0 471.15 22.4
4 0 0 439.76 24.1
4 0 0 483.55 22.6
-5 0 0 81.39 12.5
-5 0 0 72.39 11.6
5 0 0 87.09 11.6
5 0 0 112.59 15.2
-6 0 0 87.09 13.8
-6 0 0 95.59 16
6 0 0 33.7 9.6
-7 0 0 3 10.2
-7 0 0 -3.8 7.5
7 0 0 -11 5.4
-8 0 0 17.7 11.5
8 0 0 42.1 13
-9 0 0 6.9 11.4
9 0 0 -1.5 9
9 -1 0 27.9 12.8
-9 1 0 30.9 14.2
8 -1 0 0.2 8.5
-8 1 0 5.1 9.8
7 -1 0 38.9 11.6
-7 1 0 35.9 11.1
6 -1 0 7.4 8
6 -1 0 0.7 5.5
-6 1 0 -8 6.4
-6 1 0 -6.2 5.2
5 -1 0 197.18 18.7
5 -1 0 191.58 19.4
-5 1 0 248.08 23.1
-5 1 0 210.28 18.5
4 -1 0 640.94 28.1
4 -1 0 654.03 30.3
-4 1 0 647.14 29.6
-4 1 0 681.13 28.2
3 -1 0 259.67 16.1
3 -1 0 293.47 14.9
-3 1 0 277.17 14.7
2 -1 0 4531.35 129.89
2 -1 0 4769.02 131.59
-2 1 0 4640.84 129.59
-2 1 0 4805.52 131.19
1 -1 0 1522.65 43.6
1 -1 0 1537.95 43.8
1 -1 0 1507.75 43
-1 1 0 1469.95 42.6
-1 -1 0 4234.18 117.99
-1 -1 0 4380.06 117.19
-1 -1 0 4362.56 118.09
1 1 0 4394.96 117.99
1 1 0 4249.67 116.79
-2 -1 0 497.75 18.8
-2 -1 0 483.65 19.9
-2 -1 0 526.25 20
2 1 0 499.65 18.4
-3 -1 0 2052.59 64.49
-3 -1 0 2043.5 63.19
3 1 0 1968 62.29
3 1 0 2119.29 64.99
-4 -1 0 23 7.1
-4 -1 0 12.8 6.8
4 1 0 6.6 5.2
4 1 0 15.6 7.2
-5 -1 0 438.96 25.7
-5 -1 0 416.56 23.2
5 1 0 424.96 22.8
-6 -1 0 32.7 9.7
-6 -1 0 50.19 13.3
6 1 0 29.2 8.9
-7 -1 0 5 9
-7 -1 0 8.9 9.3
7 1 0 -4 6.5
-8 -1 0 -6.6 7.7
8 1 0 18.5 9.7
-9 -1 0 -1.3 10.8
9 1 0 -9.4 8.6
9 -2 0 0.6 10
-9 2 0 3.9 10.3
8 -2 0 3.3 9
-8 2 0 3.1 8.4
7 -2 0 9.4 8.4
7 -2 0 3.4 9
-7 2 0 13.7 9.4
6 -2 0 42.4 10.8
6 -2 0 76.09 14.8
-6 2 0 41.1 10.2
5 -2 0 341.47 21
5 -2 0 356.86 23.3
-5 2 0 371.86 20.8
-5 2 0 362.96 23
4 -2 0 53.49 9.8
4 -2 0 75.69 10.5
-4 2 0 76.69 11.1
-4 2 0 96.09 10.9
3 -2 0 575.64 24.9
3 -2 0 529.55 22.7
-3 2 0 564.04 22.1
2 -2 0 2863.21 84.29
2 -2 0 2885.61 83.49
2 -2 0 2946.11 85.09
-2 2 0 3013.9 84.59
-2 2 0 2917.71 82.39
1 -2 0 1595.74 46.1
1 -2 0 1642.44 46.4
1 -2 0 1575.34 44.9
-1 2 0 1545.65 43.5
-1 2 0 1644.54 43.6
-1 -2 0 321.77 10.7
-1 -2 0 308.97 11.7
-1 -2 0 290.17 11.6
-2 -2 0 226.78 12.5
-2 -2 0 227.58 11.7
-2 -2 0 234.18 12.5
2 2 0 264.27 10.8
-3 -2 0 84.39 9.9
-3 -2 0 77.29 9.7
-3 -2 0 88.89 9.6
3 2 0 105.39 9.4
-4 -2 0 8.6 6.3
-4 -2 0 7.3 5.9
-4 -2 0 11.4 6.1
4 2 0 -2.7 3.2
4 2 0 12.9 5.3
-5 -2 0 8.5 6.8
-5 -2 0 4.1 6
5 2 0 6.8 5.8
-6 -2 0 61.99 14
-6 -2 0 61.79 12.5
6 2 0 58.89 11.2
-7 -2 0 38.9 13.5
-7 -2 0 57.49 13.9
7 2 0 58.89 12.6
-8 -2 0 3.9 10.6
-8 -2 0 17.5 12.6
8 2 0 15.2 9.9
-9 -2 0 -0.3 11.2
9 2 0 -10.9 7.6
9 -3 0 17.1 12.3
-9 3 0 15.3 11
8 -3 0 9.5 10
-8 3 0 -1.9 7.9
7 -3 0 83.49 17.1
7 -3 0 63.29 14
-7 3 0 81.09 14.5
6 -3 0 71.09 12.9
6 -3 0 62.09 14.3
-6 3 0 46.1 10
5 -3 0 100.99 13.4
5 -3 0 147.99 17.5
-5 3 0 108.39 12.7
4 -3 0 63.89 9.7
4 -3 0 54.09 10.1
4 -3 0 36.9 8.2
-4 3 0 42.7 8.4
-4 3 0 43 7.4
3 -3 0 229.08 14.3
3 -3 0 212.88 12.9
3 -3 0 195.88 14
-3 3 0 227.68 12.1
2 -3 0 181.18 11.2
2 -3 0 176.18 10.5
2 -3 0 177.78 9.9
-2 3 0 190.48 8.4
1 -3 0 257.17 10.6
1 -3 0 274.37 11.1
-1 -3 0 65.09 3.8
-1 -3 0 70.69 5.1
-1 -3 0 60.69 4.8
-2 -3 0 44.2 6.5
-2 -3 0 44.6 5.7
-2 -3 0 35.4 5.9
-3 -3 0 921.71 33.4
-3 -3 0 921.91 34.7
-3 -3 0 951.8 35.1
3 3 0 941.21 30.5
-4 -3 0 13.2 6.4
-4 -3 0 18.9 6.5
4 3 0 13 5.2
-5 -3 0 9 6.6
-5 -3 0 9.2 6.9
5 3 0 7.6 5.2
-6 -3 0 175.58 22.4
-6 -3 0 121.89 17.1
6 3 0 151.88 16.2
-7 -3 0 43.6 13.3
-7 -3 0 21.7 12.3
-8 -3 0 7.5 11.2
-8 -3 0 22.1 14.4
9 -4 0 11.2 12.1
-9 4 0 6.1 10.3
8 -4 0 11.6 11.4
8 -4 0 16.6 12.5
-8 4 0 7.9 9.9
7 -4 0 15.4 8.9
7 -4 0 15.3 10.9
-7 4 0 18.8 8.5
6 -4 0 83.89 14.6
6 -4 0 60.19 12
-6 4 0 96.69 12.9
5 -4 0 90.19 13.2
5 -4 0 61.09 12.5
-5 4 0 65.09 10
4 -4 0 176.48 17.3
4 -4 0 207.08 14.2
-4 4 0 189.18 12.1
3 -4 0 256.27 15.7
3 -4 0 253.97 15.3
3 -4 0 251.17 14.2
-3 4 0 245.28 11.5
2 -4 0 154.68 10.3
2 -4 0 151.68 9.7
2 -4 0 138.09 8.9
1 -4 0 176.68 8.6
1 -4 0 192.38 8.6
-1 -4 0 746.53 23.9
-1 -4 0 761.72 23.6
-2 -4 0 98.69 7.3
-2 -4 0 101.39 8.2
-2 -4 0 93.89 7.9
-3 -4 0 51.89 9
-3 -4 0 52.19 8.2
-3 -4 0 39.6 7.4
-4 -4 0 3.1 5
-4 -4 0 8.3 5.8
-5 -4 0 50.19 10.5
-5 -4 0 48.5 11.4
-6 -4 0 4.7 8
-6 -4 0 5.6 7.6
-7 -4 0 13.5 10.1
-7 -4 0 5.7 9.7
-8 -4 0 1.9 10.4
-8 -4 0 5.3 10.9
9 -5 0 2.2 10.2
8 -5 0 18.6 12.4
8 -5 0 17.5 11.7
7 -5 0 1.6 8.3
7 -5 0 3.1 8.4
6 -5 0 27.2 10.6
6 -5 0 45.9 11.7
5 -5 0 68.69 12.6
5 -5 0 53.49 10.8
4 -5 0 44.4 9.6
4 -5 0 22.4 6.8
3 -5 0 73.79 10.3
3 -5 0 71.99 9.3
3 -5 0 91.09 11.5
2 -5 0 320.57 15
2 -5 0 293.67 15
2 -5 0 316.67 14.1
1 -5 0 4.3 2.3
1 -5 0 0.4 1.9
1 -5 0 2.6 2.4
-1 -5 0 13.5 2.9
-2 -5 0 126.79 9.3
-2 -5 0 144.79 9.6
-2 -5 0 148.29 9.2
-3 -5 0 -2.1 3.4
-3 -5 0 4.9 4.9
-4 -5 0 13 6.9
-4 -5 0 16.1 6.7
-5 -5 0 14 7.6
-5 -5 0 12.2 8.4
-6 -5 0 18.3 9.9
-6 -5 0 16.3 10
-7 -5 0 5.3 9.2
-7 -5 0 -12.8 8.6
8 -6 0 3.9 10.5
8 -6 0 -6.8 10.2
7 -6 0 3.4 9.5
7 -6 0 -8 8.2
6 -6 0 36.3 11.6
6 -6 0 35.7 11.8
5 -6 0 35.1 10.1
5 -6 0 57.49 12.6
4 -6 0 9.3 6.4
4 -6 0 13.4 6.3
3 -6 0 25.4 6.9
2 -6 0 44.9 6.7
2 -6 0 39.9 6.4
1 -6 0 1.1 2.1
1 -6 0 2.6 2.4
-2 -6 0 2.4 3.4
-2 -6 0 2.6 3.5
-3 -6 0 5.3 5
-4 -6 0 11.2 6.9
-5 -6 0 1.9 6.5
-6 -6 0 2.3 8.2
-7 -6 0 12.3 10.5
7 -7 0 -4.8 7.9
7 -7 0 -5 9.4
6 -7 0 -3.9 7.2
5 -7 0 40.2 10.4
4 -7 0 60.09 10.7
3 -7 0 13 5.4
2 -7 0 351.56 15.6
2 -7 0 361.66 15.8
-2 -7 0 33.8 5.2
-2 -7 0 30.9 5
-3 -7 0 9.3 4.8
-4 -7 0 57.39 10
-5 -7 0 12.5 7.6
-6 -7 0 2.4 7.7
6 -8 0 29.4 10.3
5 -8 0 24 9
4 -8 0 25 8.4
3 -8 0 2.1 4.7
2 -8 0 2.9 3.2
2 -8 0 1.9 3.1
-3 -8 0 4 4.4
-4 -8 0 7 5.7
-5 -8 0 4 6.8
5 -9 0 3.6 6.6
4 -9 0 2 6
3 -9 0 -3.1 4.1
3 -10 1 17 6
2 -9 1 1.3 3.6
3 -9 1 2.4 5.2
4 -9 1 4.4 6.5
5 -9 1 7.3 7
-5 -8 1 8 7
-4 -8 1 7 5.8
-3 -8 1 41.2 7.5
-2 -8 1 9.1 5
-2 -8 1 9.3 3.4
2 -8 1 80.39 9.2
3 -8 1 -2.4 4.1
4 -8 1 8.2 5.9
5 -8 1 4.1 7.2
6 -8 1 -5.2 6.5
-6 -7 1 2.7 7.6
-5 -7 1 11.6 7.8
-4 -7 1 7.5 6.3
-3 -7 1 20.6 6.5
-2 -7 1 6.8 3.8
-2 -7 1 5.4 3.7
-1 -7 1 26.1 3.9
1 -7 1 6.7 3
1 -7 1 -1.3 2.8
3 -7 1 0.6 4.4
4 -7 1 62.59 11.4
5 -7 1 207.08 22.1
6 -7 1 146.39 20.4
6 -7 1 133.49 19.5
7 -7 1 25.3 11.4
7 -7 1 48.9 14.6
-7 -6 1 -3.8 7.9
-6 -6 1 -4.6 7.4
-5 -6 1 43.6 11.3
-4 -6 1 19 6.9
-3 -6 1 82.19 10.2
-2 -6 1 142.19 10.4
-2 -6 1 153.38 10
-1 -6 1 170.08 8.9
-1 -6 1 183.58 9.2
0 -6 1 30.3 4.3
0 -6 1 32.4 4
1 -6 1 161.68 9.8
1 -6 1 163.58 9.3
2 -6 1 18.6 5.3
2 -6 1 15.3 5
3 -6 1 44.7 8.4
3 -6 1 47 8.7
4 -6 1 4.5 6.1
4 -6 1 0 4.7
5 -6 1 158.78 18.6
5 -6 1 92.99 15.1
6 -6 1 85.79 15.8
6 -6 1 127.29 17.9
7 -6 1 14.7 10.6
7 -6 1 14.4 9.9
8 -6 1 16.7 11.8
8 -6 1 4.6 9.8
-8 -5 1 7.1 10.3
-7 -5 1 -4.2 9.2
-7 -5 1 5.1 9.4
-6 -5 1 1.5 8.1
-6 -5 1 2.8 7.8
-5 -5 1 12.6 7.7
-5 -5 1 2.1 6.4
-4 -5 1 49.1 9.5
-4 -5 1 28 8
-3 -5 1 14.3 5.8
-3 -5 1 9.8 4.9
-3 -5 1 7.3 5.6
-2 -5 1 60.29 7.6
-2 -5 1 72.59 8.1
-2 -5 1 66.69 7.5
-1 -5 1 134.29 8.4
-1 -5 1 140.69 8
-1 -5 1 158.78 7.8
0 -5 1 1.1 1.8
0 -5 1 1.7 2.3
1 -5 1 155.88 8.3
1 -5 1 148.79 8.7
2 -5 1 164.18 10.3
2 -5 1 141.89 10.6
2 -5 1 125.19 10.1
3 -5 1 231.68 14.4
3 -5 1 192.08 14.1
3 -5 1 211.98 15
-4 5 -1 10.2 4.6
4 -5 1 6 5.8
4 -5 1 4.5 5.5
-5 5 -1 3.3 4.9
5 -5 1 -2.5 5.8
5 -5 1 -0.9 6.2
-6 5 -1 35.7 8.8
6 -5 1 23.2 10.3
6 -5 1 47.8 12.4
-7 5 -1 85.99 14.2
7 -5 1 63.49 15.3
7 -5 1 66.29 15.1
8 -5 1 0.2 9.6
8 -5 1 -2.8 9.7
-8 -4 1 20.9 12
-8 -4 1 24.1 13.3
-7 -4 1 4.9 9.4
-7 -4 1 21.7 11.3
-6 -4 1 310.07 26.7
-6 -4 1 214.98 23.4
-5 -4 1 2.4 5.7
-5 -4 1 9.7 6.9
-4 -4 1 0.3 4.8
-4 -4 1 -4.7 4.3
3 4 -1 153.98 7.2
-3 -4 1 161.58 11.5
-3 -4 1 174.58 12.9
-3 -4 1 156.98 12.3
-2 -4 1 880.51 30.2
-2 -4 1 850.21 29
-2 -4 1 863.11 30.3
-1 -4 1 16.7 3.2
-1 -4 1 14.8 3.7
-1 -4 1 20.3 3.9
0 -4 1 377.16 14.2
0 -4 1 396.46 12.6
0 -4 1 388.96 14.6
1 -4 1 7.7 2.8
1 -4 1 2.8 2.8
1 -4 1 3.7 2.9
-2 4 -1 0.1 1.8
2 -4 1 1.6 3.3
2 -4 1 -0.8 3.1
2 -4 1 4.5 3.6
-3 4 -1 48 6.6
3 -4 1 55.89 8.9
3 -4 1 36.8 7.1
3 -4 1 36.2 7.9
-4 4 -1 11.4 5
4 -4 1 0.9 5.2
4 -4 1 10.7 6.5
-5 4 -1 23.2 7
5 -4 1 19.4 8.7
5 -4 1 27.1 8.6
-6 4 -1 47.4 10.8
6 -4 1 89.99 16
6 -4 1 62.09 15.5
-7 4 -1 7.4 7.6
7 -4 1 5.6 10.2
7 -4 1 8.8 9.4
-8 4 -1 68.59 14.9
8 -4 1 78.69 17.7
-9 4 -1 9.8 10.9
9 -4 1 -1.8 11.3
-9 -3 1 -4.5 11.6
-9 -3 1 2.2 12
-8 -3 1 51.09 15.9
-8 -3 1 65.99 16.7
7 3 -1 2.4 7.1
-7 -3 1 -1.4 7.8
-7 -3 1 -10.2 7.3
6 3 -1 3.7 6.3
-6 -3 1 -3.9 6.6
-6 -3 1 7.5 7.8
5 3 -1 27.8 7.4
-5 -3 1 31.3 9.2
-5 -3 1 10.9 6.7
4 3 -1 345.77 17.2
-4 -3 1 394.16 21.9
-4 -3 1 367.16 20.1
3 3 -1 68.59 7.3
-3 -3 1 87.29 10.6
-3 -3 1 78.69 10.1
-3 -3 1 91.59 10
2 3 -1 302.97 11.3
-2 -3 1 310.97 13.8
-2 -3 1 334.37 15.1
-2 -3 1 321.77 15.2
-1 -3 1 121.99 6.6
-1 -3 1 110.99 7.2
-1 -3 1 126.49 7.2
0 -3 1 0.4 1.5
0 -3 1 0.5 2.2
0 -3 1 0.6 1.9
1 -3 1 4.2 2.9
1 -3 1 7.4 2.9
1 -3 1 10.7 3.5
-2 3 -1 340.47 13.9
2 -3 1 356.96 16.2
2 -3 1 320.07 15
2 -3 1 322.57 16.4
-3 3 -1 16.2 4.9
-3 3 -1 0.4 2.6
3 -3 1 12.2 5.9
3 -3 1 11.9 5.2
3 -3 1 11.7 5.1
-4 3 -1 10.9 5.6
-4 3 -1 14.8 6.4
4 -3 1 17.5 7.3
4 -3 1 10.8 5.8
-5 3 -1 482.65 24.9
5 -3 1 492.05 26.6
5 -3 1 480.55 28.8
-6 3 -1 187.88 18.9
6 -3 1 125.89 16.7
6 -3 1 169.88 22.4
-7 3 -1 209.58 21.5
7 -3 1 224.88 24
7 -3 1 164.68 22.9
-8 3 -1 26.4 11.4
8 -3 1 53.79 14.8
-9 3 -1 20.8 13.1
9 -3 1 31.2 13.5
9 2 -1 32.4 12.7
-9 -2 1 32.1 14.3
8 2 -1 16.3 9.4
-8 -2 1 7.5 12
-8 -2 1 24.1 11.8
7 2 -1 2.2 6.9
-7 -2 1 10.9 9.2
-7 -2 1 8.5 9.4
6 2 -1 202.68 18.6
-6 -2 1 224.28 21.2
-6 -2 1 168.58 19.7
5 2 -1 -3.1 4.8
-5 -2 1 1.2 5.5
-5 -2 1 2.8 5.6
4 2 -1 547.85 24.2
4 2 -1 587.54 27.1
-4 -2 1 596.64 25.8
-4 -2 1 539.05 26.9
3 2 -1 1246.68 39.8
-3 -2 1 1210.68 42.6
-3 -2 1 1111.99 41.7
-3 -2 1 1284.57 41.7
2 2 -1 267.27 11.9
-2 -2 1 275.57 13.5
-2 -2 1 282.67 13.7
-2 -2 1 273.17 12.8
1 2 -1 44.6 3.5
-1 -2 1 31.2 4.3
-1 -2 1 35.9 4.1
-1 -2 1 37.2 4.7
0 -2 1 2602.44 70.19
0 -2 1 2549.34 71.29
0 -2 1 2557.34 71.39
-1 2 -1 5969.2 160.88
1 -2 1 5937.21 162.98
1 -2 1 6135.19 161.88
1 -2 1 5788.02 162.58
-2 2 -1 999.7 32.6
2 -2 1 1082.49 36.2
2 -2 1 959.8 33.4
2 -2 1 1006.4 34.5
-3 2 -1 285.37 16.5
-3 2 -1 330.47 16
3 -2 1 312.77 18.4
3 -2 1 303.67 16.5
-4 2 -1 83.29 12.4
-4 2 -1 75.69 10.4
4 -2 1 73.99 11.8
4 -2 1 53.49 9.1
-5 2 -1 108.29 13.4
-5 2 -1 110.49 15.6
5 -2 1 80.69 13.6
5 -2 1 55.79 10.2
-6 2 -1 7.2 6
6 -2 1 3.7 8.1
6 -2 1 12.4 8.3
-7 2 -1 43.6 11.9
7 -2 1 41.3 12
-8 2 -1 72.19 16.1
8 -2 1 87.69 17.6
-9 2 -1 13.4 11.6
9 -2 1 -4.9 9.1
9 1 -1 6.5 9.7
-9 -1 1 11.5 10.5
8 1 -1 7.2 9.3
-8 -1 1 7.8 10.3
7 1 -1 7.5 7.7
-7 -1 1 5.9 9.7
-7 -1 1 0.3 8.1
6 1 -1 16.9 7.7
-6 -1 1 7.6 7.4
-6 -1 1 17.5 9.1
5 1 -1 234.68 18.6
5 1 -1 249.48 17.1
-5 -1 1 240.98 18.8
-5 -1 1 248.18 17.2
4 1 -1 64.39 9.6
4 1 -1 68.59 11.2
-4 -1 1 59.09 10.1
-4 -1 1 55.29 9.6
3 1 -1 684.43 27.8
3 1 -1 702.13 25.8
-3 -1 1 672.73 27.8
-3 -1 1 669.73 26.4
2 1 -1 251.87 12.9
2 1 -1 245.38 11.7
-2 -1 1 251.77 12.7
-2 -1 1 256.87 12.9
-2 -1 1 238.08 11.9
1 1 -1 667.13 20.3
-1 -1 1 634.84 21.1
-1 -1 1 637.84 21.3
-1 -1 1 652.13 20.6
0 1 -1 482.25 14.7
0 -1 1 492.55 15.5
0 -1 1 452.75 14.8
0 -1 1 469.85 15.5
-1 1 -1 314.67 11.6
-1 1 -1 297.97 12.2
1 -1 1 297.57 11.8
1 -1 1 302.57 12.4
1 -1 1 278.47 12.3
-2 1 -1 225.38 11.6
-2 1 -1 230.98 12.4
2 -1 1 229.48 11.9
-3 1 -1 11.1 5.3
-3 1 -1 24.2 5.9
3 -1 1 17.5 6.8
3 -1 1 18.6 5.7
-4 1 -1 62.29 9.1
-4 1 -1 55.29 9.9
4 -1 1 73.79 12
4 -1 1 60.89 10
-5 1 -1 11.3 6.5
-5 1 -1 3 5.8
5 -1 1 7.5 6.6
5 -1 1 18.8 9.3
-6 1 -1 4.9 8
-6 1 -1 18.7 8.2
6 -1 1 20.1 8.9
6 -1 1 12.1 8.3
-7 1 -1 47.3 11.8
7 -1 1 80.59 14.4
-8 1 -1 -5.2 8
8 -1 1 -2 8.8
-9 1 -1 4.1 11
9 -1 1 15 12.3
9 0 -1 7 10.2
-9 0 1 -3.7 9.7
8 0 -1 26.3 10.7
-8 0 1 36.1 13.4
7 0 -1 22.4 9.6
-7 0 1 10.3 9
6 0 -1 173.18 18.2
-6 0 1 155.08 17.4
-6 0 1 125.39 16.8
5 0 -1 12.8 7.7
5 0 -1 18.5 6.9
-5 0 1 13.9 6.8
-5 0 1 13.2 6.7
4 0 -1 107.59 11.3
4 0 -1 126.99 13.6
-4 0 1 148.99 14
-4 0 1 101.09 11.8
3 0 -1 146.39 11.8
3 0 -1 107.19 10.1
-3 0 1 141.09 11.5
-3 0 1 138.79 10.6
2 0 -1 747.33 27
2 0 -1 771.72 25.9
-2 0 1 749.23 26.9
-2 0 1 774.92 26
1 0 -1 655.23 21
1 0 -1 707.33 22
-1 0 1 667.73 21.2
-1 0 1 678.23 21.9
0 0 -1 1 1.1
0 0 -1 0.8 1.3
0 0 -1 1.8 1.4
0 0 1 0.1 1.1
0 0 1 -0.2 1.1
-1 0 -1 381.66 13.6
-1 0 -1 357.56 14.1
1 0 1 401.56 14.8
1 0 1 379.56 13.7
-2 0 -1 8929.71 237.68
-2 0 -1 8776.32 236.48
2 0 1 8709.13 236.48
2 0 1 8344.56 238.48
-3 0 -1 1748.63 54.69
-3 0 -1 1556.44 55.49
3 0 1 1761.82 54.49
3 0 1 1777.62 56.89
-4 0 -1 465.45 23.2
-4 0 -1 481.55 25
4 0 1 477.35 25.1
4 0 1 499.85 23.2
-5 0 -1 287.57 20.8
-5 0 -1 250.07 18.2
5 0 1 245.18 17.7
5 0 1 269.67 20.5
-6 0 -1 5.8 7.5
-6 0 -1 22.8 10.1
6 0 1 27.1 9.5
-7 0 -1 33.9 11.1
-7 0 -1 32.2 12.8
7 0 1 32.6 10.9
-8 0 -1 2.4 9.1
8 0 1 4.4 9.8
-9 0 -1 54.29 16.4
9 0 1 64.69 16.1
9 -1 -1 26.3 12.7
-9 1 1 -4.7 9.3
8 -1 -1 25.6 11
-8 1 1 23.4 12.3
7 -1 -1 7 7.1
-7 1 1 28.2 9.5
6 -1 -1 13.5 9.3
6 -1 -1 22.7 8.7
-6 1 1 16.2 8.4
-6 1 1 24 9
5 -1 -1 124.39 13.6
5 -1 -1 209.88 20.8
-5 1 1 205.78 18
-5 1 1 127.89 15.1
4 -1 -1 163.58 16.3
4 -1 -1 170.58 15.2
-4 1 1 151.58 14.2
-4 1 1 194.58 17.8
3 -1 -1 273.47 14.5
3 -1 -1 278.17 16.2
-3 1 1 295.47 14.8
-3 1 1 268.27 15.7
2 -1 -1 8152.28 221.48
2 -1 -1 8363.06 223.08
2 -1 -1 8173.08 222.58
-2 1 1 8220.68 221.28
-2 1 1 7855.21 222.68
1 -1 -1 920.11 27.5
1 -1 -1 870.01 27.3
1 -1 -1 908.01 26.5
-1 1 1 858.81 27
-1 1 1 885.81 26.2
0 -1 -1 6242.58 169.28
0 -1 -1 6356.46 169.28
0 -1 -1 6366.76 168.28
-1 -1 -1 9738.63 254.37
-1 -1 -1 9539.85 255.17
-1 -1 -1 9079.39 255.77
1 1 1 9595.64 253.97
-2 -1 -1 1538.35 48.2
-2 -1 -1 1534.45 49.7
-2 -1 -1 1631.34 49.9
2 1 1 1631.54 47.9
-3 -1 -1 1346.57 44.6
-3 -1 -1 1256.97 45.9
3 1 1 1310.27 46.3
3 1 1 1418.16 44.2
-4 -1 -1 1103.19 42.5
-4 -1 -1 1171.78 45.2
4 1 1 1180.38 42
4 1 1 1208.78 45.3
-5 -1 -1 442.46 24.3
-5 -1 -1 404.66 25.8
5 1 1 433.46 23.1
-6 -1 -1 -0.5 6.2
-6 -1 -1 7 8.7
6 1 1 -1.1 6.1
-7 -1 -1 85.19 16.7
-7 -1 -1 84.89 15.4
7 1 1 127.79 18.1
-8 -1 -1 35.9 13
8 1 1 54.69 14.1
-9 -1 -1 1.2 10.9
9 1 1 5.1 10
9 -2 -1 -2.7 10.1
-9 2 1 -2.1 10.2
8 -2 -1 0 8.4
-8 2 1 2 8.5
7 -2 -1 24.7 9.9
7 -2 -1 34.8 12.8
-7 2 1 31.3 10.6
6 -2 -1 133.59 16.3
-6 2 1 172.18 18.5
5 -2 -1 22 8.2
5 -2 -1 20.3 6.9
-5 2 1 24.5 8
-5 2 1 17.8 7.1
4 -2 -1 17.2 6.9
4 -2 -1 32 7.5
-4 2 1 41.4 9.1
-4 2 1 20.3 6.2
3 -2 -1 11.2 4.8
3 -2 -1 29.1 6.7
3 -2 -1 16.5 5
-3 2 1 7.3 3.9
-3 2 1 19 4.9
2 -2 -1 3136.79 92.49
2 -2 -1 3379.86 93.39
-2 2 1 3215.18 90.29
1 -2 -1 9.7 2.3
1 -2 -1 11.4 3
1 -2 -1 8.6 2.8
0 -2 -1 207.28 7.2
0 -2 -1 194.68 7.2
-1 -2 -1 18.1 3.8
-1 -2 -1 20.3 3.5
-1 -2 -1 23.2 3.1
-2 -2 -1 1686.03 52.19
-2 -2 -1 1666.03 50.59
-2 -2 -1 1683.33 52.19
2 2 1 1658.93 49.1
-3 -2 -1 165.98 12.6
-3 -2 -1 192.38 13.6
-3 -2 -1 155.98 11.9
3 2 1 169.58 10.8
-4 -2 -1 345.77 21
-4 -2 -1 319.67 23.7
-4 -2 -1 319.77 18.8
4 2 1 311.27 17.2
-5 -2 -1 227.78 19.2
-5 -2 -1 252.27 18.9
5 2 1 263.37 17.2
-6 -2 -1 172.18 22.1
-6 -2 -1 190.98 21.9
6 2 1 175.08 18.2
-7 -2 -1 19.5 11.9
-7 -2 -1 10.3 10.7
7 2 1 30 10
-8 -2 -1 1.5 10
-8 -2 -1 -7.9 9.4
8 2 1 9.9 8.8
-9 -2 -1 5.8 11.9
9 -3 -1 -1.3 11
-9 3 1 8.1 10.4
8 -3 -1 40.7 13.9
-8 3 1 32.8 11.6
7 -3 -1 4.8 9.8
7 -3 -1 -8.6 6.9
-7 3 1 4.8 7.4
6 -3 -1 20.2 9.8
6 -3 -1 8.5 7.3
-6 3 1 1.2 6.4
5 -3 -1 6.1 5.6
5 -3 -1 1.7 5.3
-5 3 1 -0.4 4.7
4 -3 -1 3061.89 95.89
4 -3 -1 3038.2 95.49
4 -3 -1 3081.59 93.59
-4 3 1 3113.39 91.09
3 -3 -1 583.34 23.1
3 -3 -1 571.04 24.6
3 -3 -1 550.34 24.1
-3 3 1 551.44 21.1
2 -3 -1 1700.13 51.19
2 -3 -1 1647.64 49.6
2 -3 -1 1714.63 51.59
-2 3 1 1622.84 46.5
1 -3 -1 139.29 5.6
1 -3 -1 147.09 7.3
1 -3 -1 143.89 7.3
-1 -3 -1 132.19 6.1
-1 -3 -1 143.49 7.3
-2 -3 -1 311.67 14.8
-2 -3 -1 286.47 14.5
-2 -3 -1 295.17 13.5
-3 -3 -1 18.1 6.3
-3 -3 -1 25.1 6.2
-3 -3 -1 25.5 6.5
3 3 1 26.7 4.5
-4 -3 -1 5.4 5.9
-4 -3 -1 3.9 5.3
4 3 1 9.5 4.6
-5 -3 -1 21.9 8.1
-5 -3 -1 30.9 10.2
5 3 1 15 6.6
-6 -3 -1 18.2 9.2
-6 -3 -1 27.4 10.6
6 3 1 25 9.2
-7 -3 -1 43.2 13.8
-7 -3 -1 27.5 11.5
-8 -3 -1 10 10.9
-8 -3 -1 -2.5 10.5
9 -4 -1 5.7 11.2
-9 4 1 8.9 10.6
8 -4 -1 14.3 11.1
8 -4 -1 -6.5 9.5
-8 4 1 10.8 9.4
7 -4 -1 4.9 9.4
7 -4 -1 4 8.3
-7 4 1 8.4 7.6
6 -4 -1 7.1 7.4
6 -4 -1 9 8.7
-6 4 1 17.1 7.4
5 -4 -1 444.36 26.7
5 -4 -1 474.15 24.9
-5 4 1 444.46 21.9
4 -4 -1 286.37 18.8
4 -4 -1 273.97 17.2
-4 4 1 312.17 15.2
3 -4 -1 693.53 28.8
3 -4 -1 728.53 27.3
3 -4 -1 739.93 28.9
-3 4 1 704.93 22.9
2 -4 -1 275.67 13.6
2 -4 -1 277.87 12.4
2 -4 -1 279.07 13.3
1 -4 -1 778.42 24.5
1 -4 -1 822.32 24.8
-1 -4 -1 1021 30.4
-1 -4 -1 1014.3 28.5
-1 -4 -1 953.7 30.3
-2 -4 -1 146.69 9.1
-2 -4 -1 141.39 9.9
-2 -4 -1 132.99 9.3
-3 -4 -1 1.7 4.7
-3 -4 -1 -0.4 4.2
-3 -4 -1 5.8 4.6
-4 -4 -1 0.8 5.4
-4 -4 -1 4.4 5.5
-5 -4 -1 54.69 11.4
-5 -4 -1 67.19 12.2
-6 -4 -1 7.5 8.8
-6 -4 -1 8.3 8.3
-7 -4 -1 7 8.6
-7 -4 -1 9.2 11
-8 -4 -1 -0.8 11.4
-8 -4 -1 17.2 11.3
9 -5 -1 18.6 12.9
9 -5 -1 14.7 13.4
8 -5 -1 8.9 11.4
8 -5 -1 14 11
7 -5 -1 13.8 10
7 -5 -1 3.2 8.3
6 -5 -1 54.59 12.3
6 -5 -1 38.8 11.1
5 -5 -1 65.89 11.7
5 -5 -1 64.39 12.7
4 -5 -1 24.6 7.4
4 -5 -1 16.8 6.4
3 -5 -1 18.6 5.7
3 -5 -1 11.4 4.8
3 -5 -1 18.7 5.7
2 -5 -1 437.16 18
2 -5 -1 425.06 17.9
1 -5 -1 563.74 18.3
1 -5 -1 602.54 18.5
-1 -5 -1 9 2.5
-1 -5 -1 9.6 2.6
-2 -5 -1 17 4.6
-2 -5 -1 14.5 4.5
-3 -5 -1 49.5 8.2
-4 -5 -1 24.8 7.4
-5 -5 -1 8.2 6.6
-6 -5 -1 18.1 9.6
-7 -5 -1 6.7 10
8 -6 -1 -0.2 9.5
8 -6 -1 19.8 12.1
7 -6 -1 3.3 9.2
7 -6 -1 19.5 10.7
6 -6 -1 36.9 11.5
6 -6 -1 38 10.8
5 -6 -1 255.87 19
5 -6 -1 226.78 19
4 -6 -1 7.1 5.6
3 -6 -1 8.5 4.8
2 -6 -1 3.3 3.2
2 -6 -1 0.4 3.3
-2 -6 -1 6 3.8
-2 -6 -1 2.3 3.4
-3 -6 -1 2.1 4.3
-4 -6 -1 -1.1 4.9
-5 -6 -1 47.3 10.4
-6 -6 -1 -2.2 7.5
7 -7 -1 28 12.7
6 -7 -1 14.8 9.7
5 -7 -1 22.6 8.9
4 -7 -1 49.2 10.6
3 -7 -1 7.5 4.7
2 -7 -1 1.4 2.9
2 -7 -1 -1.7 2.6
-2 -7 -1 5.6 2.9
-2 -7 -1 4.6 3
-3 -7 -1 2 4.5
-4 -7 -1 -1.5 5.2
-5 -7 -1 1.6 7
6 -8 -1 23.9 10.2
5 -8 -1 -6.2 5.5
4 -8 -1 4.6 5.1
3 -8 -1 40.7 7.3
-3 -8 -1 -0.7 4
-4 -8 -1 -6 4.6
5 -9 -1 -3.5 5.8
4 -9 -1 9.4 6.1
2 -10 2 6.1 4.1
3 -10 2 105.09 12.9
-4 -9 2 2.4 5.7
-3 -9 2 16 5.6
1 -9 2 42.3 5.9
2 -9 2 52.59 8.6
3 -9 2 73.49 11.8
5 -9 2 3.3 7.3
-5 -8 2 5.6 7.6
-4 -8 2 10.3 6.7
-3 -8 2 1.3 4.8
-2 -8 2 30.8 6.4
-1 -8 2 10.6 4
-1 -8 2 12 4
0 -8 2 8.4 3.5
0 -8 2 7.9 3.8
1 -8 2 42.8 7.1
2 -8 2 -0.2 4.7
4 -8 2 -0.1 5.6
5 -8 2 12.2 8.6
6 -8 2 -8.2 6.4
-6 -7 2 4.9 7.8
-5 -7 2 18.8 8.6
-4 -7 2 20.8 7.3
-3 -7 2 1.1 4.9
-2 -7 2 11.2 4.7
-1 -7 2 7.1 4
-1 -7 2 2.8 3.7
0 -7 2 32.2 5.8
0 -7 2 35.7 5.7
1 -7 2 12 4.5
1 -7 2 17.5 5.4
2 -7 2 1.1 4.9
3 -7 2 12.4 6.1
4 -7 2 -4.8 5
5 -7 2 5.2 7.8
5 -7 2 7.5 6.6
6 -7 2 11.6 9.7
6 -7 2 8.5 8
7 -7 2 9.4 11.5
7 -7 2 3.6 9.4
-7 -6 2 -1 9.3
-6 -6 2 -0.6 7.3
-5 -6 2 58.49 12.3
-4 -6 2 4.3 5.8
-3 -6 2 53.89 9.3
-2 -6 2 10.4 4.8
-2 -6 2 15.9 5.3
-1 -6 2 47.8 6.6
-1 -6 2 59.79 7.6
0 -6 2 95.39 8.9
0 -6 2 107.59 9.8
1 -6 2 11.9 4.6
1 -6 2 4.2 3.7
1 -6 2 10.2 4.7
2 -6 2 173.68 12.7
2 -6 2 170.58 16.4
2 -6 2 164.48 12.1
3 -6 2 14 6.4
3 -6 2 11.1 5.8
4 -6 2 58.89 11
4 -6 2 43.7 9.9
5 -6 2 10.7 7.5
5 -6 2 9.6 8.1
6 -6 2 67.19 15
6 -6 2 93.89 16.3
7 -6 2 -2.3 9.6
7 -6 2 3.4 8.3
8 -6 2 61.09 16.3
8 -6 2 17.1 10.5
-8 -5 2 -3.5 10.8
-8 -5 2 -3.8 8.7
-7 -5 2 80.89 16.6
-7 -5 2 55.99 14.8
-6 -5 2 8.3 8.1
-6 -5 2 10.4 8.5
-5 -5 2 19.5 8.7
-5 -5 2 26.2 9.2
-4 -5 2 6.1 5.6
-4 -5 2 5.5 5.6
-3 -5 2 26.1 6.6
-3 -5 2 36.2 7.1
-2 -5 2 3.6 4
-2 -5 2 0.4 3.7
-2 -5 2 5.1 3.8
-1 -5 2 371.16 16.4
-1 -5 2 406.36 16.3
-1 -5 2 413.26 17.6
0 -5 2 166.78 10.8
0 -5 2 188.18 10
0 -5 2 181.18 10.4
1 -5 2 661.63 24.6
1 -5 2 697.73 26.4
1 -5 2 686.73 25.8
2 -5 2 6.3 4.4
2 -5 2 4.9 4.3
2 -5 2 2.9 3.9
-3 5 -2 2.5 3.2
3 -5 2 0.7 4.5
3 -5 2 -0.5 4.2
-4 5 -2 8.1 4.9
4 -5 2 3.3 5.1
4 -5 2 7 6
-5 5 -2 14.4 6.5
5 -5 2 29.5 10
5 -5 2 17.1 8.2
-6 5 -2 17.9 7.6
6 -5 2 15 9.3
6 -5 2 18.3 10
-7 5 -2 2.9 8.1
7 -5 2 12.3 10.3
7 -5 2 8 9
-8 5 -2 18.3 10.5
8 -5 2 55.09 16.1
8 -5 2 23.7 12.1
-8 -4 2 -2.8 9.9
-8 -4 2 7.1 11.7
-7 -4 2 -1.2 7.7
-7 -4 2 -8.4 8.6
-6 -4 2 13.6 8.7
-6 -4 2 4.9 7.8
5 4 -2 43.8 8.3
-5 -4 2 56.29 11.9
-5 -4 2 30.4 9.3
4 4 -2 -1.3 3.3
-4 -4 2 -2 5
-4 -4 2 5.6 5.3
3 4 -2 0.4 2.7
-3 -4 2 4.8 4.3
-3 -4 2 0.5 4
-3 -4 2 6.6 4.6
-2 -4 2 113.19 10.6
-2 -4 2 79.99 8.6
-2 -4 2 98.99 10.4
-1 -4 2 27.3 5.3
-1 -4 2 23.5 4.5
-1 -4 2 23.9 5
0 -4 2 651.03 22.2
0 -4 2 635.64 23.7
0 -4 2 629.04 23.1
-1 4 -2 22.6 2.4
1 -4 2 12.3 4
1 -4 2 20.9 4.9
-2 4 -2 463.85 17.8
2 -4 2 485.95 20.7
2 -4 2 477.25 21.2
2 -4 2 483.55 22.1
-3 4 -2 343.07 16.7
3 -4 2 363.86 20.4
3 -4 2 326.47 19.2
3 -4 2 346.07 18.4
-4 4 -2 185.38 13.5
4 -4 2 186.68 19.6
4 -4 2 223.48 19.1
-5 4 -2 31.1 8
5 -4 2 41.3 10.2
5 -4 2 24.8 10
-6 4 -2 7.7 7.3
6 -4 2 9.7 9.1
6 -4 2 5.3 7.7
-7 4 -2 32.2 11.3
7 -4 2 28.9 11.5
7 -4 2 38.1 12.3
-8 4 -2 1.2 9.1
8 -4 2 7.6 9.8
-9 4 -2 -3.7 9.6
9 -4 2 -0.4 11.1
-9 -3 2 -12.9 10.9
-9 -3 2 7 12.1
8 3 -2 -0.4 7.5
-8 -3 2 -6.1 8.9
-8 -3 2 -1.2 10
7 3 -2 4.8 7.2
-7 -3 2 -10.1 6.7
-7 -3 2 -0.8 7.6
6 3 -2 126.79 14.7
-6 -3 2 69.69 13.3
-6 -3 2 100.99 14.6
5 3 -2 154.68 15.1
-5 -3 2 151.58 17.3
-5 -3 2 195.78 20.7
4 3 -2 18.2 5.6
-4 -3 2 7.4 5.9
-4 -3 2 3.9 5.4
3 3 -2 113.79 8.7
-3 -3 2 107.69 12.1
-3 -3 2 93.39 10.4
-3 -3 2 121.79 12.5
2 3 -2 251.97 11
-2 -3 2 240.28 13.6
-2 -3 2 238.58 12.6
-2 -3 2 237.08 13.1
1 3 -2 56.79 4.6
-1 -3 2 55.29 6.7
-1 -3 2 51.79 6.6
-1 -3 2 59.99 6.4
0 3 -2 852.71 25.2
0 -3 2 861.51 28.7
0 -3 2 834.12 28.8
0 -3 2 878.31 27.6
-1 3 -2 3690.53 100.99
1 -3 2 3690.63 104.09
1 -3 2 3589.34 102.79
1 -3 2 3618.64 104.09
-2 3 -2 470.45 19
-2 3 -2 478.05 20.6
2 -3 2 453.35 19.9
2 -3 2 479.25 20.9
2 -3 2 461.85 21.4
-3 3 -2 5.8 5
-3 3 -2 8 4.6
3 -3 2 5.2 5
3 -3 2 13.8 5.4
-4 3 -2 451.15 21.8
-4 3 -2 430.56 24.5
4 -3 2 396.86 24.5
4 -3 2 435.36 23
-5 3 -2 97.19 13.3
5 -3 2 87.89 15.4
5 -3 2 68.59 12.3
-6 3 -2 28.8 9.4
6 -3 2 17.2 9.4
6 -3 2 49.6 12.4
-7 3 -2 59.59 13.1
7 -3 2 60.39 13.8
-8 3 -2 16.9 9.9
8 -3 2 14.3 10.7
-9 3 -2 9 11.6
9 -3 2 4.4 12.4
9 2 -2 -3.2 8.4
-9 -2 2 12.1 12.8
8 2 -2 4.5 8.1
-8 -2 2 -7.2 8.3
-8 -2 2 -5.5 10
7 2 -2 150.48 18.9
-7 -2 2 144.69 20.3
-7 -2 2 142.29 19.2
6 2 -2 10.4 6.6
-6 -2 2 -5.2 6
-6 -2 2 8.1 8.8
5 2 -2 95.19 12.6
-5 -2 2 86.89 13.3
-5 -2 2 85.79 12.3
4 2 -2 180.78 18.1
4 2 -2 124.99 12.2
-4 -2 2 172.28 16.5
-4 -2 2 155.18 14.8
3 2 -2 9.6 5.2
3 2 -2 26 5.7
-3 -2 2 11.2 5.3
-3 -2 2 24.2 6.4
-3 -2 2 10.4 5.2
2 2 -2 597.54 21.1
-2 -2 2 587.74 22
-2 -2 2 556.04 22.4
-2 -2 2 575.64 23.1
1 2 -2 7878.21 210.28
1 2 -2 7696.83 206.38
-1 -2 2 7634.04 207.48
-1 -2 2 7515.35 208.78
-1 -2 2 7519.55 208.38
0 2 -2 1431.16 42.9
0 2 -2 1394.56 41.1
0 -2 2 1427.26 43.1
0 -2 2 1413.76 42.1
0 -2 2 1401.56 43.2
-1 2 -2 978.3 30.2
1 -2 2 899.81 31.5
1 -2 2 927.71 32
1 -2 2 961.8 30.8
-2 2 -2 125.99 10.6
-2 2 -2 126.49 10.3
2 -2 2 130.59 10.8
2 -2 2 110.49 10.7
-3 2 -2 2.7 4.3
-3 2 -2 1.1 5.2
3 -2 2 4.1 4.5
3 -2 2 0.4 4.8
-4 2 -2 5 5
-4 2 -2 2.4 5.7
4 -2 2 -4 4.5
4 -2 2 -4.8 5.1
-5 2 -2 63.09 12.5
-5 2 -2 58.89 11.1
5 -2 2 35.4 10.4
5 -2 2 26.1 8
-6 2 -2 217.98 21.1
6 -2 2 97.09 16.2
6 -2 2 140.69 18.2
-7 2 -2 3.3 8.2
7 -2 2 1.1 7.9
-8 2 -2 28.3 11.6
8 -2 2 28.3 12.4
-9 2 -2 5.4 11.4
9 -2 2 7.1 12.4
9 1 -2 4.3 8.8
-9 -1 2 -9.4 9.7
8 1 -2 20.1 10.2
-8 -1 2 16.6 10.9
7 1 -2 4.2 6.6
-7 -1 2 7.5 8.1
-7 -1 2 4 8.4
6 1 -2 11.7 7.5
-6 -1 2 6.7 7.4
-6 -1 2 19.9 8.7
5 1 -2 142.29 14.7
5 1 -2 114.39 15.2
-5 -1 2 176.18 19.2
-5 -1 2 124.39 14.3
4 1 -2 78.19 11.5
4 1 -2 76.09 9.7
-4 -1 2 67.19 10.4
-4 -1 2 92.49 12
3 1 -2 318.67 17.2
3 1 -2 296.57 15.4
-3 -1 2 313.77 16.4
-3 -1 2 306.77 16.9
2 1 -2 71.39 8.1
2 1 -2 62.29 7
-2 -1 2 71.79 7.3
-2 -1 2 78.59 8.4
1 1 -2 1302.47 40.8
1 1 -2 1291.67 39.8
-1 -1 2 1343.87 42.3
-1 -1 2 1383.76 41.3
0 1 -2 1238.08 38
0 1 -2 1277.97 37
0 -1 2 1231.48 37.5
0 -1 2 1186.68 37.9
-1 1 -2 2380.76 67.59
-1 1 -2 2279.67 68.59
1 -1 2 2401.46 69.39
-2 1 -2 161.88 10.2
-2 1 -2 163.08 11.6
2 -1 2 163.08 11.9
2 -1 2 154.28 10.3
-3 1 -2 17.1 6
-3 1 -2 34.1 8
3 -1 2 9.8 5.8
3 -1 2 12.9 5.2
-4 1 -2 540.25 27.8
-4 1 -2 572.94 26.1
4 -1 2 613.94 29.9
4 -1 2 528.75 26.1
-5 1 -2 11.6 6.9
-5 1 -2 22.7 9.6
5 -1 2 21.3 7.9
5 -1 2 13.3 8.1
-6 1 -2 9.5 7.6
-6 1 -2 1.5 7.9
6 -1 2 1.4 7.2
-7 1 -2 70.79 13.4
7 -1 2 92.59 16.1
-8 1 -2 0.4 9.4
8 -1 2 12.9 10.1
-9 1 -2 48.9 14.8
9 -1 2 36.5 14.7
9 0 -2 4.9 9.8
-9 0 2 23.7 13.1
8 0 -2 -0.5 8.2
-8 0 2 -3.6 9.1
7 0 -2 46.8 11.9
-7 0 2 62.99 14
6 0 -2 133.09 16
6 0 -2 156.08 20.1
-6 0 2 117.89 16.3
-6 0 2 180.48 20.9
5 0 -2 29.1 9.5
5 0 -2 33.2 8.2
-5 0 2 21.6 8
-5 0 2 37.2 10.2
4 0 -2 462.55 22
4 0 -2 428.56 23.3
-4 0 2 429.46 23.2
-4 0 2 438.46 21.7
3 0 -2 10.4 5.3
3 0 -2 11.3 4.6
-3 0 2 5.9 4.4
-3 0 2 20.5 6.2
2 0 -2 1169.28 36.8
-2 0 2 1124.49 38.4
-2 0 2 1178.98 37.1
1 0 -2 1423.76 43
1 0 -2 1402.06 41.9
-1 0 2 1404.36 43.3
-1 0 2 1461.75 42.4
0 0 -2 41.5 5.8
0 0 -2 69.79 6.7
0 0 -2 41.9 4.5
0 0 2 50.99 5.2
0 0 2 61.49 6.3
-1 0 -2 3148.98 89.79
-1 0 -2 3175.88 88.89
1 0 2 3204.98 89.09
1 0 2 3104.29 90.19
-2 0 -2 407.36 18.9
-2 0 -2 394.86 17.2
2 0 2 400.56 18.8
2 0 2 389.46 17.2
-3 0 -2 1025.7 38.6
-3 0 -2 984.3 36.5
3 0 2 1039.2 39.4
3 0 2 1046.9 37
-4 0 -2 206.68 19
-4 0 -2 168.08 15.4
4 0 2 202.98 16.8
4 0 2 170.58 15.7
-5 0 -2 368.76 22.3
-5 0 -2 404.16 24.7
5 0 2 320.57 20.6
-6 0 -2 133.89 17.2
-6 0 -2 164.58 20.9
6 0 2 155.08 18.8
-7 0 -2 2.6 7.6
-7 0 -2 -6.3 8.6
7 0 2 -8.8 7.3
-8 0 -2 -6.6 8.2
8 0 2 1 8.4
-9 0 -2 37.7 14.9
9 0 2 34.5 13.5
9 -1 -2 18.2 11.3
-9 1 2 10.1 11
8 -1 -2 12.8 9.7
-8 1 2 0.1 8.8
7 -1 -2 21.5 8.9
-7 1 2 18.4 9.7
6 -1 -2 15.6 9.5
6 -1 -2 15.3 7.8
-6 1 2 8.1 7
5 -1 -2 9 5.6
5 -1 -2 9.7 7.5
-5 1 2 9.5 6.8
-5 1 2 11.7 6.9
4 -1 -2 1117.99 40.9
4 -1 -2 1137.29 43.3
-4 1 2 1134.89 40.9
3 -1 -2 2647.14 79.69
3 -1 -2 2579.34 77.89
-3 1 2 2620.84 79.59
-3 1 2 2561.34 77.59
2 -1 -2 9312.87 260.17
2 -1 -2 9999 258.97
2 -1 -2 9570.54 260.27
-2 1 2 9527.25 258.47
-2 1 2 9327.27 260.27
1 -1 -2 359.66 14.5
1 -1 -2 364.26 14.6
1 -1 -2 363.26 13.9
-1 1 2 379.46 14.7
-1 1 2 366.76 13.4
0 -1 -2 713.03 22
0 -1 -2 710.03 23.4
0 -1 -2 687.23 23.1
0 1 2 705.53 21.7
-1 -1 -2 883.31 29.2
-1 -1 -2 820.12 28.6
-1 -1 -2 889.11 27.7
1 1 2 909.81 29
1 1 2 808.12 27.3
-2 -1 -2 3941.31 112.69
-2 -1 -2 3990.5 111.09
2 1 2 3808.42 110.69
-3 -1 -2 1296.47 43.7
-3 -1 -2 1224.58 44.9
3 1 2 1282.27 43.1
3 1 2 1268.37 45.5
-4 -1 -2 1790.32 62.59
-4 -1 -2 1726.33 60.49
4 1 2 1850.91 59.69
4 1 2 1863.21 63.89
-5 -1 -2 23.6 8.7
-5 -1 -2 20.7 8.6
5 1 2 10.4 6.4
-6 -1 -2 690.63 35.1
-6 -1 -2 721.03 37.6
6 1 2 631.44 32.7
-7 -1 -2 62.89 14.8
-7 -1 -2 36.2 12.3
7 1 2 71.39 13.9
-8 -1 -2 98.39 18.9
8 1 2 87.69 15.9
-9 -1 -2 7.2 11.5
9 1 2 -0.1 10.1
9 -2 -2 -0.6 9.8
-9 2 2 7.8 10.4
8 -2 -2 11.9 10.3
-8 2 2 14.2 10.4
7 -2 -2 7.2 9.9
7 -2 -2 11.7 8.3
-7 2 2 11.9 8.2
6 -2 -2 -0.9 6.2
6 -2 -2 1.5 7
-6 2 2 -0.5 5.8
5 -2 -2 41.4 9.9
5 -2 -2 33.9 9.1
-5 2 2 53.29 9.5
4 -2 -2 2186.98 69.79
4 -2 -2 2005.3 66.49
-4 2 2 2153.78 66.09
-4 2 2 2013.5 68.39
3 -2 -2 19 6.3
3 -2 -2 11.5 5.8
-3 2 2 10.9 4.5
2 -2 -2 1402.96 44.4
2 -2 -2 1402.66 44.6
2 -2 -2 1428.36 43.3
-2 2 2 1360.96 41.7
1 -2 -2 616.24 21.2
1 -2 -2 597.44 20.9
1 -2 -2 638.64 19.8
-1 2 2 603.44 17.7
0 -2 -2 395.06 14.6
0 -2 -2 388.86 14.8
0 -2 -2 397.26 13.2
-1 -2 -2 257.17 10.8
-1 -2 -2 239.98 11.7
-1 -2 -2 232.28 11.5
1 2 2 237.18 8.6
-2 -2 -2 2.3 3.6
-2 -2 -2 4.8 3.9
-2 -2 -2 6.3 4.3
2 2 2 -1.9 2.7
-3 -2 -2 405.16 19.9
-3 -2 -2 439.86 21.8
-3 -2 -2 407.46 21
3 2 2 409.76 18.6
-4 -2 -2 78.29 12.2
-4 -2 -2 114.29 13.5
4 2 2 64.69 9.5
-5 -2 -2 277.97 20.2
-5 -2 -2 280.97 21.2
5 2 2 261.47 18
-6 -2 -2 237.38 24.4
-6 -2 -2 292.57 26.5
6 2 2 316.47 21.3
-7 -2 -2 2.3 8.6
-7 -2 -2 -8.5 8.1
7 2 2 -3.7 7.8
-8 -2 -2 53.09 14.3
-8 -2 -2 19.1 12.7
9 -3 -2 6.4 10.8
-9 3 2 15.2 11.4
8 -3 -2 8.6 11.9
8 -3 -2 9.6 10.7
-8 3 2 1.6 8.5
7 -3 -2 14.6 9.1
7 -3 -2 1.5 8.5
-7 3 2 5.2 7.6
6 -3 -2 36.5 10
6 -3 -2 83.69 15.7
-6 3 2 41.7 9.7
5 -3 -2 7.3 6.8
5 -3 -2 4.1 5.4
-5 3 2 6.2 5.5
4 -3 -2 1239.98 43.1
4 -3 -2 1170.28 45.2
4 -3 -2 1233.48 45.8
-4 3 2 1147.59 40.5
3 -3 -2 262.87 15.7
3 -3 -2 248.38 13.8
3 -3 -2 257.37 15.6
-3 3 2 245.48 12.2
2 -3 -2 185.58 10.3
2 -3 -2 200.18 11.5
2 -3 -2 194.38 11.4
-2 3 2 198.28 7.2
1 -3 -2 3.9 2.7
1 -3 -2 8 2.5
1 -3 -2 10.1 3.4
0 -3 -2 2.9 2.5
0 -3 -2 3.2 2.2
0 -3 -2 -1.5 1.5
-1 -3 -2 1.1 2.5
-1 -3 -2 2.7 2.7
-1 -3 -2 2.3 2.6
-2 -3 -2 87.09 9.6
-2 -3 -2 77.99 9.4
-2 -3 -2 79.19 8.1
-3 -3 -2 253.67 16.4
-3 -3 -2 282.37 16.2
-3 -3 -2 277.57 16.8
3 3 2 271.87 12.8
-4 -3 -2 0.6 5.9
-4 -3 -2 9.3 5.9
4 3 2 17.5 5
-5 -3 -2 16.3 8.3
-5 -3 -2 9.3 7.9
5 3 2 18.8 7.4
-6 -3 -2 2.3 7.8
-6 -3 -2 3.9 7.8
-7 -3 -2 24.5 11.4
-7 -3 -2 25.1 12.2
-8 -3 -2 16 13.1
-8 -3 -2 16.1 13.6
9 -4 -2 8.7 12.8
-9 4 2 22.3 11.9
8 -4 -2 27.3 12.3
8 -4 -2 5.4 10.1
-8 4 2 53.99 12.3
7 -4 -2 25.1 9.9
7 -4 -2 28 12.3
-7 4 2 10.3 7.6
6 -4 -2 33.7 10
6 -4 -2 15.1 8.8
-6 4 2 21.5 7.7
5 -4 -2 9 6.5
5 -4 -2 -0.7 6.1
-5 4 2 14 5.9
4 -4 -2 20.7 6.2
4 -4 -2 21.2 7.1
-4 4 2 18.4 5.2
3 -4 -2 324.77 16
3 -4 -2 320.87 17.7
3 -4 -2 311.17 17.3
-3 4 2 296.17 10.9
2 -4 -2 252.57 13.1
2 -4 -2 257.07 12
2 -4 -2 242.68 12.9
1 -4 -2 581.24 18.1
1 -4 -2 587.04 19.8
1 -4 -2 587.24 19.6
0 -4 -2 266.67 10.3
0 -4 -2 270.67 10.3
-1 -4 -2 28.7 4.8
-1 -4 -2 39.5 5.3
-1 -4 -2 26.5 4
-2 -4 -2 28.4 5.7
-2 -4 -2 36.7 6.6
-2 -4 -2 40 6.7
-3 -4 -2 1.9 4.8
-3 -4 -2 -1.5 3.8
-4 -4 -2 23.5 8
-4 -4 -2 29.5 8.7
-5 -4 -2 -5.3 6.1
-5 -4 -2 2.2 7.6
-6 -4 -2 2.2 8
-6 -4 -2 5.1 8.9
-7 -4 -2 -3.5 9.9
-7 -4 -2 -2 9.3
9 -5 -2 21.6 13.7
8 -5 -2 1.6 9.5
8 -5 -2 17.2 11.1
7 -5 -2 13.4 9.4
7 -5 -2 -4.8 7.6
6 -5 -2 49 12.1
6 -5 -2 44.6 12.2
5 -5 -2 118.49 15.4
5 -5 -2 139.99 15.9
4 -5 -2 -4.9 4
4 -5 -2 1.5 4.3
3 -5 -2 59.79 9.4
3 -5 -2 68.99 9.4
2 -5 -2 13.8 4.5
2 -5 -2 22.7 4.8
2 -5 -2 21 4.6
1 -5 -2 457.85 16.1
1 -5 -2 479.35 16.1
-1 -5 -2 49.99 5.5
-2 -5 -2 56.89 7.6
-2 -5 -2 50.79 7.4
-3 -5 -2 20.8 6.5
-4 -5 -2 3.9 5.4
-5 -5 -2 28.7 9.6
-6 -5 -2 2.5 7.4
-7 -5 -2 8.8 10.4
8 -6 -2 -7.6 9.9
8 -6 -2 20.5 12.3
7 -6 -2 15 10.3
7 -6 -2 20.9 10.9
6 -6 -2 16.2 9.2
6 -6 -2 30.4 9.9
5 -6 -2 40.4 10.2
5 -6 -2 37.6 11.1
4 -6 -2 4.7 5.2
3 -6 -2 84.39 10.5
2 -6 -2 42 5.9
2 -6 -2 34.9 5.7
-2 -6 -2 2.7 3.6
-2 -6 -2 2 3.6
-3 -6 -2 -0.9 4.1
-4 -6 -2 -4.7 5.5
-5 -6 -2 -8.4 6
-6 -6 -2 -1.2 8
7 -7 -2 25 10.6
6 -7 -2 0.8 6.2
5 -7 -2 11.4 7.2
4 -7 -2 19.2 7.4
3 -7 -2 2 4.4
2 -7 -2 52.59 5.5
2 -7 -2 65.49 6.3
-2 -7 -2 18.2 4.1
-2 -7 -2 24 4.4
-3 -7 -2 0.7 4.1
-4 -7 -2 3.8 5.9
-5 -7 -2 1.4 7
6 -8 -2 12.6 9.2
5 -8 -2 5.3 7.6
4 -8 -2 22.3 7.6
3 -8 -2 19.1 5.3
-3 -8 -2 1.3 4.1
-4 -8 -2 -3 5.1
4 -9 -2 25.5 7.4
1 -10 3 22.5 5.8
2 -10 3 1.1 5.3
3 -10 3 29.5 9.2
-4 -9 3 4.4 6.3
-3 -9 3 22.9 7.2
-2 -9 3 9.4 5.2
-1 -9 3 5.1 4.2
0 -9 3 9.3 4.8
1 -9 3 67.69 9.4
2 -9 3 14.9 7.1
3 -9 3 18.6 8.4
4 -9 3 7 7.9
5 -9 3 17.3 8.9
-5 -8 3 2 6.7
-4 -8 3 17.1 7.6
-3 -8 3 21.3 7.2
-2 -8 3 152.58 12.4
-1 -8 3 13.9 5.6
0 -8 3 134.69 12.7
1 -8 3 198.28 15
2 -8 3 4.1 5.1
3 -8 3 -0.6 5.7
4 -8 3 -0.8 5.8
5 -8 3 11.7 8.5
6 -8 3 8.9 9.3
-6 -7 3 7 8.9
-5 -7 3 20 9.3
-4 -7 3 21.4 7.3
-3 -7 3 23.6 7
-2 -7 3 5.3 4.9
-1 -7 3 43.6 8
0 -7 3 50.09 7.9
1 -7 3 8.2 5.3
2 -7 3 11.7 6.5
3 -7 3 51.09 10.3
4 -7 3 30.6 9.4
4 -7 3 26 9.4
5 -7 3 12.7 8.5
5 -7 3 15.8 10.1
6 -7 3 -2.1 7.4
6 -7 3 -7.5 7.9
7 -7 3 14.8 12.3
7 -7 3 2.9 9.6
-7 -6 3 9.1 9.5
-6 -6 3 7 8.1
-5 -6 3 18 8.4
-4 -6 3 -0.7 5.5
-3 -6 3 13.7 6
-2 -6 3 34 7.4
-1 -6 3 6.6 4.5
-1 -6 3 7.8 4.8
-1 -6 3 12.3 5.3
0 -6 3 62.69 8.3
0 -6 3 77.29 10
0 -6 3 84.99 10
1 -6 3 19.6 5.9
1 -6 3 9.4 5.1
1 -6 3 15.6 5.8
2 -6 3 152.58 14.5
2 -6 3 157.98 16.2
3 -6 3 51.19 10.1
3 -6 3 82.69 12.5
4 -6 3 99.69 15
4 -6 3 103.79 14.9
5 -6 3 13.8 8.5
5 -6 3 9.9 8.8
6 -6 3 28.3 12
6 -6 3 10.2 8.4
7 -6 3 3.6 8.8
7 -6 3 14 11.3
8 -6 3 55.09 16
8 -6 3 71.39 18
-8 -5 3 11.8 12.6
-8 -5 3 24.7 13.2
-7 -5 3 4.9 9.9
-7 -5 3 2.7 8.5
-6 -5 3 -3.6 7.9
-6 -5 3 4.7 8.8
-5 -5 3 44.9 11.3
-5 -5 3 71.09 12.7
-4 -5 3 -1 5.3
-4 -5 3 0.7 5.2
-3 -5 3 -3.1 4
-3 -5 3 1.1 4.6
-2 -5 3 195.28 13.3
-2 -5 3 206.68 13.8
-2 -5 3 176.48 13
-1 -5 3 19.4 5.4
-1 -5 3 1.9 4
-1 -5 3 13.2 4.9
0 -5 3 73.49 9.5
0 -5 3 72.39 9
0 -5 3 70.99 8.2
-1 5 -3 746.03 21.9
1 -5 3 733.53 30.1
1 -5 3 740.63 28.6
1 -5 3 760.32 29.7
-2 5 -3 71.99 7.1
2 -5 3 63.99 9.7
2 -5 3 49.6 8.8
2 -5 3 50.79 8.5
-3 5 -3 740.33 28
3 -5 3 700.23 31.3
3 -5 3 771.32 34
-4 5 -3 162.08 14.5
4 -5 3 139.49 16.3
4 -5 3 102.79 14.6
-5 5 -3 67.69 11.5
5 -5 3 81.19 15.5
5 -5 3 58.79 12.5
-6 5 -3 14.9 7.6
6 -5 3 13.4 10.2
6 -5 3 24.5 10.7
-7 5 -3 8.6 8.8
7 -5 3 31 12.9
7 -5 3 -0.2 8.3
-8 5 -3 -3.9 9
8 -5 3 -8.4 9.5
-8 -4 3 -0.9 10.1
-8 -4 3 8.8 10.2
-7 -4 3 151.88 21.4
-7 -4 3 152.08 19.3
-6 -4 3 46.1 12.6
-6 -4 3 87.39 15.1
5 4 -3 15.5 6.1
-5 -4 3 9.5 7.2
-5 -4 3 2.5 6.7
4 4 -3 8.7 4.7
-4 -4 3 11.4 5.8
-4 -4 3 16.2 6.8
3 4 -3 118.09 8.6
-3 -4 3 96.99 11.8
-3 -4 3 119.09 14
-3 -4 3 158.28 14
2 4 -3 45.8 5.3
-2 -4 3 31.5 6.9
-2 -4 3 42.5 7.8
-2 -4 3 25 6.1
1 4 -3 11.9 3
-1 -4 3 21.3 5.5
-1 -4 3 14.6 4.9
-1 -4 3 20.1 5.2
0 4 -3 277.47 11.1
0 -4 3 281.47 13.9
0 -4 3 273.07 15.3
0 -4 3 297.87 15.2
-1 4 -3 11.4 3.8
1 -4 3 10 4.7
1 -4 3 14 5.6
1 -4 3 13.3 5.1
-2 4 -3 37.5 6.2
2 -4 3 39.5 7.5
2 -4 3 32.9 7.5
2 -4 3 49.7 8.8
-3 4 -3 65.19 9.3
3 -4 3 56.29 11
3 -4 3 92.29 11.9
-4 4 -3 177.38 13.4
4 -4 3 131.99 16.6
4 -4 3 121.29 14.9
-5 4 -3 65.89 11.2
5 -4 3 102.99 15.6
5 -4 3 54.19 13.2
-6 4 -3 -1.9 6.5
6 -4 3 11.2 8
6 -4 3 -1.1 8.2
-7 4 -3 54.99 13.1
7 -4 3 20.6 11.7
7 -4 3 37.9 13.9
-8 4 -3 20.1 10.7
8 -4 3 13.1 11.8
-9 -3 3 20.1 12.8
8 3 -3 42 11.9
-8 -3 3 37.7 13.8
-8 -3 3 38 13.6
7 3 -3 12.6 7.9
-7 -3 3 27.2 12.2
-7 -3 3 30 10.9
6 3 -3 28.6 8.9
-6 -3 3 33 10.4
-6 -3 3 24.8 10
5 3 -3 81.19 10.9
-5 -3 3 56.99 12.6
-5 -3 3 73.09 12.5
4 3 -3 243.68 14.9
-4 -3 3 207.08 15.4
-4 -3 3 227.68 17
3 3 -3 4.8 4
3 3 -3 -1.7 4.4
-3 -3 3 -1.3 4.2
-3 -3 3 1.3 4.3
-3 -3 3 -1.9 3.7
2 3 -3 159.88 9.7
-2 -3 3 162.78 12.3
-2 -3 3 169.18 11.6
-2 -3 3 159.98 11.1
1 3 -3 507.65 18.7
-1 -3 3 518.45 21.4
-1 -3 3 545.25 20.8
-1 -3 3 497.15 21
0 3 -3 -0.2 2.6
0 -3 3 1.6 3.7
0 -3 3 2.4 3.6
0 -3 3 0.7 3.6
-1 3 -3 46.7 7
-1 3 -3 76.19 8
1 -3 3 86.49 9.9
1 -3 3 75.49 8.7
1 -3 3 51.19 7.9
-2 3 -3 5.4 4.2
-2 3 -3 9.6 4.4
2 -3 3 5.3 4.5
2 -3 3 4.4 4.8
2 -3 3 1.1 4.2
-3 3 -3 147.99 15.2
-3 3 -3 125.39 11.9
3 -3 3 152.78 16.2
3 -3 3 122.69 13.6
-4 3 -3 524.15 24.6
4 -3 3 474.45 27.5
4 -3 3 494.85 25.9
-5 3 -3 202.88 19.1
5 -3 3 174.08 20.5
5 -3 3 223.28 20.7
-6 3 -3 198.58 20.9
6 -3 3 209.98 22.9
6 -3 3 103.99 17.2
-7 3 -3 -14.6 6.6
7 -3 3 2.1 8.5
-8 3 -3 -5.7 8.6
8 -3 3 -5.5 8.9
-9 3 -3 9.4 11.9
9 -3 3 2.4 12.1
9 2 -3 10.3 10.5
-9 -2 3 25.4 13.7
8 2 -3 -4 7.4
-8 -2 3 -6.4 8.9
-8 -2 3 0.2 10.4
7 2 -3 136.59 17.7
-7 -2 3 171.88 24
-7 -2 3 125.19 19
6 2 -3 103.99 13.9
-6 -2 3 124.29 19.3
-6 -2 3 51.09 11.2
5 2 -3 11.1 6
-5 -2 3 16.6 7
-5 -2 3 22.7 8.6
4 2 -3 348.97 21.2
4 2 -3 381.56 19.7
-4 -2 3 391.06 22.1
-4 -2 3 372.96 20.4
3 2 -3 175.58 11.7
3 2 -3 182.48 16.2
-3 -2 3 138.59 13
-3 -2 3 190.08 17
2 2 -3 68.09 8.9
2 2 -3 42.8 6.2
-2 -2 3 59.59 8.6
-2 -2 3 38.2 6.5
-2 -2 3 55.59 7.5
1 2 -3 176.38 11.3
1 2 -3 211.98 10.8
-1 -2 3 216.08 12.3
-1 -2 3 199.58 12
-1 -2 3 200.68 11.4
0 2 -3 1161.08 37.3
0 2 -3 1160.78 38.7
0 -2 3 1157.88 39.1
0 -2 3 1218.38 39.7
0 -2 3 1214.98 38.6
-1 2 -3 338.27 16.7
-1 2 -3 321.47 15
1 -2 3 321.97 15.9
-2 2 -3 193.98 13.2
-2 2 -3 189.78 11.8
2 -2 3 167.88 12
2 -2 3 191.48 13.9
-3 2 -3 66.69 9.6
-3 2 -3 69.79 10.8
3 -2 3 55.09 9.8
3 -2 3 63.69 9.9
-4 2 -3 241.08 16.8
-4 2 -3 276.07 20
4 -2 3 310.67 19
4 -2 3 275.97 20
-5 2 -3 21.3 8
-5 2 -3 29.1 11.5
5 -2 3 18.5 8.4
5 -2 3 13.7 7.4
-6 2 -3 72.79 13.8
6 -2 3 51.79 12
-7 2 -3 9.6 9.1
7 -2 3 10.3 8.7
-8 2 -3 37.7 13.3
8 -2 3 21.5 12.8
-9 2 -3 6.2 11.7
9 -2 3 0.8 10.6
9 1 -3 9.1 10.1
-9 -1 3 11.1 11.8
8 1 -3 33.5 11.4
-8 -1 3 73.59 15.7
7 1 -3 1.7 6.9
-7 -1 3 14.2 9.8
-7 -1 3 -3.6 8.9
6 1 -3 422.96 25
-6 -1 3 424.66 28.1
-6 -1 3 413.56 25.6
5 1 -3 247.08 20
5 1 -3 287.97 18.8
-5 -1 3 299.87 19.8
-5 -1 3 311.57 21.4
4 1 -3 54.59 9.1
4 1 -3 48.7 9.1
-4 -1 3 45.8 8.9
-4 -1 3 74.59 11.4
3 1 -3 555.84 24.8
3 1 -3 567.14 23.3
-3 -1 3 564.24 23.6
-3 -1 3 504.65 24.7
2 1 -3 329.17 16.1
2 1 -3 301.17 14.4
-2 -1 3 287.07 16
-2 -1 3 308.17 15.2
1 1 -3 136.09 10.2
1 1 -3 160.98 9.1
-1 -1 3 157.08 10.6
-1 -1 3 133.29 9.5
0 1 -3 6349.56 172.68
0 1 -3 6277.27 171.08
0 -1 3 6077.69 172.48
0 -1 3 6192.28 171.38
-1 1 -3 41.2 6.4
-1 1 -3 15.1 4.7
1 -1 3 40 6.4
-2 1 -3 778.82 28.7
-2 1 -3 792.02 30.3
2 -1 3 772.52 29.4
2 -1 3 729.63 30.7
-3 1 -3 277.47 17.9
-3 1 -3 281.37 16.2
3 -1 3 282.57 18.3
3 -1 3 239.38 15.8
-4 1 -3 367.76 23.6
-4 1 -3 391.16 21.8
4 -1 3 413.56 24.6
4 -1 3 410.26 21.9
-5 1 -3 1.3 5.9
-5 1 -3 0.4 7.1
5 -1 3 5 7.6
5 -1 3 3.5 6.7
-6 1 -3 370.56 36.6
-6 1 -3 325.77 23.4
6 -1 3 288.07 26.2
-7 1 -3 11 8.9
7 -1 3 6.5 8.1
-8 1 -3 8.3 10.7
8 -1 3 3.4 9.6
-9 1 -3 0.3 11.9
9 -1 3 -0.9 10.5
9 0 -3 -2.7 9.5
-9 0 3 5.6 11.1
8 0 -3 5.9 8.4
-8 0 3 -1.8 8.2
7 0 -3 189.58 21.1
-7 0 3 194.98 22.3
6 0 -3 -0.1 6.8
6 0 -3 6.5 7
-6 0 3 -2.1 6.5
-6 0 3 14.6 9
5 0 -3 87.89 12.7
5 0 -3 97.69 14.6
-5 0 3 88.59 14.2
-5 0 3 74.79 11.2
4 0 -3 80.19 10.2
4 0 -3 76.29 11.1
-4 0 3 103.99 13.1
-4 0 3 86.69 11.7
3 0 -3 5.2 5.2
3 0 -3 3.3 4.3
-3 0 3 2.2 4.3
-3 0 3 10.6 6
2 0 -3 85.39 9.7
2 0 -3 110.19 10.2
-2 0 3 72.29 8.7
-2 0 3 84.19 8.5
1 0 -3 40.2 6.5
1 0 -3 64.59 7.4
-1 0 3 69.99 8.7
-1 0 3 39.5 6
0 0 -3 54.39 7.2
0 0 -3 55.99 6.4
0 0 3 69.39 8.4
0 0 3 59.79 6.9
-1 0 -3 21.2 5.1
-1 0 -3 30 5.3
1 0 3 15.5 4.9
1 0 3 18.7 5.4
-2 0 -3 889.31 33
-2 0 -3 807.72 30.8
2 0 3 842.82 31.3
2 0 3 897.81 33.4
-3 0 -3 19.4 7.1
-3 0 -3 11.4 5.4
3 0 3 8.8 6
3 0 3 11 5.6
-4 0 -3 -2.8 5.8
-4 0 -3 2.1 5.5
4 0 3 8.2 6.2
4 0 3 0.8 5.8
-5 0 -3 11.8 7.1
-5 0 -3 10 8.3
5 0 3 5.3 6.2
-6 0 -3 15.7 10
-6 0 -3 3.1 7.1
6 0 3 3.6 6.8
-7 0 -3 26 11.5
7 0 3 11 8.8
-8 0 -3 9.8 10.1
8 0 3 55.49 13.8
9 0 3 11.8 11.7
9 -1 -3 85.79 18.3
-9 1 3 143.99 22.9
8 -1 -3 0.4 7.8
-8 1 3 23.7 10.9
7 -1 -3 31.5 10.2
-7 1 3 26.8 10.2
6 -1 -3 -8 6.2
6 -1 -3 0.6 6.2
-6 1 3 -4.3 6.5
5 -1 -3 123.29 14.4
5 -1 -3 134.99 16.5
-5 1 3 161.28 18
-5 1 3 115.09 13.8
4 -1 -3 50.39 10.5
4 -1 -3 80.59 11
-4 1 3 74.99 11.1
-4 1 3 73.29 9.9
3 -1 -3 161.18 14.9
3 -1 -3 120.39 11.1
-3 1 3 149.79 11.3
-3 1 3 186.98 16.3
2 -1 -3 31.9 6.5
2 -1 -3 32.8 6.1
2 -1 -3 64.99 8.6
-2 1 3 33.3 6.2
-2 1 3 59.49 7.3
1 -1 -3 -2.4 3.3
1 -1 -3 4.7 3.5
1 -1 -3 2.6 3.6
-1 1 3 7.4 3.4
-1 1 3 5.1 3.1
0 -1 -3 110.49 8.6
0 -1 -3 118.29 9.2
0 -1 -3 107.79 7.8
0 1 3 109.89 7.5
0 1 3 124.39 9.1
-1 -1 -3 303.87 15.3
-1 -1 -3 330.77 14.7
-1 -1 -3 315.57 15.9
1 1 3 321.37 15.7
1 1 3 327.17 14.2
-2 -1 -3 1009.3 36.6
-2 -1 -3 999.2 35
-2 -1 -3 1005.3 37.2
2 1 3 1003.6 34.5
-3 -1 -3 52.49 8.4
-3 -1 -3 75.29 11.8
3 1 3 73.79 9.4
3 1 3 49.6 9.2
-4 -1 -3 397.26 21.6
-4 -1 -3 326.57 22.4
4 1 3 382.36 20.9
-5 -1 -3 22 8.5
-5 -1 -3 34.4 11.3
5 1 3 23.5 8
-6 -1 -3 732.43 39.5
-6 -1 -3 679.83 35.2
6 1 3 638.54 33.8
-7 -1 -3 74.29 18.1
-7 -1 -3 59.89 14.2
7 1 3 106.79 17.5
-8 -1 -3 37.2 14.4
8 1 3 24.4 11.4
9 -2 -3 -2.8 9.4
-9 2 3 8.3 10.5
8 -2 -3 28.7 11.5
-8 2 3 45.7 13.8
7 -2 -3 44.8 12.6
7 -2 -3 53.19 12.7
-7 2 3 31.4 11.3
6 -2 -3 11.7 7.3
6 -2 -3 9.8 8
-6 2 3 10.3 7.4
5 -2 -3 38.9 8.8
5 -2 -3 43.4 10.3
-5 2 3 51.19 9.3
4 -2 -3 297.17 17.8
4 -2 -3 352.06 20.4
-4 2 3 283.27 16.7
-4 2 3 317.27 19.4
3 -2 -3 639.84 26.7
3 -2 -3 598.04 26.3
3 -2 -3 628.94 25
-3 2 3 568.54 23.5
2 -2 -3 94.99 8.8
2 -2 -3 143.39 12.6
2 -2 -3 120.49 11.2
-2 2 3 128.79 8
1 -2 -3 1905.61 57.39
1 -2 -3 1934.01 57.19
1 -2 -3 1890.51 55.79
-1 2 3 1877.71 53.99
0 -2 -3 27 5.2
0 -2 -3 42.4 5.2
0 -2 -3 43.6 6.6
0 2 3 34.6 3.6
-1 -2 -3 45.2 6.8
-1 -2 -3 32 6.2
-1 -2 -3 44 6
1 2 3 38.3 4.6
-2 -2 -3 36 7
-2 -2 -3 45 7.9
-2 -2 -3 39.6 6.7
2 2 3 33.9 5.5
-3 -2 -3 263.87 17.8
-3 -2 -3 271.57 18
-3 -2 -3 255.67 16.1
3 2 3 312.57 15.6
-4 -2 -3 7 6.6
-4 -2 -3 -2.3 5.2
4 2 3 3.7 4.6
-5 -2 -3 719.23 35.1
-5 -2 -3 784.52 38.3
5 2 3 727.83 33
-6 -2 -3 115.39 17.4
-6 -2 -3 114.59 19.9
6 2 3 138.69 17
-7 -2 -3 251.57 27.1
-7 -2 -3 368.56 30.1
7 2 3 239.78 23.5
-8 -2 -3 6.3 12.7
-8 -2 -3 6.4 11.7
9 -3 -3 5.4 10.5
-9 3 3 -5.7 9.2
8 -3 -3 -9.3 9.5
8 -3 -3 7.2 10.1
-8 3 3 6 8.9
7 -3 -3 1.8 8.2
7 -3 -3 -0.4 9.4
-7 3 3 -4.9 7.5
6 -3 -3 11.8 8.3
6 -3 -3 20.4 8.3
-6 3 3 29 8.8
5 -3 -3 7.6 5.5
5 -3 -3 11 7.2
-5 3 3 7.1 5.8
4 -3 -3 687.63 31
-4 3 3 658.63 26.7
3 -3 -3 3.3 4.1
3 -3 -3 9.7 4.6
3 -3 -3 1.7 4.6
-3 3 3 5.4 3.5
2 -3 -3 440.06 19.7
2 -3 -3 461.25 18.1
2 -3 -3 411.96 19.3
-2 3 3 449.56 14.5
1 -3 -3 49.9 6.5
1 -3 -3 61.29 6.1
1 -3 -3 52.59 6.5
0 -3 -3 264.47 12.4
0 -3 -3 249.88 12.8
0 -3 -3 277.87 11.5
-1 -3 -3 24.7 5.2
-1 -3 -3 20.5 4.9
-1 -3 -3 12.2 3.9
-2 -3 -3 164.68 12.1
-2 -3 -3 172.88 12.7
-2 -3 -3 164.88 11.4
2 3 3 172.08 7.3
-3 -3 -3 15.3 6.2
-3 -3 -3 10.6 5.6
3 3 3 9.1 3.7
-4 -3 -3 43.2 9.9
-4 -3 -3 38.5 9.5
-5 -3 -3 99.99 16.1
-5 -3 -3 90.79 14.7
-6 -3 -3 240.88 25.9
-6 -3 -3 248.78 25.4
-7 -3 -3 13.9 10.4
-7 -3 -3 9.7 10.9
-8 -3 -3 30.8 15.3
-8 -3 -3 23.4 14.2
9 -4 -3 8.9 11.3
8 -4 -3 18.5 11.4
8 -4 -3 27.4 14.1
-8 4 3 13.3 9.6
7 -4 -3 10.7 9
7 -4 -3 11.2 9.8
-7 4 3 14.5 7.9
6 -4 -3 1286.97 55.39
6 -4 -3 1332.77 53.29
-6 4 3 1404.46 49.6
5 -4 -3 7.1 6.4
5 -4 -3 21.2 7.6
-5 4 3 18.3 6.2
4 -4 -3 68.79 11.2
-4 4 3 81.99 8.5
3 -4 -3 42.4 7.3
3 -4 -3 17.8 6
3 -4 -3 33.1 7
2 -4 -3 11.2 4.2
2 -4 -3 17.6 4.7
2 -4 -3 17.2 4.9
1 -4 -3 98.69 8
1 -4 -3 115.89 7.9
1 -4 -3 98.29 6.8
0 -4 -3 86.89 6.7
0 -4 -3 96.19 7.1
0 -4 -3 74.39 6.3
-1 -4 -3 9.3 3.8
-1 -4 -3 10 4.2
-1 -4 -3 9.2 3.8
-2 -4 -3 61.19 8.7
-2 -4 -3 54.89 8.1
-2 -4 -3 43.8 7.2
-3 -4 -3 11.7 5.8
-3 -4 -3 16.6 6.6
-4 -4 -3 226.08 18.7
-4 -4 -3 257.77 20.9
-5 -4 -3 -4.7 7
-5 -4 -3 8 7.7
-6 -4 -3 -1.9 8.6
-6 -4 -3 -6.7 8.6
-7 -4 -3 0.2 10.5
-7 -4 -3 1.3 10.8
8 -5 -3 46.9 16.1
8 -5 -3 69.79 16.1
7 -5 -3 0.6 7.8
7 -5 -3 12.6 10.5
6 -5 -3 69.59 13.5
6 -5 -3 73.59 14.6
5 -5 -3 114.79 15.5
5 -5 -3 188.48 18.3
4 -5 -3 4.4 5.3
4 -5 -3 7.9 5.6
3 -5 -3 17.9 6
3 -5 -3 23.9 6.2
2 -5 -3 -0.2 4
2 -5 -3 3.3 3.6
1 -5 -3 -0.8 2.7
1 -5 -3 0.8 2.7
0 -5 -3 3.8 2.8
0 -5 -3 7 3.1
-1 -5 -3 195.68 11
-1 -5 -3 181.38 10.8
-2 -5 -3 41.5 7.5
-3 -5 -3 55.19 9.6
-4 -5 -3 26.6 8.4
-5 -5 -3 -0.6 7.2
-6 -5 -3 15.6 9.9
8 -6 -3 22.7 13.4
8 -6 -3 30.4 13.1
7 -6 -3 104.69 17.6
7 -6 -3 113.19 19.7
6 -6 -3 2.7 7.8
6 -6 -3 3.5 7.9
5 -6 -3 113.09 15.4
4 -6 -3 4.3 5.2
3 -6 -3 115.39 12.3
2 -6 -3 34.5 5.9
2 -6 -3 30.5 5.7
1 -6 -3 4.3 2.7
-1 -6 -3 207.18 10.2
-1 -6 -3 198.68 10.2
-2 -6 -3 2.8 4.4
-3 -6 -3 27.9 7.7
-4 -6 -3 55.69 10.8
-5 -6 -3 24.3 9.3
-6 -6 -3 4.2 8.5
7 -7 -3 7.3 9
6 -7 -3 -3.6 6.6
5 -7 -3 4.9 6.5
4 -7 -3 40.3 9.1
3 -7 -3 92.69 10.7
2 -7 -3 15.3 4.1
2 -7 -3 11.7 4
-2 -7 -3 12 4.4
-3 -7 -3 2.9 4.9
-4 -7 -3 0.1 6.1
6 -8 -3 -7.4 5.9
5 -8 -3 21.3 8.6
4 -8 -3 -1 5.1
3 -8 -3 2.8 4.1
-3 -8 -3 2.6 4.4
4 -9 -3 9.6 5.8
-1 -10 4 -1.4 4.8
0 -10 4 -2.6 4.7
1 -10 4 39 8.8
2 -10 4 57.59 11.5
-4 -9 4 21.9 9.3
-3 -9 4 -4.6 5.3
-2 -9 4 10.9 6.4
-1 -9 4 7.2 5.4
0 -9 4 31.8 7.9
1 -9 4 96.19 13.2
2 -9 4 1.3 5.9
3 -9 4 -1.8 6.6
-5 -8 4 5.3 8.2
-4 -8 4 14.9 7.3
-3 -8 4 -0.7 5.3
-2 -8 4 18.1 7
-1 -8 4 296.37 18.6
0 -8 4 1.6 5.1
1 -8 4 187.48 18.2
2 -8 4 0.8 5.9
3 -8 4 11.3 8.3
5 -8 4 6.8 8.1
6 -8 4 8.9 9.5
-6 -7 4 1.4 8.9
-5 -7 4 0.2 6.7
-4 -7 4 7 6.6
-3 -7 4 59.29 10.9
-2 -7 4 285.57 18.7
-1 -7 4 776.12 33
0 -7 4 176.78 14.6
1 -7 4 109.69 13.8
2 -7 4 11.4 7.1
3 -7 4 19.5 8.8
3 -7 4 20.7 9.3
4 -7 4 16.4 8.8
4 -7 4 13 7.8
5 -7 4 -1.5 7.7
5 -7 4 -1.7 6.5
6 -7 4 -3.5 7.4
6 -7 4 -0.7 9.2
7 -7 4 0.9 11.2
7 -7 4 -1.7 8.9
-7 -6 4 27.2 12
-7 -6 4 35.9 14.1
-6 -6 4 49.9 14
-6 -6 4 48.1 13.1
-5 -6 4 25.7 9.5
-5 -6 4 26 10
-4 -6 4 38.6 10.2
-4 -6 4 38.4 9.6
-3 -6 4 137.89 15.7
-3 -6 4 102.19 13.3
-2 -6 4 107.29 13.6
-2 -6 4 120.29 13.4
-1 -6 4 3 4.9
-1 -6 4 2.4 4.9
0 -6 4 18.4 6.1
0 -6 4 38.4 8.5
1 -6 4 11.3 5.4
1 -6 4 14.9 5.9
2 -6 4 28.7 8.4
2 -6 4 37.8 8.9
3 -6 4 36.4 9.3
3 -6 4 17.4 7.1
4 -6 4 94.89 15.6
4 -6 4 84.29 14
5 -6 4 5.2 8.4
5 -6 4 13.1 9.3
6 -6 4 17.5 11.6
6 -6 4 11.2 9.3
7 -6 4 1.2 10.5
7 -6 4 5.7 10.1
-8 -5 4 12.4 11.2
-8 -5 4 14.1 11.8
-7 -5 4 36.4 12.4
-7 -5 4 38.2 13.7
-6 -5 4 134.59 19.1
-6 -5 4 166.78 21
-5 -5 4 18.3 9.3
-5 -5 4 11.9 7.5
-4 -5 4 241.78 19.3
-4 -5 4 249.28 17.8
-3 -5 4 17.9 7.3
-3 -5 4 10.2 5.9
-2 -5 4 19.6 7
-2 -5 4 25.8 6.9
1 5 -4 1.5 2.4
-1 -5 4 -5 3.6
-1 -5 4 0.8 4.5
-1 -5 4 4.7 4.4
0 5 -4 370.66 14.4
0 -5 4 393.76 20.1
0 -5 4 386.86 19.3
0 -5 4 363.56 20.3
-1 5 -4 25.1 4.7
1 -5 4 31.7 8.1
1 -5 4 21.7 6.5
1 -5 4 34.5 7.4
-2 5 -4 198.18 11.7
2 -5 4 128.99 14.9
2 -5 4 194.68 16.9
-3 5 -4 62.99 9.1
3 -5 4 48 9.8
3 -5 4 84.99 12.2
-4 5 -4 95.19 12.1
4 -5 4 120.29 15.7
4 -5 4 104.79 16
-5 5 -4 67.59 11.9
5 -5 4 49.2 12.6
5 -5 4 81.39 15.3
-6 5 -4 24.4 9.8
6 -5 4 22.8 10.8
6 -5 4 4.6 8.9
-7 5 -4 16 9.9
7 -5 4 4.8 8.9
7 -5 4 3 10.5
-8 5 -4 -0.1 9.9
8 -5 4 12.4 12.9
-8 -4 4 -2 9.3
-8 -4 4 -1.1 10
-7 -4 4 21.6 10.9
-7 -4 4 13.4 11.1
6 4 -4 13.1 7.4
-6 -4 4 18.1 9.7
-6 -4 4 14 9.7
5 4 -4 40.2 8.7
-5 -4 4 33.9 9.8
-5 -4 4 51.39 11.3
4 4 -4 17.6 5.8
-4 -4 4 13.2 6.6
-4 -4 4 17 7.6
3 4 -4 147.49 12.4
-3 -4 4 139.79 14.4
-3 -4 4 133.49 14.5
2 4 -4 248.68 12.9
-2 -4 4 233.38 16.3
-2 -4 4 242.28 15.8
-2 -4 4 257.77 15.5
1 4 -4 206.18 10.9
-1 -4 4 185.28 12.8
-1 -4 4 202.58 13.6
-1 -4 4 197.38 13.8
0 4 -4 0.4 3.1
0 -4 4 4.1 4.5
0 -4 4 2.6 4.7
0 -4 4 1 3.9
-1 4 -4 1539.75 47.5
1 -4 4 1514.75 51.19
1 -4 4 1444.26 49.6
1 -4 4 1433.76 51.89
-2 4 -4 433.96 19.9
2 -4 4 422.26 22.9
2 -4 4 402.86 22.6
2 -4 4 442.76 22.3
-3 4 -4 73.29 10.3
3 -4 4 76.79 12.2
3 -4 4 80.69 12.4
-4 4 -4 10.5 6.4
4 -4 4 4.9 6.4
4 -4 4 6.1 7.3
-5 4 -4 159.48 17.4
5 -4 4 160.78 19.2
5 -4 4 170.48 22
-6 4 -4 21.8 9.3
6 -4 4 10 8.4
6 -4 4 29.8 11.2
-7 4 -4 15.4 10.2
7 -4 4 5.9 10.6
-8 4 -4 8.5 10.6
8 -4 4 22.9 12.6
9 3 -4 4.7 11.1
-9 -3 4 -5.4 10.6
8 3 -4 27.9 10.8
-8 -3 4 28.6 14.8
-8 -3 4 17 11.8
7 3 -4 1.4 7.3
-7 -3 4 -6.3 8.9
-7 -3 4 -2.4 8
6 3 -4 55.59 10.7
-6 -3 4 93.39 16.2
-6 -3 4 54.19 12.8
5 3 -4 5.9 5.4
-5 -3 4 1.4 6.1
-5 -3 4 8.7 6.8
4 3 -4 55.39 9.1
-4 -3 4 55.09 10.3
-4 -3 4 95.99 14.2
3 3 -4 272.87 15
3 3 -4 164.58 14.3
-3 -3 4 268.87 16.5
-3 -3 4 272.07 17.6
-3 -3 4 222.48 15.3
2 3 -4 27 5.7
-2 -3 4 31.3 7.4
-2 -3 4 50.09 8.7
-2 -3 4 36.2 7.5
1 3 -4 208.78 12
-1 -3 4 237.78 14
-1 -3 4 213.78 13.5
-1 -3 4 226.88 14.8
0 3 -4 2821.32 83.09
0 -3 4 2893.21 86.09
0 -3 4 2774.42 86.39
0 -3 4 2828.72 85.09
-1 3 -4 1.3 4.1
-1 3 -4 8.7 4.5
1 -3 4 7.8 5.5
1 -3 4 0.3 4
-2 3 -4 51.69 8.9
-2 3 -4 88.49 10.2
2 -3 4 90.29 12.2
2 -3 4 71.69 10.8
-3 3 -4 46.6 10
-3 3 -4 36.2 7.8
3 -3 4 37.8 9
3 -3 4 22.5 7.8
-4 3 -4 17.9 7.5
4 -3 4 16.8 7.3
4 -3 4 21.9 8.3
-5 3 -4 10.2 7.3
5 -3 4 7.4 8.2
5 -3 4 14.3 8.5
-6 3 -4 77.59 14.3
6 -3 4 123.49 22.5
6 -3 4 143.19 19.7
-7 3 -4 41.6 13
7 -3 4 26.9 11.9
-8 3 -4 30.1 12.7
8 -3 4 22.3 12.2
9 2 -4 41.7 13.4
-9 -2 4 43.5 16.6
8 2 -4 0 8.3
-8 -2 4 2.4 9.8
7 2 -4 74.69 13.9
-7 -2 4 90.89 15.9
-7 -2 4 57.99 14.8
6 2 -4 29.2 9.2
-6 -2 4 8.7 9.5
-6 -2 4 14.8 8.9
5 2 -4 246.48 17.7
-5 -2 4 281.97 20.6
-5 -2 4 236.18 18.3
4 2 -4 20.3 8
4 2 -4 16.3 6.4
-4 -2 4 17.6 6.6
-4 -2 4 27.9 8.7
3 2 -4 74.99 10.9
3 2 -4 95.09 10.7
-3 -2 4 67.09 11
-3 -2 4 79.69 10.3
2 2 -4 184.28 12.2
2 2 -4 200.88 14
-2 -2 4 202.38 13.2
-2 -2 4 209.58 14.9
1 2 -4 897.81 31.5
1 2 -4 917.41 34.1
-1 -2 4 898.91 34
-1 -2 4 911.41 32.7
0 2 -4 1486.55 47.3
0 2 -4 1478.95 49.2
0 -2 4 1483.45 48.5
0 -2 4 1516.55 50.29
-1 2 -4 180.18 13.4
-1 2 -4 222.78 13.1
1 -2 4 203.38 14.7
1 -2 4 210.08 13.4
-2 2 -4 110.79 12.2
-2 2 -4 180.58 12.6
2 -2 4 175.48 14
2 -2 4 188.28 13.7
-3 2 -4 358.86 19.7
-3 2 -4 349.07 21.4
3 -2 4 354.76 20.3
3 -2 4 364.16 22.6
-4 2 -4 12.8 6.1
-4 2 -4 13.8 8
4 -2 4 9.3 6.9
4 -2 4 23.5 8.9
-5 2 -4 31.1 9.3
5 -2 4 45.1 11.2
5 -2 4 32.2 9.2
-6 2 -4 69.79 13.9
6 -2 4 58.29 13.6
-7 2 -4 4.5 8.8
7 -2 4 17.3 10.1
-8 2 -4 3.9 9.9
8 -2 4 13.8 11.1
9 1 -4 4.3 9.6
-9 -1 4 -2.9 9.9
8 1 -4 -2.8 7.6
-8 -1 4 10.3 9.8
7 1 -4 27.9 10.5
-7 -1 4 14.1 10.3
6 1 -4 104.59 15.2
-6 -1 4 70.39 13.4
-6 -1 4 85.89 13.3
5 1 -4 365.16 21.7
5 1 -4 412.86 25
-5 -1 4 366.66 23.1
-5 -1 4 360.96 23.6
4 1 -4 777.82 34.6
-4 -1 4 782.82 35.1
-4 -1 4 792.62 32.8
3 1 -4 1955.3 66.49
3 1 -4 2087.49 64.19
-3 -1 4 1976.7 64.49
-3 -1 4 2049.89 66.79
2 1 -4 5.7 4.6
2 1 -4 3.9 5.1
-2 -1 4 5.1 4.7
-2 -1 4 7.3 5.4
1 1 -4 1481.25 47.2
1 1 -4 1486.65 49
-1 -1 4 1448.96 48.5
-1 -1 4 1456.95 47.4
0 1 -4 2260.87 68.99
0 1 -4 2227.48 67.09
0 -1 4 2222.78 69.19
0 -1 4 2163.58 67.29
-1 1 -4 445.66 19.9
-1 1 -4 466.05 21.9
1 -1 4 456.45 22.2
1 -1 4 474.95 21.1
-2 1 -4 301.67 16.5
-2 1 -4 314.57 17.9
2 -1 4 265.37 16
2 -1 4 284.07 17.7
-3 1 -4 1085.79 42.1
-3 1 -4 1049.3 39.5
3 -1 4 1012.1 40.2
3 -1 4 1055.19 42.7
-4 1 -4 52.59 11.4
-4 1 -4 41.9 9
4 -1 4 56.49 12.5
4 -1 4 64.19 11.5
-5 1 -4 153.58 20.6
-5 1 -4 85.69 14.1
5 -1 4 128.09 16.4
-6 1 -4 14.4 8.9
6 -1 4 38.3 11.2
-7 1 -4 85.89 16.9
7 -1 4 83.99 16.7
-8 1 -4 24.7 12.9
8 -1 4 -5.3 8.7
9 0 -4 -3.2 9.4
-9 0 4 -9.5 10
8 0 -4 -1.9 8.1
-8 0 4 17.3 9.8
7 0 -4 2.9 6.6
-7 0 4 3.1 8.2
6 0 -4 12.9 7.2
6 0 -4 11.3 8.7
-6 0 4 4 6.3
-6 0 4 -7.7 5.7
5 0 -4 185.48 17.2
5 0 -4 185.28 19.4
-5 0 4 209.58 21
-5 0 4 183.18 17.4
4 0 -4 67.99 10.5
4 0 -4 56.89 10.5
-4 0 4 87.09 11.6
-4 0 4 88.39 13.1
3 0 -4 137.99 14.2
3 0 -4 149.09 13.5
-3 0 4 179.28 16.4
-3 0 4 131.29 12.4
2 0 -4 840.62 32.4
-2 0 4 857.51 30.8
-2 0 4 833.22 32.8
1 0 -4 9.5 4.6
1 0 -4 4.6 4.5
-1 0 4 11.3 4.8
-1 0 4 12.2 4.6
0 0 -4 128.09 9.7
0 0 -4 126.39 10.5
0 0 4 139.59 12.6
0 0 4 133.39 9.9
-1 0 -4 367.36 19.3
-1 0 -4 384.96 18
1 0 4 410.06 20.2
1 0 4 419.86 18.9
-2 0 -4 673.83 27.8
-2 0 -4 741.83 30.3
2 0 4 697.43 28.2
2 0 4 709.13 30
-3 0 -4 8.7 6
-3 0 -4 16.4 7.4
3 0 4 10.5 5.6
3 0 4 16.7 7.9
-4 0 -4 103.39 16
-4 0 -4 87.79 12.9
4 0 4 93.59 12.7
-5 0 -4 16.5 8.6
-5 0 -4 22.3 10.1
5 0 4 7.6 7.2
-6 0 -4 29.7 11.2
-6 0 -4 24.7 13.1
6 0 4 19.6 9.3
-7 0 -4 92.69 18.2
7 0 4 80.69 16.4
-8 0 -4 3.9 11
8 0 4 1.1 10
9 -1 -4 3.8 9.7
-9 1 4 -3.8 9.8
8 -1 -4 33.5 12.5
-8 1 4 13.9 10.8
7 -1 -4 17.1 11.8
7 -1 -4 -0.7 8
-7 1 4 -1.8 8.3
6 -1 -4 38 11.5
6 -1 -4 24 9.1
-6 1 4 20.8 8.4
5 -1 -4 6.7 5.7
5 -1 -4 -6.9 5.4
-5 1 4 0.7 4.8
-5 1 4 -1.3 5.6
4 -1 -4 -2.2 4.8
4 -1 -4 -1.4 5
-4 1 4 0.6 4.7
-4 1 4 3.3 5.7
3 -1 -4 8.5 5.3
3 -1 -4 5 4.8
-3 1 4 0.4 5.4
-3 1 4 6.7 4.6
2 -1 -4 2.7 4.2
2 -1 -4 -3.4 3.5
2 -1 -4 -0.5 4.5
-2 1 4 1 3.2
-2 1 4 -1.5 4.2
1 -1 -4 543.55 21.9
1 -1 -4 607.84 24.5
1 -1 -4 568.04 23.9
-1 1 4 567.94 21.7
0 -1 -4 763.72 29.4
0 -1 -4 729.83 28.7
0 -1 -4 790.52 27.3
0 1 4 732.83 26.6
-1 -1 -4 83.59 10
-1 -1 -4 150.58 11.7
-1 -1 -4 148.69 10.6
1 1 4 131.39 9.6
-2 -1 -4 732.43 30.7
-2 -1 -4 738.43 29.4
-2 -1 -4 763.92 31.8
2 1 4 757.72 29.4
-3 -1 -4 29.3 7.8
-3 -1 -4 37.7 9.2
3 1 4 33.9 10.5
3 1 4 32.5 7.4
-4 -1 -4 46.6 10.8
-4 -1 -4 43.5 9.6
4 1 4 34.2 8.4
-5 -1 -4 6.1 7.8
-5 -1 -4 0.4 7.4
5 1 4 -1 5.7
-6 -1 -4 10.3 10.3
-6 -1 -4 6.1 8.4
6 1 4 14 8.9
-7 -1 -4 3.7 9.4
-7 -1 -4 6.4 11.9
7 1 4 5.2 9.2
-8 -1 -4 6.3 12.5
8 1 4 13.6 11.3
9 -2 -4 37.2 13.3
-9 2 4 32.9 14.3
8 -2 -4 99.59 17.7
-8 2 4 163.48 22
7 -2 -4 30.5 10.9
7 -2 -4 37.6 13.8
-7 2 4 32.3 10.6
6 -2 -4 3 6.6
6 -2 -4 8.6 7.8
-6 2 4 5 6.4
5 -2 -4 680.43 31.6
5 -2 -4 640.84 33.2
-5 2 4 695.53 30.5
4 -2 -4 216.28 20
4 -2 -4 204.68 14.6
-4 2 4 202.88 14.4
3 -2 -4 95.99 12.4
3 -2 -4 89.69 11.3
3 -2 -4 102.69 11.2
-3 2 4 84.89 11.6
-3 2 4 132.99 10
2 -2 -4 179.78 12.7
2 -2 -4 195.08 13
2 -2 -4 180.98 11.4
-2 2 4 191.78 11
1 -2 -4 198.98 11.7
1 -2 -4 208.58 12.8
1 -2 -4 206.48 13.1
-1 2 4 201.28 10.1
0 -2 -4 92.19 9.1
0 -2 -4 75.09 9.5
0 -2 -4 49.8 7.8
0 2 4 61.59 6.2
-1 -2 -4 253.17 13.7
-1 -2 -4 229.88 14.7
-1 -2 -4 240.48 14.9
1 2 4 272.17 12.2
-2 -2 -4 266.17 17.1
-2 -2 -4 288.77 16.1
-2 -2 -4 249.58 16.3
2 2 4 286.17 14.3
-3 -2 -4 21.5 7.4
-3 -2 -4 18.6 7
3 2 4 32.4 7.2
-4 -2 -4 0.2 6.1
-4 -2 -4 -2.8 6.1
4 2 4 1.9 5
-5 -2 -4 35.3 10.1
-5 -2 -4 31 11.1
5 2 4 45.6 9.6
-6 -2 -4 50.49 12.9
-6 -2 -4 43.1 14
6 2 4 56.39 11.8
-7 -2 -4 8.6 10.1
-7 -2 -4 13.1 11.4
-8 -2 -4 52.09 17
-8 -2 -4 55.49 17.8
9 -3 -4 -7.5 10.1
-9 3 4 21.9 11.7
8 -3 -4 0.4 11.9
8 -3 -4 2.3 9.4
-8 3 4 3.9 8.7
7 -3 -4 265.37 26.2
7 -3 -4 162.38 22
-7 3 4 284.67 25.3
6 -3 -4 13.9 8.2
6 -3 -4 0.3 7.2
-6 3 4 3.6 6.8
5 -3 -4 17.8 7.8
5 -3 -4 9.7 7.4
-5 3 4 15.2 6.5
4 -3 -4 69.39 9.9
4 -3 -4 123.29 14.8
-4 3 4 144.59 12.8
3 -3 -4 5.4 4.8
3 -3 -4 16.4 5.8
3 -3 -4 14.4 6.4
-3 3 4 12 4.2
2 -3 -4 132.59 10.7
2 -3 -4 139.29 12.6
2 -3 -4 138.09 11.3
-2 3 4 124.39 7.1
1 -3 -4 23 5.1
1 -3 -4 38 6.6
1 -3 -4 36.2 7.1
0 -3 -4 125.59 9.1
0 -3 -4 146.39 10.9
0 -3 -4 124.89 9.7
-1 -3 -4 54.29 8.4
-1 -3 -4 60.89 8.6
-1 -3 -4 65.79 8
-2 -3 -4 201.18 14.7
-2 -3 -4 188.28 13.9
-2 -3 -4 168.48 12.9
2 3 4 229.78 12.6
-3 -3 -4 15.3 6.5
-3 -3 -4 11.5 6.7
-4 -3 -4 4.6 6.3
-4 -3 -4 -5 6.3
-5 -3 -4 79.29 14.7
-5 -3 -4 107.39 16.2
-6 -3 -4 6 10
-6 -3 -4 10 10.4
-7 -3 -4 7.4 11.1
-7 -3 -4 10.7 11.2
9 -4 -4 10.8 11.9
9 -4 -4 17.7 14.2
8 -4 -4 8.8 12.1
8 -4 -4 2.3 9.3
7 -4 -4 -9.4 7.3
7 -4 -4 3.6 8.5
6 -4 -4 312.47 24.4
6 -4 -4 280.27 21.6
5 -4 -4 39.9 10.5
5 -4 -4 34.4 9.2
4 -4 -4 14.9 6.4
4 -4 -4 11.4 6.4
3 -4 -4 7.2 5.1
3 -4 -4 -4.5 3.6
2 -4 -4 25.8 5.5
2 -4 -4 19.3 5.6
2 -4 -4 29.1 6.5
1 -4 -4 3.4 3.8
1 -4 -4 15 4.5
1 -4 -4 11.9 4.6
0 -4 -4 7.1 4
0 -4 -4 6.7 3.8
0 -4 -4 9.6 4.3
-1 -4 -4 61.29 8.6
-1 -4 -4 64.09 8
-1 -4 -4 59.69 8.4
-2 -4 -4 2.4 4.9
-2 -4 -4 -2.6 3.6
-3 -4 -4 105.59 13.1
-3 -4 -4 91.49 12.5
-4 -4 -4 9.1 7.8
-4 -4 -4 -1.6 7
-5 -4 -4 14.1 9.8
-5 -4 -4 21.6 9.7
-6 -4 -4 8.3 9.1
-6 -4 -4 7.1 10.4
-7 -4 -4 -6.4 11
-7 -4 -4 1.9 9.9
8 -5 -4 37.5 15.3
8 -5 -4 73.89 17.4
7 -5 -4 9.4 10.2
7 -5 -4 7.9 10
6 -5 -4 148.99 18.4
6 -5 -4 145.89 20
5 -5 -4 202.08 19.7
5 -5 -4 184.88 20.1
4 -5 -4 2.1 5.3
4 -5 -4 7.3 5.7
3 -5 -4 26.9 8
3 -5 -4 24 6.8
2 -5 -4 90.19 10.1
2 -5 -4 77.49 9.7
1 -5 -4 14.3 5
1 -5 -4 13.3 4.5
0 -5 -4 11.7 4.4
0 -5 -4 11.4 4.2
-1 -5 -4 346.37 18
-1 -5 -4 373.96 18.1
-2 -5 -4 17.2 6.5
-3 -5 -4 57.49 10.6
-4 -5 -4 41.6 10.4
-5 -5 -4 3.7 7.8
-6 -5 -4 0.6 8.7
8 -6 -4 33.7 13.8
8 -6 -4 32 13.6
7 -6 -4 -8 7.4
7 -6 -4 -9.6 9
6 -6 -4 6.6 7.9
5 -6 -4 9.2 7.3
4 -6 -4 85.09 12.5
3 -6 -4 0 4.2
2 -6 -4 67.39 8.8
1 -6 -4 12.3 4.5
0 -6 -4 94.99 8.8
0 -6 -4 94.19 8.4
-1 -6 -4 2.5 3.5
-2 -6 -4 102.99 11.6
-3 -6 -4 4.5 5.7
-4 -6 -4 5.4 6.6
-5 -6 -4 -0.6 7.1
7 -7 -4 9.5 9
6 -7 -4 3 7.7
5 -7 -4 -2.5 5.5
4 -7 -4 10 6
3 -7 -4 10.5 5.8
2 -7 -4 36.2 6.1
-1 -7 -4 19.3 4.1
-2 -7 -4 1.3 3.9
-3 -7 -4 -0.1 5.2
-4 -7 -4 -6.3 5.7
5 -8 -4 28.4 9.4
4 -8 -4 -7.1 4.4
3 -8 -4 9.9 4.8
-1 -10 5 -6.3 5.8
0 -10 5 3.4 6.4
1 -10 5 1.6 5.7
2 -10 5 -2.5 7.2
-4 -9 5 4.6 7
-3 -9 5 -0.3 6
-2 -9 5 15 7.4
-1 -9 5 15 7.7
0 -9 5 10 6.9
1 -9 5 15.7 7.6
2 -9 5 25.1 9.7
3 -9 5 12.6 8.6
4 -9 5 2.7 9.9
-5 -8 5 1.4 7.6
-4 -8 5 -0.2 6.3
-3 -8 5 -7 5.5
-2 -8 5 28.4 8.5
-1 -8 5 -3 5.6
0 -8 5 16.7 7.2
1 -8 5 43.9 11.1
2 -8 5 17.3 8.5
3 -8 5 12 9
4 -8 5 12.2 9.8
5 -8 5 5.4 11.9
6 -8 5 2.1 11.8
-6 -7 5 48.9 13.7
-5 -7 5 5.3 7.8
-4 -7 5 5.8 7.2
-3 -7 5 8.6 7.1
-2 -7 5 19.2 7.5
-1 -7 5 115.99 15.4
0 -7 5 230.98 18.5
1 -7 5 47.2 10.4
1 -7 5 33.6 9.6
2 -7 5 181.88 20.1
2 -7 5 205.78 20.4
3 -7 5 34.8 11
3 -7 5 17 8.9
4 -7 5 82.69 15.7
5 -7 5 6.5 7.9
5 -7 5 -1.6 9.8
6 -7 5 -3.5 9.8
6 -7 5 -2.2 7.9
-7 -6 5 1.1 10.4
-7 -6 5 5.5 11
-6 -6 5 2.5 8.5
-6 -6 5 14.2 10.9
-5 -6 5 5.5 7.8
-5 -6 5 17.9 8.8
-4 -6 5 0.8 6.8
-4 -6 5 12.7 7.6
-3 -6 5 387.76 24
-3 -6 5 350.06 22.2
-2 -6 5 35.4 8.7
-2 -6 5 24.3 8
-1 -6 5 112.19 13.9
-1 -6 5 97.79 13.3
0 -6 5 3.6 6
0 -6 5 1.7 5.3
1 -6 5 92.19 13.8
1 -6 5 57.39 10.5
2 -6 5 29.3 9.3
2 -6 5 21.6 8.7
3 -6 5 115.49 15.6
3 -6 5 131.69 17.7
4 -6 5 23.5 10.5
4 -6 5 22.5 9.2
5 -6 5 -0.2 7.2
5 -6 5 4.2 9.2
6 -6 5 15.1 11.2
6 -6 5 0.2 7.7
7 -6 5 57.99 17.5
7 -6 5 10.5 10.2
-8 -5 5 26.4 13.2
-8 -5 5 13.5 12.3
-7 -5 5 0 9.7
-7 -5 5 9.3 10
-6 -5 5 81.99 16.3
-6 -5 5 61.99 13.7
-5 -5 5 120.09 16
-5 -5 5 68.29 13.5
-4 -5 5 4.7 6.6
-4 -5 5 4.1 6.4
3 5 -5 628.34 25.4
-3 -5 5 661.43 31.8
-3 -5 5 630.64 30
2 5 -5 6.7 4.2
-2 -5 5 0.8 5.3
-2 -5 5 4.4 5.9
1 5 -5 6.2 3.6
-1 -5 5 12.7 6.5
-1 -5 5 6.4 5.6
0 5 -5 485.35 20.5
0 -5 5 528.65 26.8
0 -5 5 523.15 25.2
-1 5 -5 130.79 11.5
1 -5 5 125.19 14.8
1 -5 5 156.38 15.1
-2 5 -5 119.99 12.2
2 -5 5 104.59 15.1
2 -5 5 88.09 12.7
-3 5 -5 30.5 7.8
3 -5 5 22 8.2
3 -5 5 36.7 9.7
-4 5 -5 36.7 8.7
4 -5 5 16.6 8.6
4 -5 5 24.6 9.6
-5 5 -5 4.3 7.1
5 -5 5 1.7 6.8
5 -5 5 13.3 9
-6 5 -5 -2.9 7
6 -5 5 17.1 10.1
6 -5 5 -6.8 8
-7 5 -5 11.3 10.5
7 -5 5 -0.5 10.7
-8 -4 5 15.9 11.6
-8 -4 5 10 11.6
7 4 -5 -6.1 6.7
-7 -4 5 -3.9 8.5
-7 -4 5 -13 8.2
6 4 -5 75.49 11.9
-6 -4 5 118.49 17.2
-6 -4 5 152.48 21.5
5 4 -5 440.76 23.4
-5 -4 5 358.46 26.1
-5 -4 5 383.86 24.5
4 4 -5 332.27 18.6
-4 -4 5 282.87 21.7
-4 -4 5 317.87 20.4
3 4 -5 20.9 6.2
-3 -4 5 14.2 6.6
-3 -4 5 15.9 7.5
2 4 -5 254.47 14.2
-2 -4 5 266.47 17
-2 -4 5 228.48 17.3
1 4 -5 64.49 8.2
-1 -4 5 38.1 8.3
-1 -4 5 91.69 12.1
-1 -4 5 98.69 12.4
0 4 -5 9.4 5.1
0 4 -5 7.4 4.5
0 -4 5 5.7 5.3
0 -4 5 8.1 5.7
0 -4 5 13.1 6.6
-1 4 -5 379.26 18.4
1 -4 5 373.56 20.4
1 -4 5 356.06 22.1
1 -4 5 377.36 21.7
-2 4 -5 8 5.2
2 -4 5 3.9 5.5
2 -4 5 9.5 6.5
-3 4 -5 52.19 9.2
3 -4 5 59.09 12
3 -4 5 54.79 11.4
-4 4 -5 41.1 9.9
4 -4 5 70.79 14
4 -4 5 29.6 9.7
-5 4 -5 18.3 8.5
5 -4 5 10.9 8.7
5 -4 5 10.3 9.3
-6 4 -5 2.4 7.3
6 -4 5 6 8
6 -4 5 -1.2 9
-7 4 -5 75.29 15.6
7 -4 5 107.39 19.2
-8 4 -5 10.2 11.3
8 -4 5 4.8 11.9
9 3 -5 0.9 9
-9 -3 5 -0.8 10.2
8 3 -5 -5.4 7.1
-8 -3 5 1 12.2
-8 -3 5 -1.5 9.6
7 3 -5 4 7.9
-7 -3 5 19.7 11.1
-7 -3 5 8.7 10.3
6 3 -5 232.78 21.3
-6 -3 5 231.98 24.3
-6 -3 5 211.98 23.7
5 3 -5 32.6 8.6
-5 -3 5 46.5 12.4
-5 -3 5 27 9.6
4 3 -5 464.65 23.7
-4 -3 5 507.15 28.1
-4 -3 5 493.25 25.6
3 3 -5 155.98 14.5
3 3 -5 112.29 13.9
-3 -3 5 167.68 15.6
-3 -3 5 162.68 17.7
2 3 -5 348.27 18.1
2 3 -5 337.07 20.1
-2 -3 5 352.86 20.7
-2 -3 5 339.97 19.3
1 3 -5 2514.55 79.59
1 3 -5 2500.45 76.19
-1 -3 5 2530.85 80.29
-1 -3 5 2450.35 77.99
0 3 -5 817.42 31.8
0 3 -5 818.42 33.6
0 -3 5 861.21 33.2
0 -3 5 838.82 35
-1 3 -5 797.82 32.9
-1 3 -5 751.82 30.1
1 -3 5 795.12 33.9
1 -3 5 685.63 30.7
-2 3 -5 1.4 4.8
-2 3 -5 7 5.1
2 -3 5 0.3 5.6
2 -3 5 1.5 4.8
-3 3 -5 7.7 5.9
-3 3 -5 2.9 5.5
3 -3 5 4.8 5.6
3 -3 5 5.7 5.8
-4 3 -5 2.8 5.9
4 -3 5 5.4 7
4 -3 5 1.1 7.2
-5 3 -5 54.89 11.8
5 -3 5 39.9 11.9
5 -3 5 59.49 12.7
-6 3 -5 44.9 12.3
6 -3 5 24 10.1
-7 3 -5 15.4 10.5
7 -3 5 21.6 12.7
-8 3 -5 -0.5 10.2
8 -3 5 -2.9 10.4
9 2 -5 6.8 10.3
-9 -2 5 -0.5 10.4
8 2 -5 22.5 10.2
-8 -2 5 15.5 11.5
7 2 -5 24.7 10.2
-7 -2 5 21.1 10.5
-7 -2 5 46 14.8
6 2 -5 10.2 7.5
-6 -2 5 20.7 9.4
-6 -2 5 15 9.3
5 2 -5 12.9 7.2
-5 -2 5 16.4 9.1
-5 -2 5 12.2 7.4
4 2 -5 391.16 24.3
-4 -2 5 436.96 25.6
-4 -2 5 416.26 23.3
3 2 -5 25.2 6.5
3 2 -5 31 8
-3 -2 5 21.8 7.8
-3 -2 5 16.7 6.2
2 2 -5 2.6 5.4
2 2 -5 -0.1 4.1
-2 -2 5 1.5 5.4
-2 -2 5 -3.9 4.5
1 2 -5 505.95 25.3
1 2 -5 578.74 23.7
-1 -2 5 529.65 25.8
-1 -2 5 580.84 24.6
0 2 -5 43.4 7.7
0 2 -5 53.89 9.3
0 -2 5 36.3 7.7
0 -2 5 39.4 8.7
-1 2 -5 82.89 10.1
-1 2 -5 71.89 11.1
1 -2 5 56.19 8.8
1 -2 5 71.79 10.9
-2 2 -5 58.49 11
-2 2 -5 48.2 8.7
2 -2 5 56.69 10.8
2 -2 5 59.09 9.8
-3 2 -5 -1.8 4.9
-3 2 -5 -1.7 5.2
3 -2 5 8.5 6.6
3 -2 5 -5.7 4.5
-4 2 -5 60.59 11.3
-4 2 -5 53.79 11.6
4 -2 5 56.09 11.7
4 -2 5 30.4 9.4
-5 2 -5 0.8 6.3
5 -2 5 21.5 9.3
-6 2 -5 43.9 12.1
6 -2 5 49.6 13.5
-7 2 -5 181.88 23.7
7 -2 5 207.78 25.7
-8 2 -5 7.6 10.7
8 -2 5 13.4 12.6
9 1 -5 3.7 10.3
-9 -1 5 1.4 10.8
8 1 -5 -4.1 7.6
-8 -1 5 6.9 9.2
7 1 -5 31.4 11.3
-7 -1 5 24.9 10
6 1 -5 231.78 22
-6 -1 5 297.77 27.7
-6 -1 5 254.37 24.2
5 1 -5 428.96 27.4
5 1 -5 468.25 25.5
-5 -1 5 459.45 25.9
-5 -1 5 461.95 28.1
4 1 -5 187.78 17.4
4 1 -5 225.38 21.5
-4 -1 5 150.78 16.9
-4 -1 5 218.98 15.9
3 1 -5 64.79 10
3 1 -5 73.19 11.8
-3 -1 5 105.79 13.7
-3 -1 5 62.39 9.6
2 1 -5 33.4 8.3
2 1 -5 45.6 8.1
-2 -1 5 30.1 7.1
-2 -1 5 38.6 8.4
1 1 -5 61.69 9
1 1 -5 24.7 6.7
-1 -1 5 52.39 8.5
-1 -1 5 80.39 11.6
0 1 -5 173.68 13.5
0 1 -5 187.48 12.8
0 -1 5 176.98 14.6
0 -1 5 174.78 12.9
-1 1 -5 0.1 4.5
-1 1 -5 14.7 6.3
1 -1 5 15.9 6.4
1 -1 5 12.8 6.5
-2 1 -5 949.01 37.1
-2 1 -5 1002.2 39.8
2 -1 5 992.9 40.3
2 -1 5 988 38.1
-3 1 -5 6.1 6.3
-3 1 -5 -1.1 4.8
3 -1 5 -1.6 4.9
3 -1 5 -1.9 5.6
-4 1 -5 18.9 9.9
-4 1 -5 26.5 8.4
4 -1 5 16.8 8.4
-5 1 -5 262.17 27.1
-5 1 -5 193.48 20.8
5 -1 5 228.18 22.6
-6 1 -5 8 8.6
6 -1 5 -2.9 7.5
-7 1 -5 12.9 9.5
7 -1 5 7.6 10.4
-8 1 -5 1 10.7
8 -1 5 12.7 11.1
9 0 -5 -3.7 9.4
-9 0 5 -13.3 9.3
8 0 -5 119.79 19
-8 0 5 113.79 18.7
7 0 -5 9.5 8.8
-7 0 5 12.3 9.1
6 0 -5 15.1 10
6 0 -5 16.7 8.7
-6 0 5 -2.3 6.1
5 0 -5 51.99 10.4
5 0 -5 48.6 11.5
-5 0 5 58.39 11.5
-5 0 5 46.2 10.7
4 0 -5 622.44 31.5
4 0 -5 653.53 29.2
-4 0 5 642.94 29.3
-4 0 5 646.14 31.8
3 0 -5 3.7 4.7
3 0 -5 4 4.9
-3 0 5 7.2 5.9
-3 0 5 2.1 5.4
2 0 -5 1832.42 59.99
2 0 -5 1834.02 57.69
-2 0 5 1775.92 60.49
-2 0 5 1737.13 57.69
1 0 -5 180.38 13.7
1 0 -5 153.18 11.3
-1 0 5 153.38 13.4
-1 0 5 189.28 16.4
0 0 -5 875.21 31.8
0 0 -5 820.72 33.2
0 0 5 812.42 33.8
0 0 5 865.31 31.9
-1 0 -5 36.1 8.4
-1 0 -5 48.8 8.4
1 0 5 43.3 9.6
1 0 5 48.9 8.2
-2 0 -5 4.3 5.1
-2 0 -5 -6.6 4.1
2 0 5 4.9 5.7
2 0 5 4.6 5.3
-3 0 -5 242.88 18.4
-3 0 -5 212.58 15.9
3 0 5 208.88 15.9
3 0 5 219.58 17.9
-4 0 -5 253.87 19.4
-4 0 -5 252.57 20.8
4 0 5 288.67 19.3
-5 0 -5 3.9 8.8
-5 0 -5 3 7.5
5 0 5 5.2 6.9
-6 0 -5 42.7 14.1
-6 0 -5 16.8 9.3
6 0 5 16 9.4
-7 0 -5 36.6 13.3
7 0 5 39.5 13
-8 0 -5 -2.3 11.2
8 0 5 5.2 10.6
9 -1 -5 39.6 13.9
-9 1 5 30.3 14
8 -1 -5 4.7 9.7
-8 1 5 22.4 10.9
7 -1 -5 45.4 14
7 -1 -5 51.39 13.2
-7 1 5 28.3 11.7
6 -1 -5 2.6 6.9
6 -1 -5 8.8 9.4
-6 1 5 -2.4 5.8
5 -1 -5 144.89 18.5
-5 1 5 143.49 15.6
4 -1 -5 23.5 7.9
4 -1 -5 27.8 8
-4 1 5 24.7 7.4
-4 1 5 11.2 7.6
3 -1 -5 52.59 8.4
3 -1 -5 48.4 9.3
-3 1 5 52.69 10.4
-3 1 5 40.9 7.6
2 -1 -5 99.19 12.3
2 -1 -5 111.79 11.6
-2 1 5 89.29 10.4
-2 1 5 93.69 12
1 -1 -5 19.8 5.9
1 -1 -5 18.5 6.2
1 -1 -5 27.6 7.5
-1 1 5 1.7 3.8
-1 1 5 21.8 5.5
0 -1 -5 217.18 14.7
0 -1 -5 224.08 13.7
0 -1 -5 215.28 15.3
0 1 5 210.68 13
-1 -1 -5 103.79 11.1
-1 -1 -5 80.39 11.6
-1 -1 -5 88.89 12
1 1 5 67.89 8.8
-2 -1 -5 1.2 4.8
-2 -1 -5 1.2 4.8
2 1 5 -4.4 4.6
2 1 5 -2.6 3.7
-3 -1 -5 14.3 6.4
-3 -1 -5 8.9 6.2
3 1 5 11.1 6.1
-4 -1 -5 9 7.5
-4 -1 -5 9.6 7.2
4 1 5 7.9 5.9
-5 -1 -5 7.1 7.9
-5 -1 -5 3.5 8.9
5 1 5 12 7.7
-6 -1 -5 12.1 9.4
-6 -1 -5 -0.2 8.7
6 1 5 17.1 8.4
-7 -1 -5 5.6 11.2
-7 -1 -5 14.1 11.8
7 1 5 9.9 9.2
9 -2 -5 7.5 11
-9 2 5 1.2 10.9
8 -2 -5 96.19 18.5
-8 2 5 72.49 16
7 -2 -5 251.77 25.7
7 -2 -5 170.98 23.1
-7 2 5 212.98 22.3
6 -2 -5 153.08 20.2
6 -2 -5 157.18 19.2
-6 2 5 149.09 17.6
5 -2 -5 127.79 18.8
5 -2 -5 81.59 13
-5 2 5 73.79 11.7
4 -2 -5 15.6 7
4 -2 -5 13.4 7.2
-4 2 5 6.4 5.4
3 -2 -5 100.29 11.6
3 -2 -5 93.69 13.5
3 -2 -5 92.29 12.5
-3 2 5 103.19 11.3
2 -2 -5 20.1 6.2
2 -2 -5 31.6 7.6
2 -2 -5 15.4 5.6
-2 2 5 24.6 5.3
1 -2 -5 4.1 4.7
1 -2 -5 -1.1 3.9
1 -2 -5 0.6 3.9
-1 2 5 2.1 3.1
0 -2 -5 635.64 26.2
0 -2 -5 589.34 26.7
0 -2 -5 572.24 24
0 2 5 599.54 22.4
-1 -2 -5 2.1 4.6
-1 -2 -5 1.9 4.2
-1 -2 -5 2.7 4.3
1 2 5 -1.9 3.1
-2 -2 -5 48.5 8.8
-2 -2 -5 49.5 9.4
2 2 5 48.6 7.6
-3 -2 -5 30.5 8.6
-3 -2 -5 23.7 7.8
3 2 5 20.5 6.4
-4 -2 -5 40.2 10.6
-4 -2 -5 67.69 12.3
4 2 5 51.39 9.9
-5 -2 -5 25.1 11.1
-5 -2 -5 33 10.8
5 2 5 27.4 9.1
-6 -2 -5 11.6 10.3
-6 -2 -5 0.9 9.5
-7 -2 -5 1.9 11
-7 -2 -5 -0.9 10.8
9 -3 -5 55.69 16
-9 3 5 23.6 12.9
8 -3 -5 32.9 14.2
8 -3 -5 21.8 11.3
-8 3 5 49.1 13.3
7 -3 -5 -7.5 6.8
7 -3 -5 13.1 9.2
-7 3 5 -0.3 7.9
6 -3 -5 63.49 14.6
6 -3 -5 45.4 11.3
-6 3 5 42.8 10.4
5 -3 -5 24.3 8.1
5 -3 -5 30.9 10.4
-5 3 5 22.8 7.3
4 -3 -5 275.07 18.2
4 -3 -5 305.97 20.6
-4 3 5 291.97 16.4
3 -3 -5 -1.5 4.2
3 -3 -5 -4.7 4.2
-3 3 5 3.2 4
2 -3 -5 189.98 13.8
2 -3 -5 174.28 13.8
2 -3 -5 164.98 12.3
-2 3 5 187.48 9.8
1 -3 -5 9.8 4.8
1 -3 -5 0.3 3.9
1 -3 -5 2.2 4.6
-1 3 5 2.5 2.2
0 -3 -5 47.8 7.5
0 -3 -5 77.49 10
0 -3 -5 30.4 7.7
-1 -3 -5 89.99 10.2
-1 -3 -5 52.99 12.6
-1 -3 -5 61.09 9.7
-2 -3 -5 170.88 15.2
-2 -3 -5 164.38 17.3
-3 -3 -5 324.47 21
-3 -3 -5 255.47 18.7
-4 -3 -5 2.1 7
-4 -3 -5 0.3 6.5
-5 -3 -5 91.19 16.2
-5 -3 -5 109.29 17.5
-6 -3 -5 -2.8 9.2
-6 -3 -5 3.5 9.2
-7 -3 -5 6.2 12.4
-7 -3 -5 3.8 11.1
9 -4 -5 -1.5 11.2
9 -4 -5 -4.1 12.9
8 -4 -5 7.1 10.1
8 -4 -5 16.2 11.8
7 -4 -5 36.1 12.2
7 -4 -5 30.4 11.4
6 -4 -5 115.89 16.2
6 -4 -5 106.69 17.9
5 -4 -5 21.5 9.1
5 -4 -5 22.3 8
4 -4 -5 26.4 8.9
4 -4 -5 28.2 7.7
3 -4 -5 43.1 8.9
3 -4 -5 39.8 7.9
2 -4 -5 3.3 4.2
2 -4 -5 3.6 4.6
1 -4 -5 -1.1 4.2
1 -4 -5 1 3.5
1 -4 -5 4.1 4.3
0 -4 -5 73.09 10
0 -4 -5 90.19 10.7
0 -4 -5 98.69 10.1
-1 -4 -5 4.2 4.8
-1 -4 -5 9.7 5.9
-2 -4 -5 2.5 5
-2 -4 -5 1.2 5.6
-3 -4 -5 230.48 17.9
-3 -4 -5 240.28 18.7
-4 -4 -5 26 10.5
-4 -4 -5 21.7 9
-5 -4 -5 9.2 10.1
-5 -4 -5 -1.9 7.1
-6 -4 -5 5.9 11
-6 -4 -5 3.3 9.2
8 -5 -5 6.1 12.7
8 -5 -5 71.19 17
7 -5 -5 0 7.6
7 -5 -5 -0.1 8.9
6 -5 -5 2 7.1
6 -5 -5 2.6 8.1
5 -5 -5 -1.5 5.8
5 -5 -5 6.5 6.9
4 -5 -5 23.8 8
4 -5 -5 18.3 8
3 -5 -5 26.3 7.3
2 -5 -5 29.7 7.5
1 -5 -5 26.1 6.3
0 -5 -5 107.99 11.6
-1 -5 -5 98.49 11.3
-2 -5 -5 121.99 13.9
-3 -5 -5 3.7 6.6
-4 -5 -5 -1.8 6.5
-5 -5 -5 18.7 10.3
7 -6 -5 8.2 9.4
6 -6 -5 -0.7 7.1
5 -6 -5 -6.9 5
4 -6 -5 7.3 6.3
3 -6 -5 11.7 6.1
2 -6 -5 45.1 8.1
1 -6 -5 2.7 4.2
0 -6 -5 108.69 10.5
-1 -6 -5 69.79 9.3
-2 -6 -5 13.1 6.3
-3 -6 -5 -2.3 5.7
-4 -6 -5 4.1 7.6
6 -7 -5 0.2 6.6
5 -7 -5 -4.1 5.8
4 -7 -5 3.3 5.8
3 -7 -5 46.4 9
2 -7 -5 10.1 5.1
1 -7 -5 2.4 3.8
0 -7 -5 0.7 3.4
-1 -7 -5 52.59 7.6
-2 -7 -5 5.4 5
-3 -7 -5 4.1 6.2
5 -8 -5 -2.9 6.1
4 -8 -5 7 6.1
3 -8 -5 1.9 4.5
0 -10 6 7.2 7.4
1 -10 6 13.5 8.6
-3 -9 6 -2.1 6.3
-2 -9 6 25.9 9.9
-1 -9 6 3.8 7.6
0 -9 6 4.6 6.9
1 -9 6 8.7 7.8
2 -9 6 -6.5 6.9
3 -9 6 10.3 9.6
4 -9 6 -8.8 9.5
-5 -8 6 22.1 10.1
-4 -8 6 4.7 8.4
-3 -8 6 -4.6 6.5
-2 -8 6 19.1 9.1
-1 -8 6 36.7 10.3
0 -8 6 -3.2 5.7
1 -8 6 3.9 7.8
2 -8 6 10.6 8.6
3 -8 6 6 9.4
4 -8 6 23.1 12.2
4 -8 6 8 9.6
5 -8 6 4.8 10.6
5 -8 6 11.6 13
-6 -7 6 24.7 11.8
-5 -7 6 14.7 9.5
-4 -7 6 46.1 12.3
-3 -7 6 116.49 17.4
-2 -7 6 86.39 14.8
-2 -7 6 65.89 14.3
-1 -7 6 19.7 8.8
-1 -7 6 16.3 8.5
0 -7 6 51.49 12.1
0 -7 6 71.59 12.4
1 -7 6 0 6.7
1 -7 6 4 7.2
2 -7 6 127.49 17.8
2 -7 6 159.78 19.1
3 -7 6 25.5 10.3
3 -7 6 30.6 11.2
4 -7 6 55.19 14.1
4 -7 6 43.1 14.2
5 -7 6 0.7 10.3
6 -7 6 36.1 13.1
6 -7 6 51.29 16.2
-7 -6 6 -3.1 10.4
-7 -6 6 -12.4 8.8
-6 -6 6 97.99 17.9
-6 -6 6 72.09 16.3
-5 -6 6 169.38 21.6
-5 -6 6 164.08 20.3
-4 -6 6 -2.9 6.9
-4 -6 6 1.1 7.6
-3 -6 6 344.17 24.1
-3 -6 6 297.37 21.5
-2 -6 6 18.6 8.4
-2 -6 6 19 8
-1 -6 6 2 5.6
-1 -6 6 -3.9 5.6
0 -6 6 153.58 18.4
0 -6 6 126.49 15.4
1 -6 6 406.96 24.2
1 -6 6 372.76 24.9
2 -6 6 12.5 8.7
2 -6 6 8.6 7.5
3 -6 6 138.79 18.7
3 -6 6 106.09 17.3
-4 6 -6 159.98 24.6
4 -6 6 164.18 22.2
5 -6 6 106.89 18.7
5 -6 6 80.39 16
6 -6 6 14.2 11.6
6 -6 6 19 11.2
7 -6 6 60.29 18.3
-8 -5 6 0.5 12.2
-8 -5 6 1.6 11.7
-7 -5 6 2.4 9.3
-7 -5 6 4.5 10.5
-6 -5 6 7.9 9.3
-6 -5 6 14.1 9.9
-5 -5 6 60.09 13.6
-5 -5 6 36.3 11.5
4 5 -6 170.98 15.8
-4 -5 6 144.79 17.9
-4 -5 6 168.18 21.4
3 5 -6 10.9 5.9
-3 -5 6 5.8 6.4
-3 -5 6 4.5 6.8
2 5 -6 3.9 3.9
-2 -5 6 1.6 5.8
-2 -5 6 -1.4 5.5
1 5 -6 285.97 16.3
-1 -5 6 293.17 19.5
-1 -5 6 315.17 21.2
0 5 -6 177.48 13.1
0 -5 6 188.98 17.9
0 -5 6 196.18 20.6
-1 5 -6 16.5 5.9
1 -5 6 19.5 8
1 -5 6 5.1 5.8
-2 5 -6 46.9 8.8
2 -5 6 46.3 10.4
2 -5 6 42 11.7
-3 5 -6 27.1 8.4
3 -5 6 11.3 8.4
3 -5 6 14.4 9.4
-4 5 -6 4.8 7
4 -5 6 5.3 6.5
4 -5 6 1 8.4
-5 5 -6 34 10.2
5 -5 6 18.4 9.9
5 -5 6 34.1 12.3
-6 5 -6 14.4 10.7
6 -5 6 12.6 10.4
6 -5 6 46.3 14.1
-7 5 -6 8.3 10.7
7 -5 6 -2.6 11.4
-8 -4 6 34.6 16.1
-8 -4 6 9.8 12
7 4 -6 6.3 7.9
-7 -4 6 5.5 10
-7 -4 6 6.1 9.7
6 4 -6 28.7 9.7
-6 -4 6 32.9 11.6
-6 -4 6 18.1 10.6
5 4 -6 96.39 13.5
-5 -4 6 100.29 16.8
-5 -4 6 82.89 14.2
4 4 -6 119.79 14
-4 -4 6 156.38 19.9
-4 -4 6 117.59 14.9
3 4 -6 21.8 6.3
-3 -4 6 13.8 6.7
-3 -4 6 38.3 10.9
2 4 -6 573.24 25.6
-2 -4 6 596.74 30.4
-2 -4 6 561.34 28
1 4 -6 183.48 13.1
-1 -4 6 162.58 18.3
-1 -4 6 218.38 16.2
0 4 -6 5 4.8
0 -4 6 10.8 7.2
0 -4 6 9.5 6.2
-1 4 -6 439.96 22.2
1 -4 6 509.95 27.2
1 -4 6 436.66 24.4
-2 4 -6 5.2 5.8
2 -4 6 16.4 7.9
2 -4 6 8.8 6.3
-3 4 -6 -6.1 4.6
3 -4 6 6.3 6
3 -4 6 5.7 7.3
-4 4 -6 135.09 17.2
4 -4 6 119.19 18.7
4 -4 6 121.49 17.8
-5 4 -6 107.19 15.5
5 -4 6 116.49 19.7
5 -4 6 127.29 19.9
-6 4 -6 -8.5 7.6
6 -4 6 3.2 9.8
-7 4 -6 39.6 13.2
7 -4 6 4.6 12.1
9 3 -6 13 11.1
-9 -3 6 11.6 12.7
8 3 -6 -1.1 8.7
-8 -3 6 7.3 11.6
7 3 -6 5.9 8
-7 -3 6 0.5 8.8
-7 -3 6 -7.5 8.6
6 3 -6 12.7 8.4
-6 -3 6 13.8 9.6
-6 -3 6 6.4 8.9
5 3 -6 -6.7 5.6
-5 -3 6 -4.8 6.5
-5 -3 6 -2.9 7.1
-4 -3 6 198.28 20.5
-4 -3 6 239.98 21.2
3 3 -6 61.89 10.3
-3 -3 6 60.39 11.3
-3 -3 6 45.2 10.5
2 3 -6 19 7.6
2 3 -6 11.7 5.6
-2 -3 6 25.5 8.7
-2 -3 6 17.1 7.7
1 3 -6 774.82 30.7
1 3 -6 800.42 34.6
-1 -3 6 732.13 34.4
-1 -3 6 724.43 32.2
0 3 -6 4.6 5.1
0 3 -6 3.2 5
0 -3 6 3.9 5.4
0 -3 6 4.6 6.5
-1 3 -6 330.77 21.3
-1 3 -6 335.47 19.4
1 -3 6 351.36 22.3
1 -3 6 336.97 20.7
-2 3 -6 98.19 12.1
-2 3 -6 93.39 13.6
2 -3 6 99.19 13.6
2 -3 6 170.38 20
-3 3 -6 15.2 7.7
3 -3 6 11.6 7.4
-4 3 -6 10.5 7.6
4 -3 6 -4.9 6
4 -3 6 5.4 8.1
-5 3 -6 -7 6
5 -3 6 4.3 8.4
-6 3 -6 16.6 10.2
6 -3 6 24 12.4
-7 3 -6 56.59 15.1
7 -3 6 35.2 15
8 -3 6 31.3 15.1
9 2 -6 8.7 10.3
-9 -2 6 -9 10.1
8 2 -6 3.2 9.3
-8 -2 6 -3.3 8.6
7 2 -6 3.8 8.4
-7 -2 6 -4 8.3
6 2 -6 -4 5.5
-6 -2 6 11.5 8.8
-6 -2 6 7.7 7.6
5 2 -6 -0.3 6.3
-5 -2 6 3 7.4
-5 -2 6 5.5 6.9
4 2 -6 224.78 19.7
4 2 -6 189.98 20.1
-4 -2 6 256.37 22.1
-4 -2 6 233.78 23
3 2 -6 34.8 8.6
3 2 -6 50.09 9.5
-3 -2 6 77.09 13.7
-3 -2 6 61.59 10.5
2 2 -6 1636.54 57.79
-2 -2 6 1623.64 58.89
-2 -2 6 1610.14 56.89
1 2 -6 19 6.9
1 2 -6 10.1 6.5
-1 -2 6 8 6.5
-1 -2 6 16.7 6.6
0 2 -6 391.86 20.6
0 2 -6 404.16 22.3
0 -2 6 406.06 23.5
0 -2 6 386.56 21.2
-1 2 -6 5 5.2
-1 2 -6 2.3 4.8
1 -2 6 7.2 6.4
1 -2 6 -1.2 5.1
-2 2 -6 -3.6 4.2
-2 2 -6 -3.9 4.6
2 -2 6 8.5 7
2 -2 6 7.9 5.6
-3 2 -6 66.59 13.2
-3 2 -6 67.39 11.3
3 -2 6 60.59 10.6
-4 2 -6 7.2 6.9
4 -2 6 7.1 7.2
-5 2 -6 38.2 11.3
5 -2 6 20.4 9.7
-6 2 -6 22.7 11.7
6 -2 6 26.1 11.4
-7 2 -6 5.9 9.6
7 -2 6 2.4 10
8 -2 6 8.4 12.5
9 1 -6 -4.2 9.3
-9 -1 6 20.1 12.7
8 1 -6 31.4 12.8
-8 -1 6 74.49 17.3
7 1 -6 0.1 7.4
-7 -1 6 -2.2 8.8
6 1 -6 11.5 8.1
-6 -1 6 0.2 7.5
5 1 -6 130.49 17.2
-5 -1 6 123.59 16.5
-5 -1 6 115.69 16.9
4 1 -6 159.08 16.7
4 1 -6 111.59 15.5
-4 -1 6 135.89 16.4
-4 -1 6 147.79 19.1
3 1 -6 1914.21 64.09
3 1 -6 1841.22 65.59
-3 -1 6 1876.71 66.49
-3 -1 6 1851.51 63.19
2 1 -6 148.89 14.2
2 1 -6 126.49 14.4
-2 -1 6 92.49 12.8
-2 -1 6 133.79 13.8
1 1 -6 1079.99 41.2
1 1 -6 1210.28 44.2
-1 -1 6 1092.69 41.4
-1 -1 6 1096.69 43.6
0 1 -6 181.48 14.8
0 1 -6 157.88 15
0 -1 6 223.18 20.3
0 -1 6 158.28 14.9
-1 1 -6 71.59 10
-1 1 -6 57.59 11.1
1 -1 6 44.2 10.5
1 -1 6 54.59 9.6
-2 1 -6 25.8 9
-2 1 -6 14.6 7
2 -1 6 7.4 6.1
2 -1 6 15.9 7.3
-3 1 -6 57.59 10.6
-3 1 -6 44.6 11.5
3 -1 6 57.69 10.8
-4 1 -6 39.3 12.1
-4 1 -6 14.9 8
4 -1 6 17.2 7.9
-5 1 -6 1.9 8.7
-5 1 -6 7.8 8.8
5 -1 6 2.9 7.8
-6 1 -6 6.4 9.6
6 -1 6 -4.7 7.7
-7 1 -6 -7.3 7.7
7 -1 6 5.6 10.3
9 0 -6 13.2 11.9
-9 0 6 2.9 11.1
8 0 -6 -2.9 9
-8 0 6 6.7 10.6
7 0 -6 -9.5 7
-7 0 6 1.3 7.7
6 0 -6 89.59 16.5
6 0 -6 62.69 12.9
-6 0 6 58.69 13.3
5 0 -6 148.29 19.1
5 0 -6 90.99 13.7
-5 0 6 123.69 16.8
4 0 -6 67.09 12
4 0 -6 75.89 11.4
-4 0 6 104.09 16.3
-4 0 6 61.09 10.4
3 0 -6 375.46 23.3
3 0 -6 428.06 22.6
-3 0 6 410.26 21.7
-3 0 6 415.76 24.3
2 0 -6 1068.49 40.2
2 0 -6 1100.79 42.6
-2 0 6 1061.19 40.2
-2 0 6 1112.89 43
1 0 -6 223.48 16.6
1 0 -6 235.58 14.8
-1 0 6 238.78 15.7
-1 0 6 240.48 17
0 0 -6 239.68 16.9
0 0 -6 235.08 15.5
0 0 6 248.68 15.8
0 0 6 248.48 18
-1 0 -6 973.4 40.9
-1 0 -6 1030.1 39
1 0 6 1090.79 39.7
-2 0 -6 43 10.5
-2 0 -6 46.2 9.4
2 0 6 62.29 10.8
2 0 6 76.99 14.3
-3 0 -6 178.78 17.9
-3 0 -6 113.99 15.1
3 0 6 125.09 14.6
-4 0 -6 12.8 9.4
-4 0 -6 7.6 7.4
4 0 6 13.9 7.2
-5 0 -6 8.7 8.6
-5 0 -6 2.9 7.4
5 0 6 -5.9 5.8
-6 0 -6 41 14.6
-6 0 -6 36 12.8
6 0 6 25.3 10.5
-7 0 -6 -3.6 8.8
7 0 6 3 9.3
9 -1 -6 20.5 12.8
-9 1 6 24.2 13.7
8 -1 -6 15 11.4
-8 1 6 18.3 11.4
7 -1 -6 27.6 11
-7 1 6 40.2 12.1
6 -1 -6 30.9 10.9
6 -1 -6 32 10.7
-6 1 6 85.89 14.6
5 -1 -6 62.49 13
5 -1 -6 76.19 12
-5 1 6 73.09 12.5
4 -1 -6 341.77 23.1
4 -1 -6 300.77 20.1
-4 1 6 287.37 19.3
3 -1 -6 93.09 12.2
3 -1 -6 131.59 15.9
-3 1 6 164.18 17.3
-3 1 6 136.19 13.8
2 -1 -6 3.3 5.3
2 -1 -6 5.3 5.2
-2 1 6 1.1 5.6
-2 1 6 11.1 5.2
1 -1 -6 1927.91 65.49
1 -1 -6 1963.1 63.29
-1 1 6 1969.4 64.89
-1 1 6 1973.6 62.39
0 -1 -6 361.46 19.1
0 -1 -6 352.96 21.5
0 -1 -6 377.96 21
0 1 6 310.67 20.2
0 1 6 368.36 18.7
-1 -1 -6 280.27 18.7
-1 -1 -6 255.87 16.7
1 1 6 268.87 16.4
-2 -1 -6 15 7.4
-2 -1 -6 20.4 7.2
2 1 6 11.6 5.7
-3 -1 -6 5.3 6.6
-3 -1 -6 1.5 6.6
3 1 6 -4.4 5
-4 -1 -6 11.6 8.8
-4 -1 -6 7 7.8
4 1 6 4.6 6.7
-5 -1 -6 9.4 10.8
-5 -1 -6 12.2 9.7
5 1 6 9.4 7.9
-6 -1 -6 23.2 11.9
-6 -1 -6 21.9 12.6
6 1 6 15.2 9.4
-7 -1 -6 0.3 10.8
-7 -1 -6 5.1 11.7
9 -2 -6 9.5 12.4
-9 2 6 18.7 12.6
8 -2 -6 5.1 10.3
-8 2 6 10.4 10.5
7 -2 -6 9.2 9.8
7 -2 -6 11.6 9.2
-7 2 6 27.9 10.9
6 -2 -6 149.69 20.7
6 -2 -6 140.39 18.9
-6 2 6 97.99 14.7
5 -2 -6 16.6 8.8
5 -2 -6 14 6.9
-5 2 6 19.9 7.6
4 -2 -6 -4.8 4.5
4 -2 -6 4.1 6.5
-4 2 6 -0.4 5.2
3 -2 -6 237.38 17.4
3 -2 -6 203.28 15.5
-3 2 6 210.38 14.6
2 -2 -6 27.4 7.4
2 -2 -6 21.8 6.8
-2 2 6 20.7 5.6
1 -2 -6 17.7 6.9
1 -2 -6 18.6 6.4
1 -2 -6 17.5 6.3
-1 2 6 18.2 5
0 -2 -6 207.28 14.5
0 -2 -6 251.37 16.5
0 2 6 220.68 13
-1 -2 -6 4 5.4
-1 -2 -6 4.2 5.7
1 2 6 6.9 4.6
-2 -2 -6 15.2 6.9
-2 -2 -6 20 7.7
2 2 6 24.4 6.7
-3 -2 -6 1.1 6.5
-3 -2 -6 -2.4 6
3 2 6 -1.8 4.8
-4 -2 -6 29 11
-4 -2 -6 42.6 11.7
4 2 6 33.7 9
-5 -2 -6 0.7 8
-5 -2 -6 -8 8.1
-6 -2 -6 -13.1 8.6
-6 -2 -6 3.2 10.5
-7 -2 -6 9.1 12.4
-7 -2 -6 4.2 11.7
9 -3 -6 26.3 14.7
-9 3 6 26.9 13.8
8 -3 -6 21 12.7
8 -3 -6 12.7 11.2
-8 3 6 38.6 12.5
7 -3 -6 -1.5 8
7 -3 -6 15 10.7
-7 3 6 13.1 9.4
6 -3 -6 566.64 34.8
-6 3 6 629.34 30.6
5 -3 -6 21 8.5
5 -3 -6 33.3 11.5
-5 3 6 33.4 8.3
4 -3 -6 396.56 25.1
4 -3 -6 368.96 22.6
-4 3 6 373.46 19.9
3 -3 -6 18 6.4
3 -3 -6 21.6 7.4
-3 3 6 22.4 5.7
2 -3 -6 579.34 27.7
-2 3 6 579.44 22.2
1 -3 -6 46.8 8.9
1 -3 -6 53.79 8.9
0 -3 -6 119.29 12.7
0 -3 -6 119.99 13.4
-1 -3 -6 18 6.9
-1 -3 -6 20.9 7
-2 -3 -6 4.3 5.9
-2 -3 -6 4.6 5.9
-3 -3 -6 -0.1 6.7
-3 -3 -6 5.9 6.5
-4 -3 -6 1.4 7.7
-4 -3 -6 4.6 7.8
-5 -3 -6 2 8.3
-5 -3 -6 25.3 11.3
-6 -3 -6 -1 8.7
-6 -3 -6 -13.4 9.1
8 -4 -6 20.3 12
8 -4 -6 23.8 12.8
7 -4 -6 -0.8 8.3
7 -4 -6 -2.4 7.6
6 -4 -6 35.2 11.6
5 -4 -6 106.29 14.5
5 -4 -6 120.89 17.8
4 -4 -6 67.09 11.4
4 -4 -6 58.99 11.7
3 -4 -6 187.68 18.4
2 -4 -6 -1.5 4.4
2 -4 -6 -0.1 4.9
1 -4 -6 146.09 14
1 -4 -6 132.29 14
0 -4 -6 2.9 4.7
0 -4 -6 -6.7 4.6
-1 -4 -6 72.79 11.6
-1 -4 -6 78.19 11.3
-2 -4 -6 82.09 14
-2 -4 -6 93.49 13.8
-3 -4 -6 18.7 8.8
-4 -4 -6 -1.4 7.1
-5 -4 -6 -3.4 7.8
-6 -4 -6 3.6 10.3
8 -5 -6 17.6 11.6
8 -5 -6 -2.7 11.2
7 -5 -6 21.2 10.5
7 -5 -6 13.7 10.8
6 -5 -6 1.1 7.5
6 -5 -6 8.8 9.4
5 -5 -6 30.6 9.3
5 -5 -6 36.3 11
4 -5 -6 -1.3 5.7
3 -5 -6 21.3 7.9
2 -5 -6 11.7 5.9
1 -5 -6 -3.2 3.9
0 -5 -6 76.49 11.2
-1 -5 -6 10.7 6.2
-2 -5 -6 17.9 7.8
-3 -5 -6 6.2 7.2
-4 -5 -6 -3.8 6.9
-5 -5 -6 -1 8.4
7 -6 -6 3.2 9.2
6 -6 -6 13.2 8.3
5 -6 -6 6.1 7.3
4 -6 -6 5.8 5.8
3 -6 -6 28.2 8.1
2 -6 -6 0.8 4.8
1 -6 -6 59.79 9.2
0 -6 -6 71.39 9.9
-1 -6 -6 131.09 14.1
-2 -6 -6 1.3 5.8
-3 -6 -6 0.2 5.7
-4 -6 -6 4.1 7.8
6 -7 -6 2.2 8.4
5 -7 -6 0 6.4
4 -7 -6 8.4 7.2
3 -7 -6 5 6
2 -7 -6 2.9 4.9
1 -7 -6 65.99 9.4
0 -7 -6 48 7.9
-1 -7 -6 6.5 5.4
-2 -7 -6 0.3 5.1
3 -8 -6 3.2 5.4
2 -8 -6 50.49 7.4
-3 -9 7 -7.7 7.1
-2 -9 7 2.5 8.1
-1 -9 7 6.5 8
0 -9 7 5.7 7.2
1 -9 7 6.1 8.8
2 -9 7 12.9 9.6
3 -9 7 24.4 12.4
-5 -8 7 15.4 10.1
-4 -8 7 10.7 9.9
-3 -8 7 7.2 8.1
-2 -8 7 12.9 8.9
-1 -8 7 10.8 8.1
0 -8 7 0.8 7.1
1 -8 7 8.8 8.6
2 -8 7 2.2 8.3
2 -8 7 -2.1 10.2
3 -8 7 15.7 11.2
3 -8 7 15.2 11.4
4 -8 7 -3.3 10.6
4 -8 7 -9 9.2
5 -8 7 -3.5 10.5
5 -8 7 0.7 10.6
-6 -7 7 1.7 10.7
-6 -7 7 -2.2 8.7
-5 -7 7 39.3 13.6
-5 -7 7 35.2 12.7
-4 -7 7 16.7 10.5
-4 -7 7 10.6 9.5
-3 -7 7 -0.3 8.4
-3 -7 7 3.6 8.4
-2 -7 7 11.9 8.4
-2 -7 7 7.9 8
-1 -7 7 38.9 11.3
-1 -7 7 43.7 11.4
0 -7 7 65.19 14.6
0 -7 7 85.19 14.2
1 -7 7 75.49 14.8
1 -7 7 67.69 14.8
2 -7 7 -4.6 7
2 -7 7 -6 7.3
3 -7 7 12.7 10.5
3 -7 7 16.3 10.1
4 -7 7 6.4 10.1
4 -7 7 -4 8.8
5 -7 7 35.7 14.7
5 -7 7 17 13.9
-7 -6 7 8 11.9
-7 -6 7 2.4 11.4
-6 -6 7 5.2 9.8
-6 -6 7 3.9 9.2
-5 -6 7 6.3 9
-5 -6 7 -5.2 7.7
-4 -6 7 185.28 22.4
-4 -6 7 209.58 25.3
-3 -6 7 24.3 10.5
-3 -6 7 22.2 9.7
-2 -6 7 133.69 18.8
-2 -6 7 58.19 11.9
-1 -6 7 0.3 6.1
-1 -6 7 -11.3 5.5
0 -6 7 105.29 15.5
0 -6 7 120.99 18.6
-1 6 -7 44.5 12.4
1 -6 7 50.69 11.8
1 -6 7 52.89 12.6
-2 6 -7 -0.4 5.9
2 -6 7 -6.2 6.7
2 -6 7 -0.5 6.6
-3 6 -7 43.4 10.4
3 -6 7 21.6 11.3
3 -6 7 33.6 10.8
-4 6 -7 178.48 19.5
4 -6 7 236.98 26.3
4 -6 7 224.28 27
-5 6 -7 -2.7 8.4
5 -6 7 28.4 12.7
6 -6 7 244.28 30.1
-7 -5 7 10.6 12.3
-7 -5 7 -7.5 9.6
-6 -5 7 14.9 10.2
-6 -5 7 4.2 9
5 5 -7 219.08 30.1
-5 -5 7 220.78 23.1
-5 -5 7 215.08 25.4
4 5 -7 7.7 6.3
-4 -5 7 -1.2 7.9
-4 -5 7 8.8 8.5
3 5 -7 57.89 9.6
-3 -5 7 68.59 12.4
-3 -5 7 62.09 13.7
2 5 -7 7.6 5.6
-2 -5 7 19 9.7
-2 -5 7 15.1 8
1 5 -7 31.8 7.2
-1 -5 7 51.99 11.3
-1 -5 7 61.59 12.6
0 5 -7 49.4 8.9
0 -5 7 31 9.2
0 -5 7 49.4 12.6
-1 5 -7 36.1 8.7
1 -5 7 49.7 11.9
1 -5 7 43.2 11.5
-2 5 -7 5.1 5.7
2 -5 7 -0.2 7.3
2 -5 7 6.1 7.8
-3 5 -7 5.3 6.9
3 -5 7 24.1 9.4
3 -5 7 28.1 11.5
-4 5 -7 163.58 18.7
4 -5 7 156.58 20.6
4 -5 7 231.98 28.7
-5 5 -7 233.38 23.3
5 -5 7 343.77 33
5 -5 7 322.07 33.2
-6 5 -7 83.19 16.6
6 -5 7 51.59 16.6
7 -5 7 18.1 14.9
-8 -4 7 41.9 15.3
7 4 -7 58.49 13.3
-7 -4 7 36.1 13.3
-7 -4 7 78.69 17.4
6 4 -7 13.3 8.3
-6 -4 7 -6.9 7.5
-6 -4 7 4.7 9.4
5 4 -7 188.98 19.3
-5 -4 7 259.37 28.5
-5 -4 7 232.88 24.8
-4 -4 7 127.89 17.4
-4 -4 7 119.39 18.7
3 4 -7 8.3 6.1
-3 -4 7 13.1 7.9
-3 -4 7 41.8 11.6
2 4 -7 277.57 18.4
-2 -4 7 278.47 23.9
-2 -4 7 278.57 25.9
1 4 -7 60.49 9.7
-1 -4 7 65.49 12.6
-1 -4 7 57.49 12.9
0 4 -7 524.35 25.9
0 -4 7 495.55 29.3
0 -4 7 517.35 27.5
-1 4 -7 17.3 7
1 -4 7 12.1 7.6
1 -4 7 12.8 7.9
-2 4 -7 10.8 6.6
2 -4 7 12.1 8.1
2 -4 7 2.3 7.1
-3 4 -7 364.36 23
3 -4 7 319.97 25.8
3 -4 7 304.37 22.9
-4 4 -7 22.5 9.7
4 -4 7 9.5 9.3
-5 4 -7 43.4 12.3
5 -4 7 30.5 12.3
-6 4 -7 121.29 19.1
6 -4 7 150.18 24.1
-7 4 -7 5.3 11.2
7 -4 7 8.3 12.8
8 3 -7 51.09 13.9
-8 -3 7 63.59 18.1
7 3 -7 504.05 31.3
-7 -3 7 458.85 33.4
6 3 -7 110.19 16.4
-6 -3 7 136.99 19.2
-6 -3 7 130.39 21.1
5 3 -7 114.89 15.9
-5 -3 7 126.19 17.8
-5 -3 7 132.59 20.8
4 3 -7 4.9 5.6
-4 -3 7 15.3 7.5
-4 -3 7 8.8 8.7
3 3 -7 83.29 12
-3 -3 7 63.09 12.8
-3 -3 7 67.59 12.5
2 3 -7 42.5 8.7
-2 -3 7 53.89 11.4
-2 -3 7 67.39 12.1
1 3 -7 445.26 26.9
1 3 -7 466.55 23.9
-1 -3 7 495.15 28.1
-1 -3 7 468.05 25.4
0 3 -7 261.67 17.3
0 3 -7 228.08 18.4
0 -3 7 231.08 20.5
0 -3 7 227.48 22.3
-1 3 -7 396.26 32.5
1 -3 7 304.37 20.9
1 -3 7 380.56 24.6
-2 3 -7 4.8 6.5
2 -3 7 -7.3 5.7
2 -3 7 -5.7 5.7
-3 3 -7 188.28 18.7
3 -3 7 256.37 26.1
3 -3 7 239.98 23.2
-4 3 -7 73.99 14.1
4 -3 7 92.69 15.7
-5 3 -7 -0.8 7.8
5 -3 7 0.9 7.5
-6 3 -7 22.2 11
6 -3 7 13.2 10.6
-7 3 -7 15.3 11
7 -3 7 11.3 11.9
9 2 -7 23.9 12.6
-9 -2 7 12.6 12.4
8 2 -7 70.09 16.5
-8 -2 7 80.49 16.9
7 2 -7 6.6 8.8
-7 -2 7 4.8 9.4
6 2 -7 124.49 17.8
-6 -2 7 142.89 19.9
5 2 -7 79.19 13.4
-5 -2 7 97.39 16.4
-5 -2 7 71.29 13.3
4 2 -7 77.59 12.4
-4 -2 7 96.29 14.9
-4 -2 7 116.19 15.4
3 2 -7 214.08 20.2
3 2 -7 234.98 19.7
-3 -2 7 251.97 18.7
-3 -2 7 271.77 21.3
2 2 -7 15.3 7.4
2 2 -7 19.7 7.4
-2 -2 7 9 6.7
-2 -2 7 22.9 9.1
1 2 -7 -5.6 4.9
1 2 -7 -3.5 5.1
-1 -2 7 -2.8 4.7
-1 -2 7 -1.3 6.3
0 2 -7 342.17 21.9
0 2 -7 351.16 20.4
0 -2 7 317.67 22.8
0 -2 7 342.47 21.1
-1 2 -7 38.3 9
-1 2 -7 60.59 12.1
1 -2 7 37.3 9.9
1 -2 7 56.79 10.8
-2 2 -7 387.26 25.3
-2 2 -7 381.96 22.3
2 -2 7 322.07 22.4
2 -2 7 354.46 25.2
-3 2 -7 157.28 21
-3 2 -7 100.39 13.9
3 -2 7 82.19 13.8
-4 2 -7 47.3 11.5
4 -2 7 63.79 13.4
-5 2 -7 32.6 11
5 -2 7 14.6 9.8
-6 2 -7 -6.3 7.7
6 -2 7 12.1 10
-7 2 -7 -9.2 9.4
7 -2 7 13.5 11.3
9 1 -7 13.9 12
-9 -1 7 17.1 13.6
8 1 -7 21.8 11.8
-8 -1 7 16.1 11
7 1 -7 34.2 11.9
-7 -1 7 46.9 14.1
6 1 -7 61.69 14
-6 -1 7 55.49 14
5 1 -7 25.3 9.7
-5 -1 7 32.1 10
4 1 -7 55.09 11.4
4 1 -7 52.49 11.3
-4 -1 7 35.4 9.3
-4 -1 7 29.6 10.3
3 1 -7 12.7 7.2
3 1 -7 2 5.9
-3 -1 7 12 7.7
-3 -1 7 11.5 6.8
2 1 -7 -5.7 3.9
2 1 -7 -5.6 5.1
-2 -1 7 1.8 5
-2 -1 7 -3 6.1
1 1 -7 618.64 28.5
1 1 -7 558.94 29.5
-1 -1 7 630.64 31.3
-1 -1 7 592.64 28.5
0 1 -7 10.8 6.9
0 1 -7 12 6.1
0 -1 7 11.1 7.4
0 -1 7 7.8 6.4
-1 1 -7 58.69 11
-1 1 -7 51.49 9.8
1 -1 7 73.89 13.5
1 -1 7 64.89 11.5
-2 1 -7 11.6 6.7
-2 1 -7 -2.7 6
2 -1 7 13.4 7
-3 1 -7 -0.7 6.4
-3 1 -7 5.6 7.8
3 -1 7 6.7 6.9
-4 1 -7 27 11.6
-4 1 -7 18.4 8.8
4 -1 7 43.7 11.4
-5 1 -7 12.5 8.8
5 -1 7 3.9 7.6
-6 1 -7 39 12.9
6 -1 7 34.5 12.3
-7 1 -7 6.8 11
7 -1 7 10.7 10.7
9 0 -7 13.9 12
-9 0 7 -6.1 10.1
8 0 -7 14.8 11.5
-8 0 7 10.6 11.1
7 0 -7 6.5 9.1
-7 0 7 -8.4 7.9
-6 0 7 -2.7 8.8
5 0 -7 95.89 14.9
5 0 -7 82.19 16.1
-5 0 7 52.49 11.3
4 0 -7 199.08 20.5
4 0 -7 179.78 18.8
-4 0 7 228.88 17.3
3 0 -7 8.7 6.7
3 0 -7 14.5 7
-3 0 7 17.5 8.8
-3 0 7 26.8 7.9
2 0 -7 87.79 13.8
2 0 -7 68.19 11.1
-2 0 7 67.29 12
-2 0 7 55.19 9.6
1 0 -7 450.55 22.7
1 0 -7 465.65 25.3
-1 0 7 377.16 22.1
-1 0 7 417.56 24.5
0 0 -7 422.26 22.3
0 0 -7 390.56 23.4
0 0 7 392.86 24.6
0 0 7 414.76 22.1
-1 0 -7 175.98 18.6
-1 0 -7 201.28 15.5
1 0 7 210.28 18.9
-2 0 -7 129.49 15.5
-2 0 -7 188.38 20.4
2 0 7 151.58 16.7
-3 0 -7 86.89 13.1
-3 0 -7 95.59 16.2
3 0 7 75.89 13
-4 0 -7 5 8.7
-4 0 -7 0.3 7.9
4 0 7 1 6.9
-5 0 -7 7 9.7
-5 0 -7 14.5 10.8
5 0 7 8.5 8.4
-6 0 -7 16.6 10.8
6 0 7 20 11.2
-7 0 -7 20.5 13.1
7 0 7 6.5 9.5
9 -1 -7 -6.2 11.9
-9 1 7 4.2 11.1
8 -1 -7 3 8.7
-8 1 7 -5.4 9.6
7 -1 -7 33 11.8
-7 1 7 30.9 11
6 -1 -7 375.96 29
6 -1 -7 359.46 26
-6 1 7 390.76 25.8
5 -1 -7 36.4 10.5
5 -1 -7 32.8 11.2
-5 1 7 57.69 11.8
4 -1 -7 44.5 11.1
4 -1 -7 48.5 11.5
-4 1 7 56.59 10.6
3 -1 -7 29.2 8.7
3 -1 -7 23.4 7.6
-3 1 7 33.2 7.9
2 -1 -7 172.48 19
2 -1 -7 168.78 16.8
-2 1 7 162.18 14.9
1 -1 -7 71.39 11.1
1 -1 -7 44.5 9.2
-1 1 7 37.1 8.1
0 -1 -7 35.6 8.9
0 -1 -7 55.99 9.8
0 1 7 42.8 8.8
-1 -1 -7 419.26 23.2
-1 -1 -7 488.05 26.8
1 1 7 400.46 21.9
-2 -1 -7 223.28 21.4
-2 -1 -7 241.38 21.3
2 1 7 211.38 16.3
-3 -1 -7 10.8 8.1
-3 -1 -7 28.3 9.3
3 1 7 10.5 7.3
-4 -1 -7 206.88 22.7
-4 -1 -7 189.88 24
4 1 7 176.08 19.3
-5 -1 -7 33.8 13
-5 -1 -7 5.6 9.7
5 1 7 19.4 9.7
-6 -1 -7 -1.6 10
-6 -1 -7 -11.8 9.7
6 1 7 -1.8 9.4
9 -2 -7 10 12.1
-9 2 7 8 11.8
8 -2 -7 -0.5 9.6
-8 2 7 1.7 9.6
7 -2 -7 25.1 12
7 -2 -7 29.4 12.3
-7 2 7 34.5 11.8
6 -2 -7 42.1 12.1
6 -2 -7 31.6 12.4
-6 2 7 39.8 11.4
5 -2 -7 166.78 20.7
5 -2 -7 217.28 21.7
-5 2 7 140.49 16.3
4 -2 -7 7 7.1
4 -2 -7 2.5 6.7
-4 2 7 -3.3 5.1
3 -2 -7 1.3 6
3 -2 -7 -3.1 5.4
-3 2 7 5.3 5.3
2 -2 -7 19.5 8.1
2 -2 -7 18.2 7
-2 2 7 16 5.7
1 -2 -7 5.1 5.8
1 -2 -7 11.8 6.3
-1 2 7 5.1 4.5
0 -2 -7 -0.9 5.4
0 -2 -7 -3.6 4.7
0 2 7 1.3 4.2
-1 -2 -7 5.6 5.7
-1 -2 -7 1.4 6.4
1 2 7 -2.1 4.3
-2 -2 -7 48.1 11
-2 -2 -7 44.9 10.4
2 2 7 52.49 9.1
-3 -2 -7 48.2 10.9
-3 -2 -7 45.8 12.9
-4 -2 -7 1.8 8.1
-4 -2 -7 -0.4 7.7
-5 -2 -7 8.8 9.7
-5 -2 -7 -1.2 8.9
-6 -2 -7 -7.9 9.8
-6 -2 -7 -6.5 9.1
8 -3 -7 1.9 10.6
8 -3 -7 7.5 11.8
7 -3 -7 25.8 11.6
7 -3 -7 29.9 13
-7 3 7 38.3 14.2
6 -3 -7 137.59 19.9
6 -3 -7 103.69 17.8
-6 3 7 162.48 17.9
5 -3 -7 1.9 6.8
5 -3 -7 4 7.3
-5 3 7 -3 5.7
4 -3 -7 68.29 12.2
4 -3 -7 70.79 13
-4 3 7 72.99 10.5
3 -3 -7 99.09 14.8
3 -3 -7 101.69 12.6
2 -3 -7 1.8 5.4
2 -3 -7 8.9 7
1 -3 -7 29.8 8.4
1 -3 -7 36.7 8.9
0 -3 -7 40.7 9.2
0 -3 -7 41.6 9.5
-1 -3 -7 206.18 21.1
-1 -3 -7 202.18 18.5
-2 -3 -7 5.7 6.8
-2 -3 -7 2.8 6.6
-3 -3 -7 -5 6.5
-3 -3 -7 8.6 8.4
-4 -3 -7 8.8 9.6
-4 -3 -7 10.4 9.8
-5 -3 -7 9.8 10.4
-5 -3 -7 15.6 10.7
-6 -3 -7 27.6 13.5
8 -4 -7 1.4 9.6
8 -4 -7 -5.2 9.5
7 -4 -7 9.8 10.9
7 -4 -7 -3.5 8.3
6 -4 -7 -2 7.2
6 -4 -7 4.3 8.9
5 -4 -7 260.47 26
5 -4 -7 169.38 19.1
4 -4 -7 76.49 14.7
4 -4 -7 67.69 12.2
3 -4 -7 109.39 14.8
2 -4 -7 74.99 11.8
2 -4 -7 40.8 9.5
1 -4 -7 110.89 14.2
1 -4 -7 115.09 13.8
0 -4 -7 1.6 6.8
0 -4 -7 1.3 5.6
-1 -4 -7 74.49 12.3
-2 -4 -7 68.49 12.8
-3 -4 -7 -4 6.6
-4 -4 -7 21.8 10.8
-5 -4 -7 1 8.9
7 -5 -7 2.9 9.1
7 -5 -7 -10.5 9.4
6 -5 -7 10.3 9.1
6 -5 -7 19.3 10.1
5 -5 -7 0.5 7.5
4 -5 -7 148.29 18
3 -5 -7 17.6 8.2
2 -5 -7 47.5 9.9
1 -5 -7 16.2 6.5
0 -5 -7 257.57 18.8
-1 -5 -7 31.4 9.3
-2 -5 -7 3.6 6.7
-3 -5 -7 3.7 7.4
-4 -5 -7 0.4 7.8
6 -6 -7 4.3 7.9
5 -6 -7 0.2 7.3
4 -6 -7 -4 5.9
3 -6 -7 4.9 6.5
2 -6 -7 14 7.1
1 -6 -7 57.39 9.9
0 -6 -7 14.3 6.3
-1 -6 -7 1.8 5.6
-2 -6 -7 8.6 6.6
-3 -6 -7 -5.2 7.6
5 -7 -7 0 7.5
4 -7 -7 17.4 8.4
3 -7 -7 22.9 8.4
2 -7 -7 2 5.5
1 -7 -7 20.1 6.9
0 -7 -7 8.1 5.9
-1 -7 -7 -4.8 5.3
-2 -9 8 3.9 9.9
-1 -9 8 31.2 12.5
0 -9 8 23.3 11.4
1 -9 8 9.3 9.8
2 -9 8 18 12.1
-4 -8 8 -1.6 9.3
-3 -8 8 30.3 11.5
-2 -8 8 -3.2 8.6
-1 -8 8 -3 7.1
0 -8 8 95.09 17.5
1 -8 8 -2.4 9.9
1 -8 8 0.5 9.1
2 -8 8 25.2 12.4
2 -8 8 3.1 10.6
3 -8 8 18 12.3
3 -8 8 34.1 14.3
4 -8 8 -4.3 10.6
4 -8 8 7.4 11.1
-6 -7 8 -4.2 11
-6 -7 8 8.8 10.9
-5 -7 8 6.7 9.9
-5 -7 8 0.5 9.3
-4 -7 8 -2 8.2
-4 -7 8 -4.8 9.4
-3 -7 8 14.9 10.8
-3 -7 8 18 10.5
-2 -7 8 8.8 8.8
-2 -7 8 14.1 10
-1 -7 8 21.2 10.6
-1 -7 8 20.6 9.5
0 -7 8 6.1 8.5
0 -7 8 7.2 8.7
1 -7 8 14 10.3
1 -7 8 36.3 13.2
2 -7 8 27.7 12.3
2 -7 8 18.8 10.6
3 -7 8 9.7 11.1
3 -7 8 9.7 10.3
4 -7 8 5.7 11.4
4 -7 8 2 10.1
5 -7 8 4.8 12.4
5 -7 8 -2.5 10.7
-7 -6 8 -3.3 10.5
-6 -6 8 2.6 11.3
-6 -6 8 1.3 11.2
-5 -6 8 14.1 10.2
-5 -6 8 2 9.8
-4 -6 8 -0.6 8.3
-4 -6 8 -1.7 8.9
-3 -6 8 58.79 14.6
-3 -6 8 68.69 16.4
-2 -6 8 68.49 14.2
-2 -6 8 103.89 17.6
-1 -6 8 10.3 8.8
-1 -6 8 15.1 8.7
0 -6 8 477.95 29.5
0 -6 8 527.35 33.5
-1 6 -8 31.9 8.7
1 -6 8 38.1 12.5
1 -6 8 37.6 11.3
-2 6 -8 24.7 8.7
2 -6 8 8.6 8.4
2 -6 8 -0.5 8.1
-3 6 -8 12.5 8.5
3 -6 8 11.3 9.3
3 -6 8 11.8 10.9
-4 6 -8 34.9 11.9
4 -6 8 24.7 12.1
4 -6 8 13.4 11.7
-5 6 -8 3.4 10
5 -6 8 3.8 10.5
5 -6 8 -3 11
6 -6 8 14.4 12.9
-7 -5 8 19.5 12.1
-7 -5 8 4.3 11.2
-6 -5 8 31.9 13.7
-6 -5 8 88.99 17.7
5 5 -8 19.5 8.9
-5 -5 8 25.6 10.9
-5 -5 8 28.9 12
-4 -5 8 46.1 12.6
-4 -5 8 26.1 11.2
3 5 -8 96.99 13.4
-3 -5 8 175.88 23
-3 -5 8 92.69 16.3
2 5 -8 0.4 5.7
-2 -5 8 9.2 8.6
-2 -5 8 3.4 8.1
1 5 -8 45.3 9.4
-1 -5 8 90.19 16.2
-1 -5 8 79.69 14.8
0 5 -8 32.2 8.8
0 -5 8 48.6 14
0 -5 8 64.99 13.4
-1 5 -8 158.48 17.6
1 -5 8 226.88 23.4
1 -5 8 257.87 27.4
-2 5 -8 2.5 6.7
2 -5 8 -9.2 6.6
2 -5 8 1.9 8.4
-3 5 -8 -0.3 7.6
3 -5 8 10.5 9.3
3 -5 8 -3 8.6
-4 5 -8 112.39 17.4
4 -5 8 86.89 17.4
4 -5 8 98.09 19.9
-5 5 -8 4.7 9
5 -5 8 -15.9 7.7
-6 5 -8 19.5 11.9
6 -5 8 28.1 14.1
8 4 -8 -4.9 9.1
-8 -4 8 3 12.9
7 4 -8 23.3 11.4
-7 -4 8 49.4 14.9
-7 -4 8 13.3 12
6 4 -8 1.7 8.6
-6 -4 8 2.3 8.6
-6 -4 8 7.7 10.6
5 4 -8 0.5 7.6
-5 -4 8 0.5 8.2
-5 -4 8 4.7 8.3
4 4 -8 4.4 6.5
-4 -4 8 0.5 8.2
-4 -4 8 18.2 10.8
3 4 -8 0.7 6
-3 -4 8 14.8 8.6
-3 -4 8 -2.2 7.5
2 4 -8 11.5 6.7
-2 -4 8 -0.8 7.2
-2 -4 8 0.9 7.2
1 4 -8 16.7 6.7
-1 -4 8 9.1 6.9
-1 -4 8 10.5 8
0 4 -8 197.28 18.9
0 -4 8 273.07 26.8
0 -4 8 161.18 18.4
-1 4 -8 44.8 9.9
1 -4 8 51.69 14
1 -4 8 57.49 12.6
-2 4 -8 5.1 7.1
2 -4 8 3.2 7.2
2 -4 8 5.6 8.1
-3 4 -8 6.3 8.2
3 -4 8 25.4 10.2
3 -4 8 10.9 10
-4 4 -8 29 10.5
4 -4 8 29.1 12.4
-5 4 -8 1.7 8
5 -4 8 14.6 10.8
-6 4 -8 14.4 10.9
6 -4 8 6.5 11.5
8 3 -8 -3.7 9.3
-8 -3 8 1.6 11.7
7 3 -8 13.7 10
-7 -3 8 -1.2 10.1
6 3 -8 22.2 10.1
-6 -3 8 68.59 15.3
-6 -3 8 46.1 14.3
5 3 -8 58.79 12.2
-5 -3 8 96.29 18
-5 -3 8 62.89 14.3
4 3 -8 159.28 18.1
-4 -3 8 155.98 18.5
-4 -3 8 165.88 21.2
3 3 -8 15.5 7.8
-3 -3 8 26.6 8.9
-3 -3 8 20 9.8
2 3 -8 54.79 10.9
-2 -3 8 59.69 12.3
-2 -3 8 81.59 14.5
1 3 -8 120.99 14.4
-1 -3 8 159.18 20.3
-1 -3 8 117.79 15.1
0 3 -8 34.2 9.5
0 -3 8 37.4 10.3
0 -3 8 40.6 12.8
-1 3 -8 23.9 8.5
1 -3 8 11.4 8.7
1 -3 8 15.8 7.8
-2 3 -8 645.64 33
2 -3 8 735.43 38.8
2 -3 8 695.73 36.1
-3 3 -8 161.98 18.4
3 -3 8 243.08 24.3
-4 3 -8 42.9 11.7
4 -3 8 57.99 13.7
-5 3 -8 7.2 9.5
5 -3 8 -4.6 8.1
-6 3 -8 -5.2 8.3
6 -3 8 0.7 9.9
8 2 -8 -7.1 8.9
-8 -2 8 3.4 10.8
7 2 -8 74.79 15.4
-7 -2 8 68.79 16.2
6 2 -8 54.09 13.5
-6 -2 8 56.89 13.6
5 2 -8 177.98 19.6
-5 -2 8 169.38 20.3
4 2 -8 18.6 8.6
-4 -2 8 2.1 8.4
-4 -2 8 8.4 7.2
3 2 -8 320.97 22
-3 -2 8 328.57 25.2
-3 -2 8 353.86 23.1
2 2 -8 10.5 6.9
2 2 -8 -1.6 5.8
-2 -2 8 -1.8 5.5
-2 -2 8 6.4 7.6
1 2 -8 8.1 7.3
1 2 -8 10.8 7
-1 -2 8 15.6 8.9
-1 -2 8 21.1 8.3
0 2 -8 653.93 33.1
0 2 -8 592.94 29.4
0 -2 8 567.74 30.6
0 -2 8 653.13 34.7
-1 2 -8 525.35 31.1
-1 2 -8 602.94 29.5
1 -2 8 497.25 28.9
1 -2 8 631.34 33.9
-2 2 -8 278.47 20.3
-2 2 -8 294.57 23.5
2 -2 8 204.48 21.6
-3 2 -8 100.29 14.7
3 -2 8 95.09 16.1
-4 2 -8 11.8 9.1
4 -2 8 5.1 8.6
-5 2 -8 64.19 15.3
5 -2 8 96.99 18
-6 2 -8 5 9.8
6 -2 8 -17.9 7.3
9 1 -8 51.19 17.5
-9 -1 8 27.7 14.2
8 1 -8 9.9 11.2
-8 -1 8 4.5 10.7
7 1 -8 31.4 12.9
-7 -1 8 25.8 12.7
6 1 -8 64.69 14.8
-6 -1 8 87.49 16.3
5 1 -8 267.57 25.3
-5 -1 8 252.27 23.4
4 1 -8 188.98 22.3
4 1 -8 186.68 20.3
-4 -1 8 166.38 18.9
3 1 -8 5.4 6.6
3 1 -8 20.2 9.3
-3 -1 8 8 8.6
-3 -1 8 5.5 6.9
2 1 -8 349.47 21.5
2 1 -8 309.97 23.1
-2 -1 8 267.67 22.2
-2 -1 8 365.16 22.3
1 1 -8 -6.3 5.2
1 1 -8 6.7 6.9
-1 -1 8 8.2 6.5
-1 -1 8 4.5 7.5
0 1 -8 9.3 7
0 1 -8 9.4 7.3
0 -1 8 17.4 7.1
-1 1 -8 295.77 22.5
-1 1 -8 258.97 19.1
1 -1 8 252.77 19.6
-2 1 -8 194.88 21.4
-2 1 -8 162.78 17.5
2 -1 8 186.68 19.3
-3 1 -8 -1.3 6.1
-3 1 -8 0.6 8.5
3 -1 8 9.6 8.2
-4 1 -8 59.29 13.1
4 -1 8 86.29 16
-5 1 -8 60.59 14.2
5 -1 8 54.59 14.3
-6 1 -8 43 14.8
6 -1 8 50.99 14.4
9 0 -8 4.4 11.8
-9 0 8 0.7 11.7
8 0 -8 31.9 13.5
-8 0 8 13 10.7
7 0 -8 1.1 8.2
-7 0 8 3.8 9.6
6 0 -8 16.4 9.8
-6 0 8 -0.9 7.9
5 0 -8 229.88 22.8
5 0 -8 290.87 30.3
-5 0 8 307.27 26.1
4 0 -8 16.2 8.2
4 0 -8 -3.7 6.1
-4 0 8 17.2 7.9
3 0 -8 -6.1 5.9
3 0 -8 -3.3 6.2
-3 0 8 -2.9 5.1
2 0 -8 62.39 11
2 0 -8 92.89 15.2
-2 0 8 63.69 10.9
1 0 -8 8.7 7
1 0 -8 -1.9 5.3
-1 0 8 2 6.1
0 0 -8 83.29 13.5
0 0 -8 57.69 10.9
0 0 8 47.5 10.3
-1 0 -8 277.07 22.1
-1 0 -8 249.38 19.3
1 0 8 301.57 20.4
-2 0 -8 8.9 7.6
-2 0 -8 14.3 9.5
2 0 8 8.1 7.4
-3 0 -8 34 10.5
-3 0 -8 24.3 10.8
3 0 8 24.6 9.4
-4 0 -8 13.3 9.4
-4 0 -8 5.9 9.7
4 0 8 0.8 7.9
-5 0 -8 26.8 13.5
-5 0 -8 14.5 10.4
5 0 8 12.2 10
-6 0 -8 -2.9 10.4
6 0 8 5.4 9.4
9 -1 -8 -3.2 10
8 -1 -8 12.1 11.5
-8 1 8 31.1 13.4
7 -1 -8 145.29 22
-7 1 8 150.68 20
6 -1 -8 35.9 12
6 -1 -8 59.59 13.7
-6 1 8 42.9 12.1
5 -1 -8 136.79 17.8
5 -1 -8 176.58 23.1
-5 1 8 194.98 20.1
4 -1 -8 53.89 12.7
4 -1 -8 53.69 12.2
-4 1 8 60.59 11.7
3 -1 -8 -6.7 6.1
3 -1 -8 5.4 7.2
-3 1 8 -3 5.7
2 -1 -8 41.6 10.7
2 -1 -8 22.6 7.8
-2 1 8 46.1 9.7
1 -1 -8 103.49 13.6
1 -1 -8 61.79 12.4
-1 1 8 80.69 11.9
0 -1 -8 28.6 8.8
0 -1 -8 34.7 10.2
0 1 8 36.2 8.9
-1 -1 -8 51.99 11.8
-1 -1 -8 60.89 12
1 1 8 60.49 10.6
-2 -1 -8 82.89 14.9
-2 -1 -8 86.39 14.2
2 1 8 58.49 11.2
-3 -1 -8 -3.4 7.7
-3 -1 -8 5.2 7.6
3 1 8 4 7.2
-4 -1 -8 39.7 14.5
-4 -1 -8 36.2 11.7
4 1 8 26.9 9.9
-5 -1 -8 4.1 10.7
-5 -1 -8 0.8 9.9
-6 -1 -8 4.4 11.1
-6 -1 -8 -12.6 10.3
8 -2 -8 7.2 10.8
-8 2 8 15.2 11.4
7 -2 -8 36.3 14.8
7 -2 -8 8.6 11.2
-7 2 8 23.4 11.1
6 -2 -8 -0.6 8.3
6 -2 -8 14 9.4
-6 2 8 4.3 6.8
5 -2 -8 151.48 19.9
5 -2 -8 136.49 21.4
-5 2 8 103.69 15.4
4 -2 -8 7.3 7.1
4 -2 -8 14.9 8.6
-4 2 8 24.6 8.7
3 -2 -8 120.39 14.3
3 -2 -8 158.48 18.1
-3 2 8 177.58 15.9
2 -2 -8 33.5 8.9
2 -2 -8 27.1 9.1
-2 2 8 62.59 10.1
1 -2 -8 38.1 9.4
1 -2 -8 56.09 12.6
-1 2 8 31.7 7.4
0 -2 -8 5 6.8
0 -2 -8 3.1 6.5
0 2 8 19.2 6.5
-1 -2 -8 254.47 19
-1 -2 -8 164.48 18.9
1 2 8 251.27 17.1
-2 -2 -8 21.3 9.4
-2 -2 -8 22.6 9.5
-3 -2 -8 21.1 9.9
-3 -2 -8 15.2 10
-4 -2 -8 0.8 9.2
-4 -2 -8 -6.4 8.6
-5 -2 -8 55.09 15.3
-5 -2 -8 44.7 15.2
8 -3 -8 -7 9.3
8 -3 -8 -0.2 10.9
7 -3 -8 22.6 13.6
6 -3 -8 5.8 9.7
6 -3 -8 6 8.2
5 -3 -8 -0.6 6.5
5 -3 -8 6.5 8.7
4 -3 -8 144.99 20.2
3 -3 -8 -5.9 5.2
3 -3 -8 -7.7 4.9
2 -3 -8 111.99 15.1
2 -3 -8 84.69 13.3
1 -3 -8 90.89 13.3
1 -3 -8 104.99 15.3
0 -3 -8 102.39 15.9
0 -3 -8 122.99 15.4
-1 -3 -8 11 8.7
-1 -3 -8 14.2 7.9
-2 -3 -8 6.1 7.6
-2 -3 -8 -0.9 7.4
-3 -3 -8 14.4 9.1
-3 -3 -8 12.4 9
-4 -3 -8 2.6 10.2
-4 -3 -8 4.2 9.3
-5 -3 -8 -0.1 11
-5 -3 -8 3.6 9.9
7 -4 -8 12.7 11.1
7 -4 -8 -4.3 8.5
6 -4 -8 -1.9 8.9
6 -4 -8 2.7 8.7
5 -4 -8 1.9 7.5
5 -4 -8 -11.1 6.7
4 -4 -8 -7.8 6.2
4 -4 -8 7.2 8.8
3 -4 -8 136.49 17.4
3 -4 -8 65.59 11.9
2 -4 -8 96.39 14.1
2 -4 -8 53.59 11.4
1 -4 -8 6.2 9
1 -4 -8 6.6 7
0 -4 -8 93.49 14.4
-1 -4 -8 9 7.3
-2 -4 -8 26.1 9.9
-3 -4 -8 3.6 8
-4 -4 -8 2.7 8.8
7 -5 -8 5.8 9.7
7 -5 -8 -0.4 10.7
6 -5 -8 9.7 9.5
5 -5 -8 11.2 9.6
4 -5 -8 18.6 9.4
3 -5 -8 3.6 7
2 -5 -8 33.2 9.1
1 -5 -8 19.9 7.7
0 -5 -8 18.4 8.5
-1 -5 -8 -3.4 5.6
-2 -5 -8 3.4 7.7
-3 -5 -8 5.8 8.5
5 -6 -8 12.2 9.9
4 -6 -8 7.4 7.8
3 -6 -8 12.3 8.1
2 -6 -8 -2.9 5.6
1 -6 -8 1.7 5.9
0 -6 -8 -0.6 5.8
-1 -6 -8 11.2 7.5
-2 -6 -8 -5.7 6.1
3 -7 -8 9.6 7.7
2 -7 -8 7.1 6.7
1 -7 -8 11.6 6.9
-1 -9 9 14.2 11.7
0 -9 9 6.8 9.7
-4 -8 9 -3.6 9.3
-3 -8 9 -2.4 9.3
-2 -8 9 15.1 11.3
-2 -8 9 16 12.2
-1 -8 9 0.1 9.6
-1 -8 9 23.3 12
0 -8 9 17.9 11.8
0 -8 9 4.9 9
1 -8 9 58.39 16.5
1 -8 9 90.49 18
2 -8 9 -5.4 9.7
2 -8 9 -5 10
3 -8 9 11 11.7
3 -8 9 -2.3 10.7
-5 -7 9 3.2 11.3
-5 -7 9 5 12.1
-4 -7 9 33 13.6
-4 -7 9 -6.3 9.5
-3 -7 9 11.8 11.1
-3 -7 9 1.8 9
-2 -7 9 13.5 10.7
-2 -7 9 16.6 10.6
-1 -7 9 12 9
-1 -7 9 0 9.3
0 -7 9 86.39 17.3
0 -7 9 106.49 19.3
1 -7 9 12.3 10.5
1 -7 9 26.3 12.7
2 -7 9 5.9 10.5
2 -7 9 2.8 10.2
3 -7 9 12.9 11.6
3 -7 9 12.5 10.4
4 -7 9 5.9 11.2
4 -7 9 5.7 12.6
-6 -6 9 6.3 11.4
-6 -6 9 30 15.1
-5 -6 9 4.8 10.3
-5 -6 9 1 9.2
-4 -6 9 24.1 12.1
-4 -6 9 8.6 10.9
-3 -6 9 -0.6 8.6
-3 -6 9 6.7 9.8
-2 -6 9 23.1 11.1
-2 -6 9 15.2 10.1
1 6 -9 5.9 7.5
-1 -6 9 3.8 8
-1 -6 9 4.8 8.3
0 6 -9 12.1 7.8
0 -6 9 14.5 10.3
0 -6 9 9.8 9.5
-1 6 -9 10 7.9
1 -6 9 26.4 12.1
1 -6 9 21.5 10.7
-2 6 -9 68.79 13.6
2 -6 9 45.6 14.8
2 -6 9 34.1 13.5
-3 6 -9 6 8.2
3 -6 9 13 10.7
3 -6 9 2.8 10.5
-4 6 -9 -0.1 9
4 -6 9 -1.7 11.4
4 -6 9 6 10
-5 6 -9 8 11
5 -6 9 26.3 14.2
-7 -5 9 7 12.1
-7 -5 9 -1.5 12
-6 -5 9 12.9 12.5
-6 -5 9 20.6 13.6
5 5 -9 -2.2 7.6
-5 -5 9 -5.9 9.5
-5 -5 9 25.6 11.8
4 5 -9 1.3 6.6
-4 -5 9 -13.6 8.1
-4 -5 9 3.4 8.3
3 5 -9 10.6 7.6
-3 -5 9 -0.4 9.1
-3 -5 9 22.9 11.5
2 5 -9 14.2 8
-2 -5 9 -6 7.5
-2 -5 9 -4.9 7.5
1 5 -9 133.69 16.6
-1 -5 9 139.89 19.2
-1 -5 9 117.99 18.8
0 5 -9 34.2 9.5
0 -5 9 47.2 14.8
0 -5 9 24.7 10.9
-1 5 -9 105.19 15.5
1 -5 9 152.08 20.5
1 -5 9 117.59 18.9
-2 5 -9 94.79 14.6
2 -5 9 125.89 20.7
2 -5 9 125.29 20.2
-3 5 -9 61.79 14.2
3 -5 9 40.4 14.1
3 -5 9 44.6 13.6
-4 5 -9 201.58 22.3
4 -5 9 142.49 21.8
-5 5 -9 -1.2 10.1
5 -5 9 5.8 11.1
7 4 -9 -0.7 9.1
-7 -4 9 -7.5 9.3
6 4 -9 21.3 10.8
-6 -4 9 50.59 16
-6 -4 9 28.9 12.3
5 4 -9 9 8.1
-5 -4 9 6.7 9.8
-5 -4 9 3.8 8.5
4 4 -9 20.9 9.1
-4 -4 9 38.3 14.4
-4 -4 9 15.6 10.8
3 4 -9 2.4 6.9
-3 -4 9 1.8 8.6
-3 -4 9 10.5 9.1
2 4 -9 9.1 6.9
-2 -4 9 17.2 9.9
-2 -4 9 1.1 7.8
1 4 -9 9.6 7.1
-1 -4 9 21.6 10.1
-1 -4 9 20.3 10.2
0 4 -9 36.2 10.5
0 -4 9 16.7 10.6
0 -4 9 37.6 11.3
-1 4 -9 26.5 9.6
1 -4 9 25.8 11.3
1 -4 9 4.6 7.2
-2 4 -9 507.65 31.1
2 -4 9 701.03 39.2
2 -4 9 640.04 35.6
-3 4 -9 35.6 11.3
3 -4 9 68.09 16.3
-4 4 -9 22.2 10.5
4 -4 9 22.4 11.9
-5 4 -9 25.8 11.3
5 -4 9 6.3 10.5
-6 4 -9 15.4 12.7
6 -4 9 13.1 12.7
8 3 -9 6.7 11.4
-8 -3 9 21.4 14.4
7 3 -9 11.1 10
-7 -3 9 22.4 11.8
6 3 -9 8.3 9.8
-6 -3 9 9.4 8.8
5 3 -9 6.1 7
-5 -3 9 26.7 11.3
4 3 -9 96.59 15.6
-4 -3 9 64.99 15.5
-4 -3 9 68.19 13.8
3 3 -9 -3.9 6.1
-3 -3 9 12.5 9.9
-3 -3 9 -4.6 6.3
2 3 -9 61.89 12.4
-2 -3 9 52.89 12.5
-2 -3 9 92.99 16.4
1 3 -9 6.2 7.1
-1 -3 9 -2 7.5
-1 -3 9 1.4 6.9
0 3 -9 15.9 7.5
0 -3 9 1.2 6.9
0 -3 9 29.6 11.2
-1 3 -9 51.79 11.5
1 -3 9 43.5 13.8
1 -3 9 50.09 11.7
-2 3 -9 -1.5 6.8
2 -3 9 6.4 8.1
-3 3 -9 98.89 16.2
3 -3 9 147.29 21.2
-4 3 -9 109.99 17.9
4 -3 9 133.49 20.2
-5 3 -9 21 11.1
5 -3 9 9 11.2
-6 3 -9 7.1 10.7
6 -3 9 -6.4 10.5
8 2 -9 -3.3 9.8
-8 -2 9 12.7 11
7 2 -9 5.8 10.2
-7 -2 9 -6.6 9.1
6 2 -9 13.3 9.9
-6 -2 9 4.3 8.9
5 2 -9 361.16 26
-5 -2 9 303.67 28.3
4 2 -9 30.1 10.6
-4 -2 9 5.4 8
3 2 -9 421.96 26.6
-3 -2 9 401.76 26.3
2 2 -9 187.78 19.1
-2 -2 9 219.28 23
1 2 -9 317.87 22.6
1 2 -9 279.07 27.7
-1 -2 9 323.97 23.1
0 2 -9 11.6 6.6
0 2 -9 13.2 9
0 -2 9 12.6 7.4
-1 2 -9 199.48 21.4
1 -2 9 241.28 23.6
-2 2 -9 45.4 12
2 -2 9 29.2 10
-3 2 -9 52.99 12.3
3 -2 9 82.49 14.9
-4 2 -9 5 8.2
4 -2 9 0.3 8.9
-5 2 -9 48.5 14.4
5 -2 9 67.29 16.4
-6 2 -9 12.6 11.3
6 -2 9 -3.4 8.7
8 1 -9 9.1 11.4
-8 -1 9 16.1 13.3
7 1 -9 4.2 9.9
-7 -1 9 10.2 10.8
6 1 -9 21.9 10.8
-6 -1 9 14.9 9.5
5 1 -9 -0.8 7.2
-5 -1 9 0.5 7.6
4 1 -9 142.69 19
-4 -1 9 87.49 14.3
3 1 -9 6.6 8.6
3 1 -9 5.8 7.6
-3 -1 9 1.3 7.2
2 1 -9 182.18 19.6
2 1 -9 139.09 18.4
-2 -1 9 169.68 18.2
1 1 -9 60.29 14.1
1 1 -9 40.1 10.8
-1 -1 9 69.29 12.9
0 1 -9 70.69 14.3
0 1 -9 55.49 11.3
0 -1 9 77.59 13.9
-1 1 -9 2.8 7
-1 1 -9 -2.8 7.4
1 -1 9 2.7 7.1
-2 1 -9 3.7 8.9
-2 1 -9 2 7.6
2 -1 9 8.1 7.7
-3 1 -9 69.79 14
-3 1 -9 52.99 15
3 -1 9 89.89 15.6
-4 1 -9 62.39 14.7
4 -1 9 34.2 12.4
-5 1 -9 -9.3 7.3
5 -1 9 -6.5 8.9
-6 1 -9 21.1 13
6 -1 9 12.4 12
8 0 -9 -0.5 10.8
-8 0 9 -10.6 9.1
-7 0 9 9.9 9.3
6 0 -9 5 8.2
-6 0 9 11.8 10.1
5 0 -9 107.19 19.4
5 0 -9 89.79 15.8
-5 0 9 111.09 16.7
4 0 -9 49.8 13.9
4 0 -9 67.39 14.2
-4 0 9 32.1 10.1
3 0 -9 103.99 18
3 0 -9 87.19 14.2
-3 0 9 54.69 11.3
2 0 -9 61.59 13.8
2 0 -9 31.1 9.5
-2 0 9 47.9 10.6
1 0 -9 5.7 7.6
1 0 -9 0 6.9
-1 0 9 -3.4 5.8
0 0 -9 6.7 6.8
0 0 -9 23.9 9.4
0 0 9 2.9 6.9
-1 0 -9 -5 5.5
-1 0 -9 -4.5 7.4
1 0 9 2.7 6.4
-2 0 -9 38.4 12.6
-2 0 -9 41.1 11.3
2 0 9 39.2 10.6
-3 0 -9 45.2 12.7
-3 0 -9 58.29 14.7
3 0 9 38.7 11.2
-4 0 -9 6.9 11.6
-4 0 -9 21.9 12.1
4 0 9 28 11.1
-5 0 -9 44.9 14.5
5 0 9 61.19 14.7
8 -1 -9 -19.3 9.3
-8 1 9 -20.1 8.4
-7 1 9 -0.1 8.8
6 -1 -9 3.3 10.9
6 -1 -9 9.4 9.2
-6 1 9 -5.3 8.7
5 -1 -9 4 8.6
5 -1 -9 6.3 9.9
-5 1 9 -2.4 7.1
4 -1 -9 52.39 12.9
4 -1 -9 29.7 9.1
-4 1 9 73.29 13
3 -1 -9 -5.9 6.9
3 -1 -9 2.2 7.3
-3 1 9 -3.3 5.7
2 -1 -9 4.3 7.6
2 -1 -9 3.6 7.2
-2 1 9 8.4 6.9
1 -1 -9 25.6 8.7
1 -1 -9 26 10
-1 1 9 16.2 7.6
0 -1 -9 47.9 12.8
0 -1 -9 34.7 9.9
0 1 9 44.7 10.3
-1 -1 -9 37.7 11.5
-1 -1 -9 35.7 10.5
1 1 9 53.09 11.3
-2 -1 -9 100.19 16
-2 -1 -9 99.49 18.2
2 1 9 100.29 15.2
-3 -1 -9 6.1 10.4
-3 -1 -9 6.2 8.2
3 1 9 0.1 7.2
-4 -1 -9 34.4 13.5
-4 -1 -9 41.6 13.6
-5 -1 -9 3.2 11.7
-5 -1 -9 32 12.6
8 -2 -9 4.6 12
-8 2 9 32.4 12.9
7 -2 -9 3.9 10.4
7 -2 -9 5 10.7
-7 2 9 5.3 9.4
6 -2 -9 36.4 12.9
6 -2 -9 43.1 12.2
-6 2 9 38.9 11.3
5 -2 -9 -4.7 7.8
5 -2 -9 0.6 8.9
-5 2 9 8.3 8
4 -2 -9 -2.5 6.7
4 -2 -9 8.3 8.1
-4 2 9 13 7.8
3 -2 -9 78.79 14.4
3 -2 -9 80.09 13.4
-3 2 9 70.39 11.9
2 -2 -9 5.1 7
2 -2 -9 0.5 6.6
-2 2 9 0.3 5.5
1 -2 -9 0.7 7.3
1 -2 -9 18.2 8.5
-1 2 9 10.3 6.4
0 -2 -9 108.59 16.7
0 -2 -9 147.29 17.1
-1 -2 -9 15.5 8.5
-1 -2 -9 19.7 9.7
-2 -2 -9 86.89 17.2
-2 -2 -9 104.09 16.1
-3 -2 -9 51.39 13.7
-3 -2 -9 37.5 12.9
-4 -2 -9 -1.3 9.4
-4 -2 -9 6.9 10.1
-5 -2 -9 19.9 12.5
-5 -2 -9 3.7 10.4
7 -3 -9 6.3 10
7 -3 -9 -3 9.7
6 -3 -9 12.1 10.6
6 -3 -9 8 9.2
5 -3 -9 -3.4 6.7
5 -3 -9 0 8.9
4 -3 -9 1.7 7.1
4 -3 -9 17 9.3
3 -3 -9 6.2 8.4
3 -3 -9 9.4 7.4
2 -3 -9 4 7.8
2 -3 -9 4.2 7
1 -3 -9 -7.7 6.6
1 -3 -9 -1.7 6.6
0 -3 -9 33.7 10.6
0 -3 -9 30.3 11
-1 -3 -9 7.6 8.1
-1 -3 -9 0.4 8
-2 -3 -9 -4 7.3
-2 -3 -9 0.8 8
-3 -3 -9 8.2 9.9
-3 -3 -9 -6.3 9
-4 -3 -9 6.5 11.2
-4 -3 -9 0.7 10.2
7 -4 -9 -3.7 9
7 -4 -9 12.6 11.9
6 -4 -9 -6.9 9
6 -4 -9 -1.8 8.1
5 -4 -9 28.3 11
5 -4 -9 18.6 11.3
4 -4 -9 25 11.5
4 -4 -9 21.9 9.5
3 -4 -9 4.2 7.8
3 -4 -9 3 6.4
2 -4 -9 13.3 13.9
2 -4 -9 22.2 9.4
1 -4 -9 8.4 7.7
0 -4 -9 89.29 15.3
-1 -4 -9 21.9 10.2
-2 -4 -9 7.7 9.6
-3 -4 -9 3.5 10.1
6 -5 -9 -4 9.1
5 -5 -9 5.3 8.7
4 -5 -9 0 8.3
3 -5 -9 13.7 8.7
2 -5 -9 7.7 7.5
1 -5 -9 28.7 9.5
0 -5 -9 10.9 8.6
-1 -5 -9 35.7 11.5
-2 -5 -9 -5.9 6.9
4 -6 -9 14.1 9.6
3 -6 -9 1.6 7.6
2 -6 -9 11.6 8.2
1 -6 -9 -0.1 6.6
0 -6 -9 4 7.2
-3 -8 10 8 11.8
-3 -8 10 2.2 12.4
-2 -8 10 3.4 11.4
-2 -8 10 6.2 10.9
-1 -8 10 11.5 12.6
-1 -8 10 12.9 11.8
0 -8 10 4.3 11.4
0 -8 10 -8.5 9.6
1 -8 10 41.2 15.1
1 -8 10 25.6 14.5
2 -8 10 -11.9 9.4
2 -8 10 4.8 11.6
-4 -7 10 8 11
-4 -7 10 4.1 11.5
-3 -7 10 4.9 11.2
-3 -7 10 20.3 13.5
-2 -7 10 29.8 13.3
-2 -7 10 33.2 14.2
-1 -7 10 29.4 11.9
-1 -7 10 12.8 10.2
0 -7 10 23.6 13.2
0 -7 10 31.3 12.9
1 -7 10 37.9 13.7
1 -7 10 36.1 14.7
2 -7 10 -5.3 11.7
2 -7 10 -5 9.3
3 -7 10 -2.8 11.1
3 -7 10 10.7 13
-6 -6 10 9.6 12.7
-5 -6 10 0.6 11.7
-5 -6 10 -2.5 10.5
-4 -6 10 -7.3 9.3
-4 -6 10 -2.5 9.8
-3 -6 10 13.4 11.4
-3 -6 10 38.4 14
-2 -6 10 -7.1 8.8
-2 -6 10 -6.7 8.4
1 6 -10 64.89 12.4
-1 -6 10 81.39 15.9
-1 -6 10 99.19 19.6
0 6 -10 10.8 8.3
0 -6 10 -4.5 9.4
0 -6 10 -8.1 9.1
-1 6 -10 9.4 8.3
1 -6 10 9.5 10
1 -6 10 19.5 13.3
-2 6 -10 15.8 9.6
2 -6 10 11.2 13
2 -6 10 18.9 12.1
-3 6 -10 4.4 8.3
3 -6 10 5.6 11.6
-4 6 -10 4.1 9.3
4 -6 10 23.6 13.4
6 5 -10 22.3 14
-6 -5 10 8.8 11.5
-5 -5 10 46.9 15.1
-5 -5 10 59.49 15.6
4 5 -10 5.9 7.4
-4 -5 10 -4.8 8.8
-4 -5 10 -3.7 10.2
3 5 -10 98.29 15.2
-3 -5 10 75.09 16.7
-3 -5 10 105.89 17.7
2 5 -10 12.8 8.5
-2 -5 10 8 11.1
-2 -5 10 8.9 9.5
1 5 -10 -3.5 7.1
-1 -5 10 6.7 9.6
-1 -5 10 0.2 9.1
0 5 -10 6.5 7.4
0 -5 10 -1.3 10.2
0 -5 10 12.5 9.8
-1 5 -10 13.3 9.1
1 -5 10 24.4 11.8
1 -5 10 48.1 16.3
-2 5 -10 47.6 11.5
2 -5 10 62.39 15.3
-3 5 -10 9.8 9.3
3 -5 10 27.9 13.3
-4 5 -10 33.6 13.2
4 -5 10 11.3 12
5 -5 10 -0.6 11.2
7 4 -10 29.2 12.6
-7 -4 10 30.6 14.8
6 4 -10 31.8 12.9
-6 -4 10 17.8 12.4
5 4 -10 27.5 11.2
-5 -4 10 14.5 11.6
4 4 -10 87.09 15.1
-4 -4 10 73.89 15.5
-4 -4 10 95.19 21
3 4 -10 29.2 10.1
-3 -4 10 25.3 10.4
-3 -4 10 30.9 12.9
2 4 -10 14.5 8.6
-2 -4 10 26.3 11.1
-2 -4 10 12.4 10.5
1 4 -10 19.3 8.8
-1 -4 10 26.2 11.8
-1 -4 10 23 10.2
0 4 -10 2.1 8
0 -4 10 -1.7 6.9
0 -4 10 -8.5 8.6
-1 4 -10 11.6 9.1
1 -4 10 18.9 10.1
-2 4 -10 36.9 10.7
2 -4 10 37.4 12.7
-3 4 -10 52.59 14.5
3 -4 10 55.49 15.6
-4 4 -10 1.1 9.9
4 -4 10 -0.1 10.4
-5 4 -10 29.5 12.9
5 -4 10 48.9 16.5
7 3 -10 5.2 11
-7 -3 10 -5.9 8.8
6 3 -10 41.5 13.3
-6 -3 10 37.1 14.2
5 3 -10 -0.2 7.7
-5 -3 10 1.6 8.7
4 3 -10 0.4 7.6
-4 -3 10 13 9.2
3 3 -10 16.4 9.4
-3 -3 10 58.19 14.5
2 3 -10 1.7 6.8
-2 -3 10 -1.6 8.1
1 3 -10 -6 6.3
-1 -3 10 13.1 8.3
0 3 -10 172.78 20.2
0 -3 10 178.18 22.4
-1 3 -10 2.1 7.4
1 -3 10 -9.8 6.7
-2 3 -10 106.19 16.8
2 -3 10 116.79 18.4
-3 3 -10 4.4 9
3 -3 10 4.1 8.8
-4 3 -10 13.3 10.9
4 -3 10 3.7 11.1
-5 3 -10 12.2 10.7
5 -3 10 -11.8 9.4
8 2 -10 5.2 11
-8 -2 10 7.6 12.7
7 2 -10 -1.2 10.4
-7 -2 10 -4.5 10.2
6 2 -10 9.8 9.7
-6 -2 10 19.8 11.6
5 2 -10 18.9 10.3
-5 -2 10 20.9 10.8
4 2 -10 16.1 9.8
-4 -2 10 3.3 8.2
3 2 -10 83.99 14.7
-3 -2 10 126.59 18.7
2 2 -10 79.69 14.7
-2 -2 10 160.68 21.3
1 2 -10 138.19 18.1
-1 -2 10 166.88 20.2
0 2 -10 605.94 32.7
0 -2 10 602.14 34.3
-1 2 -10 24.8 10.5
1 -2 10 32.7 11.6
-2 2 -10 1.9 6.9
2 -2 10 7.2 8.3
-3 2 -10 12.7 10
3 -2 10 12.4 9.2
-4 2 -10 -0.8 9
4 -2 10 -5.6 8.3
-5 2 -10 63.59 16.2
5 -2 10 64.59 17.4
8 1 -10 3.8 12.3
-8 -1 10 -7.9 11.5
-7 -1 10 12.2 11.1
6 1 -10 19.6 10.3
-6 -1 10 19.7 11.2
5 1 -10 11.7 9.5
-5 -1 10 31.9 11.7
4 1 -10 38.5 12.2
-4 -1 10 66.99 14.6
3 1 -10 3.1 7
-3 -1 10 -6.4 7.3
2 1 -10 459.35 27.9
-2 -1 10 470.85 29
1 1 -10 581.74 32.6
1 1 -10 582.14 35.4
-1 -1 10 550.14 32.7
0 1 -10 268.97 24.8
0 1 -10 355.36 32.7
0 -1 10 343.47 29.3
-1 1 -10 65.89 14.5
-1 1 -10 99.09 16.3
1 -1 10 76.99 15
-2 1 -10 17.4 9.2
2 -1 10 0 7.2
-3 1 -10 11.9 9.1
3 -1 10 44.6 12.8
-4 1 -10 -7.4 7.5
4 -1 10 1.2 7.9
-5 1 -10 -4 9.1
5 -1 10 23.3 11.6
8 0 -10 -6.1 10.8
-8 0 10 21 13.1
7 0 -10 3.7 10
-7 0 10 -3.2 9.6
6 0 -10 34.8 12.6
-6 0 10 53.09 14.5
5 0 -10 36.5 13.1
-5 0 10 38.2 12.6
4 0 -10 4.6 9.7
4 0 -10 11 8.9
-4 0 10 7.4 8
3 0 -10 162.88 21.7
3 0 -10 139.69 18.7
-3 0 10 214.68 22.3
2 0 -10 54.99 12.5
2 0 -10 54.09 14
-2 0 10 47 11.4
1 0 -10 455.55 31.4
1 0 -10 431.66 27.6
-1 0 10 499.75 28.8
0 0 -10 334.97 26.5
0 0 -10 315.97 24.2
0 0 10 304.27 23.5
-1 0 -10 114.89 19.1
-1 0 -10 130.79 18.4
1 0 10 142.49 18.9
-2 0 -10 16.3 10
-2 0 -10 19.5 10.7
2 0 10 21.2 10.5
-3 0 -10 22.9 12.4
-3 0 -10 22.3 12.1
3 0 10 31.6 11.4
-4 0 -10 12.8 10.5
4 0 10 16.2 10.8
-5 0 -10 4.3 11.8
5 0 10 -0.9 9.1
8 -1 -10 -8.7 11.2
7 -1 -10 -10.7 8.8
-7 1 10 0.7 9.6
6 -1 -10 -5.1 7.5
-6 1 10 -6.9 8.5
5 -1 -10 15.6 11.8
5 -1 -10 4.6 9.6
-5 1 10 16.4 9.6
4 -1 -10 4.8 10.3
4 -1 -10 5 7.8
-4 1 10 6.8 7.7
3 -1 -10 54.99 13.7
3 -1 -10 51.39 11.8
-3 1 10 41.7 11
2 -1 -10 62.79 15.4
2 -1 -10 92.49 15.5
-2 1 10 66.69 12.1
1 -1 -10 0.3 8
1 -1 -10 0.2 7.2
-1 1 10 -8.2 6.2
0 -1 -10 -3.2 7.8
0 -1 -10 -7.2 7.1
0 1 10 6.3 7.1
-1 -1 -10 -5.8 7.8
-1 -1 -10 -8.1 7.2
1 1 10 4.7 7.5
-2 -1 -10 4.1 9.9
-2 -1 -10 -4.5 7.6
2 1 10 -2.7 7.1
-3 -1 -10 -1.5 8.5
-3 -1 -10 -8.5 9.5
-4 -1 -10 12.2 10.8
-4 -1 -10 0.8 11.2
7 -2 -10 23.4 23.3
7 -2 -10 26.4 13.2
6 -2 -10 13.7 10.6
6 -2 -10 17 12.3
5 -2 -10 -6.8 8.9
5 -2 -10 -1.3 8.7
-5 2 10 4.8 13.5
4 -2 -10 39.6 11.7
4 -2 -10 25.9 11
3 -2 -10 12.6 8.7
3 -2 -10 -0.6 8.7
2 -2 -10 5.4 8.3
2 -2 -10 7.8 8.1
1 -2 -10 48 13.3
1 -2 -10 61.29 13
0 -2 -10 38.3 11.7
0 -2 -10 22.2 10.8
-1 -2 -10 34.2 11.8
-1 -2 -10 18.3 10.3
-2 -2 -10 13.7 10.7
-2 -2 -10 14.2 10
-3 -2 -10 -9.2 8.7
-3 -2 -10 4.9 10.6
-4 -2 -10 1.3 10.9
-4 -2 -10 -5.5 11.2
7 -3 -10 16.1 13.4
7 -3 -10 -3 9.5
6 -3 -10 17.2 10
6 -3 -10 19.7 12.5
5 -3 -10 -12.5 8
5 -3 -10 10.9 11.1
4 -3 -10 16.7 8.9
4 -3 -10 17.9 10.4
3 -3 -10 11.5 8
3 -3 -10 1.5 8.2
2 -3 -10 14.8 9.5
2 -3 -10 1 7.4
1 -3 -10 9.5 8.9
1 -3 -10 1.9 8.4
0 -3 -10 30.5 11.3
0 -3 -10 17.3 9.9
-1 -3 -10 16.4 10.5
-1 -3 -10 34.8 11.2
-2 -3 -10 11 10.1
-2 -3 -10 11.6 10
-3 -3 -10 0.9 9.9
-3 -3 -10 -3.2 9.5
6 -4 -10 0.7 9.1
6 -4 -10 7.6 10.6
5 -4 -10 0.6 9.8
5 -4 -10 5.9 9.8
4 -4 -10 20.8 11.7
4 -4 -10 5.5 8.9
3 -4 -10 2.9 8.1
3 -4 -10 3 10.2
2 -4 -10 -1.3 7.3
1 -4 -10 5.7 8.4
0 -4 -10 18.3 10.3
-1 -4 -10 2 9.2
-2 -4 -10 7.2 9.5
4 -5 -10 -5.8 9.4
3 -5 -10 1.7 8.4
2 -5 -10 4.9 8.2
1 -5 -10 5.8 7.7
0 -5 -10 3.4 8.2
-3 -7 11 33.5 16
-3 -7 11 22.4 15
-2 -7 11 13.4 13.6
-2 -7 11 24.1 14
-1 -7 11 7.8 11.1
-1 -7 11 -2.1 10
0 -7 11 55.89 16.9
0 -7 11 41.7 16
1 -7 11 -2.5 12
1 -7 11 -7.5 9.3
2 -7 11 -11.2 10.9
2 -7 11 2.8 11.4
-5 -6 11 -1.8 10.9
-5 -6 11 -0.1 10.6
-4 -6 11 9.9 11.9
-4 -6 11 -22.5 10.6
-3 -6 11 1.6 11.8
-3 -6 11 22.6 13.2
2 6 -11 14 13.8
-2 -6 11 12.8 12.7
-2 -6 11 16.9 11.4
1 6 -11 3.4 7.8
-1 -6 11 7.1 10.6
-1 -6 11 7.4 10.7
0 6 -11 -6.7 6.8
0 -6 11 -3 9.8
0 -6 11 -6.6 8.4
-1 6 -11 11.8 9
1 -6 11 33.2 16.4
1 -6 11 11 11.3
-2 6 -11 -2.9 9
2 -6 11 4.4 11.1
-3 6 -11 0 9
3 -6 11 18.9 13
6 5 -11 30.3 13
-6 -5 11 24.1 14.1
5 5 -11 6.7 8.4
-5 -5 11 5.1 11.8
4 5 -11 8.1 8.5
-4 -5 11 8.3 10.7
3 5 -11 3.4 7.8
-3 -5 11 0.2 9.5
-3 -5 11 13.4 11.4
2 5 -11 3.6 7.9
-2 -5 11 -6.8 9.6
-2 -5 11 -19.9 7.8
1 5 -11 8.1 9.1
-1 -5 11 4.4 10.5
-1 -5 11 18.7 12.3
0 5 -11 15 9.3
0 -5 11 -8.2 8.8
-1 5 -11 8.9 9.5
1 -5 11 4.3 10
-2 5 -11 -5.1 6.8
2 -5 11 5 9.7
-3 5 -11 1.4 8.8
3 -5 11 5.6 10
4 -5 11 30 15.5
-6 -4 11 76.79 19.4
5 4 -11 14 9.3
-5 -4 11 3.3 10.9
4 4 -11 104.79 17.5
-4 -4 11 132.99 20.5
3 4 -11 38.7 12.1
-3 -4 11 9.6 11
2 4 -11 64.19 13.8
-2 -4 11 71.49 17.1
1 4 -11 12.7 9
-1 -4 11 33.2 12.9
0 4 -11 -0.8 7.9
0 -4 11 10.4 10.4
-1 4 -11 -7 7.4
1 -4 11 4 8.8
-2 4 -11 10.4 9.2
2 -4 11 4.8 9.4
-3 4 -11 43.3 13.7
3 -4 11 41.8 13.6
-4 4 -11 -3.5 9.9
4 -4 11 0.9 10.2
7 3 -11 20.4 12.6
-7 -3 11 -6.5 10.8
6 3 -11 27.3 12.1
-6 -3 11 9.4 11.5
5 3 -11 46.1 13.6
-5 -3 11 61.49 15.9
4 3 -11 -9.4 7.3
-4 -3 11 -7.8 8.2
3 3 -11 76.39 14.6
-3 -3 11 104.99 18.9
2 3 -11 1.5 8.1
-2 -3 11 1.3 8.8
1 3 -11 32.4 11
-1 -3 11 38.2 12.1
0 3 -11 142.49 19.9
0 -3 11 98.89 16.9
-1 3 -11 -3.3 7.6
1 -3 11 2.5 9.1
-2 3 -11 -0.2 8.6
2 -3 11 12.3 10.3
-3 3 -11 12.4 10.4
3 -3 11 -0.1 8.6
-4 3 -11 11.7 11.3
4 -3 11 2 10.5
-7 -2 11 79.59 18.2
6 2 -11 44.6 13.7
-6 -2 11 58.69 15.1
5 2 -11 113.59 18.9
-5 -2 11 104.29 19.3
4 2 -11 15.6 10.6
-4 -2 11 14.9 9.9
3 2 -11 -1.3 7.7
-3 -2 11 12.4 9.8
2 2 -11 85.59 14.7
-2 -2 11 114.79 17.7
1 2 -11 0.9 7.4
-1 -2 11 1.7 8.3
0 2 -11 11.3 9.3
0 -2 11 7.1 7.8
-1 2 -11 55.59 12.8
1 -2 11 48.8 13.7
-2 2 -11 23.1 10.6
2 -2 11 15 9.4
-3 2 -11 -6.5 8.8
3 -2 11 10.5 10.5
-4 2 -11 -8.6 8.9
4 -2 11 1 9.5
7 1 -11 15.6 11.3
-7 -1 11 -3.2 10.4
6 1 -11 15.6 11.6
-6 -1 11 -1.2 9.6
5 1 -11 34.4 13.1
-5 -1 11 57.89 14.4
4 1 -11 -3.8 7.9
-4 -1 11 8.1 9.5
3 1 -11 0.3 8.6
-3 -1 11 -4.9 7.3
2 1 -11 41.3 12.1
-2 -1 11 31.2 11.2
1 1 -11 -1 8.5
-1 -1 11 22.6 10.3
0 1 -11 3.8 7.9
0 -1 11 -1.4 8
-1 1 -11 223.28 24.9
1 -1 11 195.08 22.6
-2 1 -11 -0.3 8.6
2 -1 11 -7.6 8.3
-3 1 -11 24.5 12
3 -1 11 28.4 12.2
-4 1 -11 -9.3 8.9
4 -1 11 6.6 9.9
7 0 -11 38.8 15.5
-7 0 11 42.1 14.9
6 0 -11 -6.8 9
-6 0 11 2.8 10.2
5 0 -11 37.1 13.1
-5 0 11 43.7 12.7
4 0 -11 5.7 8.8
-4 0 11 23.4 11.3
3 0 -11 27 11.4
3 0 -11 27.6 11.3
-3 0 11 33.2 11.1
2 0 -11 20.1 9
2 0 -11 51.99 14.9
-2 0 11 29.8 10.6
1 0 -11 -4.8 8.4
1 0 -11 -3.5 8.3
-1 0 11 0.7 7.8
0 0 -11 15.2 10.2
0 0 -11 13.1 10.2
0 0 11 4 9.1
-1 0 -11 64.99 15.4
-1 0 -11 134.89 20.1
1 0 11 114.29 18.1
-2 0 -11 43.9 14.3
-2 0 -11 29.8 12.7
2 0 11 38.1 12.6
-3 0 -11 -8.7 8.7
3 0 11 -1.5 9.1
-4 0 -11 39.1 14.3
7 -1 -11 0.3 10.2
-7 1 11 5.7 11.3
6 -1 -11 11.7 11.6
-6 1 11 5.9 11.1
5 -1 -11 24.1 13.7
5 -1 -11 7.5 10.4
-5 1 11 -5.5 7.6
4 -1 -11 32 11.5
4 -1 -11 12.7 11.6
-4 1 11 31.6 10.4
3 -1 -11 69.99 14.6
3 -1 -11 87.29 17.1
-3 1 11 83.99 14.6
2 -1 -11 5.9 8.6
2 -1 -11 0.2 9
-2 1 11 -9 6.8
1 -1 -11 -6.2 8.5
1 -1 -11 5.9 9.3
-1 1 11 -1.3 8
0 -1 -11 -1.7 8.1
0 -1 -11 -8.8 7.2
0 1 11 1.4 7.8
-1 -1 -11 236.28 25.5
-1 -1 -11 163.98 22.8
-2 -1 -11 11.4 11.5
-2 -1 -11 10.4 10.7
-3 -1 -11 2.2 10.9
-3 -1 -11 19.1 12.8
6 -2 -11 32.2 14.7
6 -2 -11 30 14.3
5 -2 -11 33.5 14.7
5 -2 -11 1.9 9.8
4 -2 -11 11.5 9.3
4 -2 -11 26 11.9
3 -2 -11 7.5 9
3 -2 -11 5.6 9.3
2 -2 -11 11.1 9.3
2 -2 -11 1.8 8.1
1 -2 -11 16 11.1
1 -2 -11 28.2 11.7
0 -2 -11 -1.9 9.5
0 -2 -11 -1.7 8.6
-1 -2 -11 18.5 11.1
-1 -2 -11 8.2 10.3
-2 -2 -11 21.9 12.1
-2 -2 -11 11.5 10.7
6 -3 -11 6.7 11.8
5 -3 -11 24.2 13.5
5 -3 -11 25.9 12.2
4 -3 -11 6.3 9.7
4 -3 -11 -6 7.8
3 -3 -11 13.2 9.1
3 -3 -11 9.8 9.9
2 -3 -11 1.3 8.8
2 -3 -11 3.4 8.8
1 -3 -11 20 11.7
1 -3 -11 17.9 11.1
0 -3 -11 26 11.8
0 -3 -11 38.9 12.8
-1 -3 -11 8.2 10
-1 -3 -11 -2.9 9.6
-2 -3 -11 -0.9 9.1
4 -4 -11 -1.2 9.3
4 -4 -11 10 10.4
3 -4 -11 8.6 10.5
2 -4 -11 16.8 10.5
1 -4 -11 3 8.5
0 -4 -11 -1.3 8.7
-1 -7 12 19.4 12.4
-4 -6 12 9 12.9
-3 -6 12 9.4 11.8
2 6 -12 16.2 11.7
-2 -6 12 12.3 12
1 6 -12 16.7 9.7
-1 -6 12 35 14
0 6 -12 5.7 8.9
0 -6 12 -4.6 10.9
-1 6 -12 5.2 9.6
1 -6 12 -7 10.4
5 5 -12 28.4 12.3
-5 -5 12 38.3 16
4 5 -12 -7.3 8.2
-4 -5 12 9.8 12.6
3 5 -12 29.5 11.7
-3 -5 12 31.6 13.5
2 5 -12 1.5 8
-2 -5 12 16.7 13.2
1 5 -12 3.9 8.9
-1 -5 12 8.9 11.5
0 5 -12 18.5 10.3
0 -5 12 27.4 12.9
-1 5 -12 20.5 11.6
1 -5 12 29.4 14.1
-2 5 -12 2.6 8.9
2 -5 12 12.4 11.6
5 4 -12 82.89 17.1
-5 -4 12 97.49 20.6
4 4 -12 32.9 12.6
-4 -4 12 46.2 16.1
3 4 -12 -0.9 8.1
-3 -4 12 -7.4 8.4
-2 -4 12 163.78 24.4
1 4 -12 -0.7 8.7
-1 -4 12 5.4 9.6
0 4 -12 2 8.9
0 -4 12 0.4 8.8
-1 4 -12 25.7 11.8
1 -4 12 19.6 12.3
-2 4 -12 9.7 10
2 -4 12 11.5 11.2
-3 4 -12 -3 9.4
3 -4 12 12.6 12.1
6 3 -12 0 10
-6 -3 12 -7.3 11.1
5 3 -12 36.7 13.7
-5 -3 12 25.9 13.9
4 3 -12 33.9 13
-4 -3 12 10 10.8
3 3 -12 85.79 16.5
-3 -3 12 140.49 22.8
2 3 -12 38 12.1
-2 -3 12 15.3 10.9
1 3 -12 60.99 14.2
-1 -3 12 69.09 16.2
0 3 -12 20.3 11.2
0 -3 12 24.2 12.2
-1 3 -12 -5.7 7.8
1 -3 12 7.6 9.6
-2 3 -12 17.1 11.5
2 -3 12 48.8 14.9
-3 3 -12 3.5 11.4
3 -3 12 10.8 10.4
6 2 -12 6.5 10.2
-6 -2 12 19 12.7
5 2 -12 14.3 11.9
-5 -2 12 -0.8 9.7
4 2 -12 22.5 11.4
-4 -2 12 1.1 10.1
3 2 -12 -0.9 9.5
-3 -2 12 15.3 11.5
2 2 -12 3.9 9.6
-2 -2 12 8.4 10.1
1 2 -12 20.8 11.4
-1 -2 12 -5.7 9.3
0 2 -12 24.9 11.2
0 -2 12 27.3 12.4
-1 2 -12 13.6 11.1
1 -2 12 16.8 11.5
-2 2 -12 19.7 11.6
2 -2 12 3.7 10.1
-3 2 -12 -1.8 10.4
3 -2 12 -1.5 9.8
6 1 -12 4.1 11.6
-6 -1 12 3.9 11.8
5 1 -12 52.99 16.4
-5 -1 12 35.5 14.2
4 1 -12 5.2 9.7
-4 -1 12 -12.9 7.5
3 1 -12 25.5 12.2
-3 -1 12 32.3 12.7
2 1 -12 76.29 15.2
-2 -1 12 94.19 17.4
1 1 -12 19.2 10.7
-1 -1 12 10.2 10.2
0 1 -12 5.1 9.5
0 -1 12 -8.1 7.9
-1 1 -12 31.5 12.6
1 -1 12 43.6 13.4
-2 1 -12 1.3 9.6
2 -1 12 0.1 8.8
-3 1 -12 10.5 12
3 -1 12 28.1 13.4
6 0 -12 0.9 10.5
-6 0 12 -5.8 10.2
5 0 -12 6.8 11.4
-5 0 12 32 13.3
-4 0 12 174.38 21.8
3 0 -12 -6.5 8.7
-3 0 12 9.7 10.1
2 0 -12 22.9 12.5
2 0 -12 9.7 10.4
-2 0 12 22.8 11.3
1 0 -12 7.4 10.7
1 0 -12 11.4 10.7
-1 0 12 3.6 9.7
0 0 -12 -4.4 7.8
0 0 -12 9.1 10.5
0 0 12 2.6 10.1
-1 0 -12 18 11.8
1 0 12 16 11
-2 0 -12 57.49 15.7
2 0 12 60.49 14.7
6 -1 -12 36 15.5
-6 1 12 29.1 14.1
5 -1 -12 16.7 13.1
-5 1 12 4.2 9.4
4 -1 -12 41.2 13.7
4 -1 -12 59.29 16.6
-4 1 12 48.4 12.6
3 -1 -12 100.39 16.7
3 -1 -12 118.09 21.4
-3 1 12 114.19 17.6
2 -1 -12 8.1 9.9
2 -1 -12 -1.5 9
1 -1 -12 -7.1 9
1 -1 -12 9.8 10.3
0 -1 -12 -0.9 10.1
0 -1 -12 -3.2 9.5
-1 -1 -12 2.7 10
-1 -1 -12 -9.1 9.4
-2 -1 -12 2.1 10.7
-2 -1 -12 6.5 11.4
5 -2 -12 61.69 17
5 -2 -12 89.09 19.3
4 -2 -12 8.9 10.4
4 -2 -12 7.1 11.9
3 -2 -12 9.4 10.3
3 -2 -12 -3.3 7.1
2 -2 -12 11.6 11
2 -2 -12 11.8 10.5
1 -2 -12 -0.5 10.3
1 -2 -12 -6.4 9.5
0 -2 -12 3.2 11
0 -2 -12 -11.8 8.9
-1 -2 -12 9.7 11.1
-1 -2 -12 -2.9 10
4 -3 -12 -3.5 9.6
3 -3 -12 27.2 13.1
3 -3 -12 22.3 11.2
2 -3 -12 3.8 9.9
2 -3 -12 -1 9.5
1 -3 -12 2.5 10.4
1 -3 -12 8.2 10.3
3 5 -13 26.4 12.5
-3 -5 13 11.2 13.2
2 5 -13 -6.4 8.6
-2 -5 13 -5.8 10.3
1 5 -13 38.8 13.3
-1 -5 13 24.8 14.4
0 5 -13 -1.3 8.6
0 -5 13 18.3 13.7
4 4 -13 3.5 10.8
-4 -4 13 6.4 11.6
3 4 -13 4.7 10
-3 -4 13 -11.8 9.7
2 4 -13 8.8 10.8
-2 -4 13 32 13.8
1 4 -13 -2.3 8.7
-1 -4 13 2.1 11.3
0 4 -13 12.2 10.5
0 -4 13 39.9 15.2
-1 4 -13 4.3 10.2
1 -4 13 -1.3 9.8
-5 -3 13 32.9 14.9
4 3 -13 9 11.8
-4 -3 13 25.4 13.9
3 3 -13 28.1 12.6
-3 -3 13 23.1 13.8
2 3 -13 17.5 11.3
-2 -3 13 7.7 11.8
1 3 -13 25.5 12.5
-1 -3 13 37.9 15.1
0 3 -13 38 14.2
0 -3 13 24.4 12.4
-1 3 -13 -2.4 9.7
1 -3 13 10.5 12.2
5 2 -13 4.2 11.3
-5 -2 13 13.9 13.1
4 2 -13 15.2 10.8
-4 -2 13 14.4 11.2
3 2 -13 5.8 10.4
-3 -2 13 13.2 12.4
2 2 -13 24.8 11.8
-2 -2 13 20 12.5
1 2 -13 11.6 11.3
-1 -2 13 26.2 13.7
0 2 -13 58.39 15.5
0 -2 13 59.69 15.8
-1 2 -13 4.4 9.9
1 -2 13 4.2 10.5
5 1 -13 -8.7 9.4
-5 -1 13 -8.2 10.6
4 1 -13 8.9 11.6
-4 -1 13 18.4 12.2
3 1 -13 16 11.4
-3 -1 13 55.69 15.3
2 1 -13 1.4 9.8
-2 -1 13 16.9 11.6
1 1 -13 17.4 12.2
-1 -1 13 19.2 12.7
0 1 -13 51.09 15.4
0 -1 13 51.29 15.4
-1 1 -13 27.6 13.8
1 -1 13 32.4 14.5
-5 0 13 17.6 12.4
4 0 -13 15.3 12.3
-4 0 13 12 11.7
3 0 -13 3.7 10.6
-3 0 13 -5.3 9.2
2 0 -13 11.1 11.8
-2 0 13 20.3 11.7
1 0 -13 8.1 12
-1 0 13 -10.2 9.5
0 0 -13 -4.2 9.5
0 0 13 5.9 10.5
-1 0 -13 -6.1 10.6
4 -1 -13 2 10.4
3 -1 -13 9.2 13.3
3 -1 -13 12.9 11.3
2 -1 -13 14.8 12.3
2 -1 -13 20.1 13
1 -1 -13 8.4 12.8
1 -1 -13 -4.4 11.4
0 -1 -13 6 10.3
0 -1 -13 7.5 12.2
-2 -2 14 45.8 16.4
