#------------------------------------------------------------------------------
#$Date: 2017-03-04 10:02:47 +0200 (Sat, 04 Mar 2017) $
#$Revision: 193261 $
#$URL: file:///home/coder/svn-repositories/cod/cif/4/03/22/4032275.cif $
#------------------------------------------------------------------------------
#
# This file is available in the Crystallography Open Database (COD),
# http://www.crystallography.net/
#
# All data on this site have been placed in the public domain by the
# contributors.
#
data_4032275
loop_
_publ_author_name
'Muthupandi, Pandi'
'Sundaravelu, Nallappan'
'Sekar, Govindasamy'
_publ_section_title
;
 Domino Synthesis of Thiochromenes through Cu-Catalyzed Incorporation of
 Sulfur Using Xanthate Surrogate.
;
_journal_issue                   4
_journal_name_full               'The Journal of organic chemistry'
_journal_page_first              1936
_journal_page_last               1942
_journal_paper_doi               10.1021/acs.joc.6b02740
_journal_volume                  82
_journal_year                    2017
_chemical_formula_sum            'C22 H16 O S'
_chemical_formula_weight         328.41
_space_group_crystal_system      triclinic
_space_group_IT_number           2
_space_group_name_Hall           '-P 1'
_space_group_name_H-M_alt        'P -1'
_symmetry_space_group_name_Hall  '-P 1'
_symmetry_space_group_name_H-M   'P -1'
_atom_sites_solution_hydrogens   geom
_audit_creation_method           SHELXL-2014/7
_cell_angle_alpha                87.5281(11)
_cell_angle_beta                 78.3064(12)
_cell_angle_gamma                67.9774(12)
_cell_formula_units_Z            2
_cell_length_a                   8.5128(2)
_cell_length_b                   9.5968(3)
_cell_length_c                   11.2892(3)
_cell_measurement_reflns_used    7852
_cell_measurement_temperature    296(2)
_cell_measurement_theta_max      26.79
_cell_measurement_theta_min      2.29
_cell_volume                     836.69(4)
_computing_cell_refinement       'Bruker SAINT'
_computing_data_collection       'Bruker APEX2'
_computing_data_reduction        'Bruker SAINT'
_computing_molecular_graphics    'Bruker SHELXTL'
_computing_publication_material  'Bruker SHELXTL'
_computing_structure_refinement  'SHELXL-2014/7 (Sheldrick, 2014)'
_computing_structure_solution    'SHELXS-97 (Sheldrick 2008)'
_diffrn_ambient_temperature      296(2)
_diffrn_measured_fraction_theta_full 0.996
_diffrn_measured_fraction_theta_max 0.996
_diffrn_measurement_device_type  'Bruker APEX-II CCD'
_diffrn_measurement_method       '\f and \w scans'
_diffrn_radiation_type           MoK\a
_diffrn_radiation_wavelength     0.71073
_diffrn_reflns_av_R_equivalents  0.0184
_diffrn_reflns_av_unetI/netI     0.0139
_diffrn_reflns_Laue_measured_fraction_full 0.996
_diffrn_reflns_Laue_measured_fraction_max 0.996
_diffrn_reflns_limit_h_max       10
_diffrn_reflns_limit_h_min       -10
_diffrn_reflns_limit_k_max       11
_diffrn_reflns_limit_k_min       -11
_diffrn_reflns_limit_l_max       11
_diffrn_reflns_limit_l_min       -13
_diffrn_reflns_number            12074
_diffrn_reflns_point_group_measured_fraction_full 0.996
_diffrn_reflns_point_group_measured_fraction_max 0.996
_diffrn_reflns_theta_full        24.999
_diffrn_reflns_theta_max         24.999
_diffrn_reflns_theta_min         1.843
_exptl_absorpt_coefficient_mu    0.198
_exptl_absorpt_correction_T_max  0.975
_exptl_absorpt_correction_T_min  0.952
_exptl_absorpt_correction_type   multi-scan
_exptl_absorpt_process_details   'SADABS V2014/5(Bruker AXS.Inc)'
_exptl_crystal_colour            yellow
_exptl_crystal_density_diffrn    1.304
_exptl_crystal_description       Block
_exptl_crystal_F_000             344
_exptl_crystal_size_max          0.250
_exptl_crystal_size_mid          0.220
_exptl_crystal_size_min          0.130
_refine_diff_density_max         0.189
_refine_diff_density_min         -0.262
_refine_diff_density_rms         0.031
_refine_ls_extinction_coef       0.046(3)
_refine_ls_extinction_expression Fc^*^=kFc[1+0.001xFc^2^\l^3^/sin(2\q)]^-1/4^
_refine_ls_extinction_method     'SHELXL-2014/7 (Sheldrick 2014'
_refine_ls_goodness_of_fit_ref   1.047
_refine_ls_hydrogen_treatment    constr
_refine_ls_matrix_type           full
_refine_ls_number_parameters     218
_refine_ls_number_reflns         2928
_refine_ls_number_restraints     0
_refine_ls_restrained_S_all      1.047
_refine_ls_R_factor_all          0.0360
_refine_ls_R_factor_gt           0.0319
_refine_ls_shift/su_max          0.000
_refine_ls_shift/su_mean         0.000
_refine_ls_structure_factor_coef Fsqd
_refine_ls_weighting_details
'w=1/[\s^2^(Fo^2^)+(0.0317P)^2^+0.2761P] where P=(Fo^2^+2Fc^2^)/3'
_refine_ls_weighting_scheme      calc
_refine_ls_wR_factor_gt          0.0771
_refine_ls_wR_factor_ref         0.0807
_reflns_Friedel_coverage         0.000
_reflns_number_gt                2632
_reflns_number_total             2928
_reflns_threshold_expression     'I > 2\s(I)'
_cod_data_source_file            jo6b02740_si_002.cif
_cod_data_source_block           501
_cod_database_code               4032275
_shelx_shelxl_version_number     2014/7
_shelx_space_group_comment
; 
The symmetry employed for this shelxl refinement is uniquely defined 
by the following loop, which should always be used as a source of 
symmetry information in preference to the above space-group names. 
They are only intended as comments. 
;
_shelx_estimated_absorpt_t_min   0.952
_shelx_estimated_absorpt_t_max   0.975
_shelx_res_file
; 
  
    501.res created by SHELXL-2014/7 
  
TITL 501 in P-1 
CELL 0.71073   8.51280   9.59680  11.28920  87.5281  78.3064  67.9774 
ZERR    2.00   0.00020   0.00030   0.00030   0.0011   0.0012   0.0012 
LATT 1 
SFAC C  H  O  S 
UNIT 44  32  2  2 
OMIT -3 50 
L.S. 8 
ACTA 
BOND $H 
FMAP 2 
PLAN 5 
SIZE 0.13 0.22 0.25 
CONF 
TEMP 23.000 
WGHT    0.031700    0.276100 
EXTI    0.045876 
FVAR       0.28344 
MOLE 1 
C1    1    0.757912    1.021384    0.511094    11.00000    0.04950    0.03956 = 
         0.03932   -0.00073   -0.00815   -0.01587 
AFIX  43 
H1    2    0.679811    1.114996    0.495676    11.00000   -1.20000 
AFIX   0 
C2    1    0.788926    0.992399    0.626549    11.00000    0.06283    0.06325 = 
         0.03610   -0.00169   -0.00706   -0.03070 
AFIX  43 
H2    2    0.732426    1.065844    0.688199    11.00000   -1.20000 
AFIX   0 
C3    1    0.904250    0.853816    0.649978    11.00000    0.06680    0.06997 = 
         0.04343    0.01596   -0.02095   -0.03786 
AFIX  43 
H3    2    0.926037    0.834078    0.727674    11.00000   -1.20000 
AFIX   0 
C4    1    0.987617    0.744152    0.559099    11.00000    0.05380    0.05002 = 
         0.06172    0.02169   -0.02747   -0.02649 
AFIX  43 
H4    2    1.064271    0.650589    0.576027    11.00000   -1.20000 
AFIX   0 
C5    1    0.957558    0.772867    0.442202    11.00000    0.03800    0.03762 = 
         0.05013    0.00687   -0.01399   -0.01881 
C6    1    0.937713    0.682838    0.216730    11.00000    0.03767    0.03378 = 
         0.04245   -0.00880   -0.00236   -0.00716 
AFIX  13 
H6    2    1.011723    0.642092    0.137865    11.00000   -1.20000 
AFIX   0 
C7    1    0.852019    0.850630    0.203561    11.00000    0.03493    0.03374 = 
         0.03906   -0.00309   -0.00373   -0.01233 
C8    1    0.809560    0.949842    0.295664    11.00000    0.03894    0.02865 = 
         0.03824    0.00126   -0.00763   -0.01038 
AFIX  43 
H8    2    0.755159    1.050889    0.280553    11.00000   -1.20000 
AFIX   0 
C9    1    0.840953    0.913572    0.416914    11.00000    0.03880    0.03372 = 
         0.03799    0.00259   -0.00843   -0.01659 
C10   1    0.811120    0.603837    0.243558    11.00000    0.03951    0.02750 = 
         0.04097   -0.00239   -0.01196   -0.00656 
C11   1    0.847657    0.469881    0.181898    11.00000    0.05080    0.03067 = 
         0.03926   -0.00278   -0.01510   -0.00689 
AFIX  43 
H11   2    0.948682    0.430645    0.123488    11.00000   -1.20000 
AFIX   0 
C12   1    0.735899    0.394080    0.206166    11.00000    0.06995    0.03166 = 
         0.05380   -0.00071   -0.02716   -0.01751 
AFIX  43 
H12   2    0.761678    0.304773    0.163643    11.00000   -1.20000 
AFIX   0 
C13   1    0.586936    0.449861    0.292738    11.00000    0.05991    0.04404 = 
         0.06802    0.00872   -0.02621   -0.02776 
AFIX  43 
H13   2    0.512193    0.398284    0.309426    11.00000   -1.20000 
AFIX   0 
C14   1    0.548814    0.583129    0.354899    11.00000    0.04686    0.04933 = 
         0.06517   -0.00594   -0.00459   -0.01922 
AFIX  43 
H14   2    0.448222    0.621258    0.413833    11.00000   -1.20000 
AFIX   0 
C15   1    0.659326    0.659854    0.329910    11.00000    0.04621    0.03594 = 
         0.06005   -0.01379   -0.00389   -0.01357 
AFIX  43 
H15   2    0.631747    0.750222    0.371449    11.00000   -1.20000 
AFIX   0 
C16   1    0.823683    0.898842    0.079660    11.00000    0.04348    0.04666 = 
         0.03623   -0.00744   -0.00347   -0.02115 
C17   1    0.687912    1.046180    0.062081    11.00000    0.04659    0.04421 = 
         0.03269    0.00072   -0.01244   -0.02482 
C18   1    0.718390    1.125916   -0.040586    11.00000    0.06723    0.06839 = 
         0.03189    0.00229   -0.01045   -0.03946 
AFIX  43 
H18   2    0.822663    1.087338   -0.096012    11.00000   -1.20000 
AFIX   0 
C19   1    0.594307    1.261731   -0.060049    11.00000    0.10253    0.06670 = 
         0.04919    0.02613   -0.03679   -0.04702 
AFIX  43 
H19   2    0.616257    1.315007   -0.128025    11.00000   -1.20000 
AFIX   0 
C20   1    0.439160    1.318968    0.019630    11.00000    0.07770    0.05796 = 
         0.07127    0.01899   -0.04130   -0.02318 
AFIX  43 
H20   2    0.356569    1.411106    0.006145    11.00000   -1.20000 
AFIX   0 
C21   1    0.405806    1.240217    0.119295    11.00000    0.04785    0.05797 = 
         0.06636    0.00766   -0.02108   -0.01601 
AFIX  43 
H21   2    0.299459    1.278181    0.172573    11.00000   -1.20000 
AFIX   0 
C22   1    0.529224    1.104721    0.141136    11.00000    0.04525    0.04936 = 
         0.04267    0.00887   -0.01179   -0.02299 
AFIX  43 
H22   2    0.505703    1.052393    0.209354    11.00000   -1.20000 
AFIX   0 
O1    3    0.914886    0.818121   -0.008033    11.00000    0.06957    0.06986 = 
         0.04185   -0.02044   -0.00206   -0.00926 
S1    4    1.080884    0.638461    0.325117    11.00000    0.03681    0.03789 = 
         0.07357   -0.00512   -0.01725   -0.00357 
HKLF 4 
  
REM  501 in P-1 
REM R1 =  0.0319 for    2632 Fo > 4sig(Fo)  and  0.0360 for all    2928 data 
REM    218 parameters refined using      0 restraints 
  
END 
  
WGHT      0.0329      0.2704 
  
REM Highest difference peak  0.189,  deepest hole -0.262,  1-sigma level  0.031 
Q1    1   1.0257  0.6432  0.2616  11.00000  0.05    0.19 
Q2    1   0.8857  0.8322  0.4208  11.00000  0.05    0.18 
Q3    1   0.8941  0.7763  0.2167  11.00000  0.05    0.17 
Q4    1   0.7525  0.9834  0.0786  11.00000  0.05    0.17 
Q5    1   0.9768  0.6996  0.3961  11.00000  0.05    0.16 
;
_shelx_res_checksum              4961
_shelx_hkl_file
; 
  -1   0   0  119.62    1.99 
  -1   0   0  118.20    2.02 
  -1   0   0  118.97    2.00 
  -1   0   0  117.77    1.95 
   1   0   0  123.44    1.99 
   1   0   0  121.75    1.99 
   1   0   0  114.28    2.02 
   1   0   0  120.33    2.00 
  -2   0   0    4.77    0.12 
  -2   0   0    4.82    0.12 
  -2   0   0    4.62    0.12 
  -2   0   0    5.01    0.13 
   2   0   0    4.88    0.12 
   2   0   0    4.98    0.12 
   2   0   0    4.86    0.12 
   2   0   0    5.00    0.12 
  -3   0   0   27.28    0.51 
  -3   0   0   27.10    0.52 
  -3   0   0   27.59    0.52 
  -3   0   0   26.95    0.51 
   3   0   0   27.85    0.52 
   3   0   0   27.68    0.52 
   3   0   0   27.73    0.52 
   3   0   0   27.62    0.51 
  -4   0   0    6.33    0.18 
  -4   0   0    6.47    0.19 
  -4   0   0    6.34    0.19 
  -4   0   0    6.21    0.18 
   4   0   0    6.45    0.19 
   4   0   0    6.44    0.18 
   4   0   0    6.61    0.19 
   4   0   0    6.70    0.19 
  -5   0   0    0.59    0.08 
  -5   0   0    0.36    0.05 
  -5   0   0    0.49    0.06 
  -5   0   0    0.89    0.08 
   5   0   0    0.68    0.07 
   5   0   0    0.65    0.07 
   5   0   0    0.70    0.08 
  -6   0   0    6.34    0.23 
  -6   0   0    6.00    0.22 
  -6   0   0    6.70    0.22 
  -6   0   0    6.40    0.24 
   6   0   0    6.70    0.19 
   6   0   0    6.33    0.22 
  -7   0   0    1.60    0.15 
  -7   0   0    1.77    0.14 
  -7   0   0    1.70    0.16 
   7   0   0    1.79    0.14 
   7   0   0    1.63    0.11 
  -8   0   0    9.14    0.34 
  -8   0   0    9.51    0.35 
  -8   0   0    9.72    0.32 
   8   0   0    9.04    0.32 
   8   0   0    9.43    0.27 
  -9   0   0    0.88    0.14 
  -9   0   0    1.14    0.16 
  -9   0   0    1.20    0.14 
   9   0   0    1.17    0.11 
   9  -1   0    0.43    0.07 
  -9   1   0    0.39    0.10 
  -9   1   0    0.52    0.13 
  -9   1   0    0.53    0.12 
   8  -1   0    4.58    0.18 
  -8   1   0    4.72    0.24 
  -8   1   0    4.91    0.26 
  -8   1   0    5.16    0.26 
   7  -1   0    8.19    0.24 
   7  -1   0    8.57    0.29 
  -7   1   0    8.34    0.31 
  -7   1   0    8.43    0.29 
  -7   1   0    8.67    0.31 
   6  -1   0   19.97    0.42 
   6  -1   0   19.71    0.46 
  -6   1   0   19.41    0.46 
  -6   1   0   19.60    0.48 
  -6   1   0   19.66    0.47 
  -6   1   0   19.25    0.48 
   5  -1   0    1.00    0.09 
   5  -1   0    1.04    0.07 
  -5   1   0    1.02    0.10 
  -5   1   0    1.11    0.09 
  -5   1   0    1.05    0.09 
  -5   1   0    0.97    0.10 
   4  -1   0    0.07    0.03 
   4  -1   0    0.14    0.03 
   4  -1   0    0.08    0.02 
  -4   1   0    0.08    0.03 
  -4   1   0    0.09    0.03 
  -4   1   0    0.13    0.04 
  -4   1   0    0.08    0.04 
   3  -1   0    2.16    0.08 
   3  -1   0    2.12    0.09 
   3  -1   0    2.23    0.09 
   3  -1   0    2.45    0.10 
  -3   1   0    2.14    0.09 
  -3   1   0    2.15    0.10 
  -3   1   0    2.24    0.09 
   2  -1   0   25.82    0.47 
   2  -1   0   25.87    0.47 
   2  -1   0   25.17    0.45 
   2  -1   0   25.56    0.47 
   2  -1   0   24.21    0.47 
  -2   1   0   25.60    0.47 
  -2   1   0   25.02    0.47 
  -2   1   0   25.16    0.47 
  -2   1   0   25.60    0.45 
  -2   1   0   25.50    0.47 
   1  -1   0   73.60    1.20 
   1  -1   0   71.57    1.20 
   1  -1   0   70.74    1.20 
   1  -1   0   72.47    1.21 
  -1   1   0   74.68    1.19 
  -1   1   0   73.11    1.20 
  -1   1   0   72.47    1.21 
  -1   1   0   69.24    1.20 
  -1   1   0   74.09    1.20 
   0  -1   0   17.09    0.29 
   0  -1   0   14.94    0.29 
   0   1   0   16.58    0.29 
   0   1   0   17.15    0.29 
   0   1   0   16.71    0.29 
   0   1   0   17.01    0.29 
   0   1   0   17.16    0.29 
  -1  -1   0    6.97    0.16 
  -1  -1   0    6.52    0.16 
  -1  -1   0    6.47    0.15 
   1   1   0    6.43    0.15 
   1   1   0    6.60    0.16 
   1   1   0    6.92    0.16 
  -2  -1   0  350.71    5.97 
  -2  -1   0  358.08    5.97 
  -2  -1   0  357.82    5.97 
   2   1   0  363.21    5.95 
   2   1   0  358.44    5.96 
   2   1   0  347.77    5.93 
   2   1   0  354.66    5.96 
  -3  -1   0  127.24    2.13 
  -3  -1   0  130.21    2.12 
  -3  -1   0  124.22    2.12 
  -3  -1   0  123.59    2.10 
   3   1   0  131.52    2.12 
   3   1   0  131.95    2.12 
   3   1   0  123.49    2.11 
   3   1   0  125.52    2.10 
  -4  -1   0   30.13    0.58 
  -4  -1   0   29.58    0.60 
  -4  -1   0   31.70    0.61 
  -4  -1   0   31.37    0.59 
   4   1   0   31.79    0.60 
   4   1   0   31.37    0.60 
   4   1   0   30.92    0.59 
   4   1   0   31.30    0.58 
  -5  -1   0    7.00    0.22 
  -5  -1   0    6.54    0.19 
  -5  -1   0    6.56    0.21 
  -5  -1   0    6.82    0.20 
   5   1   0    6.62    0.20 
   5   1   0    6.56    0.20 
  -6  -1   0    1.85    0.13 
  -6  -1   0    2.00    0.11 
  -6  -1   0    1.82    0.12 
  -6  -1   0    2.06    0.13 
   6   1   0    1.72    0.12 
  -7  -1   0    3.60    0.19 
  -7  -1   0    3.38    0.19 
  -7  -1   0    3.14    0.17 
   7   1   0    3.41    0.18 
   7   1   0    3.40    0.15 
  -8  -1   0    0.79    0.12 
  -8  -1   0    0.41    0.10 
   8   1   0    0.47    0.09 
   8   1   0    0.70    0.09 
  -9  -1   0    0.91    0.13 
  -9  -1   0    0.77    0.12 
   9   1   0    0.94    0.11 
   9   1   0    0.89    0.12 
 -10  -1   0    0.46    0.12 
 -10  -1   0    0.38    0.11 
  10   1   0    0.31    0.09 
  10   1   0    0.48    0.09 
  -9   2   0    0.61    0.12 
  -9   2   0    0.84    0.15 
  -8   2   0   -0.09    0.07 
  -8   2   0   -0.07    0.06 
  -8   2   0   -0.01    0.07 
   7  -2   0    1.83    0.15 
  -7   2   0    1.52    0.15 
  -7   2   0    1.83    0.17 
  -7   2   0    1.91    0.16 
   6  -2   0    5.89    0.19 
   6  -2   0    5.89    0.22 
  -6   2   0    5.76    0.25 
  -6   2   0    6.15    0.24 
  -6   2   0    6.15    0.23 
  -6   2   0    6.23    0.25 
   5  -2   0    0.53    0.06 
   5  -2   0    0.60    0.08 
  -5   2   0    0.45    0.08 
  -5   2   0    0.49    0.08 
  -5   2   0    0.47    0.07 
  -5   2   0    0.84    0.09 
   4  -2   0   17.60    0.38 
   4  -2   0   17.23    0.35 
   4  -2   0   16.79    0.39 
  -4   2   0   16.70    0.39 
  -4   2   0   16.40    0.38 
  -4   2   0   16.99    0.39 
  -4   2   0   16.83    0.39 
   3  -2   0    0.19    0.04 
   3  -2   0    0.12    0.03 
   3  -2   0    0.16    0.03 
  -3   2   0    0.21    0.04 
  -3   2   0    0.13    0.03 
  -3   2   0    0.15    0.03 
  -3   2   0    0.18    0.03 
  -3   2   0    0.17    0.04 
   2  -2   0   12.16    0.28 
   2  -2   0   12.76    0.27 
   2  -2   0   12.52    0.27 
   2  -2   0   12.76    0.27 
  -2   2   0   12.86    0.27 
  -2   2   0   12.95    0.28 
  -2   2   0   12.49    0.26 
  -2   2   0   12.62    0.27 
   1  -2   0    2.63    0.08 
   1  -2   0    2.57    0.08 
   1  -2   0    2.61    0.08 
   1  -2   0    2.71    0.09 
  -1   2   0    2.65    0.09 
  -1   2   0    2.56    0.08 
  -1   2   0    2.56    0.08 
  -1   2   0    2.44    0.09 
   0  -2   0    0.53    0.03 
   0  -2   0    0.46    0.04 
   0  -2   0    0.46    0.03 
   0   2   0    0.44    0.03 
   0   2   0    0.51    0.04 
   0   2   0    0.46    0.03 
   0   2   0    0.49    0.03 
   0   2   0    0.52    0.03 
  -1  -2   0  129.70    2.21 
  -1  -2   0  136.38    2.22 
  -1  -2   0  137.10    2.24 
  -1  -2   0  133.63    2.23 
   1   2   0  134.30    2.18 
   1   2   0  130.01    2.22 
   1   2   0  133.18    2.18 
  -2  -2   0  957.11   15.50 
  -2  -2   0  906.93   15.47 
  -2  -2   0  918.90   15.45 
   2   2   0 1000.00   15.52 
   2   2   0  900.02   15.47 
   2   2   0  963.99   15.52 
  -3  -2   0  374.79    6.07 
  -3  -2   0  343.62    5.99 
   3   2   0  362.72    5.97 
   3   2   0  369.07    6.06 
   3   2   0  362.20    5.98 
   3   2   0  356.69    6.05 
   3   2   0  355.48    5.97 
  -4  -2   0    0.72    0.07 
  -4  -2   0    0.81    0.07 
  -4  -2   0    0.78    0.06 
   4   2   0    0.73    0.06 
   4   2   0    0.58    0.05 
   4   2   0    0.62    0.06 
   4   2   0    0.48    0.05 
  -5  -2   0    4.06    0.15 
  -5  -2   0    4.21    0.16 
  -5  -2   0    4.11    0.16 
   5   2   0    4.13    0.15 
   5   2   0    4.07    0.15 
   5   2   0    4.29    0.16 
  -6  -2   0    1.31    0.10 
  -6  -2   0    1.34    0.11 
  -6  -2   0    1.23    0.10 
   6   2   0    1.32    0.10 
  -7  -2   0    9.77    0.31 
  -7  -2   0    9.95    0.32 
   7   2   0   10.06    0.31 
   7   2   0    9.77    0.31 
  -8  -2   0    0.28    0.08 
  -8  -2   0    0.38    0.10 
   8   2   0    0.30    0.08 
   8   2   0    0.30    0.08 
  -9  -2   0    3.54    0.23 
  -9  -2   0    3.88    0.23 
   9   2   0    3.71    0.17 
   9   2   0    3.66    0.21 
   9   2   0    3.69    0.22 
 -10  -2   0    1.29    0.17 
 -10  -2   0    1.20    0.17 
  10   2   0    1.37    0.16 
  10   2   0    1.15    0.15 
  -8   3   0    1.32    0.16 
  -8   3   0    1.37    0.17 
  -8   3   0    1.34    0.16 
  -7   3   0    2.31    0.19 
  -7   3   0    2.04    0.17 
  -7   3   0    1.79    0.17 
   6  -3   0    3.52    0.18 
  -6   3   0    3.63    0.19 
  -6   3   0    3.63    0.20 
  -6   3   0    3.67    0.20 
  -6   3   0    3.24    0.19 
   5  -3   0   20.87    0.48 
  -5   3   0   21.37    0.51 
  -5   3   0   20.44    0.50 
  -5   3   0   21.25    0.49 
  -5   3   0   21.18    0.50 
   4  -3   0   18.70    0.42 
  -4   3   0   18.49    0.43 
  -4   3   0   18.09    0.43 
  -4   3   0   19.22    0.44 
  -4   3   0   18.52    0.43 
   3  -3   0    0.55    0.06 
   3  -3   0    0.50    0.05 
  -3   3   0    0.42    0.05 
  -3   3   0    0.64    0.07 
  -3   3   0    0.58    0.05 
  -3   3   0    0.56    0.06 
  -3   3   0    0.48    0.06 
   2  -3   0    1.26    0.07 
   2  -3   0    1.16    0.07 
   2  -3   0    1.25    0.07 
  -2   3   0    1.31    0.09 
  -2   3   0    1.26    0.08 
  -2   3   0    1.34    0.07 
  -2   3   0    1.34    0.08 
  -2   3   0    1.39    0.08 
   1  -3   0   11.47    0.25 
   1  -3   0   11.43    0.26 
   1  -3   0   10.67    0.26 
   1  -3   0   11.41    0.24 
   1  -3   0   11.34    0.24 
  -1   3   0   11.24    0.25 
  -1   3   0   11.25    0.25 
  -1   3   0   11.22    0.25 
  -1   3   0   11.20    0.26 
  -1   3   0   10.55    0.25 
   0  -3   0   59.57    1.02 
   0  -3   0   57.34    1.00 
   0  -3   0   59.18    1.00 
   0  -3   0   57.73    1.00 
   0  -3   0   59.83    1.02 
   0   3   0   58.11    1.02 
   0   3   0   59.78    1.01 
   0   3   0   58.30    1.01 
   0   3   0   59.88    1.01 
   0   3   0   57.82    1.00 
  -1  -3   0    3.45    0.10 
  -1  -3   0    3.43    0.10 
  -1  -3   0    3.34    0.10 
   1   3   0    3.47    0.10 
   1   3   0    3.33    0.10 
   1   3   0    3.47    0.10 
  -2  -3   0   55.25    0.96 
  -2  -3   0   56.03    0.96 
  -2  -3   0   56.28    0.96 
   2   3   0   56.18    0.97 
   2   3   0   55.85    0.96 
   2   3   0   55.92    0.96 
  -3  -3   0   62.76    1.10 
  -3  -3   0   63.54    1.10 
   3   3   0   63.17    1.10 
   3   3   0   64.30    1.10 
   3   3   0   63.03    1.10 
  -4  -3   0  188.50    3.13 
  -4  -3   0  185.57    3.14 
   4   3   0  186.05    3.14 
   4   3   0  192.55    3.14 
   4   3   0  189.26    3.13 
   4   3   0  189.72    3.14 
  -5  -3   0   50.26    0.97 
  -5  -3   0   51.99    0.96 
   5   3   0   51.64    0.92 
   5   3   0   52.59    0.96 
   5   3   0   52.55    0.96 
   5   3   0   52.17    0.97 
  -6  -3   0    8.53    0.27 
  -6  -3   0    8.47    0.26 
   6   3   0    8.77    0.26 
   6   3   0    8.43    0.26 
  -7  -3   0   30.72    0.68 
  -7  -3   0   31.60    0.68 
   7   3   0   30.38    0.66 
   7   3   0   31.13    0.68 
  -8  -3   0    3.34    0.20 
  -8  -3   0    2.88    0.19 
   8   3   0    3.04    0.19 
   8   3   0    3.43    0.19 
  -9  -3   0    0.43    0.11 
  -9  -3   0    0.59    0.11 
   9   3   0    0.56    0.10 
   9   3   0    0.62    0.11 
 -10  -3   0    0.27    0.10 
 -10  -3   0    0.61    0.13 
  10   3   0    0.31    0.10 
  -7   4   0    4.48    0.26 
  -7   4   0    4.52    0.25 
  -7   4   0    4.45    0.24 
  -6   4   0    3.02    0.19 
  -6   4   0    2.91    0.20 
  -6   4   0    2.96    0.19 
   5  -4   0    5.00    0.20 
  -5   4   0    4.80    0.21 
  -5   4   0    5.10    0.23 
  -5   4   0    4.85    0.23 
  -5   4   0    5.25    0.22 
   4  -4   0    0.21    0.05 
  -4   4   0    0.32    0.07 
  -4   4   0    0.21    0.06 
  -4   4   0    0.14    0.06 
  -4   4   0    0.30    0.06 
  -4   4   0    0.34    0.07 
   3  -4   0    0.69    0.07 
  -3   4   0    0.88    0.07 
  -3   4   0    0.96    0.09 
  -3   4   0    0.83    0.08 
  -3   4   0    0.76    0.08 
  -3   4   0    0.68    0.08 
   2  -4   0    2.12    0.10 
   2  -4   0    1.88    0.10 
  -2   4   0    2.02    0.11 
  -2   4   0    2.13    0.11 
  -2   4   0    2.04    0.10 
  -2   4   0    2.12    0.10 
  -2   4   0    2.03    0.09 
   1  -4   0   12.21    0.28 
   1  -4   0   12.50    0.28 
   1  -4   0   12.63    0.28 
   1  -4   0   12.81    0.31 
  -1   4   0   12.84    0.30 
  -1   4   0   12.39    0.29 
  -1   4   0   12.83    0.30 
  -1   4   0   12.68    0.29 
   0  -4   0   55.23    0.98 
   0  -4   0   55.93    0.98 
   0  -4   0   54.44    0.95 
   0  -4   0   55.01    0.95 
   0  -4   0   54.67    0.95 
   0   4   0   53.13    0.97 
   0   4   0   53.52    0.96 
   0   4   0   54.22    0.95 
   0   4   0   52.63    0.95 
   0   4   0   54.44    0.96 
  -1  -4   0   16.26    0.33 
  -1  -4   0   15.99    0.33 
  -1  -4   0   16.76    0.33 
  -1  -4   0   16.78    0.35 
   1   4   0   16.35    0.33 
   1   4   0   15.90    0.33 
   1   4   0   16.48    0.34 
   1   4   0   17.08    0.34 
   1   4   0   16.32    0.35 
  -2  -4   0    2.05    0.09 
  -2  -4   0    2.02    0.08 
  -2  -4   0    2.17    0.09 
  -2  -4   0    2.02    0.09 
   2   4   0    2.08    0.09 
   2   4   0    2.04    0.09 
   2   4   0    2.02    0.09 
  -3  -4   0   53.83    0.95 
  -3  -4   0   53.27    0.95 
  -3  -4   0   54.20    0.95 
   3   4   0   52.98    0.95 
   3   4   0   52.92    0.95 
   3   4   0   53.05    0.95 
  -4  -4   0   51.04    0.93 
  -4  -4   0   51.72    0.94 
   4   4   0   50.42    0.93 
   4   4   0   51.36    0.94 
   4   4   0   51.99    0.93 
  -5  -4   0  107.74    1.88 
  -5  -4   0  108.95    1.87 
   5   4   0  106.23    1.87 
   5   4   0  110.70    1.87 
   5   4   0  107.56    1.87 
   5   4   0  107.85    1.83 
  -6  -4   0    0.61    0.08 
  -6  -4   0    0.53    0.08 
   6   4   0    0.74    0.09 
   6   4   0    0.71    0.08 
   6   4   0    0.60    0.08 
  -7  -4   0    0.43    0.08 
  -7  -4   0    0.42    0.09 
   7   4   0    0.37    0.07 
   7   4   0    0.45    0.08 
  -8  -4   0    0.04    0.06 
  -8  -4   0   -0.08    0.06 
   8   4   0   -0.03    0.05 
   8   4   0    0.04    0.06 
  -9  -4   0    0.57    0.11 
  -9  -4   0    0.27    0.09 
   9   4   0    0.34    0.08 
   9   4   0    0.26    0.08 
 -10  -4   0   -0.05    0.07 
 -10  -4   0   -0.15    0.07 
  10   4   0   -0.14    0.06 
  -7   5   0    1.14    0.15 
  -7   5   0    1.71    0.18 
  -7   5   0    1.74    0.19 
  -6   5   0    0.72    0.12 
  -6   5   0    0.42    0.10 
  -6   5   0    0.48    0.10 
   5  -5   0    3.44    0.18 
  -5   5   0    3.55    0.20 
  -5   5   0    3.80    0.21 
  -5   5   0    3.51    0.21 
   4  -5   0    5.36    0.20 
  -4   5   0    5.14    0.23 
  -4   5   0    5.14    0.21 
  -4   5   0    5.37    0.22 
  -4   5   0    5.41    0.19 
  -4   5   0    5.53    0.23 
   3  -5   0    4.25    0.17 
  -3   5   0    4.35    0.19 
  -3   5   0    4.32    0.16 
  -3   5   0    4.17    0.18 
  -3   5   0    4.05    0.19 
  -3   5   0    4.30    0.18 
   2  -5   0    3.72    0.14 
  -2   5   0    3.65    0.16 
  -2   5   0    3.59    0.13 
  -2   5   0    3.36    0.14 
  -2   5   0    3.56    0.16 
   1  -5   0    0.70    0.06 
   1  -5   0    0.62    0.08 
   1  -5   0    0.71    0.06 
  -1   5   0    0.85    0.08 
  -1   5   0    0.72    0.06 
  -1   5   0    0.73    0.08 
  -1   5   0    0.79    0.07 
   0  -5   0    2.33    0.10 
   0  -5   0    2.16    0.10 
   0  -5   0    2.23    0.12 
   0   5   0    2.15    0.10 
   0   5   0    2.22    0.10 
   0   5   0    2.32    0.11 
   0   5   0    2.27    0.11 
  -1  -5   0   19.00    0.39 
  -1  -5   0   20.82    0.42 
  -1  -5   0   19.00    0.39 
  -1  -5   0   18.78    0.41 
   1   5   0   18.55    0.41 
   1   5   0   18.46    0.40 
   1   5   0   18.60    0.39 
   1   5   0   18.68    0.39 
   1   5   0   19.20    0.40 
  -2  -5   0   15.12    0.33 
  -2  -5   0   15.14    0.33 
  -2  -5   0   15.31    0.34 
  -2  -5   0   15.50    0.34 
   2   5   0   15.77    0.34 
   2   5   0   15.52    0.34 
   2   5   0   14.99    0.34 
  -3  -5   0    1.24    0.08 
  -3  -5   0    1.31    0.08 
  -3  -5   0    1.31    0.08 
   3   5   0    1.29    0.08 
   3   5   0    1.39    0.09 
   3   5   0    1.39    0.08 
  -4  -5   0    0.49    0.07 
  -4  -5   0    0.34    0.06 
   4   5   0    0.47    0.06 
   4   5   0    0.33    0.05 
   4   5   0    0.66    0.08 
  -5  -5   0   14.04    0.35 
  -5  -5   0   13.79    0.35 
   5   5   0   14.31    0.35 
   5   5   0   13.98    0.35 
   5   5   0   13.85    0.34 
  -6  -5   0   28.75    0.63 
  -6  -5   0   28.43    0.62 
   6   5   0   29.39    0.62 
   6   5   0   28.99    0.62 
   6   5   0   29.63    0.63 
  -7  -5   0    6.20    0.25 
  -7  -5   0    6.84    0.25 
   7   5   0    6.40    0.25 
   7   5   0    6.17    0.24 
  -8  -5   0    0.16    0.08 
  -8  -5   0    0.12    0.07 
   8   5   0    0.05    0.06 
   8   5   0    0.17    0.06 
  -9  -5   0    3.03    0.21 
  -9  -5   0    2.77    0.21 
   9   5   0    2.75    0.19 
   9   5   0    2.84    0.19 
 -10  -5   0    3.65    0.24 
 -10  -5   0    4.01    0.26 
  10   5   0    3.42    0.23 
  -6   6   0    1.22    0.15 
  -6   6   0    1.08    0.14 
  -6   6   0    1.27    0.16 
  -5   6   0   11.83    0.40 
  -5   6   0   11.22    0.37 
  -5   6   0   11.25    0.38 
   4  -6   0   20.23    0.48 
  -4   6   0   20.24    0.51 
  -4   6   0   20.52    0.53 
  -4   6   0   19.96    0.53 
   3  -6   0    0.21    0.05 
  -3   6   0    0.21    0.06 
  -3   6   0    0.28    0.06 
  -3   6   0    0.34    0.07 
  -3   6   0    0.26    0.07 
   2  -6   0    3.89    0.16 
  -2   6   0    3.70    0.15 
  -2   6   0    3.87    0.17 
  -2   6   0    3.81    0.18 
  -2   6   0    3.45    0.18 
   1  -6   0    6.87    0.24 
   1  -6   0    6.79    0.21 
  -1   6   0    6.49    0.23 
  -1   6   0    6.76    0.22 
  -1   6   0    6.65    0.21 
  -1   6   0    6.71    0.23 
   0  -6   0    0.15    0.04 
   0  -6   0    0.15    0.05 
   0   6   0    0.11    0.04 
   0   6   0    0.18    0.04 
   0   6   0    0.11    0.04 
   0   6   0    0.11    0.04 
  -1  -6   0   20.63    0.47 
  -1  -6   0   21.11    0.44 
   1   6   0   21.32    0.47 
   1   6   0   20.95    0.45 
   1   6   0   21.05    0.46 
   1   6   0   21.41    0.45 
  -2  -6   0    5.88    0.18 
  -2  -6   0    5.94    0.20 
  -2  -6   0    5.97    0.18 
   2   6   0    5.79    0.19 
   2   6   0    5.94    0.19 
   2   6   0    5.55    0.18 
   2   6   0    5.57    0.18 
  -3  -6   0    3.81    0.15 
  -3  -6   0    3.72    0.15 
  -3  -6   0    3.71    0.15 
   3   6   0    3.96    0.15 
   3   6   0    3.87    0.15 
   3   6   0    4.00    0.16 
  -4  -6   0    6.29    0.20 
  -4  -6   0    6.63    0.21 
   4   6   0    6.54    0.21 
   4   6   0    6.44    0.21 
  -5  -6   0   10.55    0.29 
  -5  -6   0   10.68    0.30 
   5   6   0   10.77    0.30 
   5   6   0   10.37    0.29 
  -6  -6   0   15.60    0.40 
  -6  -6   0   15.53    0.41 
   6   6   0   15.69    0.40 
   6   6   0   15.44    0.40 
  -7  -6   0   16.50    0.43 
  -7  -6   0   15.88    0.44 
   7   6   0   16.27    0.43 
   7   6   0   15.53    0.43 
  -8  -6   0    2.65    0.18 
  -8  -6   0    2.28    0.18 
   8   6   0    2.40    0.17 
   8   6   0    2.07    0.17 
  -9  -6   0    0.02    0.07 
  -9  -6   0   -0.04    0.07 
   9   6   0   -0.02    0.07 
   9   6   0   -0.02    0.07 
 -10  -6   0    0.62    0.12 
 -10  -6   0    0.64    0.12 
  10   6   0    0.80    0.14 
  10   6   0    0.63    0.13 
  -5   7   0    5.78    0.29 
  -5   7   0    5.87    0.30 
  -4   7   0    8.08    0.32 
  -4   7   0    8.34    0.33 
   3  -7   0    0.05    0.06 
  -3   7   0   -0.03    0.05 
  -3   7   0   -0.04    0.05 
   2  -7   0    1.51    0.11 
  -2   7   0    1.63    0.12 
  -2   7   0    1.76    0.14 
  -2   7   0    1.65    0.12 
  -2   7   0    1.57    0.14 
   1  -7   0    9.79    0.32 
   1  -7   0   10.44    0.28 
  -1   7   0   10.25    0.30 
  -1   7   0   10.34    0.31 
  -1   7   0   10.01    0.32 
   0  -7   0    3.98    0.16 
   0  -7   0    4.22    0.19 
   0   7   0    3.96    0.19 
   0   7   0    3.80    0.17 
   0   7   0    4.14    0.17 
  -1  -7   0    8.08    0.26 
  -1  -7   0    7.85    0.23 
   1   7   0    7.73    0.25 
   1   7   0    7.52    0.24 
   1   7   0    8.29    0.26 
  -2  -7   0    1.02    0.09 
  -2  -7   0    1.19    0.10 
  -2  -7   0    1.20    0.09 
   2   7   0    1.10    0.10 
   2   7   0    1.06    0.09 
   2   7   0    1.19    0.10 
  -3  -7   0    5.90    0.20 
  -3  -7   0    6.31    0.20 
  -3  -7   0    6.14    0.22 
   3   7   0    5.84    0.21 
   3   7   0    6.08    0.21 
   3   7   0    5.80    0.20 
  -4  -7   0    0.75    0.08 
  -4  -7   0    0.78    0.09 
  -4  -7   0    0.86    0.09 
   4   7   0    0.66    0.08 
   4   7   0    0.74    0.09 
  -5  -7   0    0.33    0.06 
  -5  -7   0    0.29    0.06 
   5   7   0    0.42    0.08 
   5   7   0    0.43    0.07 
  -6  -7   0    0.23    0.06 
  -6  -7   0    0.35    0.07 
   6   7   0    0.27    0.07 
  -7  -7   0    8.42    0.30 
  -7  -7   0    7.97    0.30 
   7   7   0    9.18    0.31 
   7   7   0    8.81    0.30 
  -8  -7   0   11.14    0.36 
  -8  -7   0   11.32    0.38 
   8   7   0   11.61    0.37 
   8   7   0   12.11    0.38 
  -9  -7   0    0.44    0.11 
  -9  -7   0    0.57    0.11 
   9   7   0    0.52    0.11 
   9   7   0    0.73    0.12 
 -10  -7   0    0.95    0.25 
 -10  -7   0    0.56    0.11 
  10   7   0    0.52    0.12 
  10   7   0    0.83    0.14 
  -4   8   0    0.24    0.09 
  -4   8   0   -0.02    0.08 
  -3   8   0    3.03    0.21 
  -3   8   0    3.45    0.21 
  -2   8   0    5.79    0.26 
  -2   8   0    6.09    0.26 
   1  -8   0    3.63    0.20 
   1  -8   0    3.68    0.17 
  -1   8   0    3.64    0.23 
  -1   8   0    3.79    0.20 
  -1   8   0    3.73    0.20 
   0  -8   0    5.22    0.19 
   0  -8   0    5.27    0.24 
   0   8   0    5.11    0.22 
   0   8   0    5.33    0.21 
   0   8   0    5.26    0.23 
  -1  -8   0    3.31    0.18 
  -1  -8   0    3.27    0.15 
   1   8   0    3.10    0.17 
   1   8   0    3.37    0.18 
   1   8   0    3.22    0.16 
  -2  -8   0    9.11    0.30 
  -2  -8   0    9.44    0.27 
   2   8   0    9.17    0.29 
   2   8   0    9.31    0.28 
   2   8   0    9.11    0.29 
  -3  -8   0    6.20    0.22 
  -3  -8   0    6.28    0.22 
  -3  -8   0    6.58    0.25 
   3   8   0    6.36    0.24 
   3   8   0    6.29    0.24 
   3   8   0    5.62    0.22 
  -4  -8   0    4.57    0.19 
  -4  -8   0    4.50    0.20 
  -4  -8   0    4.38    0.18 
   4   8   0    4.50    0.19 
   4   8   0    4.53    0.20 
  -5  -8   0    0.33    0.07 
  -5  -8   0    0.24    0.06 
  -5  -8   0    0.27    0.07 
   5   8   0    0.26    0.06 
   5   8   0    0.42    0.08 
  -6  -8   0    0.01    0.05 
  -6  -8   0    0.00    0.06 
  -6  -8   0    0.08    0.06 
   6   8   0    0.04    0.07 
  -7  -8   0   -0.02    0.06 
  -7  -8   0    0.09    0.07 
   7   8   0   -0.10    0.05 
   7   8   0   -0.05    0.06 
  -8  -8   0    6.67    0.28 
  -8  -8   0    6.22    0.28 
   8   8   0    6.15    0.28 
   8   8   0    5.88    0.27 
  -9  -8   0    0.17    0.09 
  -9  -8   0    0.14    0.09 
   9   8   0    0.22    0.10 
   9   8   0    0.15    0.09 
  -3   9   0    0.78    0.12 
  -3   9   0    1.02    0.14 
  -2   9   0    0.72    0.12 
  -2   9   0    0.69    0.12 
  -1   9   0    7.67    0.30 
  -1   9   0    7.41    0.30 
   0  -9   0    0.26    0.09 
   0   9   0    0.24    0.08 
   0   9   0    0.31    0.08 
  -1  -9   0    2.22    0.17 
  -1  -9   0    1.96    0.13 
   1   9   0    2.05    0.16 
   1   9   0    2.33    0.17 
  -2  -9   0   13.25    0.36 
  -2  -9   0   12.87    0.40 
   2   9   0   13.47    0.39 
   2   9   0   12.25    0.36 
   2   9   0   13.12    0.39 
  -3  -9   0    6.82    0.24 
  -3  -9   0    6.82    0.24 
  -3  -9   0    6.71    0.27 
   3   9   0    6.37    0.25 
   3   9   0    7.20    0.27 
   3   9   0    6.69    0.25 
  -4  -9   0    0.40    0.07 
  -4  -9   0    0.22    0.06 
  -4  -9   0    0.35    0.09 
   4   9   0    0.42    0.08 
   4   9   0    0.34    0.08 
   4   9   0    0.51    0.09 
  -5  -9   0    3.04    0.17 
  -5  -9   0    2.88    0.16 
  -5  -9   0    3.03    0.18 
   5   9   0    3.10    0.19 
  -6  -9   0    1.13    0.13 
  -6  -9   0    0.93    0.11 
  -6  -9   0    1.07    0.13 
   6   9   0    0.88    0.11 
  -7  -9   0   -0.06    0.05 
  -7  -9   0   -0.06    0.05 
  -7  -9   0    0.04    0.06 
   7   9   0    0.01    0.06 
  -8  -9   0    0.22    0.10 
   8   9   0    0.15    0.08 
   8   9   0    0.11    0.07 
  -9  -9   0    1.64    0.18 
   9   9   0    1.23    0.15 
   9   9   0    1.30    0.16 
  -2  10   0   -0.02    0.07 
  -2  10   0    0.01    0.07 
  -1  10   0    0.03    0.07 
  -1  10   0   -0.04    0.07 
   0 -10   0    2.20    0.19 
   0  10   0    2.16    0.17 
   0  10   0    2.14    0.18 
  -1 -10   0    3.18    0.21 
   1  10   0    3.02    0.19 
   1  10   0    2.96    0.20 
  -2 -10   0    3.18    0.21 
   2  10   0    3.18    0.20 
   2  10   0    3.03    0.20 
  -3 -10   0   20.81    0.56 
   3  10   0   19.93    0.52 
   3  10   0   20.36    0.54 
  -4 -10   0    1.85    0.14 
  -4 -10   0    1.80    0.17 
   4  10   0    1.92    0.17 
   4  10   0    1.49    0.15 
  -5 -10   0    0.41    0.10 
  -5 -10   0    0.29    0.08 
   5  10   0    0.25    0.08 
   5  10   0    0.32    0.09 
  -6 -10   0   -0.06    0.06 
  -6 -10   0   -0.01    0.06 
   6  10   0   -0.05    0.05 
   6  10   0    0.00    0.06 
  -7 -10   0    0.21    0.08 
  -7 -10   0    0.24    0.09 
   7  10   0    0.19    0.08 
  -8 -10   0    0.38    0.10 
  -8 -10   0    0.16    0.08 
   8  10   0    0.56    0.12 
   8  10   0    0.17    0.09 
   0 -11   0    0.01    0.08 
   0  11   0   -0.01    0.07 
   0  11   0    0.06    0.08 
  -1 -11   0    3.96    0.25 
   1  11   0    3.98    0.23 
   1  11   0    3.82    0.24 
  -2 -11   0    0.43    0.11 
   2  11   0    0.33    0.09 
   2  11   0    0.36    0.10 
  -3 -11   0    0.75    0.13 
   3  11   0    0.57    0.11 
   3  11   0    0.46    0.11 
  -4 -11   0    0.84    0.14 
   4  11   0    0.76    0.12 
   4  11   0    0.92    0.14 
  -5 -11   0    0.00    0.08 
  -5 -11   0    0.07    0.06 
   5  11   0   -0.02    0.06 
   5  11   0    0.08    0.08 
  -6 -11   0    2.91    0.21 
  -6 -11   0    2.84    0.19 
   6  11   0    2.93    0.21 
   6  11   0    2.48    0.18 
  -7 -11   0    0.10    0.07 
  -7 -11   0    0.11    0.09 
   7  11   0    0.02    0.07 
   7  11   0    0.07    0.08 
  -3 -12   0    3.04    0.24 
   3  12   0    3.12    0.23 
   3  12   0    2.95    0.21 
  -4 -12   0    0.01    0.10 
   4  12   0   -0.01    0.06 
   4  12   0   -0.01    0.08 
  -5 -12   0    4.60    0.28 
   5  12   0    4.47    0.24 
   5  12   0    4.35    0.26 
   4  12  -1    2.68    0.21 
   4  12  -1    2.53    0.21 
  -4 -12   1    2.36    0.21 
   3  12  -1    1.49    0.17 
   3  12  -1    1.43    0.17 
  -3 -12   1    1.35    0.17 
   7  11  -1   -0.08    0.07 
  -7 -11   1    0.08    0.08 
   6  11  -1    0.50    0.12 
   6  11  -1    0.67    0.12 
  -6 -11   1    0.69    0.13 
   5  11  -1    0.71    0.12 
   5  11  -1    0.57    0.12 
  -5 -11   1    0.48    0.12 
   4  11  -1    1.11    0.14 
   4  11  -1    1.47    0.16 
  -4 -11   1    0.96    0.14 
   3  11  -1   -0.02    0.06 
   3  11  -1    0.06    0.07 
  -3 -11   1   -0.05    0.07 
   2  11  -1    2.45    0.19 
   2  11  -1    2.23    0.19 
  -2 -11   1    2.29    0.20 
   1  11  -1    0.61    0.12 
   1  11  -1    0.77    0.13 
  -1 -11   1    0.70    0.13 
   0  11  -1    0.05    0.07 
   0  11  -1    0.03    0.07 
   0 -11   1    0.03    0.08 
   8  10  -1   -0.07    0.07 
   8  10  -1    0.01    0.07 
  -8 -10   1   -0.06    0.06 
  -8 -10   1    0.00    0.08 
   7  10  -1    0.17    0.08 
  -7 -10   1    0.20    0.08 
  -7 -10   1    0.03    0.07 
   6  10  -1    0.56    0.11 
  -6 -10   1    0.50    0.10 
  -6 -10   1    0.38    0.10 
   5  10  -1    1.47    0.15 
   5  10  -1    1.58    0.16 
  -5 -10   1    1.71    0.16 
  -5 -10   1    1.64    0.14 
   4  10  -1    0.28    0.08 
   4  10  -1    0.33    0.09 
  -4 -10   1    0.28    0.07 
  -4 -10   1    0.33    0.10 
   3  10  -1    0.45    0.10 
   3  10  -1    0.50    0.10 
  -3 -10   1    0.52    0.11 
   2  10  -1    0.13    0.07 
   2  10  -1    0.25    0.08 
  -2 -10   1    0.35    0.10 
   1  10  -1    0.43    0.10 
   1  10  -1    0.32    0.09 
  -1 -10   1    0.46    0.11 
   0  10  -1    0.37    0.09 
   0  10  -1    0.34    0.09 
   0 -10   1    0.51    0.11 
  -1  10  -1    2.35    0.18 
  -1  10  -1    2.24    0.19 
  -2  10  -1    1.76    0.18 
  -2  10  -1    2.24    0.20 
   9   9  -1    0.52    0.13 
   9   9  -1    0.67    0.13 
  -9  -9   1    0.53    0.11 
   8   9  -1    0.50    0.11 
   8   9  -1    0.44    0.10 
  -8  -9   1    0.57    0.11 
   7   9  -1    3.42    0.21 
   7   9  -1    3.27    0.21 
  -7  -9   1    3.10    0.19 
  -7  -9   1    3.16    0.19 
   6   9  -1    2.07    0.17 
  -6  -9   1    2.04    0.16 
  -6  -9   1    2.02    0.15 
  -6  -9   1    2.06    0.16 
   5   9  -1    0.68    0.10 
  -5  -9   1    0.69    0.09 
  -5  -9   1    0.61    0.10 
  -5  -9   1    0.67    0.09 
   4   9  -1   -0.02    0.06 
   4   9  -1    0.02    0.05 
   4   9  -1   -0.09    0.05 
  -4  -9   1    0.01    0.04 
  -4  -9   1    0.02    0.05 
  -4  -9   1   -0.07    0.05 
   3   9  -1   18.88    0.48 
   3   9  -1   19.00    0.50 
   3   9  -1   18.72    0.48 
  -3  -9   1   18.19    0.45 
  -3  -9   1   18.74    0.50 
  -3  -9   1   19.25    0.45 
   2   9  -1    0.15    0.09 
   2   9  -1    0.20    0.08 
   2   9  -1    0.19    0.08 
  -2  -9   1    0.13    0.05 
  -2  -9   1    0.24    0.08 
   1   9  -1    0.16    0.07 
   1   9  -1    0.06    0.06 
  -1  -9   1    0.19    0.07 
  -1  -9   1    0.18    0.05 
   0   9  -1    0.91    0.12 
   0   9  -1    0.74    0.10 
   0  -9   1    0.97    0.13 
  -1   9  -1    3.17    0.21 
  -1   9  -1    3.04    0.19 
   1  -9   1    3.16    0.21 
  -2   9  -1    0.01    0.07 
  -2   9  -1    0.07    0.06 
  -3   9  -1    0.47    0.10 
  -3   9  -1    0.36    0.10 
   9   8  -1   14.00    0.46 
   9   8  -1   12.91    0.44 
  -9  -8   1   13.95    0.44 
   8   8  -1    0.67    0.11 
   8   8  -1    0.42    0.10 
  -8  -8   1    0.40    0.10 
  -8  -8   1    0.63    0.11 
   7   8  -1    0.90    0.11 
   7   8  -1    0.92    0.12 
  -7  -8   1    0.88    0.11 
  -7  -8   1    1.09    0.12 
   6   8  -1   -0.06    0.05 
  -6  -8   1   -0.02    0.05 
  -6  -8   1    0.30    0.07 
  -6  -8   1   -0.02    0.04 
   5   8  -1    0.09    0.05 
   5   8  -1    0.21    0.07 
  -5  -8   1    0.16    0.06 
  -5  -8   1    0.16    0.05 
  -5  -8   1   -0.01    0.05 
   4   8  -1    0.34    0.08 
   4   8  -1    0.40    0.07 
  -4  -8   1    0.37    0.08 
  -4  -8   1    0.33    0.06 
  -4  -8   1    0.36    0.07 
   3   8  -1   28.68    0.64 
   3   8  -1   28.21    0.61 
   3   8  -1   28.53    0.62 
  -3  -8   1   28.29    0.59 
  -3  -8   1   28.24    0.60 
  -3  -8   1   28.98    0.64 
   2   8  -1    0.63    0.08 
   2   8  -1    0.89    0.10 
   2   8  -1    0.79    0.10 
  -2  -8   1    0.83    0.08 
  -2  -8   1    0.94    0.11 
   1   8  -1    2.19    0.15 
   1   8  -1    1.91    0.13 
   1   8  -1    1.93    0.12 
  -1  -8   1    2.15    0.12 
   0   8  -1    0.81    0.10 
   0   8  -1    0.75    0.10 
   0   8  -1    0.83    0.09 
   0  -8   1    0.97    0.09 
   0  -8   1    0.72    0.10 
  -1   8  -1    3.50    0.19 
  -1   8  -1    3.16    0.18 
   1  -8   1    3.30    0.20 
  -2   8  -1    1.39    0.15 
  -2   8  -1    1.27    0.14 
  -3   8  -1    2.00    0.17 
  -3   8  -1    1.88    0.16 
  -4   8  -1    2.28    0.19 
  -4   8  -1    2.29    0.20 
  10   7  -1    0.32    0.11 
  10   7  -1    0.36    0.12 
 -10  -7   1    0.51    0.12 
   9   7  -1    3.13    0.22 
   9   7  -1    2.97    0.22 
  -9  -7   1    2.99    0.21 
  -9  -7   1    3.31    0.23 
   8   7  -1    1.86    0.17 
   8   7  -1    1.90    0.17 
  -8  -7   1    1.79    0.16 
  -8  -7   1    1.85    0.17 
   7   7  -1    3.38    0.19 
   7   7  -1    3.53    0.20 
  -7  -7   1    3.16    0.19 
  -7  -7   1    3.48    0.19 
   6   7  -1    0.88    0.13 
   6   7  -1    0.78    0.10 
   6   7  -1    0.76    0.10 
  -6  -7   1    0.92    0.11 
  -6  -7   1    0.99    0.11 
   5   7  -1   21.05    0.50 
   5   7  -1   21.25    0.49 
  -5  -7   1   20.74    0.48 
  -5  -7   1   20.61    0.48 
  -5  -7   1   21.48    0.49 
   4   7  -1   11.89    0.32 
   4   7  -1   11.45    0.31 
  -4  -7   1   11.42    0.32 
  -4  -7   1   11.51    0.31 
  -4  -7   1   11.70    0.31 
   3   7  -1   33.51    0.68 
   3   7  -1   34.05    0.69 
  -3  -7   1   34.23    0.67 
  -3  -7   1   34.33    0.68 
  -3  -7   1   33.49    0.70 
   2   7  -1    0.63    0.08 
   2   7  -1    0.44    0.07 
   2   7  -1    0.44    0.07 
   2   7  -1    0.39    0.06 
  -2  -7   1    0.58    0.07 
  -2  -7   1    0.58    0.08 
  -2  -7   1    0.53    0.07 
   1   7  -1    2.60    0.14 
   1   7  -1    2.72    0.15 
   1   7  -1    2.68    0.13 
   1   7  -1    2.48    0.12 
  -1  -7   1    2.58    0.15 
  -1  -7   1    2.59    0.12 
   0   7  -1    3.40    0.15 
   0   7  -1    3.58    0.18 
   0   7  -1    3.48    0.16 
   0   7  -1    3.68    0.15 
   0  -7   1    3.50    0.14 
   0  -7   1    3.38    0.17 
  -1   7  -1    7.26    0.24 
  -1   7  -1    7.40    0.27 
  -1   7  -1    7.37    0.25 
   1  -7   1    7.57    0.28 
   1  -7   1    7.11    0.21 
  -2   7  -1    3.45    0.17 
  -2   7  -1    3.15    0.14 
  -2   7  -1    3.43    0.18 
  -2   7  -1    3.36    0.19 
  -3   7  -1    4.74    0.22 
  -3   7  -1    4.76    0.23 
  -4   7  -1    0.09    0.07 
  -4   7  -1    0.16    0.08 
  -5   7  -1    3.88    0.24 
  -5   7  -1    3.65    0.24 
  10   6  -1    2.10    0.20 
  10   6  -1    2.04    0.20 
 -10  -6   1    2.13    0.20 
   9   6  -1    1.34    0.15 
   9   6  -1    1.43    0.16 
  -9  -6   1    1.57    0.17 
  -9  -6   1    1.86    0.17 
   8   6  -1    0.26    0.08 
   8   6  -1    0.32    0.09 
  -8  -6   1    0.35    0.08 
  -8  -6   1    0.32    0.09 
   7   6  -1   30.73    0.69 
   7   6  -1   32.02    0.70 
  -7  -6   1   30.32    0.70 
  -7  -6   1   31.45    0.68 
   6   6  -1    9.54    0.29 
   6   6  -1    9.36    0.30 
   6   6  -1    9.32    0.29 
  -6  -6   1    9.61    0.29 
  -6  -6   1    9.62    0.30 
   5   6  -1    0.44    0.07 
   5   6  -1    0.63    0.08 
  -5  -6   1    0.59    0.08 
  -5  -6   1    0.54    0.08 
   4   6  -1    0.03    0.04 
   4   6  -1    0.02    0.04 
  -4  -6   1    0.01    0.03 
  -4  -6   1    0.05    0.04 
  -4  -6   1    0.02    0.04 
   3   6  -1    0.18    0.04 
   3   6  -1    0.31    0.05 
   3   6  -1    0.30    0.05 
  -3  -6   1    0.28    0.05 
  -3  -6   1    0.28    0.05 
  -3  -6   1    0.27    0.05 
   2   6  -1    2.38    0.11 
   2   6  -1    2.40    0.12 
   2   6  -1    2.40    0.11 
  -2  -6   1    2.41    0.11 
  -2  -6   1    2.45    0.11 
  -2  -6   1    2.60    0.13 
   1   6  -1    1.38    0.10 
   1   6  -1    1.57    0.10 
   1   6  -1    1.48    0.09 
   1   6  -1    1.52    0.09 
  -1  -6   1    1.64    0.09 
   0   6  -1   19.54    0.43 
   0   6  -1   18.86    0.41 
   0   6  -1   19.22    0.45 
   0   6  -1   19.21    0.42 
   0  -6   1   19.23    0.46 
   0  -6   1   19.47    0.40 
  -1   6  -1    2.94    0.14 
  -1   6  -1    2.99    0.15 
  -1   6  -1    3.07    0.13 
  -1   6  -1    2.91    0.13 
   1  -6   1    3.16    0.16 
   1  -6   1    2.81    0.12 
  -2   6  -1   -0.01    0.03 
  -2   6  -1   -0.06    0.04 
  -2   6  -1    0.06    0.04 
   2  -6   1   -0.03    0.02 
  -3   6  -1    3.86    0.17 
  -3   6  -1    3.67    0.18 
  -3   6  -1    3.54    0.15 
  -3   6  -1    3.49    0.19 
   3  -6   1    3.51    0.15 
  -4   6  -1    6.01    0.26 
  -4   6  -1    6.06    0.26 
  -4   6  -1    5.71    0.24 
  -5   6  -1    0.01    0.06 
  -5   6  -1    0.05    0.06 
  -5   6  -1    0.12    0.07 
  -6   6  -1    1.20    0.14 
  -6   6  -1    1.25    0.16 
  -6   6  -1    1.22    0.15 
  10   5  -1    0.01    0.08 
  10   5  -1    0.17    0.10 
 -10  -5   1    0.16    0.09 
 -10  -5   1    0.24    0.10 
   9   5  -1    0.63    0.12 
   9   5  -1    0.60    0.11 
  -9  -5   1    0.60    0.11 
  -9  -5   1    0.63    0.12 
   8   5  -1    0.01    0.06 
   8   5  -1    0.09    0.07 
  -8  -5   1    0.00    0.07 
  -8  -5   1    0.01    0.07 
   7   5  -1    5.45    0.23 
   7   5  -1    5.22    0.23 
  -7  -5   1    5.33    0.22 
  -7  -5   1    5.44    0.23 
   6   5  -1    0.85    0.10 
   6   5  -1    0.69    0.08 
   6   5  -1    0.80    0.09 
  -6  -5   1    0.80    0.09 
  -6  -5   1    0.73    0.08 
   5   5  -1    4.80    0.18 
   5   5  -1    4.43    0.18 
   5   5  -1    4.68    0.18 
  -5  -5   1    4.72    0.18 
  -5  -5   1    4.69    0.18 
   4   5  -1   15.57    0.36 
   4   5  -1   14.95    0.36 
   4   5  -1   15.20    0.36 
  -4  -5   1   15.37    0.36 
  -4  -5   1   15.37    0.35 
   3   5  -1  124.47    2.10 
   3   5  -1  123.27    2.09 
   3   5  -1  125.55    2.09 
  -3  -5   1  121.07    2.09 
  -3  -5   1  124.19    2.09 
  -3  -5   1  122.70    2.08 
   2   5  -1   61.63    1.09 
   2   5  -1   60.86    1.09 
   2   5  -1   61.39    1.09 
  -2  -5   1   65.33    1.12 
  -2  -5   1   60.08    1.08 
  -2  -5   1   61.20    1.08 
  -2  -5   1   61.76    1.10 
   1   5  -1   54.36    0.95 
   1   5  -1   52.98    0.95 
   1   5  -1   53.43    0.98 
   1   5  -1   52.42    0.96 
  -1  -5   1   52.78    0.94 
  -1  -5   1   54.64    0.95 
  -1  -5   1   54.35    0.98 
  -1  -5   1   53.55    0.94 
   0   5  -1    5.03    0.18 
   0   5  -1    4.97    0.15 
   0   5  -1    5.05    0.15 
   0   5  -1    4.84    0.16 
   0  -5   1    5.01    0.18 
   0  -5   1    4.77    0.14 
   0  -5   1    4.49    0.14 
  -1   5  -1    0.81    0.08 
  -1   5  -1    0.83    0.07 
  -1   5  -1    0.88    0.07 
   1  -5   1    0.94    0.09 
   1  -5   1    0.58    0.05 
   1  -5   1    0.91    0.07 
  -2   5  -1   14.27    0.35 
  -2   5  -1   13.74    0.33 
  -2   5  -1   14.74    0.36 
  -2   5  -1   14.24    0.34 
   2  -5   1   13.19    0.31 
  -3   5  -1    9.14    0.26 
  -3   5  -1    8.61    0.26 
  -3   5  -1    8.91    0.28 
  -3   5  -1    8.53    0.23 
  -3   5  -1    9.17    0.28 
   3  -5   1    9.08    0.24 
  -4   5  -1   28.54    0.63 
  -4   5  -1   28.02    0.63 
  -4   5  -1   27.57    0.61 
  -4   5  -1   27.43    0.61 
  -4   5  -1   26.88    0.57 
   4  -5   1   28.17    0.58 
  -5   5  -1    4.88    0.23 
  -5   5  -1    5.19    0.24 
  -5   5  -1    5.02    0.23 
  -6   5  -1    0.54    0.10 
  -6   5  -1    0.79    0.12 
  -6   5  -1    1.01    0.13 
  -7   5  -1    1.12    0.15 
  -7   5  -1    1.11    0.15 
  -7   5  -1    1.31    0.16 
  10   4  -1    0.78    0.14 
 -10  -4   1    0.82    0.14 
 -10  -4   1    0.83    0.15 
   9   4  -1    3.87    0.22 
   9   4  -1    3.71    0.22 
  -9  -4   1    3.78    0.22 
  -9  -4   1    3.72    0.23 
   8   4  -1    1.62    0.15 
   8   4  -1    1.21    0.14 
  -8  -4   1    1.21    0.13 
  -8  -4   1    1.27    0.14 
   7   4  -1    6.26    0.24 
   7   4  -1    5.94    0.24 
  -7  -4   1    6.18    0.24 
  -7  -4   1    6.02    0.25 
   6   4  -1    0.19    0.06 
   6   4  -1    0.32    0.07 
   6   4  -1    0.35    0.07 
  -6  -4   1    0.27    0.06 
  -6  -4   1    0.21    0.06 
   5   4  -1   43.48    0.84 
   5   4  -1   43.28    0.84 
   5   4  -1   44.52    0.84 
  -5  -4   1   43.91    0.85 
  -5  -4   1   43.83    0.83 
   4   4  -1   77.25    1.34 
   4   4  -1   76.03    1.33 
   4   4  -1   74.84    1.33 
   4   4  -1   74.44    1.33 
  -4  -4   1   76.46    1.33 
  -4  -4   1   76.29    1.34 
   3   4  -1   33.69    0.63 
   3   4  -1   33.93    0.63 
   3   4  -1   33.03    0.63 
  -3  -4   1   32.79    0.62 
  -3  -4   1   33.97    0.63 
   2   4  -1    4.33    0.13 
   2   4  -1    4.35    0.13 
   2   4  -1    4.24    0.13 
  -2  -4   1    4.15    0.12 
  -2  -4   1    4.37    0.13 
  -2  -4   1    4.31    0.14 
  -2  -4   1    4.36    0.13 
   1   4  -1    4.06    0.12 
   1   4  -1    4.06    0.12 
   1   4  -1    3.95    0.12 
   1   4  -1    3.86    0.12 
  -1  -4   1    3.90    0.12 
  -1  -4   1    3.76    0.13 
  -1  -4   1    4.03    0.12 
  -1  -4   1    3.91    0.12 
   0   4  -1   65.54    1.14 
   0   4  -1   64.86    1.14 
   0   4  -1   63.73    1.17 
   0   4  -1   67.03    1.16 
   0   4  -1   67.26    1.15 
   0  -4   1   67.39    1.18 
   0  -4   1   66.59    1.13 
   0  -4   1   67.13    1.13 
  -1   4  -1   79.01    1.43 
  -1   4  -1   80.19    1.41 
  -1   4  -1   82.05    1.42 
  -1   4  -1   83.10    1.44 
   1  -4   1   84.22    1.45 
   1  -4   1   82.37    1.40 
   1  -4   1   83.65    1.40 
  -2   4  -1   32.42    0.62 
  -2   4  -1   31.60    0.63 
  -2   4  -1   32.13    0.62 
  -2   4  -1   32.54    0.64 
   2  -4   1   31.95    0.61 
  -3   4  -1   10.38    0.25 
  -3   4  -1   10.84    0.29 
  -3   4  -1   10.66    0.29 
  -3   4  -1   10.43    0.28 
  -3   4  -1   10.66    0.28 
   3  -4   1   10.88    0.26 
  -4   4  -1    3.52    0.14 
  -4   4  -1    3.60    0.17 
  -4   4  -1    3.71    0.16 
  -4   4  -1    3.69    0.17 
  -4   4  -1    3.58    0.16 
   4  -4   1    3.46    0.14 
  -5   4  -1    2.50    0.16 
  -5   4  -1    2.34    0.16 
  -5   4  -1    2.26    0.15 
  -5   4  -1    2.39    0.15 
   5  -4   1    2.48    0.14 
  -6   4  -1    0.04    0.06 
  -6   4  -1   -0.05    0.06 
  -6   4  -1    0.01    0.06 
  -7   4  -1    0.75    0.12 
  -7   4  -1    0.70    0.12 
  -7   4  -1    1.05    0.14 
  -8   4  -1    0.57    0.12 
  -8   4  -1    0.60    0.13 
  -8   4  -1    0.78    0.13 
  10   3  -1    0.72    0.13 
 -10  -3   1    0.61    0.13 
 -10  -3   1    0.45    0.11 
   9   3  -1    0.03    0.07 
   9   3  -1    0.02    0.07 
  -9  -3   1    0.02    0.07 
  -9  -3   1   -0.06    0.07 
   8   3  -1    0.71    0.11 
   8   3  -1    0.87    0.12 
  -8  -3   1    0.67    0.11 
  -8  -3   1    0.95    0.12 
   7   3  -1    2.41    0.16 
   7   3  -1    2.59    0.17 
  -7  -3   1    2.85    0.17 
  -7  -3   1    2.79    0.18 
   6   3  -1   13.67    0.35 
   6   3  -1   13.49    0.35 
   6   3  -1   13.30    0.36 
  -6  -3   1   13.19    0.35 
  -6  -3   1   13.58    0.36 
   5   3  -1    1.73    0.11 
   5   3  -1    1.88    0.11 
   5   3  -1    1.35    0.11 
  -5  -3   1    2.01    0.12 
   4   3  -1    5.00    0.16 
   4   3  -1    5.47    0.17 
   4   3  -1    5.29    0.17 
   4   3  -1    5.21    0.17 
  -4  -3   1    5.28    0.17 
  -4  -3   1    5.47    0.18 
   3   3  -1   74.10    1.28 
   3   3  -1   74.93    1.28 
   3   3  -1   74.17    1.28 
  -3  -3   1   72.92    1.27 
  -3  -3   1   75.01    1.28 
   2   3  -1   67.54    1.16 
   2   3  -1   66.90    1.16 
   2   3  -1   68.93    1.16 
  -2  -3   1   68.74    1.16 
  -2  -3   1   67.49    1.15 
   1   3  -1   51.55    0.87 
   1   3  -1   50.96    0.87 
   1   3  -1   50.95    0.87 
   1   3  -1   50.40    0.88 
  -1  -3   1   49.57    0.88 
  -1  -3   1   50.50    0.87 
  -1  -3   1   52.52    0.87 
   0   3  -1  108.79    1.89 
   0   3  -1  113.71    1.87 
   0   3  -1  117.13    1.88 
   0   3  -1  112.97    1.90 
   0   3  -1  109.78    1.87 
   0  -3   1  113.44    1.90 
   0  -3   1  112.63    1.86 
   0  -3   1  115.57    1.86 
  -1   3  -1  149.22    2.51 
  -1   3  -1  150.60    2.54 
  -1   3  -1  155.85    2.52 
  -1   3  -1  147.38    2.51 
  -1   3  -1  153.67    2.54 
   1  -3   1  151.92    2.54 
   1  -3   1  153.09    2.50 
   1  -3   1  154.53    2.50 
   1  -3   1  152.54    2.55 
  -2   3  -1    1.80    0.08 
  -2   3  -1    1.79    0.09 
  -2   3  -1    1.86    0.09 
  -2   3  -1    1.83    0.10 
  -2   3  -1    1.83    0.07 
  -2   3  -1    1.86    0.09 
   2  -3   1    1.87    0.08 
   2  -3   1    1.73    0.08 
  -3   3  -1    2.03    0.11 
  -3   3  -1    2.13    0.09 
  -3   3  -1    2.19    0.11 
  -3   3  -1    2.08    0.10 
  -3   3  -1    2.17    0.10 
   3  -3   1    2.21    0.10 
   3  -3   1    2.07    0.09 
  -4   3  -1   14.57    0.32 
  -4   3  -1   14.18    0.36 
  -4   3  -1   14.83    0.35 
  -4   3  -1   14.54    0.36 
  -4   3  -1   13.59    0.35 
   4  -3   1   14.44    0.33 
  -5   3  -1    0.06    0.05 
  -5   3  -1    0.09    0.05 
  -5   3  -1    0.06    0.05 
  -5   3  -1    0.16    0.05 
   5  -3   1    0.03    0.04 
  -6   3  -1    9.67    0.31 
  -6   3  -1    9.56    0.31 
  -6   3  -1    9.22    0.31 
  -6   3  -1    9.80    0.32 
   6  -3   1    9.39    0.28 
  -7   3  -1    5.77    0.27 
  -7   3  -1    5.90    0.26 
  -7   3  -1    5.93    0.26 
  -8   3  -1    1.48    0.17 
  -8   3  -1    1.64    0.17 
  -8   3  -1    1.34    0.15 
  10   2  -1    0.10    0.08 
 -10  -2   1    0.05    0.09 
 -10  -2   1   -0.02    0.10 
   9   2  -1    0.56    0.12 
   9   2  -1    0.53    0.11 
  -9  -2   1    0.38    0.11 
  -9  -2   1    0.37    0.11 
   8   2  -1    7.83    0.29 
  -8  -2   1    7.22    0.30 
  -8  -2   1    7.43    0.29 
   7   2  -1   14.21    0.39 
  -7  -2   1   13.79    0.40 
  -7  -2   1   14.43    0.40 
   6   2  -1    0.11    0.05 
  -6  -2   1    0.11    0.05 
  -6  -2   1    0.01    0.04 
  -6  -2   1    0.04    0.04 
   5   2  -1   15.38    0.36 
   5   2  -1   15.66    0.37 
  -5  -2   1   15.86    0.38 
  -5  -2   1   15.63    0.36 
  -5  -2   1   15.63    0.37 
   4   2  -1   39.21    0.72 
   4   2  -1   39.61    0.71 
   4   2  -1   37.60    0.72 
   4   2  -1   39.71    0.73 
  -4  -2   1   37.11    0.72 
  -4  -2   1   38.57    0.73 
  -4  -2   1   38.94    0.72 
   3   2  -1   47.03    0.84 
   3   2  -1   48.25    0.84 
   3   2  -1   46.92    0.84 
  -3  -2   1   47.32    0.84 
  -3  -2   1   46.75    0.84 
   2   2  -1  204.52    3.22 
   2   2  -1  188.53    3.22 
  -2  -2   1  200.84    3.22 
  -2  -2   1  192.61    3.21 
   1   2  -1   41.04    0.70 
   1   2  -1   41.55    0.70 
   1   2  -1   40.29    0.69 
  -1  -2   1   40.42    0.70 
  -1  -2   1   40.78    0.69 
  -1  -2   1   41.11    0.70 
   0   2  -1    4.06    0.10 
   0   2  -1    4.00    0.10 
   0   2  -1    4.12    0.10 
   0   2  -1    4.13    0.11 
   0  -2   1    4.13    0.11 
   0  -2   1    4.18    0.09 
   0  -2   1    4.00    0.09 
   0  -2   1    4.09    0.09 
  -1   2  -1  132.56    2.38 
  -1   2  -1  144.91    2.36 
  -1   2  -1  146.66    2.39 
  -1   2  -1  146.91    2.36 
  -1   2  -1  144.64    2.39 
   1  -2   1  147.93    2.39 
   1  -2   1  146.52    2.39 
   1  -2   1  145.45    2.38 
   1  -2   1  141.37    2.37 
   1  -2   1  144.74    2.39 
  -2   2  -1   79.35    1.36 
  -2   2  -1   79.24    1.35 
  -2   2  -1   80.82    1.37 
  -2   2  -1   79.16    1.33 
  -2   2  -1   80.59    1.38 
  -2   2  -1   78.66    1.35 
   2  -2   1   81.50    1.38 
   2  -2   1   81.05    1.35 
   2  -2   1   79.51    1.35 
  -3   2  -1   47.21    0.85 
  -3   2  -1   46.52    0.84 
  -3   2  -1   46.58    0.84 
  -3   2  -1   45.83    0.82 
  -3   2  -1   46.71    0.85 
   3  -2   1   47.05    0.84 
   3  -2   1   47.25    0.83 
   3  -2   1   45.43    0.83 
  -4   2  -1   20.63    0.44 
  -4   2  -1   20.22    0.44 
  -4   2  -1   20.31    0.45 
  -4   2  -1   21.00    0.44 
   4  -2   1   19.74    0.45 
   4  -2   1   21.02    0.43 
  -5   2  -1   42.04    0.83 
  -5   2  -1   41.08    0.82 
  -5   2  -1   42.64    0.82 
  -5   2  -1   41.46    0.81 
   5  -2   1   41.27    0.79 
  -6   2  -1    0.20    0.07 
  -6   2  -1    0.23    0.06 
  -6   2  -1    0.26    0.08 
  -6   2  -1    0.31    0.07 
   6  -2   1    0.31    0.07 
  -7   2  -1   11.90    0.38 
  -7   2  -1   12.03    0.38 
  -7   2  -1   11.88    0.36 
   7  -2   1   11.46    0.34 
  -8   2  -1    0.94    0.13 
  -8   2  -1    1.09    0.13 
  -8   2  -1    1.07    0.14 
  -9   2  -1    0.19    0.09 
  -9   2  -1    0.19    0.09 
  -9   2  -1    0.09    0.10 
   9   1  -1    5.44    0.23 
  -9  -1   1    6.07    0.29 
  -9  -1   1    5.41    0.28 
   8   1  -1    4.14    0.21 
   8   1  -1    4.33    0.18 
  -8  -1   1    3.79    0.22 
  -8  -1   1    4.20    0.23 
   7   1  -1    8.75    0.29 
  -7  -1   1    9.03    0.31 
  -7  -1   1    9.24    0.31 
   6   1  -1    0.14    0.06 
  -6  -1   1    0.19    0.06 
  -6  -1   1    0.21    0.05 
  -6  -1   1    0.26    0.06 
  -6  -1   1    0.22    0.06 
   5   1  -1    3.72    0.16 
   5   1  -1    3.69    0.15 
  -5  -1   1    3.97    0.16 
  -5  -1   1    3.80    0.15 
  -5  -1   1    3.78    0.15 
  -5  -1   1    3.89    0.16 
   4   1  -1    0.80    0.07 
   4   1  -1    0.81    0.07 
   4   1  -1    0.77    0.07 
   4   1  -1    0.87    0.06 
  -4  -1   1    0.82    0.07 
  -4  -1   1    0.90    0.07 
  -4  -1   1    0.85    0.07 
  -4  -1   1    0.72    0.06 
   3   1  -1    2.81    0.10 
   3   1  -1    2.78    0.10 
   3   1  -1    2.64    0.10 
   3   1  -1    2.95    0.10 
  -3  -1   1    2.62    0.10 
  -3  -1   1    2.65    0.10 
  -3  -1   1    2.83    0.11 
   2   1  -1   13.75    0.28 
   2   1  -1   14.43    0.28 
   2   1  -1   13.78    0.28 
   2   1  -1   13.98    0.28 
  -2  -1   1   14.25    0.27 
  -2  -1   1   13.99    0.28 
  -2  -1   1   13.53    0.28 
   1   1  -1   43.09    0.72 
   1   1  -1   43.18    0.72 
  -1  -1   1   42.27    0.72 
   0   1  -1   52.41    0.84 
   0   1  -1   51.88    0.86 
   0   1  -1   49.90    0.84 
   0   1  -1   50.04    0.86 
   0  -1   1   50.63    0.86 
   0  -1   1   51.55    0.84 
   0  -1   1   51.92    0.85 
  -1   1  -1  236.05    4.17 
  -1   1  -1  251.37    4.10 
  -1   1  -1  243.74    4.10 
  -1   1  -1  244.84    4.06 
  -1   1  -1  247.19    4.09 
   1  -1   1  231.45    4.14 
   1  -1   1  248.07    4.09 
   1  -1   1  257.09    4.09 
   1  -1   1  246.60    4.05 
  -2   1  -1  141.57    2.33 
  -2   1  -1  143.73    2.35 
  -2   1  -1  136.22    2.35 
  -2   1  -1  141.03    2.35 
  -2   1  -1  141.71    2.35 
   2  -1   1  145.11    2.35 
   2  -1   1  147.87    2.35 
   2  -1   1  145.40    2.36 
  -3   1  -1   71.08    1.24 
  -3   1  -1   71.36    1.24 
  -3   1  -1   71.50    1.24 
  -3   1  -1   71.58    1.24 
   3  -1   1   72.68    1.24 
   3  -1   1   74.19    1.20 
   3  -1   1   72.52    1.24 
   3  -1   1   71.00    1.23 
   3  -1   1   73.44    1.23 
  -4   1  -1   10.92    0.27 
  -4   1  -1   10.81    0.27 
  -4   1  -1   10.94    0.27 
  -4   1  -1   11.09    0.28 
   4  -1   1   11.41    0.26 
   4  -1   1   11.43    0.24 
   4  -1   1   10.89    0.27 
  -5   1  -1    3.07    0.15 
  -5   1  -1    3.39    0.14 
  -5   1  -1    3.17    0.15 
  -5   1  -1    3.32    0.14 
   5  -1   1    3.25    0.14 
   5  -1   1    3.22    0.11 
  -6   1  -1    0.10    0.05 
  -6   1  -1   -0.05    0.04 
  -6   1  -1    0.01    0.05 
  -6   1  -1    0.00    0.05 
   6  -1   1   -0.06    0.04 
   6  -1   1   -0.01    0.03 
  -7   1  -1    0.27    0.08 
  -7   1  -1    0.21    0.08 
  -7   1  -1    0.21    0.07 
  -7   1  -1    0.20    0.07 
   7  -1   1    0.30    0.07 
   7  -1   1    0.28    0.05 
  -8   1  -1    0.54    0.10 
  -8   1  -1    0.52    0.10 
  -8   1  -1    0.44    0.10 
  -9   1  -1    1.52    0.17 
  -9   1  -1    1.63    0.16 
  -9   1  -1    1.40    0.16 
   9   0  -1    4.53    0.20 
  -9   0   1    4.17    0.26 
  -9   0   1    4.57    0.27 
   8   0  -1    3.78    0.21 
   8   0  -1    3.47    0.17 
  -8   0   1    3.39    0.22 
  -8   0   1    3.95    0.23 
  -8   0   1    3.98    0.22 
   7   0  -1    4.10    0.20 
   7   0  -1    4.07    0.17 
  -7   0   1    4.39    0.20 
  -7   0   1    4.33    0.22 
  -7   0   1    4.17    0.22 
   6   0  -1    1.02    0.08 
   6   0  -1    0.94    0.10 
  -6   0   1    0.75    0.09 
  -6   0   1    0.82    0.09 
  -6   0   1    0.93    0.10 
  -6   0   1    1.01    0.10 
   5   0  -1    3.34    0.15 
   5   0  -1    3.09    0.14 
   5   0  -1    3.33    0.13 
  -5   0   1    3.42    0.15 
  -5   0   1    3.22    0.14 
  -5   0   1    3.29    0.14 
  -5   0   1    3.23    0.15 
   4   0  -1   21.54    0.46 
   4   0  -1   21.60    0.49 
   4   0  -1   21.91    0.45 
  -4   0   1   21.77    0.45 
  -4   0   1   22.12    0.46 
  -4   0   1   21.37    0.46 
   3   0  -1    6.44    0.18 
   3   0  -1    6.39    0.17 
   3   0  -1    6.51    0.17 
   3   0  -1    6.69    0.18 
  -3   0   1    6.36    0.17 
  -3   0   1    6.75    0.17 
  -3   0   1    6.69    0.18 
  -3   0   1    6.30    0.18 
   2   0  -1    2.74    0.09 
   2   0  -1    2.61    0.09 
   2   0  -1    2.52    0.08 
  -2   0   1    2.69    0.09 
  -2   0   1    2.68    0.09 
  -2   0   1    2.68    0.09 
   1   0  -1  413.32    6.80 
   1   0  -1  428.40    6.83 
   1   0  -1  388.98    6.77 
   1   0  -1  402.22    6.80 
  -1   0   1  407.81    6.78 
  -1   0   1  423.69    6.78 
  -1   0   1  415.46    6.78 
  -1   0   1  395.46    6.81 
   0   0   1    4.43    0.08 
  -1   0  -1   -0.13    0.02 
  -1   0  -1   -0.13    0.02 
  -1   0  -1   -0.16    0.01 
  -1   0  -1   -0.12    0.02 
  -1   0  -1   -0.14    0.01 
   1   0   1   -0.15    0.02 
   1   0   1   -0.05    0.02 
   1   0   1   -0.16    0.01 
   1   0   1   -0.14    0.01 
   1   0   1   -0.11    0.02 
  -2   0  -1    5.46    0.13 
  -2   0  -1    5.37    0.12 
  -2   0  -1    5.50    0.13 
  -2   0  -1    5.60    0.13 
   2   0   1    5.36    0.11 
   2   0   1    5.45    0.12 
   2   0   1    5.38    0.13 
   2   0   1    5.65    0.13 
  -3   0  -1   25.50    0.49 
  -3   0  -1   25.73    0.48 
  -3   0  -1   25.31    0.49 
  -3   0  -1   25.18    0.47 
   3   0   1   26.90    0.46 
   3   0   1   26.12    0.48 
   3   0   1   26.66    0.48 
   3   0   1   25.51    0.48 
   3   0   1   26.16    0.48 
  -4   0  -1  104.63    1.76 
  -4   0  -1  103.49    1.75 
  -4   0  -1  100.74    1.74 
  -4   0  -1  101.97    1.76 
   4   0   1  102.62    1.75 
   4   0   1  103.81    1.75 
   4   0   1  103.96    1.72 
   4   0   1  103.24    1.75 
   4   0   1  102.04    1.74 
  -5   0  -1   19.78    0.45 
  -5   0  -1   19.61    0.43 
  -5   0  -1   19.73    0.42 
  -5   0  -1   19.49    0.44 
   5   0   1   20.52    0.40 
   5   0   1   20.49    0.44 
   5   0   1   19.91    0.43 
  -6   0  -1    0.01    0.04 
  -6   0  -1    0.05    0.04 
  -6   0  -1    0.07    0.04 
  -6   0  -1    0.05    0.04 
   6   0   1   -0.01    0.03 
   6   0   1    0.09    0.03 
  -7   0  -1   35.08    0.77 
  -7   0  -1   36.57    0.78 
  -7   0  -1   36.68    0.74 
  -7   0  -1   35.48    0.75 
   7   0   1   36.88    0.69 
   7   0   1   35.93    0.74 
  -8   0  -1    3.20    0.20 
  -8   0  -1    3.07    0.18 
  -8   0  -1    3.13    0.20 
   8   0   1    2.94    0.18 
   8   0   1    3.05    0.14 
  -9   0  -1    1.20    0.13 
  -9   0  -1    1.40    0.16 
  -9   0  -1    1.50    0.17 
   9   0   1    1.28    0.10 
   9   0   1    1.29    0.14 
   9  -1  -1    0.76    0.09 
  -9   1   1    0.83    0.14 
  -9   1   1    0.86    0.13 
  -9   1   1    0.58    0.12 
   8  -1  -1    6.28    0.38 
   8  -1  -1    7.05    0.23 
  -8   1   1    6.72    0.29 
  -8   1   1    6.53    0.30 
  -8   1   1    6.90    0.31 
   7  -1  -1   13.21    0.39 
   7  -1  -1   13.39    0.34 
  -7   1   1   13.88    0.41 
  -7   1   1   13.85    0.42 
  -7   1   1   13.73    0.40 
   6  -1  -1    0.07    0.06 
   6  -1  -1    0.01    0.04 
  -6   1   1    0.19    0.06 
  -6   1   1   -0.08    0.06 
  -6   1   1   -0.07    0.05 
  -6   1   1   -0.03    0.05 
   5  -1  -1    8.60    0.26 
   5  -1  -1    8.70    0.23 
  -5   1   1    8.58    0.26 
  -5   1   1    8.73    0.27 
  -5   1   1    8.64    0.26 
  -5   1   1    8.80    0.27 
   4  -1  -1   35.25    0.63 
   4  -1  -1   34.27    0.66 
   4  -1  -1   33.55    0.66 
  -4   1   1   33.75    0.67 
  -4   1   1   33.89    0.66 
  -4   1   1   31.85    0.65 
  -4   1   1   33.48    0.67 
   3  -1  -1    9.33    0.24 
   3  -1  -1    9.92    0.24 
   3  -1  -1   10.04    0.24 
   3  -1  -1    9.73    0.24 
   3  -1  -1    9.55    0.22 
  -3   1   1    9.86    0.24 
  -3   1   1    9.54    0.24 
  -3   1   1    9.61    0.24 
  -3   1   1    8.96    0.23 
   2  -1  -1   18.38    0.36 
   2  -1  -1   18.28    0.35 
   2  -1  -1   18.43    0.36 
   2  -1  -1   17.92    0.36 
   2  -1  -1   18.04    0.36 
  -2   1   1   18.62    0.37 
  -2   1   1   18.65    0.36 
  -2   1   1   17.79    0.36 
   1  -1  -1   55.06    0.99 
   1  -1  -1   60.64    0.99 
   1  -1  -1   59.34    0.99 
   1  -1  -1   58.03    0.99 
  -1   1   1   57.30    0.99 
  -1   1   1   59.05    0.99 
  -1   1   1   60.15    0.99 
  -1   1   1   58.82    0.98 
  -1   1   1   58.23    0.99 
   0  -1  -1  136.45    2.29 
   0  -1  -1  139.25    2.28 
   0  -1  -1  138.99    2.29 
   0  -1  -1  133.49    2.28 
   0   1   1  139.51    2.27 
   0   1   1  141.50    2.30 
   0   1   1  135.06    2.27 
   0   1   1  135.41    2.29 
   0   1   1  131.83    2.30 
   0   1   1  130.65    2.27 
  -1  -1  -1    4.33    0.10 
  -1  -1  -1    4.47    0.10 
  -1  -1  -1    4.42    0.10 
   1   1   1    4.53    0.10 
   1   1   1    4.37    0.10 
   1   1   1    4.44    0.10 
  -2  -1  -1   31.33    0.55 
  -2  -1  -1   31.48    0.55 
  -2  -1  -1   29.79    0.55 
  -2  -1  -1   31.81    0.55 
  -2  -1  -1   31.84    0.53 
   2   1   1   31.95    0.53 
   2   1   1   29.84    0.55 
   2   1   1   31.34    0.55 
   2   1   1   32.86    0.55 
   2   1   1   31.57    0.55 
  -3  -1  -1    0.48    0.04 
  -3  -1  -1    0.51    0.05 
  -3  -1  -1    0.56    0.05 
   3   1   1    0.49    0.04 
   3   1   1    0.51    0.04 
   3   1   1    0.49    0.04 
   3   1   1    0.54    0.04 
   3   1   1    0.49    0.04 
  -4  -1  -1    3.76    0.12 
  -4  -1  -1    3.96    0.14 
  -4  -1  -1    3.72    0.13 
  -4  -1  -1    3.78    0.13 
   4   1   1    3.69    0.11 
   4   1   1    4.07    0.13 
   4   1   1    3.81    0.13 
   4   1   1    3.75    0.13 
  -5  -1  -1   33.19    0.67 
  -5  -1  -1   33.18    0.64 
  -5  -1  -1   34.84    0.66 
  -5  -1  -1   33.76    0.67 
   5   1   1   33.92    0.64 
   5   1   1   33.89    0.66 
   5   1   1   35.19    0.66 
  -6  -1  -1    0.10    0.04 
  -6  -1  -1    0.01    0.04 
  -6  -1  -1    0.03    0.03 
  -6  -1  -1   -0.02    0.03 
   6   1   1    0.04    0.04 
  -7  -1  -1    0.08    0.06 
  -7  -1  -1    0.09    0.07 
  -7  -1  -1    0.08    0.05 
  -7  -1  -1    0.07    0.05 
   7   1   1    0.05    0.06 
   7   1   1    0.11    0.05 
  -8  -1  -1    9.28    0.33 
  -8  -1  -1    9.39    0.33 
  -8  -1  -1    8.59    0.29 
   8   1   1    9.03    0.25 
   8   1   1    9.27    0.31 
   8   1   1    8.70    0.30 
  -9  -1  -1   -0.02    0.07 
  -9  -1  -1    0.00    0.07 
   9   1   1    0.06    0.06 
   9   1   1    0.05    0.05 
 -10  -1  -1    0.16    0.10 
 -10  -1  -1    0.07    0.09 
  10   1   1    0.16    0.14 
  10   1   1    0.20    0.06 
  -8   2   1    1.30    0.16 
  -8   2   1    1.51    0.16 
  -8   2   1    1.73    0.18 
   7  -2  -1   10.06    0.33 
   7  -2  -1   10.19    0.29 
  -7   2   1   10.50    0.37 
  -7   2   1   10.45    0.36 
  -7   2   1   10.69    0.35 
   6  -2  -1   30.61    0.66 
   6  -2  -1   30.32    0.61 
  -6   2   1   29.76    0.68 
  -6   2   1   30.74    0.67 
  -6   2   1   30.57    0.69 
   5  -2  -1    0.90    0.10 
   5  -2  -1    1.10    0.08 
  -5   2   1    0.84    0.09 
  -5   2   1    1.22    0.12 
  -5   2   1    1.14    0.10 
  -5   2   1    0.97    0.11 
   4  -2  -1    9.83    0.26 
   4  -2  -1    9.25    0.23 
   4  -2  -1    9.49    0.27 
  -4   2   1    8.97    0.26 
  -4   2   1    9.54    0.27 
  -4   2   1    9.42    0.27 
  -4   2   1    9.32    0.26 
   3  -2  -1    5.92    0.18 
   3  -2  -1    6.06    0.16 
   3  -2  -1    5.86    0.18 
  -3   2   1    5.83    0.18 
  -3   2   1    5.80    0.18 
  -3   2   1    5.76    0.18 
  -3   2   1    5.79    0.18 
   2  -2  -1   27.94    0.51 
   2  -2  -1   28.10    0.53 
   2  -2  -1   27.79    0.53 
   2  -2  -1   27.76    0.53 
   2  -2  -1   27.57    0.53 
  -2   2   1   28.09    0.53 
  -2   2   1   27.96    0.53 
  -2   2   1   26.79    0.53 
  -2   2   1   27.98    0.54 
   1  -2  -1   17.54    0.34 
   1  -2  -1   17.67    0.34 
   1  -2  -1   17.08    0.33 
  -1   2   1   16.79    0.33 
  -1   2   1   17.60    0.34 
  -1   2   1   16.13    0.33 
  -1   2   1   16.71    0.32 
  -1   2   1   16.80    0.33 
   0  -2  -1  151.17    2.49 
   0  -2  -1  151.37    2.49 
   0  -2  -1  147.29    2.49 
   0  -2  -1  151.35    2.50 
   0   2   1  155.04    2.53 
   0   2   1  153.38    2.49 
   0   2   1  154.38    2.52 
   0   2   1  155.70    2.50 
   0   2   1  149.54    2.51 
  -1  -2  -1  173.06    2.88 
  -1  -2  -1  170.08    2.84 
  -1  -2  -1  173.36    2.90 
   1   2   1  169.08    2.80 
   1   2   1  177.40    2.90 
   1   2   1  171.18    2.91 
   1   2   1  167.57    2.88 
  -2  -2  -1   79.76    1.32 
  -2  -2  -1   76.43    1.32 
  -2  -2  -1   78.33    1.32 
   2   2   1   80.74    1.32 
   2   2   1   78.67    1.32 
   2   2   1   79.60    1.32 
  -3  -2  -1   96.74    1.61 
  -3  -2  -1   95.67    1.61 
   3   2   1   95.78    1.57 
   3   2   1   94.77    1.60 
   3   2   1   93.77    1.60 
   3   2   1   95.72    1.61 
  -4  -2  -1    0.73    0.06 
  -4  -2  -1    0.52    0.06 
   4   2   1    0.69    0.06 
   4   2   1    0.63    0.06 
   4   2   1    0.70    0.06 
   4   2   1    0.68    0.06 
   4   2   1    0.69    0.05 
  -5  -2  -1   18.77    0.40 
  -5  -2  -1   18.70    0.42 
  -5  -2  -1   18.68    0.41 
   5   2   1   18.41    0.40 
   5   2   1   18.12    0.40 
   5   2   1   18.82    0.38 
   5   2   1   18.45    0.41 
  -6  -2  -1   21.42    0.47 
  -6  -2  -1   21.16    0.49 
  -6  -2  -1   20.65    0.48 
   6   2   1   21.13    0.47 
   6   2   1   20.87    0.47 
  -7  -2  -1   22.61    0.54 
  -7  -2  -1   22.90    0.52 
  -7  -2  -1   23.24    0.54 
   7   2   1   22.78    0.53 
   7   2   1   22.17    0.52 
  -8  -2  -1    4.89    0.24 
  -8  -2  -1    4.71    0.23 
   8   2   1    4.87    0.22 
   8   2   1    4.92    0.22 
  -9  -2  -1    6.17    0.28 
  -9  -2  -1    6.31    0.29 
   9   2   1    5.70    0.35 
   9   2   1    5.78    0.21 
   9   2   1    5.74    0.26 
 -10  -2  -1    2.38    0.21 
 -10  -2  -1    1.68    0.18 
  10   2   1    1.96    0.13 
  10   2   1    1.92    0.17 
  -8   3   1    1.25    0.15 
  -8   3   1    1.41    0.18 
  -7   3   1    0.34    0.09 
  -7   3   1    0.16    0.08 
  -7   3   1    0.24    0.09 
   6  -3  -1    3.07    0.18 
  -6   3   1    3.53    0.19 
  -6   3   1    3.23    0.19 
  -6   3   1    3.23    0.20 
   5  -3  -1    8.09    0.27 
  -5   3   1    8.37    0.29 
  -5   3   1    8.65    0.29 
  -5   3   1    8.67    0.30 
  -5   3   1    8.25    0.28 
   4  -3  -1    0.00    0.04 
  -4   3   1   -0.02    0.04 
  -4   3   1    0.19    0.06 
  -4   3   1    0.06    0.05 
  -4   3   1    0.29    0.06 
   3  -3  -1    8.87    0.24 
   3  -3  -1    8.59    0.24 
  -3   3   1    8.88    0.25 
  -3   3   1    8.38    0.24 
  -3   3   1    9.14    0.23 
  -3   3   1    8.72    0.25 
  -3   3   1    8.68    0.25 
   2  -3  -1   36.79    0.70 
   2  -3  -1   37.85    0.70 
   2  -3  -1   36.96    0.70 
  -2   3   1   37.23    0.70 
  -2   3   1   38.18    0.69 
  -2   3   1   37.18    0.71 
  -2   3   1   38.04    0.72 
  -2   3   1   38.03    0.71 
  -2   3   1   37.61    0.71 
   1  -3  -1    3.69    0.12 
   1  -3  -1    3.31    0.11 
   1  -3  -1    3.30    0.12 
   1  -3  -1    3.19    0.11 
  -1   3   1    3.32    0.11 
  -1   3   1    3.04    0.11 
  -1   3   1    3.13    0.11 
  -1   3   1    3.29    0.11 
  -1   3   1    3.28    0.12 
  -1   3   1    3.46    0.10 
   0  -3  -1   13.19    0.27 
   0  -3  -1   12.89    0.27 
   0  -3  -1   12.42    0.27 
   0  -3  -1   12.45    0.27 
   0  -3  -1   12.71    0.27 
   0   3   1   12.72    0.26 
   0   3   1   12.69    0.27 
   0   3   1   12.91    0.27 
   0   3   1   12.41    0.27 
   0   3   1   12.76    0.27 
  -1  -3  -1    0.81    0.05 
  -1  -3  -1    0.89    0.05 
  -1  -3  -1    0.97    0.05 
  -1  -3  -1    0.91    0.05 
   1   3   1    0.91    0.05 
   1   3   1    0.87    0.05 
   1   3   1    0.91    0.05 
  -2  -3  -1   18.89    0.37 
  -2  -3  -1   18.62    0.37 
  -2  -3  -1   19.10    0.37 
   2   3   1   18.50    0.37 
   2   3   1   18.47    0.36 
   2   3   1   18.97    0.37 
  -3  -3  -1   52.67    0.92 
  -3  -3  -1   52.43    0.92 
  -3  -3  -1   50.68    0.92 
   3   3   1   53.83    0.92 
   3   3   1   52.55    0.92 
   3   3   1   51.74    0.92 
  -4  -3  -1    0.82    0.07 
  -4  -3  -1    0.87    0.07 
   4   3   1    0.86    0.07 
   4   3   1    0.97    0.05 
   4   3   1    0.84    0.07 
   4   3   1    0.94    0.07 
  -5  -3  -1    4.19    0.16 
   5   3   1    4.19    0.15 
   5   3   1    4.01    0.15 
   5   3   1    4.21    0.16 
   5   3   1    4.16    0.13 
  -6  -3  -1    0.63    0.08 
   6   3   1    0.69    0.08 
   6   3   1    0.58    0.08 
  -7  -3  -1    5.75    0.23 
  -7  -3  -1    5.75    0.24 
   7   3   1    5.41    0.22 
   7   3   1    5.26    0.22 
  -8  -3  -1    3.89    0.21 
  -8  -3  -1    3.50    0.21 
   8   3   1    3.97    0.20 
   8   3   1    3.67    0.19 
  -9  -3  -1   -0.01    0.07 
  -9  -3  -1   -0.02    0.07 
   9   3   1    0.05    0.07 
   9   3   1    0.08    0.07 
 -10  -3  -1    0.75    0.13 
 -10  -3  -1    0.54    0.13 
  10   3   1    0.65    0.09 
  10   3   1    0.37    0.09 
  -7   4   1    0.21    0.10 
  -7   4   1    0.17    0.08 
  -7   4   1    0.19    0.09 
   6  -4  -1    2.43    0.18 
  -6   4   1    2.65    0.18 
  -6   4   1    2.65    0.20 
  -6   4   1    2.32    0.18 
   5  -4  -1    1.52    0.13 
  -5   4   1    1.44    0.14 
  -5   4   1    1.53    0.14 
  -5   4   1    1.36    0.14 
  -5   4   1    1.61    0.14 
   4  -4  -1   76.69    1.40 
  -4   4   1   78.03    1.43 
  -4   4   1   77.41    1.44 
  -4   4   1   77.53    1.42 
  -4   4   1   77.07    1.42 
   3  -4  -1    7.68    0.23 
  -3   4   1    7.39    0.25 
  -3   4   1    7.69    0.24 
  -3   4   1    6.94    0.21 
  -3   4   1    7.40    0.24 
  -3   4   1    7.16    0.23 
   2  -4  -1    1.96    0.10 
   2  -4  -1    1.99    0.10 
  -2   4   1    1.90    0.09 
  -2   4   1    2.06    0.11 
  -2   4   1    1.93    0.11 
  -2   4   1    1.84    0.10 
  -2   4   1    1.91    0.10 
   1  -4  -1    5.27    0.17 
   1  -4  -1    5.46    0.17 
   1  -4  -1    5.05    0.16 
   1  -4  -1    5.18    0.18 
  -1   4   1    5.31    0.17 
  -1   4   1    5.18    0.15 
  -1   4   1    5.58    0.18 
  -1   4   1    5.42    0.17 
   0  -4  -1   23.25    0.45 
   0  -4  -1   22.74    0.45 
   0  -4  -1   22.38    0.46 
   0  -4  -1   23.32    0.45 
   0  -4  -1   23.21    0.46 
   0   4   1   22.86    0.45 
   0   4   1   22.87    0.45 
   0   4   1   22.35    0.45 
   0   4   1   22.74    0.46 
   0   4   1   21.91    0.44 
  -1  -4  -1    0.02    0.02 
  -1  -4  -1    0.06    0.03 
  -1  -4  -1   -0.01    0.02 
  -1  -4  -1    0.01    0.02 
   1   4   1    0.06    0.03 
   1   4   1    0.15    0.03 
   1   4   1    0.00    0.02 
   1   4   1   -0.03    0.02 
   1   4   1    0.00    0.02 
  -2  -4  -1   46.26    0.83 
  -2  -4  -1   46.47    0.83 
  -2  -4  -1   45.94    0.83 
  -2  -4  -1   45.73    0.82 
   2   4   1   47.15    0.83 
   2   4   1   47.13    0.84 
   2   4   1   45.63    0.82 
   2   4   1   48.08    0.83 
  -3  -4  -1   33.78    0.63 
  -3  -4  -1   33.92    0.63 
  -3  -4  -1   33.55    0.63 
   3   4   1   33.28    0.63 
   3   4   1   32.31    0.63 
   3   4   1   33.63    0.63 
  -4  -4  -1    7.31    0.21 
  -4  -4  -1    7.13    0.20 
  -4  -4  -1    7.44    0.21 
   4   4   1    7.31    0.20 
   4   4   1    6.80    0.20 
   4   4   1    6.79    0.20 
  -5  -4  -1   12.12    0.32 
  -5  -4  -1   12.36    0.31 
   5   4   1   12.48    0.27 
   5   4   1   12.87    0.31 
   5   4   1   12.25    0.31 
   5   4   1   12.30    0.31 
  -6  -4  -1   14.60    0.38 
  -6  -4  -1   14.08    0.36 
   6   4   1   14.66    0.35 
   6   4   1   14.27    0.37 
   6   4   1   14.54    0.36 
  -7  -4  -1   11.60    0.35 
  -7  -4  -1   11.97    0.34 
   7   4   1   11.27    0.33 
   7   4   1   11.69    0.33 
  -8  -4  -1    7.34    0.28 
  -8  -4  -1    6.99    0.28 
   8   4   1    7.23    0.27 
   8   4   1    7.36    0.27 
  -9  -4  -1    7.32    0.30 
  -9  -4  -1    7.08    0.31 
   9   4   1    7.52    0.29 
   9   4   1    6.99    0.28 
 -10  -4  -1    0.04    0.09 
 -10  -4  -1    0.04    0.07 
  10   4   1    0.02    0.06 
  -7   5   1    0.04    0.09 
  -7   5   1    0.07    0.09 
  -7   5   1    0.15    0.09 
  -6   5   1    2.44    0.19 
  -6   5   1    2.79    0.20 
  -6   5   1    2.70    0.21 
   5  -5  -1    0.59    0.09 
  -5   5   1    0.57    0.10 
  -5   5   1    0.56    0.11 
  -5   5   1    0.47    0.09 
   4  -5  -1    0.71    0.09 
  -4   5   1    0.97    0.10 
  -4   5   1    0.72    0.10 
  -4   5   1    0.99    0.12 
  -4   5   1    0.93    0.10 
  -4   5   1    0.68    0.10 
   3  -5  -1    0.18    0.06 
  -3   5   1    0.35    0.08 
  -3   5   1    0.34    0.07 
  -3   5   1    0.20    0.06 
  -3   5   1    0.33    0.09 
  -3   5   1    0.24    0.08 
   2  -5  -1    5.72    0.19 
  -2   5   1    5.77    0.21 
  -2   5   1    5.55    0.18 
  -2   5   1    5.71    0.21 
  -2   5   1    5.96    0.20 
   1  -5  -1    4.93    0.16 
   1  -5  -1    4.56    0.17 
   1  -5  -1    4.27    0.16 
  -1   5   1    4.51    0.17 
  -1   5   1    4.31    0.16 
  -1   5   1    4.32    0.16 
  -1   5   1    4.62    0.17 
  -1   5   1    4.41    0.14 
   0  -5  -1  120.49    2.01 
   0  -5  -1  119.96    2.03 
   0  -5  -1  118.16    2.01 
   0   5   1  116.61    2.01 
   0   5   1  120.67    2.02 
   0   5   1  116.75    2.01 
   0   5   1  117.63    2.03 
   0   5   1  114.93    2.02 
  -1  -5  -1    1.78    0.09 
  -1  -5  -1    1.79    0.10 
  -1  -5  -1    1.61    0.09 
   1   5   1    1.66    0.09 
   1   5   1    1.58    0.08 
   1   5   1    1.82    0.09 
   1   5   1    1.75    0.09 
   1   5   1    1.68    0.09 
  -2  -5  -1    2.62    0.11 
  -2  -5  -1    2.42    0.11 
  -2  -5  -1    2.53    0.11 
  -2  -5  -1    2.38    0.10 
   2   5   1    2.44    0.11 
   2   5   1    2.40    0.11 
   2   5   1    2.57    0.11 
  -3  -5  -1    3.82    0.14 
  -3  -5  -1    3.57    0.13 
  -3  -5  -1    3.92    0.13 
   3   5   1    3.60    0.13 
   3   5   1    3.60    0.13 
   3   5   1    3.77    0.14 
  -4  -5  -1    0.45    0.06 
  -4  -5  -1    0.52    0.07 
   4   5   1    0.49    0.07 
   4   5   1    0.40    0.05 
  -5  -5  -1    3.46    0.15 
  -5  -5  -1    3.08    0.15 
   5   5   1    2.95    0.14 
   5   5   1    3.04    0.14 
  -6  -5  -1    3.84    0.18 
  -6  -5  -1    4.17    0.18 
   6   5   1    4.62    0.18 
   6   5   1    4.18    0.18 
  -7  -5  -1    5.56    0.23 
  -7  -5  -1    5.59    0.23 
   7   5   1    5.55    0.23 
   7   5   1    5.46    0.22 
  -8  -5  -1    5.16    0.23 
  -8  -5  -1    4.92    0.24 
   8   5   1    5.01    0.23 
   8   5   1    4.97    0.23 
  -9  -5  -1   -0.05    0.07 
  -9  -5  -1    0.00    0.07 
   9   5   1   -0.06    0.06 
   9   5   1    0.01    0.06 
 -10  -5  -1    0.53    0.13 
 -10  -5  -1    0.48    0.12 
  10   5   1    0.56    0.11 
  -6   6   1    0.09    0.08 
  -6   6   1    0.26    0.10 
  -6   6   1    0.23    0.10 
  -5   6   1    3.04    0.21 
  -5   6   1    2.78    0.19 
  -5   6   1    2.76    0.20 
   4  -6  -1    0.89    0.10 
  -4   6   1    1.02    0.13 
  -4   6   1    0.85    0.12 
   3  -6  -1    0.04    0.04 
  -3   6   1    0.03    0.05 
  -3   6   1    0.05    0.04 
  -3   6   1    0.00    0.05 
  -3   6   1    0.05    0.05 
   2  -6  -1   35.49    0.72 
  -2   6   1   35.66    0.71 
  -2   6   1   37.25    0.77 
  -2   6   1   35.91    0.76 
  -2   6   1   36.54    0.75 
   1  -6  -1   36.30    0.71 
   1  -6  -1   35.55    0.74 
  -1   6   1   36.65    0.73 
  -1   6   1   34.27    0.68 
  -1   6   1   35.20    0.71 
  -1   6   1   35.40    0.72 
   0  -6  -1   17.83    0.42 
   0  -6  -1   17.68    0.40 
   0   6   1   17.32    0.41 
   0   6   1   17.60    0.41 
   0   6   1   17.68    0.42 
  -1  -6  -1    2.00    0.12 
  -1  -6  -1    1.95    0.11 
   1   6   1    2.07    0.11 
   1   6   1    1.91    0.11 
   1   6   1    1.96    0.11 
   1   6   1    2.01    0.11 
  -2  -6  -1    1.88    0.10 
  -2  -6  -1    2.08    0.11 
  -2  -6  -1    2.01    0.11 
   2   6   1    1.95    0.11 
   2   6   1    1.90    0.10 
   2   6   1    2.18    0.13 
   2   6   1    1.91    0.11 
  -3  -6  -1   10.42    0.27 
  -3  -6  -1   10.38    0.27 
  -3  -6  -1   10.53    0.28 
   3   6   1   10.69    0.28 
   3   6   1   10.65    0.27 
   3   6   1   10.38    0.28 
  -4  -6  -1    0.54    0.07 
  -4  -6  -1    0.53    0.07 
   4   6   1    0.86    0.08 
   4   6   1    0.63    0.08 
  -5  -6  -1   17.38    0.41 
  -5  -6  -1   16.65    0.41 
   5   6   1   16.69    0.40 
   5   6   1   17.38    0.41 
  -6  -6  -1    1.49    0.12 
  -6  -6  -1    1.46    0.12 
   6   6   1    1.46    0.12 
   6   6   1    1.48    0.12 
  -7  -6  -1    3.34    0.18 
  -7  -6  -1    2.94    0.18 
   7   6   1    3.05    0.17 
   7   6   1    3.09    0.18 
  -8  -6  -1    0.74    0.11 
  -8  -6  -1    0.93    0.12 
   8   6   1    0.76    0.11 
   8   6   1    0.76    0.12 
  -9  -6  -1    0.89    0.13 
  -9  -6  -1    1.27    0.15 
   9   6   1    1.17    0.14 
   9   6   1    1.10    0.14 
 -10  -6  -1    3.02    0.24 
 -10  -6  -1    3.82    0.24 
  10   6   1    3.25    0.22 
  -5   7   1    0.26    0.10 
  -5   7   1    0.52    0.12 
  -4   7   1    0.72    0.12 
  -4   7   1    0.86    0.12 
   3  -7  -1    0.21    0.07 
  -3   7   1    0.11    0.07 
  -3   7   1    0.23    0.07 
   2  -7  -1    0.14    0.05 
  -2   7   1    0.17    0.07 
  -2   7   1    0.36    0.08 
  -2   7   1    0.14    0.06 
   1  -7  -1    1.06    0.12 
   1  -7  -1    1.29    0.11 
  -1   7   1    1.38    0.13 
  -1   7   1    1.43    0.12 
  -1   7   1    1.14    0.09 
  -1   7   1    1.19    0.12 
   0  -7  -1    0.61    0.10 
   0  -7  -1    0.60    0.08 
   0   7   1    0.56    0.09 
   0   7   1    0.60    0.09 
   0   7   1    0.66    0.09 
  -1  -7  -1    0.56    0.08 
  -1  -7  -1    0.52    0.07 
   1   7   1    0.58    0.08 
   1   7   1    0.39    0.07 
   1   7   1    0.54    0.07 
  -2  -7  -1    6.66    0.22 
  -2  -7  -1    6.70    0.22 
  -2  -7  -1    6.70    0.23 
   2   7   1    6.55    0.23 
   2   7   1    6.50    0.22 
   2   7   1    6.56    0.22 
  -3  -7  -1   18.55    0.43 
  -3  -7  -1   18.38    0.43 
  -3  -7  -1   18.80    0.43 
   3   7   1   18.52    0.44 
   3   7   1   18.97    0.44 
   3   7   1   18.15    0.42 
  -4  -7  -1    3.07    0.15 
  -4  -7  -1    3.07    0.15 
  -4  -7  -1    2.67    0.14 
   4   7   1    2.97    0.15 
   4   7   1    3.10    0.15 
  -5  -7  -1   11.82    0.33 
  -5  -7  -1   12.12    0.33 
   5   7   1   12.29    0.34 
   5   7   1   11.82    0.34 
  -6  -7  -1    0.17    0.06 
  -6  -7  -1    0.19    0.06 
   6   7   1    0.14    0.07 
  -7  -7  -1    1.57    0.15 
  -7  -7  -1    1.77    0.15 
   7   7   1    1.68    0.14 
   7   7   1    1.61    0.15 
  -8  -7  -1    0.14    0.07 
  -8  -7  -1    0.10    0.07 
   8   7   1    0.04    0.06 
   8   7   1    0.06    0.07 
  -9  -7  -1    9.10    0.34 
  -9  -7  -1    8.76    0.35 
   9   7   1    9.46    0.35 
   9   7   1    9.07    0.34 
 -10  -7  -1    2.08    0.21 
 -10  -7  -1    2.05    0.20 
  10   7   1    2.13    0.20 
  -4   8   1    1.02    0.15 
  -4   8   1    0.87    0.13 
  -3   8   1    0.84    0.12 
  -3   8   1    0.92    0.12 
  -2   8   1    0.01    0.06 
  -2   8   1   -0.05    0.06 
   1  -8  -1    2.88    0.16 
  -1   8   1    3.04    0.17 
  -1   8   1    2.83    0.17 
  -1   8   1    2.97    0.18 
   0  -8  -1    4.12    0.18 
   0  -8  -1    4.13    0.21 
   0   8   1    4.04    0.20 
   0   8   1    3.99    0.20 
   0   8   1    4.33    0.20 
  -1  -8  -1   33.28    0.73 
  -1  -8  -1   33.52    0.69 
   1   8   1   33.89    0.73 
   1   8   1   34.04    0.72 
   1   8   1   33.68    0.71 
  -2  -8  -1   10.58    0.33 
  -2  -8  -1   10.48    0.30 
   2   8   1   10.56    0.31 
   2   8   1   10.56    0.32 
   2   8   1   10.45    0.31 
  -3  -8  -1   37.63    0.77 
  -3  -8  -1   38.00    0.77 
  -3  -8  -1   39.36    0.79 
   3   8   1   38.41    0.78 
   3   8   1   37.44    0.79 
   3   8   1   37.92    0.77 
  -4  -8  -1    3.26    0.16 
  -4  -8  -1    3.35    0.17 
  -4  -8  -1    3.46    0.17 
   4   8   1    3.22    0.16 
   4   8   1    3.30    0.16 
   4   8   1    3.60    0.18 
  -5  -8  -1    5.35    0.22 
  -5  -8  -1    5.62    0.22 
  -5  -8  -1    5.73    0.22 
   5   8   1    5.56    0.23 
  -6  -8  -1    0.23    0.08 
  -6  -8  -1    0.29    0.08 
   6   8   1    0.20    0.07 
  -7  -8  -1    8.44    0.30 
  -7  -8  -1    8.39    0.31 
   7   8   1    8.71    0.31 
   7   8   1    8.54    0.31 
  -8  -8  -1    0.59    0.11 
  -8  -8  -1    0.55    0.10 
   8   8   1    0.43    0.09 
   8   8   1    0.52    0.10 
  -9  -8  -1    1.10    0.15 
  -9  -8  -1    1.07    0.14 
   9   8   1    1.02    0.14 
   9   8   1    1.14    0.15 
 -10  -8  -1    0.10    0.09 
  10   8   1    0.08    0.08 
  -3   9   1    1.18    0.16 
  -3   9   1    1.24    0.15 
  -2   9   1    2.96    0.20 
  -2   9   1    2.83    0.21 
  -1   9   1    3.16    0.21 
  -1   9   1    3.34    0.20 
   0  -9  -1    0.00    0.06 
   0  -9  -1   -0.06    0.05 
   0   9   1   -0.07    0.05 
   0   9   1   -0.03    0.06 
  -1  -9  -1    0.34    0.07 
  -1  -9  -1    0.22    0.07 
   1   9   1    0.39    0.10 
   1   9   1    0.40    0.08 
   1   9   1    0.32    0.08 
  -2  -9  -1    0.61    0.09 
  -2  -9  -1    0.50    0.10 
   2   9   1    0.46    0.09 
   2   9   1    0.56    0.09 
   2   9   1    0.47    0.09 
  -3  -9  -1    3.17    0.17 
  -3  -9  -1    3.14    0.19 
  -3  -9  -1    3.19    0.17 
   3   9   1    3.42    0.19 
   3   9   1    3.09    0.18 
  -4  -9  -1    2.99    0.16 
  -4  -9  -1    2.69    0.17 
  -4  -9  -1    3.31    0.17 
   4   9   1    3.25    0.19 
   4   9   1    2.87    0.16 
  -5  -9  -1    1.80    0.14 
  -5  -9  -1    1.91    0.14 
  -5  -9  -1    1.70    0.14 
   5   9   1    1.80    0.13 
   5   9   1    1.93    0.15 
  -6  -9  -1    0.42    0.08 
  -6  -9  -1    0.39    0.09 
  -6  -9  -1    0.41    0.08 
   6   9   1    0.55    0.10 
  -7  -9  -1   -0.06    0.05 
  -7  -9  -1   -0.13    0.05 
  -7  -9  -1   -0.01    0.06 
   7   9   1   -0.08    0.06 
  -8  -9  -1    0.35    0.10 
  -8  -9  -1    0.45    0.11 
   8   9   1    0.12    0.08 
   8   9   1    0.29    0.09 
  -9  -9  -1    0.11    0.09 
   9   9   1    0.00    0.08 
   9   9   1   -0.05    0.08 
  -2  10   1    0.45    0.10 
  -2  10   1    0.66    0.13 
  -1  10   1   -0.02    0.07 
  -1  10   1    0.00    0.07 
   0 -10  -1    0.43    0.11 
   0  10   1    0.52    0.11 
   0  10   1    0.69    0.12 
  -1 -10  -1    0.54    0.11 
   1  10   1    0.55    0.10 
   1  10   1    0.35    0.09 
  -2 -10  -1    4.53    0.24 
   2  10   1    4.16    0.21 
   2  10   1    4.00    0.23 
  -3 -10  -1    4.46    0.21 
  -3 -10  -1    4.60    0.24 
   3  10   1    4.69    0.24 
   3  10   1    4.52    0.22 
  -4 -10  -1   13.17    0.39 
  -4 -10  -1   13.32    0.41 
  -4 -10  -1   13.28    0.39 
   4  10   1   13.94    0.42 
   4  10   1   13.36    0.39 
  -5 -10  -1    6.14    0.25 
  -5 -10  -1    5.98    0.27 
  -5 -10  -1    6.17    0.25 
   5  10   1    5.69    0.24 
   5  10   1    6.16    0.27 
  -6 -10  -1    0.00    0.06 
  -6 -10  -1    0.01    0.07 
  -6 -10  -1    0.04    0.06 
   6  10   1    0.01    0.05 
   6  10   1   -0.01    0.06 
  -7 -10  -1   -0.08    0.05 
  -7 -10  -1    0.03    0.06 
   7  10   1    0.02    0.05 
   7  10   1   -0.10    0.06 
  -8 -10  -1    1.15    0.15 
  -8 -10  -1    1.24    0.15 
   8  10   1    1.03    0.14 
   8  10   1    1.06    0.14 
   0 -11  -1    2.19    0.22 
   0  11   1    2.32    0.20 
   0  11   1    2.25    0.19 
  -1 -11  -1    2.64    0.21 
   1  11   1    2.50    0.20 
   1  11   1    2.77    0.20 
  -2 -11  -1    0.76    0.13 
   2  11   1    0.49    0.12 
   2  11   1    0.61    0.11 
  -3 -11  -1    0.06    0.08 
   3  11   1    0.26    0.08 
   3  11   1    0.28    0.09 
  -4 -11  -1    0.51    0.11 
   4  11   1    0.63    0.11 
   4  11   1    0.65    0.10 
  -5 -11  -1    0.20    0.10 
  -5 -11  -1    0.16    0.08 
   5  11   1    0.08    0.07 
   5  11   1    0.22    0.10 
  -6 -11  -1    2.68    0.19 
  -6 -11  -1    2.14    0.20 
   6  11   1    2.35    0.20 
   6  11   1    2.26    0.17 
  -7 -11  -1    1.65    0.18 
  -7 -11  -1    1.82    0.17 
   7  11   1    1.51    0.15 
   7  11   1    1.73    0.18 
  -3 -12  -1    1.21    0.18 
   3  12   1    1.29    0.16 
   3  12   1    1.50    0.16 
  -4 -12  -1    0.08    0.10 
   4  12   1    0.10    0.08 
   4  12   1    0.14    0.10 
  -5 -12  -1    1.52    0.18 
   5  12   1    1.67    0.16 
   5  12   1    1.89    0.20 
   7  11  -2    0.06    0.08 
  -7 -11   2    0.08    0.09 
   6  11  -2    0.33    0.09 
  -6 -11   2    0.67    0.13 
   5  11  -2    0.17    0.08 
   5  11  -2    0.22    0.09 
  -5 -11   2    0.07    0.08 
   4  11  -2   -0.02    0.07 
   4  11  -2    0.07    0.08 
  -4 -11   2    0.06    0.09 
   3  11  -2    4.60    0.26 
   3  11  -2    4.83    0.25 
  -3 -11   2    4.96    0.27 
   2  11  -2    1.56    0.18 
   2  11  -2    1.58    0.17 
  -2 -11   2    1.25    0.16 
   1  11  -2   -0.03    0.07 
   1  11  -2   -0.03    0.06 
  -1 -11   2   -0.08    0.08 
   0  11  -2    0.03    0.08 
   0  11  -2   -0.01    0.06 
   0 -11   2   -0.09    0.07 
   8  10  -2    0.15    0.09 
   8  10  -2    0.19    0.09 
  -8 -10   2    0.07    0.08 
   7  10  -2    0.25    0.09 
  -7 -10   2    0.16    0.11 
  -7 -10   2    0.27    0.09 
   6  10  -2    1.56    0.17 
  -6 -10   2    1.48    0.16 
  -6 -10   2    1.55    0.14 
   5  10  -2    0.38    0.09 
  -5 -10   2    0.65    0.09 
  -5 -10   2    0.54    0.11 
   4  10  -2    3.57    0.21 
   4  10  -2    3.42    0.21 
  -4 -10   2    3.49    0.18 
  -4 -10   2    3.35    0.22 
   3  10  -2    0.26    0.08 
   3  10  -2    0.12    0.07 
  -3 -10   2    0.28    0.10 
   2  10  -2   11.62    0.40 
   2  10  -2   11.94    0.38 
  -2 -10   2   12.03    0.41 
   1  10  -2   -0.05    0.06 
   1  10  -2   -0.04    0.06 
  -1 -10   2   -0.01    0.07 
   0  10  -2   -0.04    0.07 
   0  10  -2   -0.11    0.05 
   0 -10   2    0.01    0.07 
  -1  10  -2    3.68    0.23 
  -1  10  -2    3.37    0.21 
  -2  10  -2    3.14    0.23 
  -2  10  -2    2.87    0.21 
   9   9  -2    0.22    0.10 
   9   9  -2    0.11    0.10 
  -9  -9   2    0.25    0.10 
   8   9  -2    0.07    0.08 
   8   9  -2    0.15    0.08 
  -8  -9   2    0.09    0.08 
  -8  -9   2    0.08    0.07 
   7   9  -2    2.91    0.20 
   7   9  -2    2.96    0.20 
  -7  -9   2    2.53    0.17 
  -7  -9   2    2.98    0.20 
   6   9  -2    3.03    0.19 
  -6  -9   2    3.08    0.19 
  -6  -9   2    2.63    0.16 
   5   9  -2    0.98    0.12 
  -5  -9   2    1.01    0.13 
  -5  -9   2    0.82    0.10 
   4   9  -2    0.51    0.09 
  -4  -9   2    0.34    0.07 
  -4  -9   2    0.41    0.10 
  -4  -9   2    0.45    0.07 
   3   9  -2    3.57    0.21 
   3   9  -2    4.09    0.20 
  -3  -9   2    3.70    0.22 
  -3  -9   2    3.54    0.17 
   2   9  -2   11.80    0.36 
   2   9  -2   12.19    0.38 
  -2  -9   2   12.27    0.39 
   1   9  -2   10.33    0.35 
   1   9  -2   10.55    0.34 
  -1  -9   2   10.76    0.37 
   0   9  -2    3.16    0.20 
   0   9  -2    3.38    0.19 
   0  -9   2    3.35    0.21 
  -1   9  -2    1.02    0.12 
  -1   9  -2    1.01    0.13 
   1  -9   2    0.93    0.14 
  -2   9  -2    0.46    0.10 
  -2   9  -2    0.44    0.10 
  -3   9  -2    0.05    0.08 
  -3   9  -2    0.20    0.08 
   9   8  -2    0.30    0.10 
   9   8  -2    0.10    0.08 
  -9  -8   2    0.25    0.09 
   8   8  -2    2.37    0.19 
   8   8  -2    2.76    0.20 
  -8  -8   2    2.35    0.18 
   7   8  -2    2.40    0.18 
   7   8  -2    2.69    0.19 
  -7  -8   2    2.46    0.17 
  -7  -8   2    2.65    0.19 
   6   8  -2    0.15    0.09 
   6   8  -2    0.30    0.08 
  -6  -8   2    0.28    0.07 
  -6  -8   2    0.16    0.07 
  -6  -8   2    0.41    0.08 
   5   8  -2    4.05    0.20 
   5   8  -2    3.79    0.18 
  -5  -8   2    3.77    0.17 
  -5  -8   2    3.75    0.19 
  -5  -8   2    3.96    0.18 
   4   8  -2    3.29    0.16 
   4   8  -2    3.38    0.18 
  -4  -8   2    3.30    0.15 
  -4  -8   2    3.33    0.16 
  -4  -8   2    3.71    0.19 
   3   8  -2    3.24    0.16 
   3   8  -2    3.49    0.17 
  -3  -8   2    3.19    0.15 
  -3  -8   2    3.02    0.18 
  -3  -8   2    3.11    0.14 
   2   8  -2    2.45    0.14 
   2   8  -2    2.39    0.16 
   2   8  -2    2.43    0.14 
  -2  -8   2    2.37    0.16 
   1   8  -2    0.83    0.11 
   1   8  -2    0.78    0.09 
   1   8  -2    0.70    0.08 
   1   8  -2    1.07    0.11 
  -1  -8   2    0.87    0.08 
  -1  -8   2    0.91    0.11 
   0   8  -2    7.70    0.25 
   0   8  -2    7.94    0.27 
   0   8  -2    7.71    0.29 
   0  -8   2    7.14    0.29 
   0  -8   2    7.41    0.22 
  -1   8  -2    8.77    0.29 
  -1   8  -2    8.87    0.32 
   1  -8   2    8.86    0.29 
   1  -8   2    8.55    0.33 
  -2   8  -2    1.37    0.15 
  -2   8  -2    1.22    0.13 
  -3   8  -2    0.43    0.09 
  -3   8  -2    0.47    0.10 
  -4   8  -2    6.95    0.30 
  -4   8  -2    7.12    0.32 
   9   7  -2    0.11    0.08 
   9   7  -2    0.08    0.09 
  -9  -7   2    0.13    0.07 
   8   7  -2    0.61    0.12 
   8   7  -2    0.47    0.10 
  -8  -7   2    0.62    0.11 
  -8  -7   2    0.78    0.12 
   7   7  -2   -0.01    0.06 
   7   7  -2    0.04    0.06 
  -7  -7   2    0.08    0.06 
  -7  -7   2    0.06    0.06 
   6   7  -2    0.12    0.06 
   6   7  -2    0.02    0.05 
   6   7  -2   -0.03    0.05 
  -6  -7   2    0.04    0.05 
  -6  -7   2    0.05    0.05 
   5   7  -2    3.36    0.16 
   5   7  -2    3.57    0.18 
  -5  -7   2    4.50    0.19 
  -5  -7   2    3.54    0.16 
  -5  -7   2    3.41    0.17 
   4   7  -2   13.38    0.35 
   4   7  -2   13.43    0.34 
  -4  -7   2   13.14    0.34 
  -4  -7   2   13.46    0.33 
  -4  -7   2   13.69    0.36 
   3   7  -2    2.57    0.14 
   3   7  -2    2.69    0.13 
   3   7  -2    2.64    0.13 
  -3  -7   2    2.39    0.12 
  -3  -7   2    2.63    0.15 
  -3  -7   2    2.62    0.12 
   2   7  -2    4.28    0.17 
   2   7  -2    4.35    0.16 
   2   7  -2    4.29    0.16 
  -2  -7   2    4.30    0.19 
  -2  -7   2    4.09    0.15 
   1   7  -2    2.11    0.14 
   1   7  -2    1.97    0.11 
   1   7  -2    2.10    0.12 
   1   7  -2    2.02    0.11 
  -1  -7   2    2.35    0.15 
  -1  -7   2    2.16    0.10 
   0   7  -2    0.31    0.07 
   0   7  -2    0.21    0.05 
   0   7  -2    0.33    0.06 
   0   7  -2    0.27    0.05 
   0  -7   2    0.32    0.05 
   0  -7   2    0.36    0.08 
  -1   7  -2    0.39    0.06 
  -1   7  -2    0.30    0.05 
  -1   7  -2    0.38    0.08 
  -1   7  -2    0.36    0.06 
   1  -7   2    0.40    0.05 
   1  -7   2    0.38    0.08 
  -2   7  -2    5.37    0.23 
  -2   7  -2    5.00    0.21 
  -2   7  -2    5.15    0.20 
   2  -7   2    5.30    0.17 
  -3   7  -2    0.09    0.07 
  -3   7  -2    0.01    0.05 
  -4   7  -2    7.14    0.29 
  -4   7  -2    7.32    0.30 
  -5   7  -2    3.94    0.23 
  -5   7  -2    3.50    0.23 
  10   6  -2    2.39    0.22 
  10   6  -2    2.52    0.21 
 -10  -6   2    2.60    0.21 
   9   6  -2    0.15    0.09 
   9   6  -2    0.31    0.10 
  -9  -6   2    0.21    0.09 
  -9  -6   2    0.16    0.12 
   8   6  -2    1.81    0.17 
   8   6  -2    2.12    0.17 
  -8  -6   2    1.63    0.15 
  -8  -6   2    1.79    0.16 
   7   6  -2    1.78    0.15 
   7   6  -2    1.84    0.15 
  -7  -6   2    1.99    0.15 
  -7  -6   2    1.77    0.15 
   6   6  -2    9.90    0.30 
   6   6  -2    9.81    0.30 
   6   6  -2    9.73    0.31 
  -6  -6   2    9.54    0.29 
  -6  -6   2    9.60    0.30 
   5   6  -2   14.38    0.37 
   5   6  -2   13.90    0.36 
  -5  -6   2   14.20    0.36 
  -5  -6   2   14.96    0.37 
   4   6  -2    8.54    0.25 
   4   6  -2    8.18    0.25 
   4   6  -2    8.18    0.24 
  -4  -6   2    8.09    0.25 
  -4  -6   2    8.43    0.24 
  -4  -6   2    8.29    0.24 
   3   6  -2   27.38    0.55 
   3   6  -2   26.91    0.55 
   3   6  -2   27.06    0.55 
  -3  -6   2   26.72    0.54 
  -3  -6   2   27.12    0.54 
  -3  -6   2   26.88    0.56 
   2   6  -2   39.96    0.76 
   2   6  -2   39.40    0.75 
   2   6  -2   40.55    0.75 
  -2  -6   2   39.38    0.74 
  -2  -6   2   40.75    0.79 
   1   6  -2    7.51    0.21 
   1   6  -2    7.08    0.21 
   1   6  -2    7.31    0.21 
  -1  -6   2    7.55    0.24 
  -1  -6   2    7.56    0.20 
   0   6  -2   14.61    0.35 
   0   6  -2   14.91    0.34 
   0   6  -2   14.60    0.34 
   0  -6   2   15.03    0.32 
   0  -6   2   14.98    0.39 
  -1   6  -2    1.76    0.12 
  -1   6  -2    1.86    0.10 
  -1   6  -2    2.09    0.11 
  -1   6  -2    1.99    0.11 
   1  -6   2    1.93    0.09 
   1  -6   2    1.90    0.14 
  -2   6  -2    6.84    0.25 
  -2   6  -2    6.57    0.22 
  -2   6  -2    6.21    0.21 
   2  -6   2    6.86    0.19 
  -3   6  -2   16.99    0.43 
  -3   6  -2   16.74    0.38 
  -3   6  -2   16.40    0.41 
  -3   6  -2   17.38    0.45 
   3  -6   2   17.04    0.38 
  -4   6  -2   10.02    0.33 
  -4   6  -2   10.17    0.32 
  -4   6  -2   10.08    0.34 
  -5   6  -2    2.20    0.17 
  -5   6  -2    2.29    0.18 
  -5   6  -2    2.28    0.18 
  -6   6  -2    2.79    0.20 
  -6   6  -2    3.09    0.21 
  -6   6  -2    3.12    0.22 
  10   5  -2    2.46    0.22 
  10   5  -2    2.64    0.22 
 -10  -5   2    2.32    0.21 
   9   5  -2    0.87    0.13 
   9   5  -2    1.29    0.15 
  -9  -5   2    0.97    0.14 
  -9  -5   2    1.13    0.14 
   8   5  -2    1.88    0.17 
   8   5  -2    1.87    0.16 
  -8  -5   2    1.91    0.17 
  -8  -5   2    1.86    0.16 
   7   5  -2    1.91    0.16 
   7   5  -2    1.86    0.15 
  -7  -5   2    1.92    0.15 
  -7  -5   2    1.91    0.16 
   6   5  -2    0.08    0.05 
   6   5  -2    0.11    0.06 
   6   5  -2    0.05    0.05 
  -6  -5   2    0.10    0.05 
  -6  -5   2    0.05    0.05 
   5   5  -2    1.67    0.11 
   5   5  -2    1.55    0.12 
   5   5  -2    1.76    0.12 
  -5  -5   2    1.74    0.11 
  -5  -5   2    1.64    0.11 
   4   5  -2    2.36    0.12 
   4   5  -2    2.24    0.11 
   4   5  -2    2.37    0.12 
  -4  -5   2    2.38    0.12 
  -4  -5   2    2.31    0.11 
   3   5  -2    3.85    0.15 
   3   5  -2    3.98    0.14 
   3   5  -2    4.13    0.15 
  -3  -5   2    4.15    0.14 
  -3  -5   2    3.93    0.14 
  -3  -5   2    4.07    0.15 
   2   5  -2    0.64    0.06 
   2   5  -2    0.51    0.05 
   2   5  -2    0.57    0.06 
  -2  -5   2    0.58    0.06 
  -2  -5   2    0.58    0.07 
   1   5  -2    0.21    0.04 
   1   5  -2    0.26    0.04 
   1   5  -2    0.24    0.04 
  -1  -5   2    0.21    0.03 
  -1  -5   2    0.36    0.04 
  -1  -5   2    0.23    0.05 
   0   5  -2    0.16    0.03 
   0   5  -2    0.18    0.04 
   0   5  -2    0.21    0.04 
   0   5  -2    0.23    0.04 
   0  -5   2    0.26    0.05 
   0  -5   2    0.25    0.04 
   0  -5   2    0.27    0.04 
   0  -5   2    0.20    0.03 
  -1   5  -2    5.43    0.16 
  -1   5  -2    5.32    0.19 
  -1   5  -2    5.33    0.17 
  -1   5  -2    5.29    0.16 
   1  -5   2    5.46    0.15 
   1  -5   2    5.03    0.20 
   1  -5   2    5.23    0.15 
  -2   5  -2    0.27    0.05 
  -2   5  -2    0.31    0.06 
  -2   5  -2    0.23    0.05 
  -2   5  -2    0.23    0.04 
   2  -5   2    0.23    0.04 
  -3   5  -2    2.98    0.14 
  -3   5  -2    2.76    0.12 
  -3   5  -2    2.89    0.14 
  -3   5  -2    2.81    0.14 
  -3   5  -2    2.80    0.16 
   3  -5   2    2.89    0.12 
  -4   5  -2   -0.02    0.05 
  -4   5  -2    0.00    0.05 
  -4   5  -2    0.05    0.03 
  -4   5  -2    0.07    0.05 
  -4   5  -2    0.06    0.05 
   4  -5   2    0.14    0.04 
  -5   5  -2    0.79    0.11 
  -5   5  -2    0.70    0.10 
  -5   5  -2    0.66    0.10 
  -6   5  -2    2.04    0.17 
  -6   5  -2    2.31    0.18 
  -6   5  -2    2.18    0.17 
  -7   5  -2    0.80    0.13 
  -7   5  -2    0.91    0.13 
  -7   5  -2    0.74    0.12 
  10   4  -2    0.09    0.10 
  10   4  -2    0.06    0.09 
 -10  -4   2    0.16    0.09 
   9   4  -2    0.73    0.13 
   9   4  -2    0.86    0.14 
  -9  -4   2    0.61    0.12 
  -9  -4   2    0.58    0.12 
   8   4  -2    0.31    0.09 
   8   4  -2    0.35    0.09 
  -8  -4   2    0.49    0.09 
  -8  -4   2    0.52    0.09 
   7   4  -2    7.94    0.30 
   7   4  -2    8.57    0.29 
  -7  -4   2    8.57    0.29 
  -7  -4   2    8.16    0.29 
   6   4  -2    0.50    0.08 
   6   4  -2    0.53    0.08 
   6   4  -2    0.47    0.07 
  -6  -4   2    0.51    0.08 
  -6  -4   2    0.52    0.08 
   5   4  -2    1.26    0.10 
   5   4  -2    1.09    0.09 
   5   4  -2    1.25    0.10 
  -5  -4   2    1.14    0.09 
  -5  -4   2    1.09    0.10 
   4   4  -2   13.98    0.34 
   4   4  -2   14.28    0.33 
   4   4  -2   14.24    0.33 
   4   4  -2   13.80    0.33 
  -4  -4   2   14.13    0.32 
  -4  -4   2   13.92    0.33 
   3   4  -2   84.69    1.46 
   3   4  -2   85.73    1.46 
   3   4  -2   83.14    1.46 
  -3  -4   2   85.68    1.46 
  -3  -4   2   83.40    1.44 
   2   4  -2    4.27    0.13 
   2   4  -2    3.97    0.13 
   2   4  -2    3.91    0.13 
  -2  -4   2    4.20    0.12 
  -2  -4   2    4.07    0.13 
   1   4  -2   70.97    1.22 
   1   4  -2   72.17    1.20 
   1   4  -2   70.07    1.21 
   1   4  -2   69.19    1.20 
  -1  -4   2   70.68    1.20 
  -1  -4   2   71.10    1.24 
  -1  -4   2   71.40    1.20 
  -1  -4   2   70.34    1.19 
   0   4  -2  102.79    1.71 
   0   4  -2  102.89    1.71 
   0   4  -2  101.73    1.74 
   0   4  -2  100.95    1.71 
   0   4  -2  100.04    1.76 
   0  -4   2  103.63    1.69 
   0  -4   2  101.43    1.69 
   0  -4   2  101.21    1.69 
   0  -4   2  104.08    1.76 
  -1   4  -2    3.33    0.14 
  -1   4  -2    3.19    0.11 
  -1   4  -2    3.24    0.11 
   1  -4   2    3.27    0.10 
   1  -4   2    3.13    0.10 
   1  -4   2    3.24    0.10 
   1  -4   2    3.06    0.14 
  -2   4  -2    1.97    0.09 
  -2   4  -2    1.90    0.09 
  -2   4  -2    1.70    0.09 
  -2   4  -2    1.70    0.10 
   2  -4   2    1.78    0.08 
   2  -4   2    1.71    0.08 
  -3   4  -2   19.17    0.42 
  -3   4  -2   19.38    0.39 
  -3   4  -2   19.03    0.42 
  -3   4  -2   19.37    0.43 
  -3   4  -2   19.30    0.45 
   3  -4   2   19.47    0.39 
  -4   4  -2   15.32    0.39 
  -4   4  -2   15.42    0.37 
  -4   4  -2   15.24    0.38 
  -4   4  -2   15.25    0.38 
  -4   4  -2   15.21    0.34 
   4  -4   2   15.71    0.35 
  -5   4  -2   16.26    0.41 
  -5   4  -2   16.41    0.43 
  -5   4  -2   15.48    0.37 
  -5   4  -2   16.10    0.42 
  -5   4  -2   15.73    0.41 
   5  -4   2   15.80    0.37 
  -6   4  -2    4.65    0.22 
  -6   4  -2    4.55    0.22 
  -6   4  -2    4.45    0.22 
  -7   4  -2    0.45    0.10 
  -7   4  -2    0.46    0.10 
  -7   4  -2    0.49    0.10 
  -8   4  -2   -0.08    0.08 
  -8   4  -2    0.10    0.08 
  -8   4  -2   -0.09    0.06 
  10   3  -2   -0.03    0.09 
 -10  -3   2    0.08    0.12 
 -10  -3   2    0.01    0.08 
   9   3  -2    6.08    0.29 
   9   3  -2    6.41    0.29 
  -9  -3   2    6.39    0.29 
  -9  -3   2    6.62    0.30 
   8   3  -2    2.58    0.18 
  -8  -3   2    2.59    0.19 
  -8  -3   2    2.66    0.19 
   7   3  -2   24.53    0.58 
  -7  -3   2   25.28    0.58 
  -7  -3   2   24.57    0.59 
   6   3  -2    1.57    0.12 
   6   3  -2    1.77    0.12 
  -6  -3   2    1.54    0.12 
  -6  -3   2    1.67    0.13 
   5   3  -2    9.98    0.27 
   5   3  -2    9.67    0.27 
  -5  -3   2    9.59    0.27 
  -5  -3   2    9.31    0.27 
   4   3  -2    1.12    0.08 
   4   3  -2    1.11    0.08 
   4   3  -2    1.08    0.08 
  -4  -3   2    1.02    0.08 
  -4  -3   2    1.12    0.08 
   3   3  -2   42.40    0.76 
   3   3  -2   41.74    0.76 
   3   3  -2   41.19    0.76 
  -3  -3   2   41.86    0.75 
  -3  -3   2   41.86    0.76 
   2   3  -2    4.31    0.12 
   2   3  -2    4.17    0.12 
   2   3  -2    4.19    0.12 
  -2  -3   2    3.29    0.11 
  -2  -3   2    4.12    0.11 
   1   3  -2   52.45    0.92 
   1   3  -2   54.39    0.92 
   1   3  -2   52.82    0.92 
   1   3  -2   54.88    0.92 
  -1  -3   2   53.91    0.94 
  -1  -3   2   53.60    0.91 
  -1  -3   2   54.67    0.91 
   0   3  -2    5.87    0.16 
   0   3  -2    5.88    0.13 
   0   3  -2    5.50    0.13 
   0   3  -2    6.04    0.14 
   0  -3   2    5.75    0.12 
   0  -3   2    5.89    0.16 
   0  -3   2    5.74    0.13 
   0  -3   2    5.78    0.12 
  -1   3  -2   37.17    0.70 
  -1   3  -2   37.59    0.70 
  -1   3  -2   37.00    0.66 
  -1   3  -2   37.50    0.66 
  -1   3  -2   37.13    0.66 
   1  -3   2   38.18    0.71 
   1  -3   2   37.57    0.65 
   1  -3   2   37.63    0.65 
   1  -3   2   38.33    0.64 
  -2   3  -2    1.29    0.07 
  -2   3  -2    1.23    0.07 
  -2   3  -2    1.27    0.08 
  -2   3  -2    1.29    0.08 
  -2   3  -2    1.20    0.07 
   2  -3   2    1.26    0.06 
   2  -3   2    1.26    0.06 
   2  -3   2    1.26    0.06 
  -3   3  -2    0.20    0.04 
  -3   3  -2    0.15    0.03 
  -3   3  -2    0.18    0.04 
  -3   3  -2    0.17    0.03 
  -3   3  -2    0.13    0.04 
   3  -3   2    0.26    0.04 
   3  -3   2    0.20    0.03 
  -4   3  -2   16.17    0.39 
  -4   3  -2   16.59    0.38 
  -4   3  -2   16.85    0.39 
  -4   3  -2   16.35    0.35 
  -4   3  -2   16.58    0.38 
   4  -3   2   16.82    0.36 
  -5   3  -2   10.86    0.31 
  -5   3  -2   10.45    0.31 
  -5   3  -2   10.64    0.30 
  -5   3  -2   11.28    0.32 
  -6   3  -2    3.27    0.22 
  -6   3  -2    3.04    0.17 
  -6   3  -2    2.81    0.17 
  -6   3  -2    3.09    0.18 
  -7   3  -2   -0.02    0.06 
  -7   3  -2    0.05    0.07 
  -7   3  -2   -0.02    0.06 
  -8   3  -2    0.00    0.07 
  -8   3  -2   -0.09    0.07 
  -8   3  -2   -0.17    0.06 
   9   2  -2    0.59    0.11 
  -9  -2   2    0.49    0.11 
  -9  -2   2    0.45    0.10 
   8   2  -2    0.50    0.10 
  -8  -2   2    0.44    0.10 
  -8  -2   2    0.57    0.11 
   7   2  -2    2.29    0.16 
  -7  -2   2    2.27    0.16 
  -7  -2   2    2.11    0.16 
   6   2  -2    0.13    0.05 
   6   2  -2    0.14    0.07 
  -6  -2   2    0.09    0.05 
  -6  -2   2    0.18    0.06 
   5   2  -2    2.17    0.12 
   5   2  -2    2.20    0.12 
  -5  -2   2    2.13    0.13 
  -5  -2   2    2.14    0.12 
  -5  -2   2    2.15    0.11 
   4   2  -2   23.94    0.49 
   4   2  -2   24.00    0.49 
   4   2  -2   23.59    0.48 
  -4  -2   2   23.68    0.49 
  -4  -2   2   23.91    0.48 
  -4  -2   2   23.26    0.48 
   3   2  -2    1.20    0.07 
   3   2  -2    1.25    0.07 
   3   2  -2    1.25    0.07 
  -3  -2   2    1.08    0.07 
  -3  -2   2    1.06    0.07 
   2   2  -2    5.84    0.15 
   2   2  -2    5.95    0.15 
   2   2  -2    6.07    0.15 
  -2  -2   2    5.74    0.14 
  -2  -2   2    5.85    0.15 
   1   2  -2   42.37    0.72 
   1   2  -2   42.16    0.72 
  -1  -2   2   43.20    0.72 
  -1  -2   2   42.99    0.72 
  -1  -2   2   42.06    0.73 
   0   2  -2  230.30    3.71 
   0   2  -2  221.91    3.71 
   0   2  -2  223.60    3.74 
   0   2  -2  218.95    3.74 
   0  -2   2  231.65    3.68 
   0  -2   2  233.64    3.67 
   0  -2   2  218.35    3.78 
  -1   2  -2   18.23    0.33 
  -1   2  -2   18.37    0.37 
  -1   2  -2   18.68    0.33 
  -1   2  -2   18.78    0.37 
  -1   2  -2   18.32    0.33 
   1  -2   2   18.41    0.37 
   1  -2   2   18.94    0.32 
   1  -2   2   18.57    0.32 
   1  -2   2   18.67    0.32 
  -2   2  -2   42.70    0.74 
  -2   2  -2   42.11    0.77 
  -2   2  -2   42.58    0.74 
  -2   2  -2   42.80    0.75 
   2  -2   2   43.09    0.73 
   2  -2   2   42.67    0.78 
   2  -2   2   42.72    0.73 
   2  -2   2   42.64    0.73 
  -3   2  -2    0.80    0.06 
  -3   2  -2    0.81    0.06 
  -3   2  -2    0.86    0.06 
  -3   2  -2    0.82    0.07 
  -3   2  -2    0.80    0.05 
   3  -2   2    0.78    0.05 
   3  -2   2    0.87    0.05 
   3  -2   2    0.72    0.07 
   3  -2   2    0.77    0.05 
  -4   2  -2    0.37    0.04 
  -4   2  -2    0.46    0.06 
  -4   2  -2    0.46    0.06 
  -4   2  -2    0.49    0.06 
  -4   2  -2    0.42    0.06 
   4  -2   2    0.36    0.05 
  -5   2  -2    1.59    0.11 
  -5   2  -2    1.52    0.10 
  -5   2  -2    1.55    0.11 
  -5   2  -2    1.50    0.11 
  -6   2  -2   16.47    0.41 
  -6   2  -2   16.06    0.42 
  -6   2  -2   16.06    0.41 
  -6   2  -2   16.91    0.43 
   6  -2   2   16.62    0.39 
  -7   2  -2    3.82    0.19 
  -7   2  -2    4.06    0.21 
  -7   2  -2    3.96    0.21 
  -8   2  -2    2.43    0.19 
  -8   2  -2    2.43    0.17 
  -8   2  -2    2.45    0.19 
  -9   2  -2    0.28    0.11 
  -9   2  -2    0.04    0.08 
  -9   2  -2    0.30    0.11 
   9   1  -2    0.56    0.11 
  -9  -1   2    0.54    0.12 
  -9  -1   2    0.49    0.12 
   8   1  -2    0.65    0.10 
   8   1  -2    0.44    0.09 
  -8  -1   2    0.41    0.09 
  -8  -1   2    0.52    0.10 
   7   1  -2    4.75    0.22 
  -7  -1   2    4.82    0.23 
  -7  -1   2    4.68    0.22 
   6   1  -2    5.57    0.22 
  -6  -1   2    5.98    0.23 
  -6  -1   2    5.58    0.22 
   5   1  -2   37.20    0.74 
   5   1  -2   37.32    0.74 
  -5  -1   2   37.17    0.74 
  -5  -1   2   37.17    0.74 
  -5  -1   2   36.95    0.73 
   4   1  -2    0.13    0.04 
   4   1  -2    0.05    0.03 
   4   1  -2    0.12    0.04 
  -4  -1   2    0.15    0.04 
  -4  -1   2    0.12    0.04 
  -4  -1   2    0.08    0.03 
   3   1  -2    6.21    0.17 
   3   1  -2    5.86    0.17 
   3   1  -2    6.28    0.17 
  -3  -1   2    6.21    0.17 
  -3  -1   2    5.91    0.17 
  -3  -1   2    5.91    0.17 
   2   1  -2    1.77    0.07 
   2   1  -2    1.71    0.07 
   2   1  -2    1.84    0.07 
  -2  -1   2    1.72    0.07 
  -2  -1   2    1.66    0.07 
  -2  -1   2    1.82    0.07 
   1   1  -2    0.59    0.03 
   1   1  -2    0.61    0.03 
   1   1  -2    0.61    0.03 
  -1  -1   2    0.62    0.03 
  -1  -1   2    0.50    0.03 
   0   1  -2  411.86    6.79 
   0  -1   2  411.08    6.82 
  -1   1  -2    0.13    0.01 
  -1   1  -2    0.05    0.02 
  -1   1  -2    0.09    0.02 
  -1   1  -2    0.09    0.01 
  -2   1  -2   42.10    0.73 
  -2   1  -2   41.38    0.71 
  -2   1  -2   41.66    0.72 
  -2   1  -2   41.82    0.72 
   2  -1   2   42.80    0.70 
   2  -1   2   40.90    0.71 
   2  -1   2   42.00    0.70 
   2  -1   2   41.73    0.74 
  -3   1  -2   31.71    0.56 
  -3   1  -2   31.42    0.58 
  -3   1  -2   31.49    0.59 
  -3   1  -2   31.17    0.58 
  -3   1  -2   31.25    0.58 
   3  -1   2   32.27    0.59 
   3  -1   2   32.09    0.57 
   3  -1   2   32.06    0.57 
   3  -1   2   32.22    0.57 
  -4   1  -2    4.55    0.15 
  -4   1  -2    4.48    0.15 
  -4   1  -2    4.05    0.15 
  -4   1  -2    4.42    0.14 
   4  -1   2    4.63    0.14 
   4  -1   2    4.80    0.17 
  -5   1  -2    0.19    0.05 
  -5   1  -2   -0.02    0.03 
  -5   1  -2    0.09    0.04 
  -5   1  -2   -0.01    0.03 
   5  -1   2   -0.03    0.02 
  -6   1  -2   16.44    0.39 
  -6   1  -2   15.89    0.39 
  -6   1  -2   16.93    0.42 
  -6   1  -2   15.93    0.41 
   6  -1   2   16.15    0.38 
  -7   1  -2    2.47    0.17 
  -7   1  -2    2.24    0.16 
  -7   1  -2    2.32    0.15 
  -7   1  -2    2.50    0.15 
   7  -1   2    2.61    0.15 
  -8   1  -2    7.14    0.29 
  -8   1  -2    6.79    0.26 
  -8   1  -2    6.75    0.29 
  -9   1  -2    0.13    0.09 
  -9   1  -2    0.06    0.07 
  -9   1  -2    0.05    0.07 
  -9   0   2    0.95    0.15 
  -9   0   2    0.99    0.16 
   8   0  -2    6.07    0.23 
   8   0  -2    6.36    0.28 
  -8   0   2    6.36    0.29 
  -8   0   2    6.42    0.29 
   7   0  -2    3.89    0.17 
   7   0  -2    4.38    0.21 
  -7   0   2    3.86    0.21 
  -7   0   2    3.87    0.21 
  -7   0   2    4.22    0.22 
   6   0  -2    0.66    0.07 
   6   0  -2    0.52    0.08 
  -6   0   2    0.68    0.08 
  -6   0   2    0.59    0.09 
  -6   0   2    0.55    0.08 
   5   0  -2    0.59    0.07 
   5   0  -2    0.93    0.10 
  -5   0   2    0.68    0.08 
  -5   0   2    0.70    0.08 
  -5   0   2    0.61    0.07 
  -5   0   2    0.73    0.09 
   4   0  -2    0.96    0.08 
   4   0  -2    0.89    0.08 
  -4   0   2    0.92    0.08 
  -4   0   2    0.89    0.08 
  -4   0   2    0.86    0.08 
  -4   0   2    0.95    0.08 
   3   0  -2   31.72    0.61 
   3   0  -2   33.00    0.62 
   3   0  -2   32.69    0.62 
  -3   0   2   32.28    0.62 
  -3   0   2   32.55    0.62 
  -3   0   2   32.67    0.61 
  -3   0   2   31.83    0.61 
   2   0  -2  150.13    2.56 
   2   0  -2  159.58    2.57 
   2   0  -2  155.22    2.57 
   2   0  -2  154.02    2.56 
  -2   0   2  157.00    2.57 
  -2   0   2  158.10    2.57 
  -2   0   2  151.58    2.56 
  -2   0   2  157.17    2.57 
   1   0  -2   52.69    0.88 
   1   0  -2   51.28    0.88 
   1   0  -2   52.26    0.88 
   1   0  -2   51.32    0.89 
  -1   0   2   53.09    0.88 
  -1   0   2   52.79    0.88 
  -1   0   2   51.73    0.88 
   0   0  -2    6.69    0.13 
   0   0  -2    6.67    0.12 
   0   0   2    6.75    0.12 
   0   0   2    6.63    0.12 
   0   0   2    6.16    0.12 
   0   0   2    6.53    0.12 
  -1   0  -2    1.06    0.03 
  -1   0  -2    0.88    0.03 
  -1   0  -2    0.85    0.03 
  -1   0  -2    0.95    0.03 
  -2   0  -2  288.64    4.70 
  -2   0  -2  285.42    4.70 
  -2   0  -2  288.57    4.60 
  -2   0  -2  259.97    4.62 
   2   0   2  279.54    4.63 
   2   0   2  285.64    4.65 
   2   0   2  245.69    4.63 
   2   0   2  285.22    4.65 
   2   0   2  293.01    4.63 
  -3   0  -2   32.77    0.59 
  -3   0  -2   32.84    0.60 
  -3   0  -2   33.97    0.60 
  -3   0  -2   33.54    0.60 
   3   0   2   33.24    0.59 
   3   0   2   32.40    0.59 
   3   0   2   33.78    0.59 
   3   0   2   33.63    0.59 
   3   0   2   33.31    0.56 
  -4   0  -2   61.10    1.08 
  -4   0  -2   59.81    1.08 
  -4   0  -2   60.96    1.06 
  -4   0  -2   61.95    1.07 
   4   0   2   62.25    1.07 
   4   0   2   61.47    1.07 
   4   0   2   61.40    1.07 
   4   0   2   61.87    1.07 
   4   0   2   61.96    1.03 
  -5   0  -2    5.83    0.19 
  -5   0  -2    5.85    0.19 
  -5   0  -2    6.03    0.18 
  -5   0  -2    5.87    0.17 
   5   0   2    5.96    0.15 
   5   0   2    5.95    0.18 
  -6   0  -2    0.03    0.04 
  -6   0  -2   -0.01    0.04 
  -6   0  -2    0.02    0.04 
  -6   0  -2    0.01    0.04 
   6   0   2    0.05    0.03 
   6   0   2    0.16    0.04 
  -7   0  -2    2.75    0.16 
  -7   0  -2    2.64    0.17 
  -7   0  -2    2.62    0.15 
  -7   0  -2    2.89    0.17 
   7   0   2    2.81    0.11 
   7   0   2    2.82    0.15 
   7   0   2    3.05    0.15 
  -8   0  -2    0.94    0.11 
  -8   0  -2    1.11    0.13 
  -8   0  -2    0.85    0.12 
   8   0   2    1.24    0.13 
   8   0   2    0.93    0.17 
   8   0   2    0.94    0.08 
  -9   0  -2    0.05    0.08 
  -9   0  -2    0.05    0.07 
  -9   0  -2    0.07    0.08 
   9   0   2    0.19    0.08 
  -9   1   2    1.32    0.16 
  -9   1   2    1.03    0.15 
  -9   1   2    1.65    0.18 
   8  -1  -2   -0.04    0.07 
   8  -1  -2    0.04    0.06 
  -8   1   2   -0.08    0.07 
  -8   1   2    0.04    0.08 
  -8   1   2   -0.13    0.07 
   7  -1  -2    0.44    0.09 
   7  -1  -2    0.71    0.09 
  -7   1   2    0.51    0.10 
  -7   1   2    0.54    0.11 
  -7   1   2    0.52    0.11 
   6  -1  -2    0.81    0.09 
   6  -1  -2    0.46    0.09 
  -6   1   2    0.64    0.10 
  -6   1   2    0.43    0.08 
  -6   1   2    0.73    0.10 
   5  -1  -2    5.78    0.19 
   5  -1  -2    5.75    0.21 
  -5   1   2    5.81    0.22 
  -5   1   2    5.49    0.22 
  -5   1   2    5.69    0.21 
  -5   1   2    5.87    0.21 
   4  -1  -2   21.07    0.46 
   4  -1  -2   21.51    0.47 
   4  -1  -2   21.33    0.44 
  -4   1   2   21.18    0.46 
  -4   1   2   21.18    0.47 
  -4   1   2   21.52    0.46 
  -4   1   2   21.63    0.48 
   3  -1  -2   27.50    0.54 
   3  -1  -2   27.36    0.54 
   3  -1  -2   27.21    0.51 
   3  -1  -2   27.63    0.54 
  -3   1   2   26.66    0.53 
  -3   1   2   27.08    0.54 
  -3   1   2   26.54    0.53 
  -3   1   2   26.54    0.54 
   2  -1  -2   19.14    0.38 
   2  -1  -2   19.64    0.39 
   2  -1  -2   19.17    0.39 
   2  -1  -2   18.87    0.39 
  -2   1   2   19.14    0.38 
  -2   1   2   19.72    0.39 
  -2   1   2   19.08    0.39 
  -2   1   2   19.35    0.39 
   1  -1  -2   21.61    0.40 
   1  -1  -2   21.98    0.41 
   1  -1  -2   21.46    0.41 
   1  -1  -2   22.49    0.41 
   1  -1  -2   21.50    0.41 
  -1   1   2   22.00    0.41 
  -1   1   2   21.68    0.41 
  -1   1   2   21.93    0.41 
  -1   1   2   22.51    0.41 
   0  -1  -2   75.93    1.25 
   0  -1  -2   73.93    1.26 
   0  -1  -2   74.83    1.25 
   0  -1  -2   76.67    1.26 
   0   1   2   77.89    1.26 
   0   1   2   74.63    1.26 
   0   1   2   75.74    1.25 
   0   1   2   76.06    1.24 
   0   1   2   75.94    1.25 
  -1  -1  -2  105.45    1.74 
  -1  -1  -2  107.54    1.75 
  -1  -1  -2  106.27    1.77 
  -1  -1  -2  107.43    1.74 
   1   1   2  105.42    1.78 
   1   1   2  104.26    1.75 
   1   1   2  109.12    1.76 
   1   1   2  105.49    1.77 
  -2  -1  -2  321.35    5.19 
  -2  -1  -2  315.74    5.33 
  -2  -1  -2  310.23    5.27 
  -2  -1  -2  337.15    5.37 
   2   1   2  290.94    5.20 
   2   1   2  315.80    5.32 
   2   1   2  339.01    5.34 
   2   1   2  314.93    5.31 
  -3  -1  -2   21.89    0.41 
  -3  -1  -2   21.71    0.41 
  -3  -1  -2   21.71    0.38 
  -3  -1  -2   21.95    0.41 
   3   1   2   22.08    0.41 
   3   1   2   21.62    0.40 
   3   1   2   21.32    0.41 
   3   1   2   21.55    0.39 
   3   1   2   21.59    0.41 
  -4  -1  -2   22.16    0.45 
  -4  -1  -2   22.00    0.41 
  -4  -1  -2   22.08    0.45 
  -4  -1  -2   23.09    0.44 
   4   1   2   22.68    0.42 
   4   1   2   21.74    0.44 
   4   1   2   22.27    0.43 
   4   1   2   22.91    0.44 
   4   1   2   21.76    0.44 
  -5  -1  -2    6.29    0.20 
  -5  -1  -2    6.28    0.20 
  -5  -1  -2    6.23    0.17 
  -5  -1  -2    6.23    0.19 
   5   1   2    6.45    0.17 
   5   1   2    5.95    0.18 
   5   1   2    5.98    0.18 
   5   1   2    6.27    0.18 
  -6  -1  -2    1.18    0.10 
  -6  -1  -2    1.07    0.08 
  -6  -1  -2    1.13    0.10 
  -6  -1  -2    1.07    0.09 
   6   1   2    1.18    0.07 
   6   1   2    1.14    0.09 
   6   1   2    1.19    0.09 
  -7  -1  -2    9.24    0.30 
  -7  -1  -2    9.29    0.31 
  -7  -1  -2    9.09    0.28 
  -7  -1  -2    9.15    0.26 
   7   1   2    9.24    0.28 
   7   1   2    9.23    0.23 
   7   1   2    9.55    0.28 
  -8  -1  -2    0.02    0.09 
  -8  -1  -2   -0.04    0.06 
  -8  -1  -2   -0.01    0.06 
  -8  -1  -2    0.02    0.05 
   8   1   2    0.10    0.06 
   8   1   2    0.00    0.04 
   8   1   2   -0.02    0.05 
  -9  -1  -2    0.41    0.10 
  -9  -1  -2    0.41    0.11 
  -9  -1  -2    0.33    0.08 
   9   1   2    0.46    0.07 
   9   1   2    0.33    0.08 
 -10  -1  -2    1.13    0.15 
 -10  -1  -2    1.31    0.16 
  10   1   2    1.23    0.10 
   8  -2  -2    0.36    0.08 
  -8   2   2    0.60    0.12 
  -8   2   2    0.28    0.11 
  -8   2   2    0.25    0.10 
   7  -2  -2    0.05    0.07 
   7  -2  -2    0.03    0.05 
  -7   2   2    0.07    0.07 
  -7   2   2    0.13    0.08 
  -7   2   2    0.06    0.08 
   6  -2  -2    1.56    0.11 
   6  -2  -2    1.67    0.14 
  -6   2   2    1.38    0.14 
  -6   2   2    1.38    0.15 
  -6   2   2    1.51    0.15 
   5  -2  -2   19.15    0.46 
   5  -2  -2   19.09    0.42 
  -5   2   2   19.24    0.50 
  -5   2   2   18.74    0.48 
  -5   2   2   19.25    0.47 
  -5   2   2   19.11    0.47 
   4  -2  -2    8.11    0.22 
   4  -2  -2    7.64    0.24 
   4  -2  -2    7.29    0.24 
  -4   2   2    7.67    0.24 
  -4   2   2    7.84    0.25 
  -4   2   2    7.58    0.24 
  -4   2   2    7.37    0.23 
   3  -2  -2    3.14    0.12 
   3  -2  -2    3.42    0.14 
   3  -2  -2    3.31    0.14 
  -3   2   2    3.54    0.14 
  -3   2   2    3.20    0.13 
  -3   2   2    3.30    0.13 
  -3   2   2    3.24    0.14 
   2  -2  -2    0.70    0.05 
   2  -2  -2    0.71    0.06 
   2  -2  -2    0.56    0.06 
  -2   2   2    0.65    0.06 
  -2   2   2    0.64    0.06 
  -2   2   2    0.67    0.06 
  -2   2   2    0.66    0.06 
   1  -2  -2   14.93    0.31 
   1  -2  -2   15.32    0.31 
   1  -2  -2   15.42    0.31 
   1  -2  -2   15.36    0.31 
  -1   2   2   15.19    0.30 
  -1   2   2   14.95    0.31 
  -1   2   2   15.49    0.31 
  -1   2   2   15.37    0.32 
  -1   2   2   15.13    0.30 
  -1   2   2   15.23    0.31 
   0  -2  -2    4.95    0.13 
   0  -2  -2    4.79    0.12 
   0  -2  -2    4.89    0.11 
   0   2   2    4.80    0.11 
   0   2   2    4.87    0.13 
   0   2   2    5.24    0.13 
   0   2   2    4.71    0.12 
   0   2   2    4.91    0.13 
   0   2   2    5.24    0.12 
  -1  -2  -2  265.86    4.38 
  -1  -2  -2  270.06    4.28 
  -1  -2  -2  258.68    4.34 
  -1  -2  -2  252.56    4.27 
  -1  -2  -2  246.21    4.32 
   1   2   2  249.33    4.27 
   1   2   2  266.04    4.33 
   1   2   2  260.24    4.33 
   1   2   2  251.31    4.35 
  -2  -2  -2  224.02    3.63 
  -2  -2  -2  217.63    3.54 
  -2  -2  -2  212.38    3.58 
   2   2   2  213.48    3.56 
   2   2   2  216.07    3.65 
   2   2   2  215.93    3.54 
   2   2   2  219.13    3.54 
  -3  -2  -2    0.24    0.03 
  -3  -2  -2    0.23    0.03 
   3   2   2    0.22    0.03 
   3   2   2    0.29    0.04 
   3   2   2    0.22    0.03 
   3   2   2    0.33    0.04 
   3   2   2    0.34    0.02 
  -4  -2  -2    1.92    0.09 
  -4  -2  -2    1.99    0.09 
   4   2   2    1.94    0.09 
   4   2   2    1.83    0.09 
   4   2   2    1.91    0.09 
   4   2   2    2.16    0.09 
   4   2   2    2.05    0.07 
  -5  -2  -2   30.16    0.59 
  -5  -2  -2   29.88    0.60 
  -5  -2  -2   29.96    0.58 
   5   2   2   29.01    0.58 
   5   2   2   30.15    0.58 
   5   2   2   28.97    0.58 
   5   2   2   29.97    0.55 
  -6  -2  -2   18.77    0.45 
  -6  -2  -2   19.01    0.44 
  -6  -2  -2   19.41    0.43 
   6   2   2   19.25    0.43 
   6   2   2   18.85    0.40 
   6   2   2   18.52    0.42 
  -7  -2  -2   19.97    0.48 
  -7  -2  -2   20.14    0.49 
  -7  -2  -2   19.47    0.46 
   7   2   2   19.85    0.46 
   7   2   2   19.19    0.46 
  -8  -2  -2   -0.04    0.06 
  -8  -2  -2    0.05    0.06 
  -8  -2  -2   -0.10    0.05 
   8   2   2   -0.01    0.05 
   8   2   2    0.00    0.05 
   8   2   2   -0.05    0.03 
  -9  -2  -2    0.10    0.08 
  -9  -2  -2    0.10    0.08 
   9   2   2    0.16    0.05 
   9   2   2    0.17    0.07 
 -10  -2  -2    0.01    0.08 
 -10  -2  -2   -0.05    0.07 
  10   2   2   -0.04    0.06 
  10   2   2   -0.01    0.04 
  -8   3   2    4.40    0.26 
  -8   3   2    4.64    0.28 
  -8   3   2    4.35    0.27 
  -7   3   2    5.62    0.27 
  -7   3   2    5.49    0.28 
  -7   3   2    6.37    0.29 
   6  -3  -2   -0.04    0.06 
  -6   3   2   -0.06    0.06 
  -6   3   2    0.07    0.07 
  -6   3   2   -0.04    0.06 
   5  -3  -2    0.51    0.07 
   5  -3  -2    0.47    0.08 
  -5   3   2    0.60    0.11 
  -5   3   2    0.42    0.09 
  -5   3   2    0.38    0.09 
   4  -3  -2    6.14    0.22 
   4  -3  -2    6.51    0.19 
  -4   3   2    6.57    0.23 
  -4   3   2    6.32    0.23 
  -4   3   2    6.39    0.23 
  -4   3   2    6.20    0.24 
   3  -3  -2   -0.01    0.03 
   3  -3  -2    0.02    0.02 
   3  -3  -2   -0.01    0.03 
  -3   3   2    0.04    0.04 
  -3   3   2   -0.03    0.03 
  -3   3   2    0.03    0.04 
  -3   3   2    0.00    0.04 
   2  -3  -2   26.31    0.52 
   2  -3  -2   25.17    0.52 
  -2   3   2   25.94    0.52 
  -2   3   2   25.48    0.51 
  -2   3   2   25.66    0.49 
  -2   3   2   24.66    0.51 
  -2   3   2   25.87    0.52 
  -2   3   2   24.38    0.52 
   1  -3  -2   68.94    1.20 
   1  -3  -2   69.58    1.20 
   1  -3  -2   69.00    1.20 
   1  -3  -2   67.73    1.20 
  -1   3   2   68.26    1.20 
  -1   3   2   69.87    1.21 
  -1   3   2   68.08    1.19 
  -1   3   2   67.70    1.20 
  -1   3   2   70.70    1.18 
   0  -3  -2  108.57    1.80 
   0  -3  -2  108.62    1.79 
   0  -3  -2  107.85    1.79 
   0  -3  -2  106.75    1.80 
   0   3   2  107.07    1.79 
   0   3   2  106.87    1.78 
   0   3   2  101.97    1.80 
   0   3   2  105.44    1.79 
   0   3   2  107.75    1.78 
   0   3   2  108.51    1.80 
  -1  -3  -2   23.86    0.44 
  -1  -3  -2   23.83    0.42 
  -1  -3  -2   22.81    0.42 
  -1  -3  -2   22.50    0.44 
  -1  -3  -2   22.49    0.44 
   1   3   2   23.14    0.44 
   1   3   2   23.46    0.44 
   1   3   2   23.37    0.42 
   1   3   2   21.61    0.43 
  -2  -3  -2    1.85    0.08 
  -2  -3  -2    1.73    0.08 
  -2  -3  -2    1.78    0.08 
   2   3   2    1.75    0.08 
   2   3   2    1.82    0.07 
   2   3   2    1.80    0.06 
  -3  -3  -2   23.64    0.46 
  -3  -3  -2   23.49    0.46 
  -3  -3  -2   23.11    0.45 
   3   3   2   23.84    0.45 
   3   3   2   22.85    0.45 
  -4  -3  -2    7.32    0.20 
  -4  -3  -2    7.72    0.21 
   4   3   2    7.68    0.16 
   4   3   2    7.63    0.20 
   4   3   2    7.57    0.20 
   4   3   2    8.05    0.20 
  -5  -3  -2  110.78    1.92 
  -5  -3  -2  108.68    1.91 
   5   3   2  111.63    1.90 
   5   3   2  110.20    1.91 
   5   3   2  111.91    1.85 
   5   3   2  114.78    1.91 
  -6  -3  -2    9.44    0.28 
  -6  -3  -2    9.52    0.28 
   6   3   2    9.87    0.27 
   6   3   2    9.75    0.27 
   6   3   2    9.56    0.23 
  -7  -3  -2   20.51    0.49 
  -7  -3  -2   20.20    0.49 
   7   3   2   19.85    0.47 
   7   3   2   19.53    0.47 
  -8  -3  -2    1.94    0.15 
  -8  -3  -2    1.71    0.15 
   8   3   2    1.68    0.13 
   8   3   2    1.90    0.14 
  -9  -3  -2    1.51    0.16 
  -9  -3  -2    1.46    0.15 
   9   3   2    1.13    0.12 
   9   3   2    1.19    0.15 
 -10  -3  -2   -0.01    0.08 
 -10  -3  -2   -0.09    0.06 
  10   3   2   -0.05    0.05 
  10   3   2    0.01    0.04 
  -7   4   2    1.34    0.16 
  -7   4   2    1.50    0.18 
  -7   4   2    1.10    0.14 
   6  -4  -2    3.02    0.19 
  -6   4   2    2.95    0.20 
  -6   4   2    2.81    0.20 
  -6   4   2    3.21    0.21 
   5  -4  -2    0.85    0.11 
  -5   4   2    0.76    0.10 
  -5   4   2    0.75    0.11 
  -5   4   2    0.84    0.11 
   4  -4  -2    0.76    0.10 
  -4   4   2    0.81    0.11 
  -4   4   2    0.72    0.10 
  -4   4   2    0.78    0.11 
  -4   4   2    0.59    0.09 
   3  -4  -2   20.41    0.47 
  -3   4   2   20.56    0.49 
  -3   4   2   20.95    0.48 
  -3   4   2   20.14    0.47 
  -3   4   2   20.56    0.45 
  -3   4   2   20.38    0.47 
   2  -4  -2   20.84    0.46 
   2  -4  -2   20.81    0.46 
  -2   4   2   21.05    0.46 
  -2   4   2   21.77    0.47 
  -2   4   2   21.26    0.47 
  -2   4   2   20.76    0.46 
  -2   4   2   20.77    0.44 
   1  -4  -2    6.05    0.18 
   1  -4  -2    5.83    0.18 
  -1   4   2    5.68    0.17 
  -1   4   2    5.87    0.19 
  -1   4   2    5.93    0.18 
  -1   4   2    6.11    0.18 
   0  -4  -2   25.47    0.51 
   0  -4  -2   25.69    0.51 
   0  -4  -2   25.37    0.50 
   0  -4  -2   26.64    0.51 
   0  -4  -2   25.99    0.51 
   0   4   2   25.89    0.49 
   0   4   2   25.55    0.50 
   0   4   2   25.80    0.49 
   0   4   2   25.59    0.51 
   0   4   2   24.82    0.51 
  -1  -4  -2   40.84    0.73 
  -1  -4  -2   39.94    0.74 
  -1  -4  -2   40.66    0.74 
  -1  -4  -2   40.88    0.73 
  -1  -4  -2   38.95    0.74 
   1   4   2   40.69    0.74 
   1   4   2   39.48    0.71 
   1   4   2   40.55    0.74 
   1   4   2   41.10    0.75 
   1   4   2   41.02    0.72 
  -2  -4  -2    1.56    0.08 
  -2  -4  -2    1.94    0.09 
  -2  -4  -2    1.64    0.07 
  -2  -4  -2    1.83    0.08 
   2   4   2    1.73    0.07 
   2   4   2    1.67    0.09 
   2   4   2    1.75    0.08 
  -3  -4  -2   30.36    0.58 
  -3  -4  -2   29.71    0.58 
  -3  -4  -2   29.27    0.57 
   3   4   2   30.75    0.58 
   3   4   2   30.17    0.57 
   3   4   2   30.00    0.58 
  -4  -4  -2   28.13    0.56 
  -4  -4  -2   28.77    0.57 
  -4  -4  -2   28.97    0.57 
   4   4   2   28.67    0.56 
   4   4   2   28.21    0.56 
  -5  -4  -2    0.01    0.04 
  -5  -4  -2    0.01    0.04 
   5   4   2    0.01    0.02 
   5   4   2    0.00    0.03 
   5   4   2    0.03    0.04 
   5   4   2    0.00    0.03 
  -6  -4  -2    1.53    0.11 
  -6  -4  -2    1.37    0.11 
   6   4   2    1.36    0.10 
   6   4   2    1.48    0.11 
   6   4   2    1.55    0.08 
  -7  -4  -2   -0.01    0.05 
  -7  -4  -2    0.00    0.05 
   7   4   2    0.04    0.06 
   7   4   2   -0.05    0.05 
  -8  -4  -2    1.32    0.14 
  -8  -4  -2    1.19    0.14 
   8   4   2    0.98    0.11 
   8   4   2    1.03    0.11 
  -9  -4  -2    1.25    0.15 
  -9  -4  -2    1.12    0.14 
   9   4   2    1.15    0.12 
   9   4   2    1.10    0.13 
 -10  -4  -2    2.21    0.21 
 -10  -4  -2    1.72    0.17 
  10   4   2    1.90    0.17 
  -6   5   2    4.18    0.25 
  -6   5   2    4.68    0.25 
  -6   5   2    3.93    0.24 
   5  -5  -2    7.35    0.28 
  -5   5   2    7.39    0.31 
  -5   5   2    7.63    0.30 
  -5   5   2    7.93    0.30 
   4  -5  -2    3.66    0.19 
  -4   5   2    3.84    0.20 
  -4   5   2    3.56    0.19 
  -4   5   2    3.85    0.21 
   3  -5  -2   11.16    0.33 
  -3   5   2   11.40    0.30 
  -3   5   2   11.94    0.36 
  -3   5   2   11.55    0.34 
  -3   5   2   11.52    0.33 
   2  -5  -2    3.80    0.17 
  -2   5   2    3.89    0.15 
  -2   5   2    4.10    0.19 
  -2   5   2    4.14    0.18 
  -2   5   2    4.17    0.18 
   1  -5  -2    0.11    0.04 
   1  -5  -2    0.13    0.04 
  -1   5   2    0.20    0.05 
  -1   5   2    0.22    0.05 
  -1   5   2    0.10    0.03 
  -1   5   2    0.17    0.04 
   0  -5  -2    4.56    0.16 
   0  -5  -2    4.54    0.16 
   0   5   2    5.03    0.18 
   0   5   2    4.92    0.17 
   0   5   2    4.88    0.17 
   0   5   2    4.43    0.16 
   0   5   2    4.84    0.15 
  -1  -5  -2   20.59    0.43 
  -1  -5  -2   20.11    0.42 
  -1  -5  -2   21.00    0.43 
  -1  -5  -2   20.36    0.42 
   1   5   2   20.17    0.41 
   1   5   2   20.35    0.43 
   1   5   2   20.24    0.43 
   1   5   2   19.85    0.44 
   1   5   2   20.17    0.42 
  -2  -5  -2   33.32    0.64 
  -2  -5  -2   32.94    0.63 
  -2  -5  -2   31.92    0.62 
  -2  -5  -2   32.55    0.63 
   2   5   2   32.97    0.63 
   2   5   2   33.37    0.64 
   2   5   2   32.92    0.63 
   2   5   2   32.53    0.61 
  -3  -5  -2    4.32    0.17 
  -3  -5  -2    4.67    0.14 
  -3  -5  -2    4.50    0.16 
  -3  -5  -2    4.23    0.15 
   3   5   2    4.15    0.15 
   3   5   2    4.12    0.15 
   3   5   2    4.31    0.13 
  -4  -5  -2    3.55    0.14 
  -4  -5  -2    3.55    0.14 
   4   5   2    3.14    0.14 
   4   5   2    3.23    0.13 
  -5  -5  -2    0.62    0.08 
  -5  -5  -2    0.49    0.07 
   5   5   2    0.59    0.07 
   5   5   2    0.50    0.07 
  -6  -5  -2    4.25    0.18 
  -6  -5  -2    4.29    0.19 
   6   5   2    4.90    0.19 
   6   5   2    4.17    0.18 
   6   5   2    4.19    0.13 
  -7  -5  -2   35.33    0.74 
  -7  -5  -2   34.02    0.75 
   7   5   2   35.40    0.73 
   7   5   2   35.16    0.73 
  -8  -5  -2    3.58    0.20 
  -8  -5  -2    3.15    0.20 
   8   5   2    2.87    0.17 
   8   5   2    3.10    0.18 
  -9  -5  -2    2.62    0.19 
  -9  -5  -2    2.30    0.19 
   9   5   2    2.29    0.17 
   9   5   2    2.51    0.17 
 -10  -5  -2    0.43    0.11 
 -10  -5  -2    0.57    0.12 
  10   5   2    0.72    0.12 
  -6   6   2    0.20    0.10 
  -6   6   2    0.46    0.12 
  -6   6   2    0.18    0.09 
  -5   6   2    3.56    0.22 
  -5   6   2    3.23    0.23 
   4  -6  -2   23.10    0.57 
  -4   6   2   24.04    0.61 
  -4   6   2   24.22    0.60 
   3  -6  -2    2.64    0.16 
  -3   6   2    2.44    0.17 
  -3   6   2    2.57    0.18 
  -3   6   2    2.43    0.20 
   2  -6  -2    4.71    0.20 
  -2   6   2    5.14    0.19 
  -2   6   2    5.10    0.22 
  -2   6   2    4.80    0.21 
  -2   6   2    4.72    0.21 
   1  -6  -2   46.75    0.89 
  -1   6   2   45.24    0.90 
  -1   6   2   46.74    0.90 
  -1   6   2   46.30    0.92 
  -1   6   2   46.44    0.87 
   0  -6  -2   43.21    0.83 
   0  -6  -2   42.92    0.84 
   0   6   2   42.48    0.82 
   0   6   2   43.05    0.85 
   0   6   2   42.65    0.83 
  -1  -6  -2    5.76    0.19 
  -1  -6  -2    5.67    0.19 
   1   6   2    6.04    0.20 
   1   6   2    5.63    0.20 
   1   6   2    5.69    0.19 
  -2  -6  -2    3.02    0.13 
  -2  -6  -2    3.05    0.13 
  -2  -6  -2    2.94    0.14 
   2   6   2    2.95    0.14 
   2   6   2    3.05    0.12 
   2   6   2    3.26    0.14 
  -3  -6  -2    6.71    0.21 
  -3  -6  -2    6.90    0.22 
  -3  -6  -2    7.19    0.21 
   3   6   2    7.08    0.19 
   3   6   2    6.84    0.22 
   3   6   2    7.11    0.22 
  -4  -6  -2    8.97    0.26 
  -4  -6  -2    8.90    0.26 
   4   6   2    8.47    0.26 
   4   6   2    8.78    0.22 
   4   6   2    9.03    0.25 
  -5  -6  -2    0.02    0.04 
  -5  -6  -2    0.02    0.04 
   5   6   2    0.02    0.06 
   5   6   2    0.00    0.03 
  -6  -6  -2    3.24    0.16 
  -6  -6  -2    3.12    0.16 
   6   6   2    2.81    0.15 
   6   6   2    3.11    0.16 
  -7  -6  -2    1.72    0.15 
  -7  -6  -2    1.56    0.14 
   7   6   2    1.68    0.14 
   7   6   2    1.66    0.14 
  -8  -6  -2    4.87    0.24 
  -8  -6  -2    4.87    0.23 
   8   6   2    4.82    0.22 
   8   6   2    4.95    0.22 
  -9  -6  -2   -0.02    0.06 
  -9  -6  -2   -0.03    0.07 
   9   6   2   -0.04    0.06 
   9   6   2   -0.10    0.06 
 -10  -6  -2    0.13    0.09 
 -10  -6  -2    0.27    0.09 
  10   6   2    0.11    0.08 
  -5   7   2    0.05    0.09 
  -5   7   2    0.12    0.09 
  -4   7   2    0.08    0.09 
  -4   7   2    0.17    0.08 
   3  -7  -2    6.33    0.25 
  -3   7   2    6.61    0.29 
  -3   7   2    6.13    0.27 
   2  -7  -2    1.51    0.12 
  -2   7   2    1.73    0.15 
  -2   7   2    1.46    0.14 
   1  -7  -2    1.05    0.10 
  -1   7   2    1.39    0.14 
  -1   7   2    1.22    0.11 
  -1   7   2    1.33    0.12 
  -1   7   2    1.36    0.10 
   0  -7  -2    1.70    0.14 
   0  -7  -2    1.55    0.12 
   0   7   2    1.76    0.13 
   0   7   2    1.86    0.14 
   0   7   2    1.57    0.11 
   0   7   2    1.74    0.13 
  -1  -7  -2    1.45    0.11 
  -1  -7  -2    1.39    0.12 
   1   7   2    1.47    0.12 
   1   7   2    1.49    0.11 
   1   7   2    1.66    0.12 
  -2  -7  -2   10.89    0.31 
  -2  -7  -2   11.33    0.31 
  -2  -7  -2   11.00    0.30 
   2   7   2   11.26    0.29 
   2   7   2   11.33    0.31 
   2   7   2   11.27    0.32 
  -3  -7  -2   12.28    0.33 
  -3  -7  -2   12.48    0.33 
  -3  -7  -2   13.04    0.33 
   3   7   2   12.47    0.34 
   3   7   2   12.94    0.31 
   3   7   2   12.67    0.33 
  -4  -7  -2    4.08    0.17 
  -4  -7  -2    4.17    0.17 
  -4  -7  -2    4.18    0.17 
   4   7   2    4.14    0.18 
   4   7   2    4.12    0.17 
   4   7   2    4.04    0.15 
  -5  -7  -2    9.29    0.29 
  -5  -7  -2    9.82    0.29 
   5   7   2    9.77    0.30 
  -6  -7  -2    2.02    0.14 
  -6  -7  -2    2.19    0.15 
   6   7   2    2.12    0.15 
  -7  -7  -2    0.03    0.05 
  -7  -7  -2   -0.04    0.05 
   7   7   2    0.06    0.06 
   7   7   2    0.06    0.05 
  -8  -7  -2    0.61    0.10 
  -8  -7  -2    0.65    0.11 
   8   7   2    0.83    0.12 
   8   7   2    0.66    0.10 
  -9  -7  -2    2.71    0.21 
  -9  -7  -2    2.94    0.21 
   9   7   2    3.08    0.20 
   9   7   2    2.84    0.20 
 -10  -7  -2    0.65    0.12 
 -10  -7  -2    0.41    0.12 
  10   7   2    0.97    0.14 
  -4   8   2    0.36    0.10 
  -4   8   2    0.22    0.10 
  -3   8   2    1.36    0.15 
  -3   8   2    1.67    0.18 
   2  -8  -2    7.57    0.29 
  -2   8   2    8.05    0.32 
  -2   8   2    7.51    0.29 
   1  -8  -2    7.84    0.27 
  -1   8   2    7.84    0.29 
  -1   8   2    7.92    0.30 
   0  -8  -2    4.35    0.20 
   0  -8  -2    4.64    0.22 
   0   8   2    4.05    0.21 
   0   8   2    4.51    0.20 
   0   8   2    4.44    0.19 
  -1  -8  -2   28.32    0.63 
  -1  -8  -2   29.50    0.66 
   1   8   2   30.19    0.68 
   1   8   2   29.24    0.63 
   1   8   2   29.28    0.66 
  -2  -8  -2   35.89    0.76 
  -2  -8  -2   36.04    0.75 
   2   8   2   36.59    0.74 
   2   8   2   36.75    0.77 
   2   8   2   37.42    0.78 
  -3  -8  -2    9.71    0.30 
  -3  -8  -2    9.58    0.29 
  -3  -8  -2    9.41    0.30 
   3   8   2    9.37    0.27 
   3   8   2    9.80    0.31 
  -4  -8  -2   10.51    0.31 
  -4  -8  -2   10.24    0.31 
  -4  -8  -2   10.29    0.31 
   4   8   2   10.57    0.32 
   4   8   2   10.30    0.28 
  -5  -8  -2    3.06    0.17 
  -5  -8  -2    2.89    0.16 
  -5  -8  -2    3.22    0.17 
   5   8   2    2.90    0.14 
   5   8   2    3.03    0.17 
  -6  -8  -2    0.37    0.08 
  -6  -8  -2    0.26    0.07 
   6   8   2    0.19    0.07 
  -7  -8  -2    1.28    0.14 
  -7  -8  -2    1.24    0.14 
   7   8   2    1.35    0.14 
  -8  -8  -2    0.01    0.06 
  -8  -8  -2   -0.13    0.06 
   8   8   2   -0.08    0.05 
   8   8   2    0.02    0.06 
  -9  -8  -2    2.74    0.21 
  -9  -8  -2    2.84    0.21 
   9   8   2    2.56    0.20 
   9   8   2    2.65    0.20 
 -10  -8  -2    1.33    0.16 
 -10  -8  -2    1.82    0.18 
  10   8   2    1.59    0.17 
  -3   9   2    0.09    0.08 
  -3   9   2   -0.02    0.08 
  -2   9   2    1.63    0.18 
  -2   9   2    1.78    0.17 
  -1   9   2    0.68    0.13 
  -1   9   2    0.80    0.12 
   0  -9  -2    0.01    0.06 
   0  -9  -2   -0.01    0.05 
   0   9   2   -0.02    0.06 
   0   9   2    0.02    0.06 
  -1  -9  -2    0.03    0.05 
  -1  -9  -2    0.13    0.07 
   1   9   2    0.04    0.05 
   1   9   2    0.03    0.05 
  -2  -9  -2    3.64    0.19 
  -2  -9  -2    3.37    0.19 
   2   9   2    3.38    0.20 
   2   9   2    3.49    0.18 
  -3  -9  -2   22.27    0.53 
  -3  -9  -2   22.01    0.54 
  -3  -9  -2   21.72    0.52 
   3   9   2   21.91    0.55 
   3   9   2   21.62    0.51 
  -4  -9  -2    0.66    0.10 
  -4  -9  -2    0.66    0.10 
  -4  -9  -2    0.61    0.09 
   4   9   2    0.70    0.09 
   4   9   2    0.66    0.10 
  -5  -9  -2    0.82    0.10 
  -5  -9  -2    0.83    0.10 
  -5  -9  -2    0.86    0.10 
   5   9   2    1.03    0.10 
   5   9   2    1.06    0.13 
  -6  -9  -2    0.66    0.11 
  -6  -9  -2    0.55    0.09 
  -6  -9  -2    0.78    0.11 
   6   9   2    0.56    0.08 
   6   9   2    0.55    0.10 
  -7  -9  -2    3.64    0.21 
  -7  -9  -2    3.44    0.21 
  -7  -9  -2    3.51    0.19 
   7   9   2    3.61    0.21 
  -8  -9  -2    0.32    0.09 
  -8  -9  -2    0.23    0.10 
   8   9   2    0.32    0.10 
   8   9   2    0.23    0.08 
  -9  -9  -2   -0.08    0.07 
  -9  -9  -2    0.06    0.08 
   9   9   2    0.17    0.09 
   9   9   2    0.08    0.09 
  -1  10   2    0.30    0.10 
  -1  10   2    0.31    0.10 
   0 -10  -2    2.77    0.21 
   0  10   2    2.76    0.19 
   0  10   2    2.81    0.21 
  -1 -10  -2   15.24    0.47 
   1  10   2   15.23    0.44 
   1  10   2   15.54    0.47 
  -2 -10  -2    0.26    0.09 
  -2 -10  -2    0.30    0.08 
   2  10   2    0.21    0.08 
   2  10   2    0.24    0.07 
  -3 -10  -2    9.95    0.35 
  -3 -10  -2    9.14    0.32 
   3  10   2    9.88    0.35 
   3  10   2    9.74    0.31 
  -4 -10  -2    9.05    0.31 
  -4 -10  -2    8.77    0.33 
  -4 -10  -2    8.39    0.30 
   4  10   2    8.76    0.29 
   4  10   2    9.06    0.33 
  -5 -10  -2    0.13    0.06 
  -5 -10  -2    0.11    0.08 
  -5 -10  -2    0.21    0.08 
   5  10   2    0.24    0.07 
   5  10   2    0.23    0.08 
  -6 -10  -2    0.02    0.06 
  -6 -10  -2    0.02    0.06 
  -6 -10  -2   -0.09    0.07 
   6  10   2    0.05    0.05 
   6  10   2   -0.02    0.06 
  -7 -10  -2    0.55    0.11 
  -7 -10  -2    0.29    0.09 
  -7 -10  -2    0.61    0.11 
   7  10   2    0.69    0.09 
   7  10   2    0.59    0.11 
  -8 -10  -2    0.30    0.09 
  -8 -10  -2    0.11    0.11 
  -8 -10  -2    0.23    0.09 
   8  10   2    0.16    0.09 
   8  10   2    0.24    0.10 
  -9 -10  -2    0.45    0.12 
   9  10   2    0.61    0.13 
   9  10   2    0.40    0.13 
   0  11   2    0.07    0.08 
   0  11   2    0.03    0.07 
  -1 -11  -2    0.27    0.10 
   1  11   2    0.15    0.08 
   1  11   2    0.18    0.08 
  -2 -11  -2   -0.01    0.07 
   2  11   2    0.07    0.07 
   2  11   2    0.07    0.09 
  -3 -11  -2   -0.02    0.07 
   3  11   2    0.02    0.05 
   3  11   2   -0.09    0.07 
  -4 -11  -2   -0.02    0.07 
   4  11   2    0.04    0.05 
   4  11   2    0.07    0.08 
  -5 -11  -2   10.06    0.37 
  -5 -11  -2   10.53    0.36 
   5  11   2    9.28    0.36 
   5  11   2    9.24    0.31 
  -6 -11  -2    4.87    0.25 
  -6 -11  -2    4.99    0.26 
   6  11   2    4.88    0.22 
   6  11   2    5.24    0.27 
  -7 -11  -2    0.15    0.08 
  -7 -11  -2    0.20    0.10 
   7  11   2   -0.07    0.07 
   7  11   2    0.09    0.07 
   3  12   2    6.23    0.32 
  -4 -12  -2   -0.13    0.08 
   4  12   2    0.01    0.06 
   4  12   2    0.03    0.09 
  -5 -12  -2    7.82    0.35 
  -5 -12  -2    8.45    0.34 
   5  12   2    8.18    0.36 
   5  12   2    7.93    0.30 
   6  11  -3    0.75    0.12 
  -6 -11   3    1.03    0.16 
   5  11  -3    0.04    0.08 
   5  11  -3    0.01    0.07 
  -5 -11   3   -0.08    0.08 
   4  11  -3    0.12    0.09 
   4  11  -3    0.21    0.08 
  -4 -11   3    0.15    0.10 
   3  11  -3    0.16    0.08 
   3  11  -3    0.00    0.08 
  -3 -11   3    0.02    0.09 
   2  11  -3    0.67    0.11 
   2  11  -3    0.67    0.12 
  -2 -11   3    0.67    0.13 
   1  11  -3    0.22    0.08 
   1  11  -3    0.20    0.09 
  -1 -11   3    0.21    0.10 
   0  11  -3    0.09    0.10 
   0  11  -3    0.24    0.09 
   0 -11   3    0.15    0.09 
   7  10  -3    1.51    0.17 
   7  10  -3    1.31    0.14 
  -7 -10   3    1.47    0.17 
   6  10  -3    0.98    0.13 
  -6 -10   3    1.39    0.16 
   5  10  -3    1.16    0.14 
  -5 -10   3    0.96    0.13 
   4  10  -3    1.21    0.13 
  -4 -10   3    1.43    0.16 
   3  10  -3    7.22    0.28 
   3  10  -3    7.14    0.31 
  -3 -10   3    7.51    0.32 
   2  10  -3    0.02    0.07 
   2  10  -3    0.21    0.08 
  -2 -10   3    0.02    0.08 
   1  10  -3    1.55    0.15 
   1  10  -3    1.41    0.16 
  -1 -10   3    1.33    0.16 
   0  10  -3    2.07    0.19 
   0  10  -3    1.99    0.17 
   0 -10   3    1.93    0.20 
  -1  10  -3   -0.08    0.06 
  -1  10  -3   -0.01    0.06 
  -2  10  -3    0.14    0.09 
  -2  10  -3    0.24    0.09 
   8   9  -3   -0.05    0.07 
   8   9  -3    0.04    0.08 
  -8  -9   3   -0.07    0.06 
   7   9  -3    0.26    0.09 
   7   9  -3    0.28    0.09 
  -7  -9   3    0.22    0.07 
  -7  -9   3    0.29    0.09 
   6   9  -3    0.07    0.07 
  -6  -9   3    0.13    0.06 
  -6  -9   3    0.02    0.06 
   5   9  -3    3.49    0.20 
  -5  -9   3    4.02    0.22 
  -5  -9   3    3.81    0.17 
   4   9  -3    1.06    0.11 
  -4  -9   3    1.07    0.13 
  -4  -9   3    1.27    0.11 
   3   9  -3    5.43    0.23 
   3   9  -3    5.21    0.25 
  -3  -9   3    5.40    0.25 
   2   9  -3    6.73    0.29 
   2   9  -3    6.32    0.25 
  -2  -9   3    6.58    0.28 
   1   9  -3    0.05    0.07 
   1   9  -3    0.05    0.05 
  -1  -9   3   -0.01    0.07 
   0   9  -3    0.44    0.10 
   0   9  -3    0.56    0.10 
   0  -9   3    0.67    0.12 
  -1   9  -3   -0.03    0.06 
  -1   9  -3   -0.01    0.05 
   1  -9   3   -0.11    0.07 
  -2   9  -3    0.03    0.07 
  -2   9  -3   -0.02    0.05 
  -3   9  -3    4.94    0.27 
  -3   9  -3    4.71    0.25 
   9   8  -3   -0.03    0.08 
   9   8  -3    0.07    0.09 
  -9  -8   3    0.05    0.07 
   8   8  -3    0.06    0.07 
   8   8  -3    0.00    0.07 
  -8  -8   3    0.12    0.07 
   7   8  -3    0.07    0.08 
   7   8  -3    0.09    0.07 
  -7  -8   3    0.03    0.06 
  -7  -8   3    0.08    0.06 
   6   8  -3    0.28    0.07 
   6   8  -3    0.32    0.08 
  -6  -8   3    0.34    0.09 
  -6  -8   3    0.33    0.07 
   5   8  -3   10.88    0.34 
  -5  -8   3   10.83    0.31 
  -5  -8   3   11.07    0.32 
  -5  -8   3   11.27    0.34 
   4   8  -3    8.55    0.27 
   4   8  -3    8.40    0.28 
  -4  -8   3    8.35    0.29 
  -4  -8   3    8.23    0.25 
   3   8  -3    7.40    0.24 
   3   8  -3    7.69    0.25 
  -3  -8   3    7.41    0.28 
  -3  -8   3    7.09    0.22 
  -3  -8   3    7.36    0.22 
   2   8  -3    9.16    0.27 
   2   8  -3    9.01    0.27 
   2   8  -3    9.29    0.28 
   2   8  -3    9.65    0.33 
  -2  -8   3    9.53    0.25 
  -2  -8   3    9.16    0.32 
   1   8  -3   18.50    0.46 
   1   8  -3   17.74    0.44 
   1   8  -3   18.81    0.50 
   1   8  -3   18.19    0.43 
  -1  -8   3   17.92    0.49 
  -1  -8   3   17.61    0.39 
   0   8  -3    1.37    0.12 
   0   8  -3    1.43    0.15 
   0   8  -3    1.61    0.14 
   0  -8   3    1.64    0.16 
   0  -8   3    1.40    0.09 
  -1   8  -3   11.57    0.34 
  -1   8  -3   11.58    0.38 
   1  -8   3   11.27    0.39 
  -2   8  -3    1.68    0.16 
  -2   8  -3    1.69    0.14 
  -3   8  -3    0.87    0.13 
  -3   8  -3    0.83    0.11 
  -4   8  -3    0.16    0.08 
  -4   8  -3    0.04    0.08 
   9   7  -3    0.02    0.08 
   9   7  -3    0.06    0.08 
  -9  -7   3    0.17    0.08 
   8   7  -3    0.00    0.07 
   8   7  -3    0.01    0.07 
  -8  -7   3   -0.02    0.06 
   7   7  -3    4.16    0.22 
   7   7  -3    4.19    0.22 
  -7  -7   3    4.64    0.23 
  -7  -7   3    4.51    0.21 
   6   7  -3    0.26    0.07 
   6   7  -3    0.18    0.06 
   6   7  -3    0.33    0.08 
  -6  -7   3    0.20    0.07 
  -6  -7   3    0.39    0.07 
   5   7  -3    0.60    0.09 
   5   7  -3    0.45    0.07 
  -5  -7   3    0.56    0.08 
  -5  -7   3    0.47    0.07 
  -5  -7   3    0.66    0.09 
   4   7  -3    1.15    0.11 
   4   7  -3    1.11    0.10 
  -4  -7   3    0.96    0.09 
  -4  -7   3    0.88    0.08 
  -4  -7   3    0.74    0.09 
   3   7  -3   -0.04    0.03 
   3   7  -3    0.04    0.04 
   3   7  -3   -0.03    0.03 
  -3  -7   3    0.00    0.04 
  -3  -7   3    0.05    0.03 
  -3  -7   3    0.00    0.03 
   2   7  -3    1.14    0.09 
   2   7  -3    1.11    0.09 
   2   7  -3    1.11    0.09 
  -2  -7   3    1.19    0.08 
  -2  -7   3    1.23    0.12 
   1   7  -3    3.37    0.14 
   1   7  -3    3.57    0.14 
   1   7  -3    3.21    0.18 
   1   7  -3    3.42    0.15 
  -1  -7   3    3.50    0.12 
  -1  -7   3    3.30    0.17 
   0   7  -3    0.05    0.04 
   0   7  -3   -0.03    0.03 
   0   7  -3   -0.04    0.04 
   0   7  -3    0.00    0.03 
   0  -7   3    0.01    0.02 
   0  -7   3   -0.03    0.05 
  -1   7  -3    4.15    0.16 
  -1   7  -3    4.34    0.17 
  -1   7  -3    4.36    0.21 
  -1   7  -3    4.58    0.18 
   1  -7   3    4.89    0.23 
   1  -7   3    4.21    0.14 
  -2   7  -3    0.34    0.07 
  -2   7  -3    0.34    0.08 
  -2   7  -3    0.39    0.08 
   2  -7   3    0.45    0.05 
  -3   7  -3    0.07    0.05 
  -3   7  -3   -0.06    0.06 
  -4   7  -3    0.20    0.07 
  -4   7  -3    0.15    0.08 
  -5   7  -3    0.09    0.09 
  -5   7  -3    0.10    0.07 
  -5   7  -3    0.08    0.07 
   9   6  -3    0.08    0.08 
   9   6  -3    0.05    0.09 
  -9  -6   3    0.18    0.08 
   8   6  -3    6.44    0.28 
   8   6  -3    6.12    0.27 
  -8  -6   3    6.21    0.31 
  -8  -6   3    6.01    0.26 
   7   6  -3    0.27    0.09 
   7   6  -3    0.24    0.08 
  -7  -6   3    0.27    0.07 
  -7  -6   3    0.30    0.08 
   6   6  -3    2.49    0.16 
   6   6  -3    2.36    0.15 
   6   6  -3    2.67    0.17 
  -6  -6   3    2.57    0.16 
  -6  -6   3    2.55    0.15 
   5   6  -3    0.18    0.06 
   5   6  -3    0.31    0.07 
   5   6  -3    0.40    0.07 
  -5  -6   3    0.34    0.06 
  -5  -6   3    0.31    0.06 
   4   6  -3    0.01    0.04 
   4   6  -3    0.02    0.04 
   4   6  -3   -0.02    0.03 
  -4  -6   3   -0.03    0.03 
  -4  -6   3   -0.01    0.04 
  -4  -6   3    0.00    0.03 
   3   6  -3   23.49    0.49 
   3   6  -3   23.17    0.49 
   3   6  -3   23.59    0.49 
  -3  -6   3   22.84    0.51 
  -3  -6   3   23.12    0.47 
   2   6  -3   14.90    0.35 
   2   6  -3   15.36    0.35 
   2   6  -3   15.81    0.35 
  -2  -6   3   15.25    0.38 
  -2  -6   3   15.24    0.33 
  -2  -6   3   15.25    0.32 
   1   6  -3    1.48    0.08 
   1   6  -3    1.43    0.09 
   1   6  -3    1.44    0.09 
  -1  -6   3    1.49    0.11 
  -1  -6   3    1.47    0.07 
   0   6  -3   23.67    0.48 
   0   6  -3   23.60    0.55 
   0   6  -3   22.93    0.48 
   0   6  -3   24.13    0.49 
   0  -6   3   23.37    0.45 
   0  -6   3   24.74    0.55 
  -1   6  -3    0.10    0.05 
  -1   6  -3   -0.01    0.03 
  -1   6  -3    0.01    0.02 
  -1   6  -3   -0.02    0.03 
   1  -6   3    0.02    0.02 
   1  -6   3   -0.03    0.04 
  -2   6  -3   14.02    0.34 
  -2   6  -3   14.26    0.40 
  -2   6  -3   14.53    0.36 
   2  -6   3   14.46    0.30 
  -3   6  -3    9.98    0.29 
  -3   6  -3    9.28    0.28 
  -3   6  -3   10.45    0.29 
  -3   6  -3    9.52    0.32 
  -3   6  -3   10.00    0.30 
   3  -6   3    9.73    0.23 
  -4   6  -3    8.43    0.31 
  -4   6  -3    8.26    0.27 
  -4   6  -3    8.03    0.28 
  -5   6  -3    0.42    0.09 
  -5   6  -3    0.61    0.11 
  -5   6  -3    0.51    0.09 
  -6   6  -3   -0.07    0.06 
  -6   6  -3    0.03    0.07 
  -6   6  -3    0.09    0.08 
   9   5  -3    0.62    0.11 
   9   5  -3    0.61    0.12 
  -9  -5   3    0.45    0.10 
   8   5  -3    0.07    0.07 
   8   5  -3    0.09    0.07 
  -8  -5   3    0.06    0.07 
  -8  -5   3    0.22    0.08 
   7   5  -3    0.02    0.06 
   7   5  -3    0.04    0.06 
  -7  -5   3    0.02    0.05 
  -7  -5   3    0.03    0.06 
   6   5  -3    2.81    0.16 
   6   5  -3    2.86    0.16 
   6   5  -3    2.81    0.17 
  -6  -5   3    2.51    0.16 
  -6  -5   3    2.68    0.15 
   5   5  -3   10.99    0.31 
   5   5  -3   10.96    0.31 
   5   5  -3   10.76    0.30 
  -5  -5   3   10.78    0.30 
  -5  -5   3   10.50    0.29 
   4   5  -3    5.09    0.18 
   4   5  -3    5.15    0.18 
   4   5  -3    5.19    0.19 
  -4  -5   3    5.18    0.18 
  -4  -5   3    5.19    0.17 
   3   5  -3    2.29    0.11 
   3   5  -3    2.12    0.10 
   3   5  -3    2.36    0.11 
  -3  -5   3    2.24    0.10 
  -3  -5   3    2.08    0.11 
   2   5  -3    8.25    0.21 
   2   5  -3    8.25    0.21 
   2   5  -3    7.90    0.21 
  -2  -5   3    8.62    0.20 
  -2  -5   3    8.35    0.20 
  -2  -5   3    8.25    0.23 
   1   5  -3    6.12    0.17 
   1   5  -3    6.22    0.17 
   1   5  -3    6.17    0.17 
  -1  -5   3    6.18    0.15 
  -1  -5   3    6.50    0.20 
   0   5  -3    0.13    0.03 
   0   5  -3    0.09    0.03 
   0   5  -3    0.17    0.05 
   0   5  -3    0.10    0.03 
   0  -5   3    0.09    0.04 
   0  -5   3    0.11    0.02 
   0  -5   3    0.14    0.03 
  -1   5  -3    0.03    0.04 
  -1   5  -3    0.03    0.03 
  -1   5  -3    0.04    0.03 
  -1   5  -3    0.06    0.02 
   1  -5   3    0.14    0.03 
   1  -5   3   -0.03    0.04 
   1  -5   3    0.02    0.02 
   1  -5   3    0.06    0.02 
  -2   5  -3   22.62    0.52 
  -2   5  -3   22.27    0.46 
  -2   5  -3   22.87    0.47 
  -2   5  -3   22.47    0.47 
   2  -5   3   22.91    0.42 
  -3   5  -3    6.21    0.21 
  -3   5  -3    6.06    0.23 
  -3   5  -3    6.12    0.20 
  -3   5  -3    6.29    0.20 
   3  -5   3    6.27    0.16 
  -4   5  -3    9.42    0.28 
  -4   5  -3    9.31    0.28 
  -4   5  -3    9.37    0.31 
  -4   5  -3    9.49    0.29 
  -4   5  -3    9.35    0.25 
   4  -5   3    9.45    0.23 
  -5   5  -3    0.82    0.11 
  -5   5  -3    0.90    0.12 
  -5   5  -3    0.73    0.10 
  -6   5  -3    0.10    0.07 
  -6   5  -3    0.13    0.07 
  -6   5  -3    0.12    0.07 
  -7   5  -3    1.25    0.15 
  -7   5  -3    1.26    0.15 
  -7   5  -3    1.23    0.15 
   9   4  -3    0.50    0.12 
   9   4  -3    0.30    0.10 
  -9  -4   3    0.56    0.18 
  -9  -4   3    0.39    0.11 
   8   4  -3    0.86    0.12 
   8   4  -3    1.13    0.14 
  -8  -4   3    0.92    0.12 
  -8  -4   3    1.20    0.13 
   7   4  -3    0.09    0.06 
   7   4  -3    0.01    0.07 
  -7  -4   3    0.09    0.06 
  -7  -4   3    0.00    0.06 
   6   4  -3    2.36    0.15 
   6   4  -3    2.08    0.14 
  -6  -4   3    2.08    0.15 
  -6  -4   3    2.21    0.14 
   5   4  -3    6.97    0.23 
   5   4  -3    6.98    0.24 
   5   4  -3    6.66    0.22 
  -5  -4   3    6.63    0.22 
  -5  -4   3    6.91    0.23 
   4   4  -3   14.30    0.35 
   4   4  -3   13.47    0.33 
   4   4  -3   14.02    0.34 
   4   4  -3   13.78    0.33 
  -4  -4   3   14.28    0.33 
  -4  -4   3   14.32    0.34 
   3   4  -3   37.11    0.69 
   3   4  -3   36.87    0.69 
   3   4  -3   36.14    0.69 
  -3  -4   3   36.07    0.68 
  -3  -4   3   37.35    0.67 
   2   4  -3   11.53    0.26 
   2   4  -3   11.26    0.25 
   2   4  -3   11.28    0.26 
  -2  -4   3   11.54    0.27 
  -2  -4   3   11.31    0.24 
  -2  -4   3   11.42    0.25 
   1   4  -3   30.69    0.56 
   1   4  -3   31.30    0.56 
   1   4  -3   30.59    0.56 
   1   4  -3   31.33    0.58 
  -1  -4   3   31.48    0.55 
  -1  -4   3   30.42    0.54 
  -1  -4   3   31.04    0.60 
   0   4  -3   15.02    0.33 
   0   4  -3   14.77    0.29 
   0   4  -3   14.60    0.29 
   0   4  -3   14.16    0.29 
   0  -4   3   14.75    0.27 
   0  -4   3   14.53    0.27 
   0  -4   3   14.79    0.34 
  -1   4  -3   37.69    0.69 
  -1   4  -3   38.13    0.68 
  -1   4  -3   38.39    0.75 
   1  -4   3   38.08    0.65 
   1  -4   3   38.40    0.65 
   1  -4   3   39.00    0.65 
   1  -4   3   37.77    0.75 
  -2   4  -3   15.39    0.37 
  -2   4  -3   14.82    0.32 
  -2   4  -3   14.94    0.33 
  -2   4  -3   14.92    0.32 
   2  -4   3   15.15    0.29 
   2  -4   3   15.44    0.29 
   2  -4   3   15.26    0.29 
  -3   4  -3   12.38    0.33 
  -3   4  -3   11.50    0.29 
  -3   4  -3   12.07    0.30 
  -3   4  -3   12.18    0.29 
   3  -4   3   12.02    0.25 
  -4   4  -3    1.72    0.09 
  -4   4  -3    1.79    0.11 
  -4   4  -3    1.55    0.12 
  -4   4  -3    1.59    0.11 
  -4   4  -3    1.72    0.11 
   4  -4   3    1.59    0.08 
  -5   4  -3    0.44    0.07 
  -5   4  -3    0.53    0.08 
  -5   4  -3    0.37    0.08 
  -5   4  -3    0.54    0.08 
  -5   4  -3    0.45    0.07 
   5  -4   3    0.50    0.06 
  -6   4  -3    3.06    0.18 
  -6   4  -3    3.32    0.19 
  -6   4  -3    3.29    0.19 
  -7   4  -3    3.40    0.21 
  -7   4  -3    3.26    0.20 
  -7   4  -3    3.49    0.21 
  -8   4  -3    0.32    0.10 
  -8   4  -3    0.65    0.12 
  -8   4  -3    0.50    0.12 
   9   3  -3    0.31    0.10 
  -9  -3   3    0.19    0.09 
  -9  -3   3    0.31    0.10 
   8   3  -3    4.15    0.23 
  -8  -3   3    4.29    0.23 
  -8  -3   3    3.87    0.22 
   7   3  -3    7.87    0.28 
  -7  -3   3    7.39    0.28 
  -7  -3   3    7.51    0.28 
   6   3  -3   12.38    0.35 
   6   3  -3   11.89    0.34 
  -6  -3   3   12.20    0.34 
  -6  -3   3   12.00    0.35 
   5   3  -3    0.06    0.04 
   5   3  -3    0.08    0.05 
  -5  -3   3    0.09    0.04 
  -5  -3   3    0.03    0.03 
   4   3  -3    1.53    0.10 
   4   3  -3    1.64    0.10 
   4   3  -3    1.62    0.10 
  -4  -3   3    1.46    0.09 
  -4  -3   3    1.58    0.10 
   3   3  -3    3.25    0.12 
   3   3  -3    3.06    0.12 
   3   3  -3    3.27    0.12 
  -3  -3   3    3.18    0.11 
  -3  -3   3    3.14    0.12 
   2   3  -3   11.39    0.25 
   2   3  -3   11.42    0.25 
  -2  -3   3   11.54    0.24 
  -2  -3   3   11.41    0.24 
  -2  -3   3   11.08    0.25 
   1   3  -3    4.75    0.12 
   1   3  -3    4.85    0.12 
   1   3  -3    4.66    0.12 
  -1  -3   3    4.62    0.14 
  -1  -3   3    4.90    0.11 
   0   3  -3    5.59    0.13 
   0   3  -3    5.53    0.13 
   0   3  -3    5.36    0.15 
   0   3  -3    5.51    0.13 
   0  -3   3    5.62    0.16 
  -1   3  -3    0.67    0.04 
  -1   3  -3    0.75    0.06 
  -1   3  -3    0.70    0.04 
  -1   3  -3    0.76    0.04 
  -1   3  -3    0.67    0.06 
   1  -3   3    0.70    0.06 
  -2   3  -3    2.19    0.08 
  -2   3  -3    2.30    0.08 
  -2   3  -3    2.15    0.09 
  -2   3  -3    1.99    0.13 
  -2   3  -3    2.13    0.11 
   2  -3   3    2.16    0.06 
   2  -3   3    2.15    0.06 
   2  -3   3    2.15    0.06 
  -3   3  -3    1.51    0.08 
  -3   3  -3    1.53    0.08 
  -3   3  -3    1.55    0.10 
  -3   3  -3    1.55    0.08 
   3  -3   3    1.54    0.07 
   3  -3   3    1.68    0.07 
   3  -3   3    1.66    0.06 
  -4   3  -3   15.24    0.35 
  -4   3  -3   15.22    0.37 
  -4   3  -3   14.91    0.32 
  -4   3  -3   14.97    0.35 
  -4   3  -3   15.18    0.36 
   4  -3   3   14.93    0.31 
  -5   3  -3    4.72    0.19 
  -5   3  -3    4.77    0.19 
  -5   3  -3    4.67    0.16 
  -5   3  -3    4.55    0.18 
  -5   3  -3    4.58    0.18 
   5  -3   3    4.90    0.15 
  -6   3  -3    0.47    0.08 
  -6   3  -3    0.49    0.09 
  -6   3  -3    0.58    0.09 
   6  -3   3    0.55    0.07 
  -7   3  -3    4.38    0.22 
  -7   3  -3    4.45    0.22 
  -7   3  -3    4.32    0.22 
  -8   3  -3    1.08    0.13 
  -8   3  -3    1.14    0.14 
  -8   3  -3    1.09    0.13 
   9   2  -3    5.92    0.29 
  -9  -2   3    6.36    0.30 
  -9  -2   3    5.81    0.29 
   8   2  -3    2.57    0.19 
  -8  -2   3    2.83    0.19 
  -8  -2   3    2.77    0.19 
   7   2  -3    4.69    0.22 
  -7  -2   3    4.56    0.22 
  -7  -2   3    4.68    0.22 
   6   2  -3   -0.04    0.04 
   6   2  -3   -0.01    0.05 
  -6  -2   3   -0.04    0.04 
  -6  -2   3    0.01    0.05 
   5   2  -3    0.35    0.06 
   5   2  -3    0.28    0.06 
  -5  -2   3    0.38    0.07 
  -5  -2   3    0.26    0.06 
   4   2  -3    5.89    0.19 
   4   2  -3    6.11    0.20 
   4   2  -3    5.88    0.19 
  -4  -2   3    6.22    0.19 
  -4  -2   3    6.05    0.18 
  -4  -2   3    5.98    0.19 
   3   2  -3   60.27    1.07 
   3   2  -3   61.03    1.07 
   3   2  -3   60.09    1.06 
  -3  -2   3   59.07    1.05 
  -3  -2   3   60.46    1.06 
   2   2  -3   15.75    0.32 
   2   2  -3   15.17    0.31 
   2   2  -3   15.34    0.31 
  -2  -2   3   15.67    0.30 
   1   2  -3   56.72    0.91 
   1   2  -3   55.88    0.92 
  -1  -2   3   56.44    0.93 
  -1  -2   3   46.09    0.90 
  -1  -2   3   56.15    0.90 
   0   2  -3    9.12    0.16 
   0   2  -3    8.95    0.16 
   0   2  -3    9.03    0.20 
   0  -2   3    8.70    0.20 
  -1   2  -3   40.91    0.68 
  -1   2  -3   41.34    0.74 
  -1   2  -3   41.56    0.68 
  -1   2  -3   40.51    0.68 
   1  -2   3   40.15    0.74 
  -2   2  -3   47.54    0.81 
  -2   2  -3   47.17    0.81 
  -2   2  -3   47.51    0.81 
  -2   2  -3   48.63    0.87 
  -2   2  -3   46.57    0.86 
   2  -2   3   48.10    0.78 
   2  -2   3   47.24    0.78 
  -3   2  -3  155.42    2.51 
  -3   2  -3  153.24    2.58 
  -3   2  -3  153.13    2.55 
  -3   2  -3  154.16    2.54 
  -3   2  -3  150.56    2.55 
   3  -2   3  154.09    2.51 
   3  -2   3  157.35    2.51 
   3  -2   3  152.41    2.59 
   3  -2   3  152.59    2.52 
  -4   2  -3   32.44    0.63 
  -4   2  -3   32.85    0.65 
  -4   2  -3   32.97    0.64 
  -4   2  -3   33.08    0.60 
  -4   2  -3   32.30    0.63 
   4  -2   3   32.83    0.60 
   4  -2   3   34.02    0.60 
  -5   2  -3   14.02    0.35 
  -5   2  -3   13.64    0.34 
  -5   2  -3   13.89    0.35 
  -5   2  -3   14.08    0.34 
   5  -2   3   13.68    0.31 
  -6   2  -3    0.32    0.07 
  -6   2  -3    0.41    0.07 
  -6   2  -3    0.31    0.07 
  -6   2  -3    0.47    0.07 
   6  -2   3    0.41    0.06 
  -7   2  -3   -0.05    0.05 
  -7   2  -3    0.15    0.07 
  -7   2  -3    0.04    0.06 
  -8   2  -3    2.05    0.16 
  -8   2  -3    1.91    0.17 
  -8   2  -3    1.93    0.17 
  -9   2  -3    2.50    0.21 
  -9   2  -3    2.47    0.19 
  -9   2  -3    2.63    0.21 
   9   1  -3    0.68    0.13 
  -9  -1   3    0.54    0.12 
  -9  -1   3    0.78    0.13 
   8   1  -3    0.01    0.07 
  -8  -1   3    0.15    0.08 
  -8  -1   3    0.09    0.07 
   7   1  -3    2.90    0.18 
  -7  -1   3    2.94    0.19 
  -7  -1   3    2.79    0.19 
   6   1  -3    7.01    0.25 
  -6  -1   3    6.95    0.25 
  -6  -1   3    6.91    0.25 
   5   1  -3    8.11    0.25 
   5   1  -3    8.38    0.26 
  -5  -1   3    8.23    0.26 
  -5  -1   3    8.25    0.26 
   4   1  -3    8.49    0.24 
   4   1  -3    8.34    0.25 
  -4  -1   3    8.82    0.24 
  -4  -1   3    9.06    0.24 
  -4  -1   3    8.43    0.24 
   3   1  -3    0.10    0.03 
   3   1  -3    0.03    0.03 
   3   1  -3    0.07    0.03 
  -3  -1   3    0.03    0.03 
  -3  -1   3    0.09    0.03 
  -3  -1   3    0.21    0.04 
   2   1  -3    0.47    0.04 
   2   1  -3    0.49    0.04 
   2   1  -3    0.47    0.05 
  -2  -1   3    0.41    0.04 
  -2  -1   3    0.44    0.04 
  -2  -1   3    0.47    0.04 
   1   1  -3   36.53    0.61 
   1   1  -3   35.58    0.61 
   1   1  -3   34.94    0.61 
  -1  -1   3   34.98    0.60 
  -1  -1   3   34.42    0.60 
   0   1  -3    0.17    0.01 
   0   1  -3    0.18    0.02 
   0   1  -3    0.21    0.01 
   0  -1   3    0.13    0.02 
  -1   1  -3  200.60    3.28 
  -2   1  -3   74.82    1.22 
  -2   1  -3   72.17    1.25 
  -2   1  -3   74.27    1.22 
  -2   1  -3   73.52    1.22 
  -3   1  -3    1.18    0.06 
  -3   1  -3    1.16    0.04 
  -3   1  -3    1.17    0.07 
  -3   1  -3    1.17    0.06 
  -3   1  -3    1.07    0.06 
   3  -1   3    1.18    0.05 
   3  -1   3    1.12    0.05 
   3  -1   3    1.13    0.05 
   3  -1   3    1.47    0.07 
   3  -1   3    1.13    0.05 
  -4   1  -3   13.81    0.31 
  -4   1  -3   14.16    0.31 
  -4   1  -3   14.31    0.31 
  -4   1  -3   13.83    0.31 
   4  -1   3   14.16    0.29 
   4  -1   3   14.14    0.29 
   4  -1   3   14.34    0.29 
   4  -1   3   13.58    0.32 
   4  -1   3   13.77    0.29 
  -5   1  -3    1.02    0.08 
  -5   1  -3    1.04    0.08 
  -5   1  -3    1.00    0.09 
  -5   1  -3    1.03    0.09 
   5  -1   3    0.92    0.07 
   5  -1   3    0.87    0.07 
  -6   1  -3    0.11    0.05 
  -6   1  -3    0.10    0.05 
  -6   1  -3    0.05    0.04 
  -6   1  -3    0.11    0.05 
   6  -1   3    0.15    0.04 
   6  -1   3    0.11    0.04 
  -7   1  -3    6.42    0.23 
  -7   1  -3    6.49    0.25 
  -7   1  -3    6.34    0.28 
  -7   1  -3    6.46    0.25 
   7  -1   3    6.49    0.22 
  -8   1  -3    0.27    0.08 
  -8   1  -3    0.21    0.07 
  -8   1  -3    0.21    0.08 
   8  -1   3    0.16    0.07 
  -9   1  -3    1.11    0.15 
  -9   1  -3    1.05    0.13 
  -9   1  -3    1.14    0.15 
  -9   0   3    0.17    0.10 
  -9   0   3    0.25    0.11 
   8   0  -3    2.84    0.20 
  -8   0   3    3.04    0.21 
  -8   0   3    3.21    0.22 
   7   0  -3   13.39    0.40 
   7   0  -3   12.78    0.35 
  -7   0   3   13.71    0.42 
  -7   0   3   13.71    0.41 
   6   0  -3    3.72    0.19 
   6   0  -3    3.47    0.16 
  -6   0   3    3.64    0.19 
  -6   0   3    3.58    0.19 
   5   0  -3    3.24    0.16 
   5   0  -3    3.09    0.16 
  -5   0   3    3.34    0.16 
  -5   0   3    3.36    0.16 
  -5   0   3    3.54    0.16 
   4   0  -3   39.92    0.78 
   4   0  -3   40.36    0.78 
  -4   0   3   40.77    0.78 
  -4   0   3   39.43    0.78 
  -4   0   3   40.06    0.76 
  -4   0   3   40.04    0.78 
   3   0  -3    2.03    0.10 
   3   0  -3    2.07    0.10 
   3   0  -3    2.02    0.10 
  -3   0   3    1.93    0.10 
  -3   0   3    2.08    0.10 
  -3   0   3    2.01    0.10 
  -3   0   3    2.10    0.10 
   2   0  -3    2.47    0.10 
   2   0  -3    2.74    0.10 
   2   0  -3    2.85    0.10 
   2   0  -3    2.67    0.10 
  -2   0   3    2.66    0.10 
  -2   0   3    2.68    0.10 
  -2   0   3    2.70    0.10 
   1   0  -3   58.04    0.98 
   1   0  -3   55.32    0.98 
   1   0  -3   56.59    0.98 
   1   0  -3   58.69    0.98 
  -1   0   3   57.30    0.97 
  -1   0   3   58.60    0.97 
   0   0  -3  124.26    2.09 
   0   0  -3  125.92    2.09 
   0   0   3  128.43    2.10 
   0   0   3  129.60    2.10 
   0   0   3  128.16    2.09 
  -1   0  -3   62.64    1.02 
  -1   0  -3   61.34    1.03 
  -1   0  -3   62.52    1.01 
  -1   0  -3   62.31    1.01 
  -2   0  -3   33.18    0.57 
  -2   0  -3   33.69    0.58 
  -2   0  -3   33.61    0.57 
  -2   0  -3   33.87    0.57 
  -2   0  -3   33.32    0.57 
   2   0   3   34.57    0.55 
   2   0   3   33.44    0.56 
   2   0   3   34.44    0.55 
   2   0   3   31.81    0.56 
  -3   0  -3    0.61    0.04 
  -3   0  -3    0.63    0.04 
  -3   0  -3    0.67    0.04 
  -3   0  -3    0.59    0.04 
   3   0   3    0.67    0.04 
   3   0   3    0.69    0.04 
   3   0   3    0.62    0.04 
   3   0   3    0.71    0.04 
   3   0   3    0.65    0.04 
  -4   0  -3    1.95    0.09 
  -4   0  -3    2.08    0.09 
  -4   0  -3    1.94    0.09 
  -4   0  -3    1.99    0.08 
   4   0   3    1.94    0.08 
   4   0   3    1.99    0.08 
   4   0   3    1.98    0.08 
   4   0   3    2.00    0.08 
   4   0   3    2.03    0.08 
  -5   0  -3   29.66    0.59 
  -5   0  -3   29.65    0.57 
  -5   0  -3   29.99    0.58 
  -5   0  -3   29.84    0.60 
   5   0   3   29.40    0.57 
   5   0   3   29.42    0.57 
  -6   0  -3   32.40    0.65 
  -6   0  -3   32.39    0.67 
  -6   0  -3   33.06    0.67 
  -6   0  -3   32.48    0.64 
   6   0   3   32.56    0.64 
  -7   0  -3    1.84    0.12 
  -7   0  -3    1.94    0.15 
  -7   0  -3    2.11    0.13 
  -7   0  -3    1.73    0.14 
   7   0   3    2.15    0.12 
   7   0   3    2.03    0.12 
  -8   0  -3   11.89    0.38 
  -8   0  -3   12.49    0.38 
  -8   0  -3   12.21    0.34 
   8   0   3   11.81    0.34 
  -9   0  -3    2.58    0.20 
  -9   0  -3    2.42    0.17 
  -9   0  -3    2.64    0.20 
   8  -1  -3    0.98    0.14 
  -8   1   3    0.85    0.13 
  -8   1   3    1.25    0.17 
  -8   1   3    1.14    0.15 
   7  -1  -3    0.52    0.08 
   7  -1  -3    0.42    0.09 
  -7   1   3    0.56    0.11 
  -7   1   3    0.47    0.10 
  -7   1   3    0.40    0.10 
   6  -1  -3    1.37    0.13 
   6  -1  -3    1.44    0.11 
  -6   1   3    1.35    0.13 
  -6   1   3    1.38    0.14 
  -6   1   3    1.09    0.12 
   5  -1  -3    2.41    0.12 
   5  -1  -3    2.48    0.15 
  -5   1   3    2.33    0.15 
  -5   1   3    2.61    0.15 
  -5   1   3    2.38    0.15 
   4  -1  -3    0.21    0.05 
   4  -1  -3    0.15    0.04 
   4  -1  -3    0.23    0.06 
  -4   1   3    0.14    0.05 
  -4   1   3    0.19    0.05 
  -4   1   3    0.19    0.05 
  -4   1   3    0.27    0.06 
   3  -1  -3    6.21    0.19 
   3  -1  -3    6.42    0.20 
   3  -1  -3    6.69    0.20 
  -3   1   3    6.43    0.20 
  -3   1   3    5.85    0.18 
  -3   1   3    6.37    0.20 
  -3   1   3    6.18    0.19 
   2  -1  -3  104.73    1.77 
   2  -1  -3  104.91    1.77 
   2  -1  -3  103.69    1.77 
   2  -1  -3  103.46    1.77 
  -2   1   3  105.62    1.77 
  -2   1   3  104.13    1.77 
  -2   1   3  106.24    1.77 
  -2   1   3  102.01    1.77 
   1  -1  -3    0.37    0.04 
   1  -1  -3    0.28    0.03 
  -1   1   3    0.35    0.04 
  -1   1   3    0.34    0.04 
  -1   1   3    0.45    0.04 
  -1   1   3    0.42    0.04 
   0  -1  -3   12.39    0.23 
   0  -1  -3   12.18    0.24 
   0  -1  -3   12.02    0.24 
   0  -1  -3   12.01    0.24 
   0   1   3   12.19    0.24 
   0   1   3   12.15    0.24 
   0   1   3   12.09    0.24 
   0   1   3   11.85    0.24 
  -1  -1  -3   45.51    0.74 
  -1  -1  -3   43.44    0.76 
  -1  -1  -3   45.05    0.75 
  -1  -1  -3   44.30    0.76 
  -1  -1  -3   44.68    0.76 
   1   1   3   44.87    0.75 
   1   1   3   44.68    0.75 
   1   1   3   44.67    0.75 
  -2  -1  -3  100.23    1.63 
  -2  -1  -3   98.71    1.63 
  -2  -1  -3   96.36    1.61 
  -2  -1  -3   97.10    1.63 
   2   1   3   97.13    1.62 
   2   1   3  100.15    1.62 
   2   1   3   99.66    1.62 
   2   1   3   99.57    1.62 
  -3  -1  -3    8.56    0.19 
  -3  -1  -3    8.43    0.19 
  -3  -1  -3    8.44    0.19 
  -3  -1  -3    8.49    0.17 
  -3  -1  -3    8.40    0.19 
   3   1   3    8.57    0.18 
   3   1   3    8.68    0.15 
   3   1   3    8.58    0.19 
   3   1   3    8.66    0.18 
   3   1   3    8.74    0.18 
   3   1   3    8.48    0.17 
  -4  -1  -3    7.45    0.19 
  -4  -1  -3    7.05    0.19 
  -4  -1  -3    7.24    0.16 
  -4  -1  -3    7.05    0.19 
   4   1   3    7.31    0.18 
   4   1   3    7.41    0.15 
   4   1   3    7.17    0.18 
   4   1   3    7.28    0.18 
   4   1   3    7.35    0.17 
  -5  -1  -3    1.03    0.08 
  -5  -1  -3    1.13    0.06 
  -5  -1  -3    1.00    0.08 
  -5  -1  -3    1.02    0.07 
   5   1   3    1.04    0.07 
   5   1   3    1.06    0.07 
   5   1   3    1.05    0.07 
   5   1   3    1.07    0.06 
   5   1   3    1.04    0.05 
  -6  -1  -3   12.16    0.32 
  -6  -1  -3   12.35    0.33 
  -6  -1  -3   12.03    0.28 
  -6  -1  -3   12.49    0.31 
   6   1   3   11.89    0.30 
   6   1   3   12.26    0.30 
   6   1   3   12.33    0.26 
  -7  -1  -3    5.51    0.22 
  -7  -1  -3    5.43    0.19 
  -7  -1  -3    5.28    0.22 
  -7  -1  -3    5.44    0.21 
   7   1   3    5.35    0.19 
   7   1   3    5.32    0.20 
   7   1   3    5.42    0.15 
  -8  -1  -3    6.63    0.27 
  -8  -1  -3    7.02    0.23 
  -8  -1  -3    6.64    0.28 
   8   1   3    6.90    0.24 
   8   1   3    6.58    0.24 
   8   1   3    6.72    0.18 
  -9  -1  -3    6.07    0.24 
  -9  -1  -3    6.10    0.28 
  -9  -1  -3    5.90    0.28 
   9   1   3    5.73    0.17 
   9   1   3    5.68    0.24 
 -10  -1  -3    0.85    0.13 
 -10  -1  -3    1.39    0.17 
  -8   2   3    9.04    0.37 
  -8   2   3    9.47    0.38 
  -8   2   3    9.29    0.39 
   7  -2  -3    1.25    0.14 
   7  -2  -3    1.44    0.15 
  -7   2   3    1.55    0.16 
  -7   2   3    1.23    0.14 
  -7   2   3    1.62    0.17 
   6  -2  -3    7.36    0.28 
   6  -2  -3    7.62    0.25 
  -6   2   3    8.16    0.30 
  -6   2   3    7.39    0.29 
  -6   2   3    7.80    0.30 
   5  -2  -3   28.47    0.58 
   5  -2  -3   27.76    0.62 
  -5   2   3   28.10    0.63 
  -5   2   3   27.12    0.62 
  -5   2   3   28.19    0.64 
   4  -2  -3    8.94    0.24 
   4  -2  -3    9.05    0.27 
   4  -2  -3    9.20    0.28 
  -4   2   3    9.07    0.27 
  -4   2   3    9.15    0.28 
  -4   2   3    8.96    0.27 
  -4   2   3    8.60    0.27 
   3  -2  -3    8.48    0.25 
   3  -2  -3    8.74    0.25 
   3  -2  -3    8.77    0.23 
  -3   2   3    8.61    0.25 
  -3   2   3    8.88    0.25 
  -3   2   3    9.26    0.25 
  -3   2   3    8.43    0.24 
   2  -2  -3   80.22    1.40 
   2  -2  -3   78.84    1.40 
   2  -2  -3   79.10    1.40 
  -2   2   3   81.44    1.40 
  -2   2   3   80.41    1.41 
  -2   2   3   81.29    1.39 
  -2   2   3   80.27    1.39 
   1  -2  -3   14.60    0.32 
   1  -2  -3   15.28    0.32 
   1  -2  -3   14.76    0.32 
   1  -2  -3   15.20    0.31 
   1  -2  -3   15.56    0.33 
  -1   2   3   15.63    0.33 
  -1   2   3   15.24    0.32 
  -1   2   3   15.16    0.32 
  -1   2   3   15.26    0.30 
   0  -2  -3    3.91    0.09 
   0  -2  -3    3.71    0.12 
   0  -2  -3    3.91    0.11 
   0  -2  -3    3.87    0.10 
   0  -2  -3    3.76    0.11 
   0   2   3    3.79    0.11 
   0   2   3    3.71    0.10 
   0   2   3    3.79    0.11 
   0   2   3    3.86    0.09 
   0   2   3    3.66    0.12 
  -1  -2  -3   41.38    0.73 
  -1  -2  -3   42.18    0.73 
  -1  -2  -3   41.13    0.73 
  -1  -2  -3   41.70    0.70 
  -1  -2  -3   42.26    0.70 
   1   2   3   41.17    0.70 
   1   2   3   42.79    0.73 
   1   2   3   42.74    0.73 
   1   2   3   41.64    0.71 
   1   2   3   41.32    0.72 
  -2  -2  -3  231.31    3.99 
  -2  -2  -3  244.90    4.10 
  -2  -2  -3  245.68    4.10 
   2   2   3  259.45    3.97 
   2   2   3  233.38    4.08 
   2   2   3  247.05    4.09 
  -3  -2  -3   22.85    0.44 
  -3  -2  -3   22.66    0.44 
  -3  -2  -3   23.44    0.44 
   3   2   3   23.61    0.43 
   3   2   3   22.69    0.44 
   3   2   3   23.49    0.44 
   3   2   3   23.57    0.43 
  -4  -2  -3    4.64    0.15 
  -4  -2  -3    4.74    0.15 
  -4  -2  -3    4.52    0.14 
   4   2   3    4.77    0.14 
   4   2   3    4.56    0.11 
   4   2   3    4.75    0.14 
   4   2   3    4.90    0.14 
   4   2   3    4.54    0.14 
  -5  -2  -3    0.51    0.04 
  -5  -2  -3    0.55    0.06 
  -5  -2  -3    0.52    0.06 
   5   2   3    0.52    0.06 
   5   2   3    0.47    0.05 
   5   2   3    0.43    0.04 
   5   2   3    0.42    0.05 
  -6  -2  -3    2.12    0.12 
  -6  -2  -3    2.01    0.12 
  -6  -2  -3    2.08    0.09 
  -6  -2  -3    2.00    0.13 
   6   2   3    2.05    0.11 
   6   2   3    2.09    0.09 
   6   2   3    2.21    0.11 
  -7  -2  -3    2.07    0.14 
  -7  -2  -3    2.20    0.11 
  -7  -2  -3    1.87    0.14 
  -7  -2  -3    2.20    0.13 
   7   2   3    2.28    0.13 
   7   2   3    2.32    0.10 
   7   2   3    2.15    0.13 
  -8  -2  -3    1.91    0.16 
  -8  -2  -3    2.07    0.15 
  -8  -2  -3    1.85    0.16 
   8   2   3    1.96    0.10 
   8   2   3    2.03    0.14 
   8   2   3    1.92    0.13 
  -9  -2  -3    1.39    0.16 
  -9  -2  -3    0.71    0.11 
   9   2   3    1.38    0.13 
   9   2   3    1.20    0.09 
 -10  -2  -3    4.63    0.27 
 -10  -2  -3    4.67    0.26 
  10   2   3    4.36    0.15 
  -7   3   3    3.03    0.23 
  -7   3   3    2.56    0.21 
  -7   3   3    2.92    0.23 
   6  -3  -3    2.90    0.15 
   6  -3  -3    3.12    0.19 
  -6   3   3    2.86    0.19 
  -6   3   3    3.47    0.20 
  -6   3   3    3.00    0.20 
   5  -3  -3    1.76    0.12 
   5  -3  -3    1.89    0.15 
  -5   3   3    1.86    0.15 
  -5   3   3    1.60    0.16 
  -5   3   3    1.79    0.15 
   4  -3  -3   29.69    0.60 
   4  -3  -3   29.67    0.64 
  -4   3   3   30.05    0.65 
  -4   3   3   29.90    0.66 
  -4   3   3   29.68    0.64 
   3  -3  -3   11.58    0.28 
   3  -3  -3   11.24    0.31 
   3  -3  -3   11.09    0.30 
  -3   3   3   11.05    0.30 
  -3   3   3   10.65    0.30 
  -3   3   3   11.65    0.32 
  -3   3   3   11.40    0.31 
   2  -3  -3    0.02    0.03 
   2  -3  -3    0.07    0.03 
   2  -3  -3    0.01    0.03 
  -2   3   3   -0.04    0.03 
  -2   3   3    0.03    0.03 
  -2   3   3   -0.01    0.03 
  -2   3   3    0.12    0.04 
  -2   3   3   -0.04    0.03 
   1  -3  -3    3.66    0.13 
   1  -3  -3    3.82    0.14 
   1  -3  -3    3.99    0.14 
  -1   3   3    3.95    0.12 
  -1   3   3    3.85    0.12 
  -1   3   3    3.85    0.14 
  -1   3   3    3.73    0.13 
  -1   3   3    3.71    0.14 
   0  -3  -3   46.38    0.83 
   0  -3  -3   46.46    0.84 
   0  -3  -3   45.95    0.82 
   0  -3  -3   46.97    0.81 
   0  -3  -3   46.35    0.84 
   0   3   3   46.64    0.83 
   0   3   3   46.09    0.80 
   0   3   3   46.13    0.83 
   0   3   3   47.46    0.81 
   0   3   3   46.48    0.84 
   0   3   3   46.28    0.82 
  -1  -3  -3   17.33    0.32 
  -1  -3  -3   17.04    0.32 
  -1  -3  -3   16.86    0.35 
  -1  -3  -3   16.97    0.35 
   1   3   3   17.33    0.35 
   1   3   3   16.21    0.34 
   1   3   3   17.04    0.33 
   1   3   3   16.88    0.32 
   1   3   3   16.50    0.34 
  -2  -3  -3    1.19    0.07 
  -2  -3  -3    1.33    0.07 
   2   3   3    1.27    0.07 
   2   3   3    1.25    0.06 
   2   3   3    1.19    0.04 
  -3  -3  -3    7.07    0.18 
  -3  -3  -3    7.07    0.19 
  -3  -3  -3    7.01    0.18 
   3   3   3    7.11    0.18 
   3   3   3    7.33    0.18 
   3   3   3    7.12    0.18 
  -4  -3  -3   13.54    0.31 
  -4  -3  -3   13.37    0.31 
  -4  -3  -3   13.47    0.31 
   4   3   3   13.54    0.30 
   4   3   3   13.60    0.24 
   4   3   3   13.50    0.31 
   4   3   3   13.64    0.30 
   4   3   3   13.39    0.30 
  -5  -3  -3    3.16    0.14 
  -5  -3  -3    3.02    0.14 
  -5  -3  -3    3.11    0.13 
   5   3   3    3.01    0.12 
   5   3   3    2.95    0.09 
   5   3   3    3.09    0.13 
   5   3   3    3.09    0.13 
  -6  -3  -3    1.08    0.10 
  -6  -3  -3    0.66    0.07 
   6   3   3    0.91    0.08 
   6   3   3    0.92    0.06 
   6   3   3    1.03    0.09 
  -7  -3  -3    1.51    0.13 
  -7  -3  -3    1.58    0.12 
   7   3   3    1.62    0.12 
   7   3   3    1.79    0.12 
   7   3   3    1.80    0.09 
  -8  -3  -3    0.46    0.09 
  -8  -3  -3    0.41    0.09 
   8   3   3    0.50    0.08 
   8   3   3    0.38    0.07 
  -9  -3  -3    3.98    0.22 
  -9  -3  -3    3.83    0.23 
   9   3   3    4.01    0.20 
   9   3   3    3.96    0.15 
 -10  -3  -3    0.30    0.10 
 -10  -3  -3    0.16    0.10 
  10   3   3    0.29    0.06 
  10   3   3    0.30    0.09 
  -7   4   3    3.30    0.24 
  -7   4   3    2.98    0.23 
  -7   4   3    2.99    0.23 
   6  -4  -3    9.62    0.34 
  -6   4   3    9.94    0.36 
  -6   4   3    9.30    0.35 
  -6   4   3    9.92    0.37 
   5  -4  -3    1.25    0.13 
  -5   4   3    1.53    0.14 
  -5   4   3    1.23    0.14 
  -5   4   3    1.47    0.14 
   4  -4  -3   11.21    0.34 
  -4   4   3   10.78    0.35 
  -4   4   3   11.27    0.34 
  -4   4   3   10.91    0.34 
   3  -4  -3   16.94    0.42 
  -3   4   3   16.49    0.41 
  -3   4   3   16.55    0.42 
  -3   4   3   17.11    0.43 
  -3   4   3   16.59    0.43 
   2  -4  -3   43.03    0.84 
   2  -4  -3   44.80    0.84 
  -2   4   3   43.60    0.84 
  -2   4   3   43.30    0.86 
  -2   4   3   43.55    0.86 
  -2   4   3   44.19    0.84 
  -2   4   3   43.97    0.82 
   1  -4  -3    8.84    0.24 
   1  -4  -3    8.71    0.24 
  -1   4   3    8.64    0.22 
  -1   4   3    8.22    0.22 
  -1   4   3    8.84    0.25 
  -1   4   3    8.70    0.23 
  -1   4   3    8.63    0.24 
   0  -4  -3   73.50    1.31 
   0  -4  -3   75.37    1.32 
   0  -4  -3   73.99    1.29 
   0  -4  -3   76.50    1.31 
   0  -4  -3   75.48    1.30 
   0   4   3   74.71    1.28 
   0   4   3   75.48    1.29 
   0   4   3   74.56    1.32 
   0   4   3   74.62    1.31 
   0   4   3   75.27    1.30 
   0   4   3   74.94    1.31 
  -1  -4  -3   15.43    0.32 
  -1  -4  -3   15.53    0.32 
  -1  -4  -3   15.72    0.34 
  -1  -4  -3   15.60    0.34 
   1   4   3   15.63    0.34 
   1   4   3   15.56    0.35 
   1   4   3   15.62    0.34 
   1   4   3   16.28    0.32 
  -2  -4  -3    0.05    0.02 
  -2  -4  -3    0.03    0.02 
  -2  -4  -3    0.02    0.02 
  -2  -4  -3    0.02    0.02 
   2   4   3    0.01    0.02 
   2   4   3    0.07    0.03 
   2   4   3   -0.02    0.02 
   2   4   3   -0.01    0.02 
  -3  -4  -3   38.48    0.72 
  -3  -4  -3   38.48    0.72 
  -3  -4  -3   39.21    0.72 
   3   4   3   38.62    0.72 
   3   4   3   38.56    0.66 
   3   4   3   38.87    0.72 
   3   4   3   38.72    0.72 
  -4  -4  -3   91.83    1.63 
  -4  -4  -3   95.23    1.63 
  -4  -4  -3   95.88    1.63 
   4   4   3   96.46    1.63 
   4   4   3   92.53    1.62 
  -5  -4  -3   44.38    0.84 
  -5  -4  -3   44.21    0.84 
  -5  -4  -3   43.51    0.83 
   5   4   3   44.02    0.83 
   5   4   3   42.96    0.74 
   5   4   3   43.14    0.82 
   5   4   3   44.69    0.82 
  -6  -4  -3    7.20    0.23 
  -6  -4  -3    7.10    0.24 
   6   4   3    7.24    0.17 
   6   4   3    7.30    0.23 
   6   4   3    7.30    0.23 
  -7  -4  -3    2.26    0.15 
  -7  -4  -3    2.22    0.15 
   7   4   3    2.21    0.09 
   7   4   3    2.21    0.14 
   7   4   3    2.20    0.14 
  -8  -4  -3    1.72    0.15 
  -8  -4  -3    1.88    0.16 
   8   4   3    1.92    0.14 
   8   4   3    1.98    0.14 
  -9  -4  -3    0.73    0.12 
  -9  -4  -3    0.63    0.11 
   9   4   3    0.69    0.10 
 -10  -4  -3    0.89    0.14 
 -10  -4  -3    0.74    0.12 
  10   4   3    0.86    0.12 
  10   4   3    0.98    0.10 
  -6   5   3    0.73    0.13 
  -6   5   3    0.65    0.12 
  -6   5   3    0.46    0.11 
   5  -5  -3    3.30    0.20 
  -5   5   3    3.31    0.21 
  -5   5   3    3.28    0.21 
  -5   5   3    3.76    0.23 
   4  -5  -3   12.38    0.37 
  -4   5   3   12.01    0.39 
  -4   5   3   12.74    0.37 
  -4   5   3   12.23    0.38 
   3  -5  -3    9.64    0.31 
  -3   5   3    9.64    0.33 
  -3   5   3   10.23    0.32 
   2  -5  -3   94.33    1.68 
  -2   5   3   94.32    1.70 
  -2   5   3   94.18    1.65 
  -2   5   3   94.44    1.68 
  -2   5   3   94.31    1.68 
   1  -5  -3   48.16    0.90 
   1  -5  -3   47.83    0.90 
  -1   5   3   46.93    0.89 
  -1   5   3   45.48    0.87 
  -1   5   3   47.39    0.92 
  -1   5   3   47.03    0.90 
   0  -5  -3   20.78    0.44 
   0  -5  -3   19.50    0.43 
   0  -5  -3   19.60    0.44 
   0   5   3   19.91    0.44 
   0   5   3   19.91    0.41 
   0   5   3   20.08    0.43 
   0   5   3   19.18    0.40 
   0   5   3   20.07    0.45 
  -1  -5  -3    3.39    0.13 
  -1  -5  -3    3.33    0.12 
  -1  -5  -3    3.22    0.14 
   1   5   3    3.20    0.12 
   1   5   3    3.35    0.14 
   1   5   3    3.29    0.13 
   1   5   3    3.11    0.11 
  -2  -5  -3    7.62    0.20 
  -2  -5  -3    7.75    0.22 
  -2  -5  -3    7.64    0.22 
  -2  -5  -3    7.86    0.22 
   2   5   3    7.59    0.22 
   2   5   3    7.37    0.21 
   2   5   3    7.73    0.19 
  -3  -5  -3    0.87    0.06 
  -3  -5  -3    0.83    0.08 
  -3  -5  -3    0.91    0.07 
  -3  -5  -3    0.98    0.08 
   3   5   3    0.76    0.05 
   3   5   3    0.89    0.08 
   3   5   3    0.81    0.07 
  -4  -5  -3    0.02    0.04 
  -4  -5  -3    0.09    0.04 
   4   5   3    0.04    0.03 
   4   5   3    0.06    0.02 
   4   5   3    0.09    0.04 
  -5  -5  -3    0.07    0.04 
  -5  -5  -3    0.01    0.03 
   5   5   3    0.03    0.04 
  -6  -5  -3    2.78    0.15 
  -6  -5  -3    2.89    0.15 
   6   5   3    2.96    0.15 
   6   5   3    2.73    0.14 
   6   5   3    2.86    0.09 
  -7  -5  -3    8.25    0.28 
  -7  -5  -3    8.22    0.28 
   7   5   3    7.92    0.20 
   7   5   3    8.43    0.27 
   7   5   3    7.85    0.26 
  -8  -5  -3    0.16    0.07 
  -8  -5  -3    0.01    0.06 
   8   5   3    0.12    0.06 
   8   5   3    0.07    0.05 
  -9  -5  -3    0.07    0.07 
  -9  -5  -3    0.08    0.07 
   9   5   3    0.06    0.06 
   9   5   3    0.03    0.06 
 -10  -5  -3    1.43    0.17 
 -10  -5  -3    1.44    0.16 
  10   5   3    1.48    0.15 
  -5   6   3    3.10    0.23 
  -5   6   3    3.41    0.22 
   4  -6  -3    1.63    0.15 
  -4   6   3    1.40    0.16 
  -4   6   3    1.38    0.15 
   3  -6  -3    0.04    0.06 
  -3   6   3    0.03    0.07 
  -3   6   3   -0.08    0.07 
   2  -6  -3    5.98    0.23 
  -2   6   3    6.30    0.25 
  -2   6   3    5.99    0.21 
  -2   6   3    5.84    0.24 
   1  -6  -3    7.66    0.26 
  -1   6   3    7.80    0.23 
  -1   6   3    8.23    0.28 
  -1   6   3    7.95    0.26 
  -1   6   3    8.01    0.27 
   0  -6  -3    0.68    0.08 
   0  -6  -3    0.83    0.09 
   0   6   3    0.72    0.09 
   0   6   3    0.73    0.08 
   0   6   3    0.80    0.09 
   0   6   3    0.89    0.09 
  -1  -6  -3    0.18    0.04 
  -1  -6  -3    0.17    0.05 
   1   6   3    0.31    0.06 
   1   6   3    0.20    0.05 
   1   6   3    0.18    0.04 
  -2  -6  -3   16.76    0.38 
  -2  -6  -3   16.27    0.39 
  -2  -6  -3   16.82    0.39 
   2   6   3   16.79    0.40 
   2   6   3   16.02    0.36 
   2   6   3   16.49    0.39 
  -3  -6  -3   42.40    0.82 
  -3  -6  -3   42.62    0.79 
  -3  -6  -3   42.95    0.82 
   3   6   3   42.07    0.82 
   3   6   3   42.62    0.77 
   3   6   3   42.10    0.81 
  -4  -6  -3   12.55    0.32 
  -4  -6  -3   12.84    0.33 
   4   6   3   12.53    0.33 
   4   6   3   12.63    0.33 
   4   6   3   12.48    0.27 
  -5  -6  -3    3.63    0.16 
  -5  -6  -3    3.79    0.17 
   5   6   3    3.69    0.16 
   5   6   3    3.58    0.12 
  -6  -6  -3    3.66    0.18 
  -6  -6  -3    4.13    0.19 
   6   6   3    4.10    0.18 
   6   6   3    3.86    0.12 
  -7  -6  -3   14.26    0.41 
  -7  -6  -3   14.41    0.40 
   7   6   3   14.34    0.31 
   7   6   3   14.43    0.39 
   7   6   3   14.17    0.39 
  -8  -6  -3    0.47    0.09 
  -8  -6  -3    0.41    0.09 
   8   6   3    0.57    0.10 
   8   6   3    0.62    0.10 
  -9  -6  -3    0.96    0.13 
  -9  -6  -3    1.07    0.14 
   9   6   3    0.85    0.11 
   9   6   3    0.89    0.12 
 -10  -6  -3    1.06    0.15 
 -10  -6  -3    0.83    0.14 
  10   6   3    0.93    0.13 
  -5   7   3    1.05    0.16 
  -5   7   3    1.06    0.15 
  -4   7   3    1.99    0.19 
  -4   7   3    1.72    0.17 
   3  -7  -3    0.52    0.10 
  -3   7   3    0.36    0.09 
  -3   7   3    0.19    0.09 
   2  -7  -3    7.55    0.27 
  -2   7   3    7.65    0.30 
  -2   7   3    7.71    0.28 
   1  -7  -3   -0.02    0.05 
  -1   7   3    0.05    0.06 
  -1   7   3    0.06    0.04 
  -1   7   3   -0.04    0.05 
   0  -7  -3   19.18    0.47 
   0  -7  -3   18.99    0.47 
   0   7   3   19.52    0.49 
   0   7   3   19.38    0.46 
   0   7   3   18.92    0.44 
  -1  -7  -3   61.78    1.17 
  -1  -7  -3   62.56    1.17 
   1   7   3   62.08    1.15 
   1   7   3   64.25    1.25 
   1   7   3   62.05    1.19 
  -2  -7  -3    2.16    0.13 
  -2  -7  -3    2.22    0.13 
  -2  -7  -3    2.12    0.13 
   2   7   3    2.10    0.11 
   2   7   3    1.92    0.13 
   2   7   3    1.91    0.13 
  -3  -7  -3    4.94    0.19 
  -3  -7  -3    5.28    0.19 
  -3  -7  -3    5.04    0.20 
   3   7   3    5.12    0.17 
   3   7   3    4.97    0.20 
  -4  -7  -3    1.00    0.09 
  -4  -7  -3    0.84    0.09 
  -4  -7  -3    1.00    0.10 
   4   7   3    1.14    0.08 
   4   7   3    1.18    0.11 
  -5  -7  -3   12.68    0.35 
  -5  -7  -3   12.29    0.35 
   5   7   3   12.27    0.35 
   5   7   3   12.38    0.29 
  -6  -7  -3    1.19    0.12 
  -6  -7  -3    1.09    0.11 
   6   7   3    1.25    0.12 
  -7  -7  -3    3.00    0.18 
  -7  -7  -3    2.80    0.18 
   7   7   3    2.68    0.17 
   7   7   3    2.82    0.17 
  -8  -7  -3    0.69    0.11 
  -8  -7  -3    0.74    0.12 
   8   7   3    0.87    0.12 
   8   7   3    0.83    0.11 
  -9  -7  -3    2.58    0.20 
  -9  -7  -3    3.10    0.20 
   9   7   3    3.03    0.20 
   9   7   3    2.72    0.19 
 -10  -7  -3    0.27    0.10 
 -10  -7  -3    0.31    0.10 
  10   7   3    0.40    0.11 
  -4   8   3    0.32    0.11 
  -4   8   3    0.29    0.10 
  -3   8   3    1.79    0.19 
  -3   8   3    1.74    0.17 
   2  -8  -3    3.59    0.20 
  -2   8   3    3.82    0.21 
  -2   8   3    3.64    0.23 
   1  -8  -3    2.12    0.15 
  -1   8   3    2.38    0.18 
  -1   8   3    2.19    0.16 
   0  -8  -3    4.40    0.21 
   0  -8  -3    5.26    0.22 
   0   8   3    5.05    0.23 
   0   8   3    4.45    0.21 
   0   8   3    5.05    0.23 
  -1  -8  -3    1.70    0.14 
  -1  -8  -3    1.76    0.13 
   1   8   3    1.78    0.13 
   1   8   3    1.68    0.15 
  -2  -8  -3    1.77    0.14 
  -2  -8  -3    1.59    0.13 
   2   8   3    1.63    0.12 
   2   8   3    1.59    0.14 
  -3  -8  -3    6.97    0.25 
  -3  -8  -3    6.73    0.25 
  -3  -8  -3    6.39    0.24 
   3   8   3    7.07    0.26 
   3   8   3    6.68    0.21 
  -4  -8  -3    0.39    0.08 
  -4  -8  -3    0.51    0.09 
  -4  -8  -3    0.37    0.08 
   4   8   3    0.52    0.06 
   4   8   3    0.79    0.11 
  -5  -8  -3   39.56    0.79 
  -5  -8  -3   38.10    0.81 
  -5  -8  -3   39.10    0.81 
   5   8   3   39.59    0.82 
   5   8   3   38.31    0.74 
  -6  -8  -3   17.62    0.47 
  -6  -8  -3   18.02    0.46 
   6   8   3   17.67    0.47 
   6   8   3   17.43    0.39 
  -7  -8  -3    0.22    0.07 
  -7  -8  -3    0.23    0.08 
   7   8   3    0.31    0.09 
  -8  -8  -3    0.79    0.12 
  -8  -8  -3    0.65    0.11 
   8   8   3    0.76    0.10 
   8   8   3    0.73    0.11 
  -9  -8  -3    1.52    0.16 
  -9  -8  -3    1.48    0.17 
   9   8   3    2.05    0.21 
   9   8   3    1.58    0.16 
 -10  -8  -3    0.27    0.10 
 -10  -8  -3    0.29    0.11 
  10   8   3    0.32    0.10 
  -3   9   3    0.52    0.13 
  -2   9   3    4.10    0.26 
  -2   9   3    4.50    0.25 
  -1   9   3    5.29    0.27 
  -1   9   3    5.00    0.24 
   0  -9  -3    0.82    0.11 
   0  -9  -3    0.82    0.10 
   0   9   3    1.00    0.13 
   0   9   3    0.81    0.11 
  -1  -9  -3    0.04    0.05 
  -1  -9  -3    0.06    0.06 
   1   9   3   -0.04    0.05 
   1   9   3   -0.05    0.05 
  -2  -9  -3    2.13    0.15 
  -2  -9  -3    2.07    0.15 
   2   9   3    1.94    0.16 
   2   9   3    2.03    0.14 
  -3  -9  -3   14.26    0.40 
  -3  -9  -3   14.66    0.41 
  -3  -9  -3   14.27    0.40 
   3   9   3   14.02    0.37 
   3   9   3   13.84    0.41 
  -4  -9  -3    0.04    0.06 
  -4  -9  -3    0.03    0.06 
  -4  -9  -3    0.08    0.06 
   4   9   3    0.04    0.06 
   4   9   3    0.04    0.04 
  -5  -9  -3    3.25    0.19 
  -5  -9  -3    3.10    0.18 
  -5  -9  -3    2.92    0.17 
   5   9   3    2.90    0.14 
   5   9   3    3.02    0.18 
  -6  -9  -3    1.15    0.12 
  -6  -9  -3    1.15    0.12 
  -6  -9  -3    0.94    0.11 
   6   9   3    1.60    0.16 
   6   9   3    1.34    0.10 
  -7  -9  -3    1.12    0.13 
  -7  -9  -3    1.33    0.15 
  -7  -9  -3    1.57    0.14 
   7   9   3    1.24    0.10 
   7   9   3    1.53    0.16 
  -8  -9  -3    0.23    0.09 
  -8  -9  -3    0.18    0.08 
   8   9   3    0.19    0.09 
   8   9   3    0.22    0.09 
  -9  -9  -3    0.01    0.08 
  -9  -9  -3   -0.02    0.08 
   9   9   3   -0.03    0.07 
  -1  10   3   -0.02    0.08 
  -1  10   3   -0.03    0.07 
   0  10   3    3.68    0.24 
   0  10   3    3.75    0.22 
  -1 -10  -3    0.21    0.08 
   1  10   3    0.21    0.09 
   1  10   3    0.24    0.08 
  -2 -10  -3    0.36    0.09 
  -2 -10  -3    0.33    0.08 
   2  10   3    0.34    0.08 
   2  10   3    0.43    0.10 
  -3 -10  -3    0.09    0.07 
  -3 -10  -3   -0.02    0.06 
   3  10   3    0.05    0.07 
   3  10   3    0.06    0.05 
  -4 -10  -3    0.79    0.12 
  -4 -10  -3    0.68    0.11 
  -4 -10  -3    0.74    0.11 
   4  10   3    0.71    0.09 
   4  10   3    0.40    0.09 
  -5 -10  -3    0.22    0.08 
  -5 -10  -3    0.27    0.08 
  -5 -10  -3    0.26    0.07 
   5  10   3    0.41    0.07 
   5  10   3    0.23    0.09 
  -6 -10  -3    1.14    0.14 
  -6 -10  -3    0.91    0.12 
  -6 -10  -3    1.04    0.13 
   6  10   3    0.87    0.12 
   6  10   3    1.05    0.10 
  -7 -10  -3    2.33    0.18 
  -7 -10  -3    2.29    0.18 
  -7 -10  -3    2.46    0.19 
   7  10   3    2.36    0.19 
  -8 -10  -3   11.24    0.40 
  -8 -10  -3   11.11    0.38 
  -8 -10  -3   11.10    0.41 
   8  10   3   11.55    0.40 
  -1 -11  -3    4.33    0.25 
   1  11   3    4.28    0.23 
   1  11   3    4.72    0.27 
  -2 -11  -3    1.71    0.18 
   2  11   3    1.69    0.19 
   2  11   3    1.72    0.15 
  -3 -11  -3    0.54    0.11 
   3  11   3    0.50    0.11 
   3  11   3    0.75    0.10 
  -4 -11  -3    0.37    0.10 
   4  11   3    0.45    0.11 
   4  11   3    0.51    0.09 
  -5 -11  -3    3.33    0.22 
  -5 -11  -3    3.74    0.22 
   5  11   3    3.21    0.17 
   5  11   3    3.30    0.23 
  -6 -11  -3    2.19    0.19 
  -6 -11  -3    2.17    0.19 
   6  11   3    2.30    0.19 
   6  11   3    1.92    0.13 
  -7 -11  -3    0.19    0.09 
  -7 -11  -3    0.01    0.08 
   7  11   3   -0.03    0.06 
   5  11  -4    0.02    0.07 
  -5 -11   4   -0.08    0.08 
   4  11  -4    0.05    0.08 
   4  11  -4    0.09    0.08 
  -4 -11   4    0.07    0.09 
   3  11  -4    0.82    0.14 
   3  11  -4    1.22    0.14 
  -3 -11   4    1.00    0.15 
   2  11  -4    3.04    0.20 
   2  11  -4    2.78    0.22 
  -2 -11   4    2.70    0.23 
   1  11  -4    0.07    0.08 
   1  11  -4   -0.06    0.06 
  -1 -11   4    0.00    0.09 
   7  10  -4    0.11    0.08 
   7  10  -4    0.25    0.10 
  -7 -10   4    0.25    0.10 
   6  10  -4    2.14    0.19 
  -6 -10   4    2.17    0.19 
   5  10  -4   -0.06    0.06 
  -5 -10   4   -0.01    0.07 
   4  10  -4    0.29    0.08 
  -4 -10   4    0.47    0.11 
   3  10  -4    0.02    0.06 
   3  10  -4    0.06    0.08 
  -3 -10   4    0.07    0.08 
   2  10  -4    0.12    0.08 
   2  10  -4    0.11    0.07 
  -2 -10   4   -0.03    0.08 
   1  10  -4    7.98    0.30 
   1  10  -4    8.40    0.35 
  -1 -10   4    7.73    0.35 
   0  10  -4    3.68    0.21 
   0  10  -4    3.73    0.24 
   0 -10   4    3.77    0.25 
  -1  10  -4    0.88    0.13 
  -1  10  -4    0.68    0.13 
   8   9  -4    0.00    0.08 
   8   9  -4    0.13    0.09 
  -8  -9   4   -0.08    0.07 
   7   9  -4    1.28    0.15 
   7   9  -4    1.47    0.16 
  -7  -9   4    1.57    0.16 
   6   9  -4   -0.05    0.06 
  -6  -9   4    0.06    0.07 
   5   9  -4    1.35    0.14 
  -5  -9   4    1.25    0.15 
   4   9  -4    2.08    0.16 
  -4  -9   4    2.35    0.18 
   3   9  -4    0.32    0.07 
  -3  -9   4    0.41    0.10 
   2   9  -4    0.06    0.07 
   2   9  -4    0.12    0.06 
  -2  -9   4    0.13    0.08 
   1   9  -4    2.50    0.19 
   1   9  -4    2.29    0.15 
  -1  -9   4    2.42    0.19 
   0   9  -4    9.97    0.32 
   0   9  -4   10.63    0.38 
   0  -9   4   10.27    0.38 
  -1   9  -4    3.80    0.23 
  -1   9  -4    3.93    0.20 
   1  -9   4    3.74    0.24 
  -2   9  -4   -0.04    0.07 
  -2   9  -4    0.01    0.05 
  -3   9  -4    0.45    0.11 
  -3   9  -4    0.51    0.10 
   8   8  -4    0.66    0.13 
   8   8  -4    0.39    0.11 
   7   8  -4    0.31    0.09 
   7   8  -4    0.58    0.11 
  -7  -8   4    0.37    0.09 
  -7  -8   4    0.30    0.08 
   6   8  -4   -0.05    0.06 
   6   8  -4   -0.01    0.05 
  -6  -8   4   -0.01    0.06 
  -6  -8   4   -0.05    0.04 
   5   8  -4    0.22    0.07 
  -5  -8   4    0.25    0.06 
  -5  -8   4    0.34    0.08 
   4   8  -4    0.50    0.09 
  -4  -8   4    0.33    0.09 
  -4  -8   4    0.36    0.06 
  -4  -8   4    0.30    0.06 
   3   8  -4    1.24    0.13 
   3   8  -4    1.18    0.11 
  -3  -8   4    1.11    0.13 
  -3  -8   4    1.17    0.09 
  -3  -8   4    0.94    0.08 
   2   8  -4    5.65    0.20 
   2   8  -4    5.46    0.21 
  -2  -8   4    5.35    0.17 
  -2  -8   4    5.39    0.24 
   1   8  -4    8.76    0.27 
   1   8  -4    8.71    0.29 
   1   8  -4    8.28    0.32 
  -1  -8   4    8.61    0.21 
  -1  -8   4    8.56    0.31 
   0   8  -4    0.18    0.08 
   0   8  -4    0.22    0.06 
   0  -8   4    0.13    0.03 
   0  -8   4    0.02    0.06 
  -1   8  -4    0.86    0.13 
  -1   8  -4    0.80    0.10 
   1  -8   4    1.08    0.14 
  -2   8  -4    2.80    0.20 
  -2   8  -4    2.34    0.15 
  -3   8  -4    2.57    0.17 
  -3   8  -4    2.72    0.20 
  -4   8  -4    4.28    0.25 
  -4   8  -4    4.02    0.22 
   9   7  -4   -0.07    0.08 
   9   7  -4    0.07    0.09 
   8   7  -4    0.44    0.10 
   8   7  -4    0.20    0.09 
  -8  -7   4    0.24    0.08 
   7   7  -4    1.77    0.16 
   7   7  -4    2.18    0.18 
  -7  -7   4    1.92    0.15 
   6   7  -4    2.35    0.17 
   6   7  -4    2.30    0.16 
  -6  -7   4    2.38    0.15 
  -6  -7   4    2.41    0.15 
  -6  -7   4    2.49    0.18 
   5   7  -4    5.89    0.22 
   5   7  -4    5.61    0.23 
  -5  -7   4    5.69    0.21 
  -5  -7   4    5.42    0.20 
  -5  -7   4    6.19    0.24 
   4   7  -4    0.85    0.09 
   4   7  -4    0.98    0.11 
   4   7  -4    0.93    0.09 
  -4  -7   4    1.02    0.11 
  -4  -7   4    1.02    0.09 
  -4  -7   4    1.04    0.09 
   3   7  -4    3.15    0.15 
   3   7  -4    3.07    0.14 
   3   7  -4    3.03    0.14 
  -3  -7   4    3.03    0.13 
  -3  -7   4    3.02    0.17 
  -3  -7   4    2.86    0.12 
   2   7  -4    1.52    0.11 
   2   7  -4    1.65    0.10 
   2   7  -4    1.48    0.10 
  -2  -7   4    1.65    0.13 
  -2  -7   4    1.53    0.08 
   1   7  -4    0.73    0.07 
   1   7  -4    0.74    0.08 
   1   7  -4    0.63    0.07 
  -1  -7   4    0.56    0.10 
  -1  -7   4    0.73    0.05 
   0   7  -4   14.87    0.42 
   0   7  -4   14.73    0.35 
   0   7  -4   14.45    0.34 
   0   7  -4   14.51    0.36 
   0  -7   4   14.66    0.42 
   0  -7   4   14.60    0.29 
  -1   7  -4   -0.04    0.04 
  -1   7  -4    0.00    0.05 
  -1   7  -4   -0.01    0.03 
   1  -7   4   -0.03    0.06 
   1  -7   4    0.00    0.02 
  -2   7  -4    6.16    0.26 
  -2   7  -4    5.93    0.22 
   2  -7   4    6.02    0.14 
  -3   7  -4   18.44    0.47 
  -3   7  -4   20.15    0.53 
  -4   7  -4    3.04    0.20 
  -4   7  -4    3.03    0.18 
  -5   7  -4    0.44    0.09 
  -5   7  -4    0.36    0.09 
  -5   7  -4    0.47    0.11 
   9   6  -4    0.11    0.09 
   9   6  -4    0.24    0.10 
  -9  -6   4    0.12    0.08 
   8   6  -4    0.03    0.07 
   8   6  -4    0.02    0.07 
  -8  -6   4    0.11    0.07 
   7   6  -4    5.38    0.25 
   7   6  -4    5.59    0.26 
  -7  -6   4    5.45    0.29 
  -7  -6   4    5.46    0.23 
   6   6  -4    0.95    0.11 
   6   6  -4    1.12    0.12 
   6   6  -4    0.88    0.11 
  -6  -6   4    0.87    0.10 
  -6  -6   4    0.77    0.09 
   5   6  -4    1.50    0.12 
   5   6  -4    1.71    0.13 
   5   6  -4    1.25    0.12 
  -5  -6   4    1.46    0.12 
  -5  -6   4    1.48    0.11 
   4   6  -4    1.40    0.10 
   4   6  -4    1.33    0.11 
   4   6  -4    1.55    0.11 
  -4  -6   4    1.42    0.11 
  -4  -6   4    1.47    0.09 
   3   6  -4    1.55    0.10 
   3   6  -4    1.38    0.10 
   3   6  -4    1.39    0.10 
  -3  -6   4    1.54    0.08 
  -3  -6   4    1.38    0.09 
  -3  -6   4    1.51    0.11 
   2   6  -4    4.34    0.15 
   2   6  -4    4.33    0.15 
   2   6  -4    4.17    0.15 
  -2  -6   4    4.41    0.18 
  -2  -6   4    4.12    0.13 
  -2  -6   4    4.40    0.13 
   1   6  -4    9.22    0.24 
   1   6  -4    9.39    0.24 
   1   6  -4    9.21    0.23 
  -1  -6   4    9.83    0.20 
  -1  -6   4    9.17    0.29 
   0   6  -4    0.09    0.04 
   0   6  -4    0.06    0.04 
   0   6  -4    0.03    0.03 
   0   6  -4    0.02    0.03 
   0  -6   4    0.04    0.02 
   0  -6   4    0.07    0.02 
   0  -6   4   -0.01    0.05 
  -1   6  -4    8.41    0.29 
  -1   6  -4    7.97    0.22 
  -1   6  -4    8.02    0.22 
  -1   6  -4    8.03    0.23 
   1  -6   4    8.62    0.29 
   1  -6   4    8.27    0.16 
  -2   6  -4    0.22    0.07 
  -2   6  -4    0.20    0.05 
  -2   6  -4    0.24    0.05 
   2  -6   4    0.28    0.03 
  -3   6  -4    1.54    0.11 
  -3   6  -4    1.28    0.13 
  -3   6  -4    1.40    0.10 
  -3   6  -4    1.31    0.11 
   3  -6   4    1.50    0.06 
  -4   6  -4    0.67    0.09 
  -4   6  -4    0.90    0.12 
  -4   6  -4    0.66    0.10 
  -5   6  -4   -0.04    0.06 
  -5   6  -4   -0.02    0.05 
  -5   6  -4   -0.01    0.05 
  -6   6  -4    3.98    0.23 
  -6   6  -4    3.96    0.22 
  -6   6  -4    4.15    0.23 
   9   5  -4    0.69    0.13 
   9   5  -4    0.71    0.12 
  -9  -5   4    0.77    0.12 
   8   5  -4    0.85    0.12 
   8   5  -4    0.60    0.11 
  -8  -5   4    0.57    0.10 
   7   5  -4    3.45    0.20 
   7   5  -4    3.58    0.21 
  -7  -5   4    3.62    0.19 
  -7  -5   4    3.44    0.19 
   6   5  -4    0.68    0.10 
   6   5  -4    0.60    0.09 
   6   5  -4    0.54    0.08 
  -6  -5   4    0.61    0.09 
  -6  -5   4    0.80    0.10 
   5   5  -4    2.10    0.14 
   5   5  -4    2.42    0.14 
   5   5  -4    1.95    0.13 
  -5  -5   4    2.14    0.13 
  -5  -5   4    1.76    0.12 
   4   5  -4    0.10    0.05 
   4   5  -4    0.11    0.04 
   4   5  -4    0.08    0.04 
   4   5  -4    0.01    0.03 
  -4  -5   4    0.09    0.04 
  -4  -5   4    0.05    0.03 
   3   5  -4   14.94    0.34 
   3   5  -4   15.04    0.35 
   3   5  -4   14.60    0.34 
  -3  -5   4   14.72    0.32 
  -3  -5   4   14.99    0.33 
  -3  -5   4   14.82    0.35 
   2   5  -4    1.59    0.09 
   2   5  -4    1.61    0.08 
   2   5  -4    1.55    0.08 
  -2  -5   4    1.51    0.07 
  -2  -5   4    1.65    0.10 
  -2  -5   4    1.49    0.07 
   1   5  -4    6.18    0.17 
   1   5  -4    6.22    0.17 
   1   5  -4    6.37    0.17 
  -1  -5   4    6.25    0.14 
  -1  -5   4    6.12    0.13 
  -1  -5   4    6.51    0.21 
   0   5  -4    8.47    0.20 
   0   5  -4    8.65    0.21 
   0   5  -4    8.47    0.20 
   0  -5   4    8.34    0.26 
  -1   5  -4    0.30    0.04 
  -1   5  -4    0.21    0.03 
  -1   5  -4    0.31    0.04 
  -1   5  -4    0.16    0.05 
   1  -5   4    0.18    0.06 
  -2   5  -4    5.38    0.21 
  -2   5  -4    5.25    0.16 
  -2   5  -4    5.08    0.17 
  -2   5  -4    5.20    0.16 
   2  -5   4    5.21    0.11 
  -3   5  -4    0.42    0.06 
  -3   5  -4    0.35    0.07 
  -3   5  -4    0.30    0.05 
  -3   5  -4    0.36    0.06 
   3  -5   4    0.42    0.03 
  -4   5  -4    1.89    0.12 
  -4   5  -4    1.76    0.12 
  -4   5  -4    1.75    0.11 
  -4   5  -4    1.95    0.14 
   4  -5   4    1.81    0.07 
  -5   5  -4   14.10    0.39 
  -5   5  -4   13.97    0.38 
  -5   5  -4   14.03    0.41 
  -6   5  -4    3.69    0.21 
  -6   5  -4    3.79    0.21 
  -6   5  -4    3.62    0.20 
  -7   5  -4    0.64    0.12 
  -7   5  -4    0.76    0.12 
  -7   5  -4    0.77    0.12 
   9   4  -4    1.13    0.14 
   9   4  -4    0.99    0.14 
  -9  -4   4    1.00    0.13 
   8   4  -4    1.08    0.13 
  -8  -4   4    1.25    0.16 
  -8  -4   4    0.91    0.11 
   7   4  -4    1.92    0.16 
  -7  -4   4    1.73    0.14 
  -7  -4   4    1.68    0.15 
   6   4  -4    4.02    0.19 
   6   4  -4    4.04    0.19 
  -6  -4   4    4.00    0.18 
  -6  -4   4    3.93    0.19 
   5   4  -4   36.96    0.75 
   5   4  -4   37.68    0.76 
  -5  -4   4   37.67    0.75 
  -5  -4   4   38.14    0.74 
   4   4  -4    0.84    0.08 
   4   4  -4    0.84    0.08 
   4   4  -4    0.62    0.07 
  -4  -4   4    0.81    0.07 
  -4  -4   4    0.86    0.08 
   3   4  -4    7.79    0.21 
   3   4  -4    7.57    0.21 
   3   4  -4    7.52    0.21 
  -3  -4   4    7.75    0.21 
  -3  -4   4    7.65    0.20 
  -3  -4   4    7.39    0.19 
   2   4  -4    0.91    0.06 
   2   4  -4    0.95    0.06 
   2   4  -4    0.82    0.06 
  -2  -4   4    0.88    0.05 
  -2  -4   4    0.76    0.07 
  -2  -4   4    0.83    0.05 
   1   4  -4   11.38    0.24 
   1   4  -4   11.58    0.26 
   1   4  -4   11.40    0.25 
   1   4  -4   11.52    0.25 
  -1  -4   4   11.78    0.29 
  -1  -4   4   11.55    0.21 
  -1  -4   4   11.49    0.21 
   0   4  -4    3.79    0.11 
   0   4  -4    3.99    0.11 
   0   4  -4    3.98    0.11 
   0  -4   4    4.19    0.16 
  -1   4  -4    5.22    0.19 
  -1   4  -4    5.14    0.13 
  -1   4  -4    5.04    0.14 
   1  -4   4    5.22    0.19 
  -2   4  -4    6.28    0.17 
  -2   4  -4    6.22    0.16 
  -2   4  -4    6.23    0.21 
  -2   4  -4    6.21    0.16 
  -3   4  -4    9.58    0.28 
  -3   4  -4    9.24    0.24 
  -3   4  -4    9.37    0.23 
  -3   4  -4    9.41    0.24 
   3  -4   4    9.25    0.18 
  -4   4  -4    9.41    0.26 
  -4   4  -4    9.32    0.29 
  -4   4  -4    8.88    0.25 
  -4   4  -4    9.15    0.26 
   4  -4   4    9.57    0.20 
  -5   4  -4    1.51    0.12 
  -5   4  -4    1.45    0.12 
  -5   4  -4    1.65    0.12 
  -5   4  -4    1.41    0.13 
   5  -4   4    1.54    0.07 
  -6   4  -4    1.02    0.12 
  -6   4  -4    1.06    0.12 
  -6   4  -4    0.86    0.11 
  -7   4  -4    0.19    0.08 
  -7   4  -4    0.38    0.09 
  -7   4  -4    0.20    0.08 
  -8   4  -4    1.07    0.15 
  -8   4  -4    0.80    0.14 
  -8   4  -4    0.92    0.14 
   9   3  -4    0.43    0.11 
  -9  -3   4    0.20    0.09 
   8   3  -4    0.15    0.08 
  -8  -3   4    0.37    0.09 
  -8  -3   4    0.21    0.08 
   7   3  -4    0.32    0.09 
  -7  -3   4    0.26    0.08 
  -7  -3   4    0.25    0.07 
   6   3  -4    1.97    0.15 
   6   3  -4    1.97    0.15 
  -6  -3   4    2.03    0.14 
  -6  -3   4    2.08    0.15 
   5   3  -4   30.76    0.65 
   5   3  -4   32.36    0.67 
  -5  -3   4   31.61    0.65 
  -5  -3   4   31.91    0.65 
   4   3  -4    3.81    0.15 
   4   3  -4    3.67    0.15 
   4   3  -4    3.66    0.15 
  -4  -3   4    3.66    0.14 
  -4  -3   4    3.52    0.14 
   3   3  -4    8.61    0.23 
   3   3  -4    8.65    0.22 
   3   3  -4    8.32    0.22 
  -3  -3   4    8.63    0.21 
   2   3  -4    4.06    0.13 
   2   3  -4    3.98    0.12 
  -2  -3   4    4.06    0.11 
  -2  -3   4    4.03    0.13 
  -2  -3   4    3.91    0.11 
   1   3  -4   49.05    0.84 
   1   3  -4   48.47    0.84 
  -1  -3   4   49.17    0.87 
  -1  -3   4   48.85    0.81 
  -1  -3   4   49.08    0.80 
   0   3  -4    9.23    0.22 
   0   3  -4    9.28    0.18 
   0   3  -4    9.32    0.18 
   0   3  -4    9.25    0.18 
   0  -3   4    9.03    0.23 
  -1   3  -4   10.39    0.20 
  -1   3  -4   10.44    0.20 
  -1   3  -4   10.52    0.20 
  -1   3  -4   10.30    0.26 
   1  -3   4   10.30    0.26 
  -2   3  -4    0.11    0.02 
  -2   3  -4    0.19    0.05 
  -2   3  -4    0.12    0.03 
  -2   3  -4    0.16    0.03 
  -3   3  -4    5.36    0.19 
  -3   3  -4    5.42    0.16 
  -3   3  -4    5.44    0.15 
  -3   3  -4    5.38    0.16 
   3  -3   4    5.49    0.11 
  -4   3  -4    2.86    0.14 
  -4   3  -4    3.00    0.10 
  -4   3  -4    2.87    0.13 
  -4   3  -4    2.94    0.12 
  -4   3  -4    3.14    0.13 
   4  -3   4    2.80    0.09 
   4  -3   4    3.09    0.09 
  -5   3  -4    1.39    0.10 
  -5   3  -4    1.35    0.11 
  -5   3  -4    1.16    0.10 
  -5   3  -4    1.32    0.10 
   5  -3   4    1.34    0.07 
   5  -3   4    1.24    0.07 
  -6   3  -4    2.33    0.15 
  -6   3  -4    2.39    0.15 
  -6   3  -4    2.34    0.15 
   6  -3   4    2.32    0.13 
   6  -3   4    2.22    0.13 
  -7   3  -4   12.81    0.39 
  -7   3  -4   12.74    0.39 
  -7   3  -4   12.62    0.38 
  -8   3  -4    3.30    0.21 
  -8   3  -4    3.21    0.21 
  -8   3  -4    3.24    0.20 
   9   2  -4    0.06    0.08 
  -9  -2   4    0.09    0.09 
   8   2  -4    0.55    0.11 
  -8  -2   4    0.81    0.12 
  -8  -2   4    0.74    0.12 
   7   2  -4    1.02    0.12 
  -7  -2   4    0.69    0.10 
  -7  -2   4    1.03    0.12 
   6   2  -4    1.70    0.14 
   6   2  -4    1.85    0.15 
  -6  -2   4    1.86    0.14 
  -6  -2   4    2.05    0.14 
   5   2  -4   20.24    0.48 
   5   2  -4   20.43    0.47 
  -5  -2   4   20.30    0.47 
  -5  -2   4   20.39    0.47 
   4   2  -4   10.30    0.28 
   4   2  -4   10.22    0.28 
   4   2  -4   10.34    0.28 
  -4  -2   4   10.73    0.27 
  -4  -2   4   10.29    0.27 
   3   2  -4    0.77    0.07 
   3   2  -4    0.78    0.07 
   3   2  -4    0.81    0.07 
  -3  -2   4    0.89    0.06 
  -3  -2   4    0.78    0.06 
   2   2  -4    6.06    0.16 
   2   2  -4    5.97    0.16 
   2   2  -4    6.05    0.16 
  -2  -2   4    6.17    0.15 
  -2  -2   4    5.99    0.15 
   1   2  -4    5.84    0.14 
   1   2  -4    6.05    0.14 
  -1  -2   4    5.53    0.12 
  -1  -2   4    6.10    0.15 
  -1  -2   4    6.05    0.12 
   0   2  -4   38.71    0.64 
   0   2  -4   38.09    0.64 
   0   2  -4   38.74    0.68 
   0  -2   4   38.40    0.69 
  -1   2  -4   17.97    0.37 
   1  -2   4   18.08    0.37 
  -2   2  -4   38.00    0.65 
  -2   2  -4   38.44    0.72 
  -2   2  -4   38.95    0.72 
  -2   2  -4   38.76    0.65 
  -2   2  -4   38.13    0.65 
  -3   2  -4   34.92    0.63 
  -3   2  -4   34.80    0.63 
  -3   2  -4   34.77    0.67 
  -3   2  -4   34.88    0.62 
  -4   2  -4   12.48    0.30 
  -4   2  -4   12.05    0.29 
  -4   2  -4   12.47    0.25 
  -4   2  -4   12.21    0.29 
  -4   2  -4   12.33    0.28 
   4  -2   4   12.33    0.24 
   4  -2   4   12.72    0.24 
   4  -2   4   11.42    0.24 
   4  -2   4   12.46    0.25 
  -5   2  -4    0.14    0.04 
  -5   2  -4    0.21    0.04 
  -5   2  -4    0.23    0.05 
  -5   2  -4    0.23    0.05 
   5  -2   4    0.21    0.03 
   5  -2   4    0.23    0.04 
  -6   2  -4    7.00    0.23 
  -6   2  -4    6.73    0.24 
  -6   2  -4    6.85    0.23 
  -6   2  -4    7.06    0.24 
   6  -2   4    6.69    0.19 
   6  -2   4    6.65    0.19 
  -7   2  -4    0.65    0.10 
  -7   2  -4    0.57    0.09 
  -7   2  -4    0.81    0.10 
  -8   2  -4    0.05    0.07 
  -8   2  -4    0.01    0.06 
  -8   2  -4   -0.02    0.06 
  -9   2  -4    0.01    0.07 
  -9   2  -4    0.09    0.09 
  -9   2  -4    0.05    0.07 
   9   1  -4    1.46    0.17 
  -9  -1   4    1.32    0.17 
   8   1  -4    2.02    0.18 
  -8  -1   4    2.40    0.19 
  -8  -1   4    2.40    0.19 
   7   1  -4    0.02    0.06 
  -7  -1   4    0.09    0.07 
  -7  -1   4    0.04    0.07 
   6   1  -4    3.21    0.18 
  -6  -1   4    3.33    0.18 
  -6  -1   4    3.04    0.17 
   5   1  -4    6.99    0.24 
   5   1  -4    6.86    0.24 
  -5  -1   4    6.95    0.24 
  -5  -1   4    6.90    0.24 
   4   1  -4    9.17    0.27 
   4   1  -4    9.20    0.26 
   4   1  -4    9.57    0.27 
  -4  -1   4    9.37    0.26 
  -4  -1   4    9.04    0.26 
   3   1  -4    0.36    0.05 
   3   1  -4    0.29    0.05 
   3   1  -4    0.31    0.05 
  -3  -1   4    0.42    0.05 
  -3  -1   4    0.31    0.05 
  -3  -1   4    0.41    0.05 
   2   1  -4   54.83    0.97 
   2   1  -4   54.35    0.97 
   2   1  -4   55.40    0.97 
  -2  -1   4   54.92    0.96 
  -2  -1   4   56.74    0.95 
   1   1  -4    2.95    0.09 
   1   1  -4    2.87    0.09 
   1   1  -4    3.27    0.09 
  -1  -1   4    2.90    0.08 
  -1  -1   4    2.93    0.08 
  -1  -1   4    2.80    0.08 
   0   1  -4   36.48    0.61 
   0   1  -4   35.88    0.60 
   0   1  -4   36.10    0.62 
   0   1  -4   36.91    0.61 
   0  -1   4   36.16    0.63 
  -1   1  -4   42.02    0.74 
  -2   1  -4  133.08    2.18 
  -2   1  -4  135.83    2.24 
  -2   1  -4  134.06    2.18 
  -2   1  -4  136.35    2.18 
  -2   1  -4  130.31    2.23 
  -2   1  -4  134.57    2.18 
  -3   1  -4    8.01    0.18 
  -3   1  -4    8.31    0.21 
  -3   1  -4    8.15    0.18 
  -3   1  -4    8.14    0.18 
  -4   1  -4    7.30    0.19 
  -4   1  -4    7.22    0.16 
  -4   1  -4    7.29    0.19 
  -4   1  -4    7.20    0.19 
  -4   1  -4    7.19    0.20 
   4  -1   4    7.31    0.16 
   4  -1   4    6.80    0.20 
   4  -1   4    7.29    0.15 
   4  -1   4    7.30    0.16 
  -5   1  -4    1.33    0.09 
  -5   1  -4    1.53    0.09 
  -5   1  -4    1.59    0.09 
  -5   1  -4    1.42    0.09 
   5  -1   4    1.46    0.07 
   5  -1   4    1.43    0.07 
  -6   1  -4    1.26    0.11 
  -6   1  -4    1.22    0.10 
  -6   1  -4    1.03    0.10 
  -6   1  -4    1.09    0.09 
   6  -1   4    1.27    0.08 
   6  -1   4    1.17    0.08 
  -7   1  -4    3.26    0.17 
  -7   1  -4    3.42    0.18 
  -7   1  -4    3.27    0.16 
   7  -1   4    3.38    0.14 
   7  -1   4    3.18    0.14 
  -8   1  -4    1.44    0.13 
  -8   1  -4    1.79    0.16 
  -8   1  -4    1.57    0.15 
  -9   1  -4    3.77    0.23 
  -9   1  -4    3.85    0.24 
  -9   1  -4    3.81    0.21 
   8   0  -4    0.00    0.07 
  -8   0   4    0.07    0.09 
  -8   0   4   -0.05    0.07 
   7   0  -4    1.15    0.13 
  -7   0   4    1.14    0.14 
  -7   0   4    1.18    0.14 
   6   0  -4    1.52    0.14 
   6   0  -4    1.46    0.11 
  -6   0   4    1.72    0.14 
  -6   0   4    1.53    0.14 
   5   0  -4    4.27    0.19 
   5   0  -4    4.30    0.19 
  -5   0   4    4.43    0.19 
  -5   0   4    4.40    0.19 
   4   0  -4   20.09    0.46 
   4   0  -4   19.88    0.45 
  -4   0   4   19.94    0.45 
  -4   0   4   19.64    0.44 
   3   0  -4   55.87    1.02 
   3   0  -4   56.50    1.02 
   3   0  -4   55.21    1.02 
  -3   0   4   56.12    1.02 
  -3   0   4   56.32    1.01 
  -3   0   4   56.70    1.01 
   2   0  -4   41.63    0.77 
   2   0  -4   38.79    0.72 
   2   0  -4   39.16    0.73 
   2   0  -4   39.43    0.73 
  -2   0   4   39.07    0.71 
  -2   0   4   39.62    0.72 
  -2   0   4   39.46    0.72 
   1   0  -4   81.63    1.37 
   1   0  -4   80.49    1.36 
   1   0  -4   81.63    1.36 
   1   0  -4   80.23    1.36 
  -1   0   4   79.03    1.35 
  -1   0   4   80.64    1.35 
   0   0  -4    0.43    0.03 
   0   0  -4    0.40    0.03 
   0   0   4    0.42    0.02 
   0   0   4    0.50    0.02 
   0   0   4    0.43    0.02 
  -1   0  -4   10.91    0.21 
  -1   0  -4   10.85    0.20 
  -1   0  -4   10.93    0.20 
  -1   0  -4   11.15    0.20 
  -2   0  -4  211.90    3.62 
  -2   0  -4  227.72    3.59 
  -2   0  -4  221.78    3.60 
  -2   0  -4  211.97    3.59 
  -3   0  -4   49.46    0.85 
  -3   0  -4   48.23    0.85 
  -3   0  -4   50.22    0.85 
  -3   0  -4   49.88    0.85 
  -3   0  -4   48.95    0.85 
   3   0   4   48.92    0.82 
   3   0   4   49.87    0.82 
   3   0   4   50.52    0.82 
   3   0   4   49.42    0.82 
  -4   0  -4    5.15    0.15 
  -4   0  -4    5.18    0.14 
  -4   0  -4    5.06    0.14 
  -4   0  -4    4.92    0.15 
   4   0   4    5.23    0.15 
   4   0   4    5.17    0.13 
   4   0   4    4.96    0.13 
   4   0   4    4.94    0.13 
   4   0   4    5.21    0.12 
  -5   0  -4    9.35    0.24 
  -5   0  -4    9.04    0.22 
  -5   0  -4    9.07    0.24 
  -5   0  -4    9.21    0.25 
   5   0   4    8.93    0.22 
   5   0   4    9.07    0.23 
   5   0   4    9.23    0.21 
  -6   0  -4    0.13    0.05 
  -6   0  -4    0.16    0.05 
  -6   0  -4    0.10    0.04 
  -6   0  -4    0.12    0.05 
   6   0   4    0.11    0.04 
   6   0   4    0.12    0.04 
  -7   0  -4    6.11    0.24 
  -7   0  -4    5.83    0.23 
  -7   0  -4    5.70    0.21 
  -7   0  -4    5.73    0.20 
   7   0   4    5.83    0.19 
   7   0   4    5.81    0.19 
  -8   0  -4    0.08    0.06 
  -8   0  -4    0.07    0.06 
  -8   0  -4    0.01    0.05 
   8   0   4    0.06    0.04 
  -9   0  -4   -0.04    0.07 
  -9   0  -4   -0.02    0.07 
  -9   0  -4    0.00    0.06 
   8  -1  -4   -0.03    0.08 
  -8   1   4    0.01    0.08 
  -8   1   4    0.03    0.07 
   7  -1  -4    0.16    0.08 
  -7   1   4    0.16    0.07 
  -7   1   4    0.24    0.08 
   6  -1  -4    3.75    0.17 
   6  -1  -4    4.00    0.21 
  -6   1   4    4.15    0.21 
  -6   1   4    3.98    0.21 
  -6   1   4    4.11    0.21 
   5  -1  -4    2.17    0.15 
   5  -1  -4    2.08    0.12 
  -5   1   4    2.12    0.14 
  -5   1   4    2.19    0.14 
  -5   1   4    1.89    0.14 
   4  -1  -4    0.22    0.06 
   4  -1  -4    0.06    0.03 
   4  -1  -4    0.11    0.05 
  -4   1   4    0.06    0.05 
  -4   1   4    0.28    0.06 
  -4   1   4    0.09    0.04 
   3  -1  -4   45.03    0.85 
   3  -1  -4   44.24    0.85 
   3  -1  -4   44.29    0.85 
   3  -1  -4   45.05    0.82 
  -3   1   4   45.90    0.84 
  -3   1   4   45.06    0.85 
  -3   1   4   43.83    0.85 
  -3   1   4   45.45    0.84 
   2  -1  -4   -0.02    0.03 
   2  -1  -4    0.00    0.03 
   2  -1  -4   -0.02    0.03 
  -2   1   4   -0.03    0.03 
  -2   1   4    0.03    0.03 
  -2   1   4   -0.06    0.03 
  -2   1   4    0.03    0.03 
   1  -1  -4   12.04    0.27 
   1  -1  -4   11.78    0.26 
   1  -1  -4   11.62    0.26 
   1  -1  -4   11.70    0.26 
  -1   1   4   11.94    0.26 
  -1   1   4   12.59    0.26 
   0  -1  -4   19.08    0.36 
   0  -1  -4   18.80    0.36 
   0  -1  -4   18.85    0.36 
   0   1   4   18.73    0.36 
   0   1   4   19.13    0.35 
   0   1   4   19.20    0.35 
  -1  -1  -4   16.90    0.32 
  -1  -1  -4   17.30    0.30 
  -1  -1  -4   17.99    0.32 
  -1  -1  -4   17.41    0.32 
   1   1   4   17.46    0.31 
   1   1   4   16.74    0.31 
   1   1   4   17.19    0.31 
  -2  -1  -4    3.38    0.09 
  -2  -1  -4    3.62    0.08 
  -2  -1  -4    3.49    0.09 
  -2  -1  -4    3.37    0.09 
   2   1   4    3.46    0.08 
   2   1   4    3.41    0.08 
   2   1   4    3.46    0.08 
  -3  -1  -4    0.30    0.03 
  -3  -1  -4    0.25    0.03 
  -3  -1  -4    0.29    0.03 
  -3  -1  -4    0.27    0.02 
   3   1   4    0.27    0.03 
   3   1   4    0.24    0.03 
   3   1   4    0.25    0.03 
   3   1   4    0.23    0.03 
  -4  -1  -4    5.52    0.16 
  -4  -1  -4    5.63    0.16 
  -4  -1  -4    5.86    0.16 
  -4  -1  -4    6.62    0.17 
  -4  -1  -4    5.69    0.13 
   4   1   4    5.67    0.15 
   4   1   4    5.69    0.14 
   4   1   4    5.82    0.14 
   4   1   4    5.64    0.15 
   4   1   4    5.89    0.15 
  -5  -1  -4   16.84    0.33 
  -5  -1  -4   16.12    0.37 
  -5  -1  -4   16.56    0.36 
  -5  -1  -4   16.73    0.37 
   5   1   4   16.93    0.34 
   5   1   4   16.67    0.35 
   5   1   4   17.33    0.35 
  -6  -1  -4    2.46    0.13 
  -6  -1  -4    2.29    0.12 
  -6  -1  -4    2.46    0.13 
  -6  -1  -4    2.53    0.10 
   6   1   4    2.40    0.11 
   6   1   4    2.52    0.11 
   6   1   4    2.39    0.11 
  -7  -1  -4    4.35    0.20 
  -7  -1  -4    4.46    0.16 
  -7  -1  -4    4.80    0.19 
  -7  -1  -4    4.63    0.20 
   7   1   4    4.79    0.17 
  -8  -1  -4    0.21    0.07 
  -8  -1  -4    0.18    0.07 
  -8  -1  -4    0.20    0.06 
   8   1   4    0.23    0.06 
  -9  -1  -4    0.20    0.09 
  -9  -1  -4    0.29    0.09 
  -9  -1  -4    0.32    0.07 
 -10  -1  -4    0.11    0.09 
 -10  -1  -4   -0.05    0.06 
 -10  -1  -4    0.00    0.08 
  -8   2   4    0.19    0.11 
  -8   2   4    0.15    0.09 
  -8   2   4    0.09    0.08 
   7  -2  -4    0.45    0.11 
  -7   2   4    0.26    0.09 
  -7   2   4    0.34    0.10 
  -7   2   4    0.32    0.10 
   6  -2  -4    0.50    0.08 
   6  -2  -4    0.54    0.10 
  -6   2   4    0.40    0.09 
  -6   2   4    0.50    0.09 
  -6   2   4    0.46    0.10 
   5  -2  -4    3.68    0.16 
   5  -2  -4    3.52    0.19 
  -5   2   4    3.33    0.19 
  -5   2   4    3.41    0.18 
  -5   2   4    3.60    0.19 
   4  -2  -4    2.39    0.15 
   4  -2  -4    2.59    0.12 
   4  -2  -4    2.60    0.15 
  -4   2   4    2.44    0.14 
  -4   2   4    2.62    0.15 
   3  -2  -4    2.08    0.12 
   3  -2  -4    2.09    0.12 
  -3   2   4    2.01    0.12 
  -3   2   4    2.03    0.12 
  -3   2   4    2.05    0.12 
   2  -2  -4   25.28    0.52 
   2  -2  -4   24.61    0.52 
   2  -2  -4   25.17    0.49 
   2  -2  -4   24.96    0.51 
  -2   2   4   25.56    0.51 
  -2   2   4   24.53    0.50 
  -2   2   4   24.57    0.52 
  -2   2   4   24.47    0.51 
   1  -2  -4  180.01    3.13 
   1  -2  -4  192.12    3.14 
   1  -2  -4  194.04    3.14 
   1  -2  -4  192.31    3.11 
   1  -2  -4  194.33    3.13 
  -1   2   4  189.03    3.14 
  -1   2   4  192.43    3.13 
  -1   2   4  189.90    3.09 
  -1   2   4  176.89    3.13 
   0  -2  -4   72.55    1.21 
   0  -2  -4   70.05    1.23 
   0  -2  -4   72.99    1.21 
   0  -2  -4   71.23    1.23 
   0   2   4   71.97    1.17 
   0   2   4   70.45    1.22 
   0   2   4   70.99    1.22 
   0   2   4   71.34    1.23 
   0   2   4   70.74    1.22 
  -1  -2  -4    7.83    0.16 
  -1  -2  -4    7.59    0.18 
  -1  -2  -4    7.90    0.18 
  -1  -2  -4    7.55    0.18 
  -1  -2  -4    7.97    0.17 
  -1  -2  -4    7.96    0.15 
   1   2   4    7.99    0.18 
   1   2   4    7.81    0.18 
   1   2   4    7.78    0.18 
  -2  -2  -4    3.96    0.12 
  -2  -2  -4    3.72    0.11 
  -2  -2  -4    4.04    0.12 
  -2  -2  -4    3.88    0.08 
   2   2   4    3.86    0.11 
   2   2   4    3.82    0.11 
   2   2   4    4.20    0.11 
   2   2   4    4.06    0.09 
  -3  -2  -4   22.01    0.43 
  -3  -2  -4   22.21    0.43 
  -3  -2  -4   21.87    0.43 
   3   2   4   22.97    0.43 
   3   2   4   22.70    0.38 
   3   2   4   22.30    0.42 
   3   2   4   23.20    0.42 
   3   2   4   22.31    0.42 
  -4  -2  -4   24.02    0.47 
  -4  -2  -4   24.07    0.41 
  -4  -2  -4   23.48    0.47 
  -4  -2  -4   23.81    0.47 
   4   2   4   24.27    0.47 
   4   2   4   24.79    0.46 
   4   2   4   24.77    0.46 
  -5  -2  -4   81.22    1.32 
  -5  -2  -4   80.28    1.39 
  -5  -2  -4   77.03    1.39 
   5   2   4   79.35    1.33 
   5   2   4   78.50    1.37 
  -6  -2  -4   14.24    0.35 
  -6  -2  -4   14.58    0.36 
  -6  -2  -4   14.38    0.30 
   6   2   4   14.77    0.28 
   6   2   4   14.73    0.34 
   6   2   4   14.21    0.33 
   6   2   4   14.41    0.30 
  -7  -2  -4    1.82    0.14 
  -7  -2  -4    1.90    0.13 
  -7  -2  -4    1.92    0.10 
   7   2   4    1.92    0.11 
   7   2   4    2.09    0.12 
   7   2   4    1.95    0.12 
   7   2   4    2.02    0.08 
  -8  -2  -4    1.62    0.14 
  -8  -2  -4    1.53    0.10 
  -8  -2  -4    1.60    0.15 
   8   2   4    1.63    0.12 
   8   2   4    1.56    0.12 
   8   2   4    1.50    0.07 
  -9  -2  -4   11.16    0.37 
  -9  -2  -4   10.44    0.37 
   9   2   4   10.31    0.32 
   9   2   4   10.08    0.23 
 -10  -2  -4    0.00    0.07 
 -10  -2  -4    0.21    0.09 
   7  -3  -4    3.00    0.29 
  -7   3   4    2.44    0.21 
  -7   3   4    2.65    0.22 
  -7   3   4    2.64    0.21 
   6  -3  -4    0.22    0.08 
  -6   3   4    0.28    0.09 
  -6   3   4    0.22    0.09 
  -6   3   4    0.21    0.08 
   5  -3  -4    3.97    0.17 
   5  -3  -4    3.85    0.20 
  -5   3   4    3.84    0.20 
  -5   3   4    3.74    0.21 
  -5   3   4    3.68    0.20 
   4  -3  -4    5.34    0.19 
   4  -3  -4    5.62    0.22 
  -4   3   4    5.52    0.23 
  -4   3   4    5.48    0.22 
  -4   3   4    5.94    0.23 
   3  -3  -4    1.39    0.09 
   3  -3  -4    1.40    0.11 
   3  -3  -4    1.37    0.11 
  -3   3   4    1.51    0.11 
  -3   3   4    1.49    0.11 
  -3   3   4    1.27    0.11 
   2  -3  -4    0.52    0.07 
   2  -3  -4    0.84    0.08 
  -2   3   4    0.51    0.06 
  -2   3   4    0.62    0.07 
  -2   3   4    0.54    0.07 
  -2   3   4    0.59    0.06 
   1  -3  -4    7.94    0.20 
   1  -3  -4    8.15    0.23 
   1  -3  -4    7.98    0.22 
   1  -3  -4    8.11    0.23 
  -1   3   4    7.86    0.19 
  -1   3   4    8.43    0.22 
  -1   3   4    7.78    0.22 
  -1   3   4    8.10    0.23 
   0  -3  -4    7.10    0.19 
   0  -3  -4    6.57    0.19 
   0  -3  -4    6.87    0.18 
   0  -3  -4    6.35    0.19 
   0   3   4    6.80    0.19 
   0   3   4    6.71    0.18 
   0   3   4    6.79    0.19 
   0   3   4    6.87    0.18 
   0   3   4    6.63    0.15 
   0   3   4    6.75    0.17 
  -1  -3  -4   28.25    0.51 
  -1  -3  -4   28.51    0.50 
  -1  -3  -4   29.08    0.55 
  -1  -3  -4   27.71    0.54 
  -1  -3  -4   28.33    0.54 
   1   3   4   28.38    0.54 
   1   3   4   28.65    0.51 
   1   3   4   28.73    0.52 
   1   3   4   27.66    0.53 
   1   3   4   29.01    0.54 
  -2  -3  -4    2.20    0.06 
  -2  -3  -4    2.12    0.09 
  -2  -3  -4    2.21    0.09 
  -2  -3  -4    2.13    0.09 
   2   3   4    2.09    0.09 
   2   3   4    2.20    0.07 
   2   3   4    2.19    0.09 
   2   3   4    2.17    0.06 
   2   3   4    2.21    0.09 
  -3  -3  -4   94.15    1.62 
  -3  -3  -4   95.61    1.62 
  -3  -3  -4   93.60    1.62 
   3   3   4   96.91    1.61 
   3   3   4   94.88    1.62 
   3   3   4   96.28    1.61 
  -4  -3  -4   13.83    0.33 
  -4  -3  -4   17.07    0.34 
  -4  -3  -4   14.26    0.33 
   4   3   4   14.79    0.32 
   4   3   4   14.59    0.32 
   4   3   4   14.21    0.32 
  -5  -3  -4   21.79    0.46 
  -5  -3  -4   21.17    0.46 
   5   3   4   21.88    0.38 
   5   3   4   21.88    0.45 
   5   3   4   22.03    0.45 
  -6  -3  -4   19.22    0.45 
  -6  -3  -4   19.00    0.44 
   6   3   4   19.80    0.43 
   6   3   4   19.47    0.43 
   6   3   4   19.64    0.37 
  -7  -3  -4   -0.03    0.04 
  -7  -3  -4   -0.07    0.03 
   7   3   4   -0.02    0.03 
   7   3   4   -0.03    0.03 
   7   3   4    0.00    0.03 
  -8  -3  -4    0.24    0.07 
  -8  -3  -4    0.05    0.06 
   8   3   4    0.18    0.06 
   8   3   4    0.28    0.05 
   8   3   4    0.12    0.05 
  -9  -3  -4    1.90    0.18 
  -9  -3  -4    1.95    0.17 
   9   3   4    2.04    0.15 
   9   3   4    1.97    0.10 
 -10  -3  -4    0.64    0.12 
 -10  -3  -4    0.49    0.12 
  10   3   4    0.58    0.07 
  -7   4   4   -0.13    0.09 
  -7   4   4   -0.15    0.08 
   6  -4  -4    0.06    0.07 
  -6   4   4    0.06    0.08 
  -6   4   4   -0.14    0.07 
  -6   4   4   -0.01    0.07 
   5  -4  -4    0.51    0.09 
  -5   4   4    0.45    0.09 
  -5   4   4    0.47    0.09 
  -5   4   4    0.55    0.10 
   4  -4  -4    7.21    0.28 
  -4   4   4    7.68    0.28 
  -4   4   4    7.55    0.29 
  -4   4   4    7.51    0.27 
   3  -4  -4    0.28    0.07 
  -3   4   4    0.14    0.06 
   2  -4  -4    4.68    0.18 
   2  -4  -4    4.41    0.18 
  -2   4   4    4.68    0.18 
  -2   4   4    4.56    0.16 
  -2   4   4    4.62    0.19 
   1  -4  -4    7.19    0.22 
   1  -4  -4    7.14    0.22 
  -1   4   4    7.23    0.22 
  -1   4   4    6.79    0.19 
  -1   4   4    7.17    0.20 
  -1   4   4    7.29    0.21 
  -1   4   4    7.12    0.23 
   0  -4  -4   10.07    0.26 
   0  -4  -4    9.59    0.22 
   0  -4  -4    8.71    0.24 
   0  -4  -4    9.27    0.25 
   0   4   4    8.91    0.25 
   0   4   4    9.52    0.23 
   0   4   4    9.33    0.21 
   0   4   4    9.19    0.25 
   0   4   4    9.36    0.23 
  -1  -4  -4   53.96    0.97 
  -1  -4  -4   51.43    0.96 
  -1  -4  -4   53.37    0.94 
  -1  -4  -4   54.42    0.97 
  -1  -4  -4   53.29    0.93 
   1   4   4   53.93    0.97 
   1   4   4   53.43    0.96 
   1   4   4   53.91    0.94 
   1   4   4   52.62    0.93 
  -2  -4  -4  156.87    2.81 
  -2  -4  -4  170.31    2.78 
  -2  -4  -4  168.34    2.82 
  -2  -4  -4  167.44    2.82 
  -2  -4  -4  171.27    2.77 
   2   4   4  170.88    2.76 
   2   4   4  171.19    2.82 
   2   4   4  171.93    2.83 
   2   4   4  171.32    2.79 
  -3  -4  -4    9.75    0.25 
  -3  -4  -4    9.98    0.25 
  -3  -4  -4    9.82    0.25 
   3   4   4    9.79    0.25 
   3   4   4   10.00    0.25 
   3   4   4   10.00    0.18 
  -4  -4  -4   20.94    0.44 
  -4  -4  -4   20.13    0.44 
  -4  -4  -4   20.78    0.44 
   4   4   4   20.69    0.43 
   4   4   4   20.83    0.44 
  -5  -4  -4    1.24    0.09 
  -5  -4  -4    1.09    0.09 
  -5  -4  -4    1.16    0.10 
   5   4   4    1.13    0.09 
   5   4   4    1.14    0.09 
  -6  -4  -4    3.65    0.16 
  -6  -4  -4    3.98    0.17 
   6   4   4    3.86    0.16 
   6   4   4    3.65    0.09 
   6   4   4    3.68    0.15 
  -7  -4  -4   18.10    0.45 
  -7  -4  -4   17.71    0.45 
   7   4   4   17.71    0.35 
   7   4   4   18.75    0.43 
   7   4   4   18.35    0.43 
  -8  -4  -4    0.88    0.11 
  -8  -4  -4    0.97    0.11 
   8   4   4    0.98    0.10 
   8   4   4    1.21    0.11 
  -9  -4  -4    0.20    0.08 
  -9  -4  -4    0.36    0.09 
   9   4   4    0.22    0.07 
 -10  -4  -4    1.06    0.15 
 -10  -4  -4    0.79    0.14 
  10   4   4    0.97    0.09 
  -6   5   4    6.06    0.30 
  -6   5   4    6.03    0.30 
  -6   5   4    6.09    0.31 
   5  -5  -4    1.19    0.13 
  -5   5   4    1.20    0.15 
  -5   5   4    1.06    0.14 
   4  -5  -4    1.91    0.16 
  -4   5   4    1.74    0.17 
  -4   5   4    2.01    0.16 
   3  -5  -4   27.54    0.63 
  -3   5   4   27.52    0.62 
  -3   5   4   26.84    0.64 
   2  -5  -4    2.22    0.14 
  -2   5   4    2.13    0.14 
  -2   5   4    2.14    0.15 
   1  -5  -4    0.06    0.04 
   1  -5  -4    0.12    0.04 
  -1   5   4    0.04    0.04 
  -1   5   4    0.16    0.05 
  -1   5   4    0.13    0.05 
  -1   5   4    0.16    0.04 
   0  -5  -4   -0.01    0.03 
   0  -5  -4    0.06    0.03 
   0  -5  -4    0.04    0.03 
   0   5   4    0.07    0.03 
   0   5   4    0.05    0.04 
   0   5   4    0.01    0.03 
   0   5   4    0.03    0.03 
   0   5   4    0.03    0.04 
  -1  -5  -4   12.63    0.30 
  -1  -5  -4   13.01    0.32 
  -1  -5  -4   13.12    0.30 
   1   5   4   13.04    0.33 
   1   5   4   12.63    0.29 
   1   5   4   12.99    0.29 
   1   5   4   12.53    0.31 
  -2  -5  -4    8.02    0.23 
  -2  -5  -4    7.80    0.20 
  -2  -5  -4    7.85    0.20 
  -2  -5  -4    7.56    0.23 
  -2  -5  -4    7.77    0.25 
   2   5   4    7.75    0.23 
   2   5   4    7.50    0.22 
   2   5   4    7.88    0.19 
  -3  -5  -4    7.35    0.22 
  -3  -5  -4    7.78    0.20 
  -3  -5  -4    7.72    0.23 
  -3  -5  -4    7.57    0.23 
   3   5   4    7.86    0.23 
   3   5   4    7.68    0.17 
   3   5   4    8.00    0.22 
  -4  -5  -4   12.79    0.32 
  -4  -5  -4   12.42    0.32 
   4   5   4   13.30    0.32 
   4   5   4   12.81    0.24 
  -5  -5  -4   28.97    0.60 
  -5  -5  -4   28.32    0.60 
   5   5   4   29.35    0.60 
  -6  -5  -4    7.48    0.24 
  -6  -5  -4    6.90    0.24 
   6   5   4    6.77    0.14 
   6   5   4    6.88    0.22 
   6   5   4    6.95    0.23 
  -7  -5  -4    2.47    0.15 
  -7  -5  -4    2.25    0.15 
   7   5   4    2.40    0.14 
   7   5   4    2.33    0.08 
   7   5   4    2.39    0.14 
  -8  -5  -4    9.31    0.31 
  -8  -5  -4    8.82    0.32 
   8   5   4    8.83    0.29 
   8   5   4    9.01    0.29 
  -9  -5  -4   -0.05    0.06 
  -9  -5  -4    0.07    0.07 
   9   5   4   -0.03    0.05 
 -10  -5  -4    0.06    0.08 
 -10  -5  -4    0.00    0.08 
  10   5   4    0.04    0.06 
  -5   6   4    0.39    0.12 
  -5   6   4    0.42    0.11 
   4  -6  -4    0.18    0.07 
  -4   6   4    0.15    0.07 
  -4   6   4    0.21    0.09 
   3  -6  -4    2.18    0.16 
  -3   6   4    2.30    0.19 
  -3   6   4    2.36    0.17 
   2  -6  -4   37.19    0.79 
  -2   6   4   37.73    0.81 
  -2   6   4   37.44    0.79 
  -2   6   4   36.66    0.75 
   1  -6  -4    5.10    0.21 
  -1   6   4    5.37    0.23 
  -1   6   4    5.39    0.21 
  -1   6   4    5.25    0.19 
   0  -6  -4   10.93    0.29 
   0  -6  -4   10.44    0.30 
   0   6   4   10.38    0.28 
   0   6   4   10.87    0.32 
   0   6   4   10.66    0.29 
  -1  -6  -4    0.17    0.04 
  -1  -6  -4    0.19    0.05 
   1   6   4    0.21    0.05 
   1   6   4    0.22    0.04 
   1   6   4    0.11    0.04 
  -2  -6  -4    1.66    0.11 
  -2  -6  -4    1.68    0.12 
  -2  -6  -4    1.79    0.10 
  -2  -6  -4    1.76    0.09 
   2   6   4    2.30    0.10 
   2   6   4    1.88    0.12 
  -3  -6  -4   37.75    0.71 
  -3  -6  -4   39.40    0.76 
  -3  -6  -4   36.63    0.75 
   3   6   4   37.26    0.68 
   3   6   4   38.06    0.76 
  -4  -6  -4   13.91    0.35 
  -4  -6  -4   13.46    0.35 
  -4  -6  -4   13.89    0.32 
   4   6   4   13.57    0.28 
   4   6   4   13.68    0.35 
  -5  -6  -4    1.43    0.12 
  -5  -6  -4    1.76    0.12 
   5   6   4    1.66    0.12 
   5   6   4    1.58    0.06 
  -6  -6  -4   15.32    0.40 
  -6  -6  -4   15.12    0.40 
   6   6   4   15.75    0.40 
   6   6   4   15.34    0.29 
   6   6   4   15.12    0.29 
  -7  -6  -4    1.09    0.12 
  -7  -6  -4    0.93    0.10 
   7   6   4    0.86    0.10 
   7   6   4    0.99    0.10 
  -8  -6  -4   -0.03    0.05 
  -8  -6  -4    0.03    0.06 
   8   6   4    0.01    0.05 
   8   6   4    0.03    0.06 
  -9  -6  -4    5.25    0.26 
  -9  -6  -4    5.74    0.26 
   9   6   4    5.37    0.24 
 -10  -6  -4    0.20    0.10 
 -10  -6  -4    0.06    0.08 
  10   6   4    0.19    0.08 
  -4   7   4    2.49    0.21 
  -4   7   4    2.72    0.22 
   3  -7  -4    1.98    0.16 
  -3   7   4    1.99    0.19 
  -3   7   4    1.93    0.17 
   2  -7  -4    4.01    0.21 
  -2   7   4    3.90    0.22 
  -2   7   4    3.91    0.21 
   1  -7  -4    0.80    0.10 
  -1   7   4    0.66    0.10 
  -1   7   4    1.07    0.11 
  -1   7   4    0.93    0.11 
   0  -7  -4    1.45    0.13 
   0  -7  -4    1.39    0.11 
   0   7   4    1.16    0.10 
   0   7   4    1.47    0.12 
   0   7   4    1.49    0.14 
  -1  -7  -4    0.07    0.04 
  -1  -7  -4    0.02    0.04 
   1   7   4    0.03    0.04 
   1   7   4   -0.03    0.04 
   1   7   4   -0.01    0.03 
  -2  -7  -4    0.54    0.08 
  -2  -7  -4    0.72    0.09 
  -2  -7  -4    0.74    0.08 
   2   7   4    0.93    0.11 
   2   7   4    0.76    0.07 
  -3  -7  -4    0.05    0.05 
  -3  -7  -4    0.06    0.04 
  -3  -7  -4    0.02    0.05 
   3   7   4    0.04    0.03 
   3   7   4    0.01    0.04 
  -4  -7  -4    1.75    0.11 
  -4  -7  -4    1.69    0.13 
  -4  -7  -4    1.62    0.13 
   4   7   4    1.66    0.13 
   4   7   4    1.74    0.08 
  -5  -7  -4    7.97    0.27 
  -5  -7  -4    7.96    0.27 
   5   7   4    8.28    0.27 
   5   7   4    7.71    0.19 
  -6  -7  -4   11.10    0.34 
  -6  -7  -4   11.40    0.34 
   6   7   4   11.62    0.34 
   6   7   4   10.97    0.24 
  -7  -7  -4    0.39    0.08 
  -7  -7  -4    0.70    0.11 
   7   7   4    0.57    0.05 
   7   7   4    0.52    0.09 
   7   7   4    0.57    0.09 
  -8  -7  -4    1.29    0.14 
  -8  -7  -4    1.55    0.15 
   8   7   4    1.36    0.14 
   8   7   4    1.06    0.11 
  -9  -7  -4    0.95    0.14 
  -9  -7  -4    0.78    0.12 
   9   7   4    1.01    0.13 
 -10  -7  -4    1.41    0.17 
 -10  -7  -4    1.79    0.18 
  10   7   4    1.84    0.17 
  -3   8   4    0.57    0.13 
  -3   8   4    0.50    0.11 
   2  -8  -4    0.06    0.07 
  -2   8   4   -0.01    0.07 
  -2   8   4   -0.06    0.06 
   1  -8  -4    0.00    0.05 
  -1   8   4    0.14    0.08 
  -1   8   4    0.05    0.06 
   0  -8  -4   10.54    0.34 
   0  -8  -4   10.74    0.33 
   0   8   4   10.80    0.36 
   0   8   4   11.05    0.37 
   0   8   4   10.76    0.33 
  -1  -8  -4   17.39    0.45 
  -1  -8  -4   16.75    0.44 
   1   8   4   17.12    0.42 
   1   8   4   17.78    0.47 
   1   8   4   16.74    0.41 
  -2  -8  -4    2.59    0.16 
  -2  -8  -4    2.44    0.15 
   2   8   4    2.61    0.13 
   2   8   4    2.63    0.17 
  -3  -8  -4    0.06    0.05 
  -3  -8  -4   -0.06    0.05 
  -3  -8  -4    0.00    0.05 
   3   8   4   -0.01    0.05 
   3   8   4   -0.02    0.03 
  -4  -8  -4    8.60    0.29 
  -4  -8  -4    8.71    0.29 
  -4  -8  -4    8.39    0.27 
   4   8   4    8.80    0.30 
   4   8   4    8.53    0.23 
  -5  -8  -4   16.34    0.44 
  -5  -8  -4   16.64    0.41 
  -5  -8  -4   16.80    0.44 
   5   8   4   15.91    0.35 
   5   8   4   16.63    0.44 
  -6  -8  -4    0.01    0.06 
  -6  -8  -4    0.03    0.06 
  -6  -8  -4    0.08    0.06 
   6   8   4   -0.01    0.03 
   6   8   4   -0.04    0.05 
  -7  -8  -4    4.03    0.22 
  -7  -8  -4    4.56    0.22 
   7   8   4    4.69    0.22 
   7   8   4    4.16    0.13 
  -8  -8  -4    0.00    0.07 
  -8  -8  -4    0.10    0.07 
   8   8   4    0.17    0.07 
   8   8   4    0.12    0.06 
  -9  -8  -4    1.75    0.18 
  -9  -8  -4    1.98    0.19 
   9   8   4    1.89    0.17 
 -10  -8  -4   -0.04    0.08 
 -10  -8  -4    0.06    0.08 
  10   8   4    0.11    0.08 
  -2   9   4    5.05    0.29 
  -2   9   4    4.67    0.26 
  -1   9   4    1.20    0.14 
  -1   9   4    1.17    0.14 
   0  -9  -4    0.72    0.11 
   0   9   4    0.58    0.12 
   0   9   4    0.57    0.10 
  -1  -9  -4    7.12    0.28 
  -1  -9  -4    7.32    0.28 
   1   9   4    7.45    0.30 
   1   9   4    7.17    0.26 
  -2  -9  -4    0.82    0.11 
  -2  -9  -4    0.77    0.10 
   2   9   4    0.80    0.10 
   2   9   4    0.94    0.12 
  -3  -9  -4    1.40    0.13 
  -3  -9  -4    0.94    0.11 
   3   9   4    1.35    0.11 
   3   9   4    1.45    0.14 
  -4  -9  -4    3.39    0.19 
  -4  -9  -4    3.02    0.18 
  -4  -9  -4    3.10    0.17 
   4   9   4    3.04    0.14 
   4   9   4    3.13    0.19 
  -5  -9  -4    1.68    0.15 
  -5  -9  -4    1.67    0.14 
  -5  -9  -4    1.81    0.14 
   5   9   4    1.49    0.14 
   5   9   4    1.62    0.10 
  -6  -9  -4    2.37    0.18 
  -6  -9  -4    2.44    0.16 
  -6  -9  -4    2.46    0.17 
   6   9   4    2.47    0.17 
   6   9   4    2.49    0.11 
  -7  -9  -4    5.60    0.26 
  -7  -9  -4    5.16    0.26 
  -7  -9  -4    5.61    0.23 
   7   9   4    5.56    0.26 
  -8  -9  -4   -0.07    0.07 
  -8  -9  -4    0.12    0.08 
   8   9   4    0.10    0.08 
   8   9   4    0.23    0.08 
  -9  -9  -4    0.42    0.11 
  -9  -9  -4    0.24    0.09 
   9   9   4    0.51    0.11 
  -1  10   4    1.59    0.19 
  -1  10   4    1.54    0.17 
   0  10   4    1.33    0.15 
   0  10   4    1.54    0.18 
  -1 -10  -4    0.31    0.09 
  -1 -10  -4    0.35    0.11 
   1  10   4    0.29    0.09 
   1  10   4    0.43    0.09 
  -2 -10  -4    0.64    0.11 
  -2 -10  -4    0.82    0.11 
   2  10   4    0.71    0.11 
   2  10   4    0.71    0.10 
  -3 -10  -4    4.68    0.23 
  -3 -10  -4    4.48    0.23 
   3  10   4    4.75    0.25 
   3  10   4    4.70    0.20 
  -4 -10  -4   -0.07    0.06 
  -4 -10  -4    0.00    0.06 
  -4 -10  -4   -0.09    0.05 
   4  10   4    0.03    0.04 
   4  10   4    0.05    0.06 
  -5 -10  -4    0.00    0.07 
  -5 -10  -4    0.02    0.06 
  -5 -10  -4    0.05    0.06 
   5  10   4   -0.01    0.07 
   5  10   4   -0.02    0.03 
  -6 -10  -4    0.18    0.08 
  -6 -10  -4    0.09    0.07 
  -6 -10  -4    0.07    0.07 
   6  10   4    0.03    0.07 
   6  10   4    0.00    0.04 
  -7 -10  -4    1.34    0.15 
  -7 -10  -4    1.49    0.15 
  -7 -10  -4    1.73    0.17 
   7  10   4    1.69    0.18 
  -8 -10  -4    0.41    0.11 
  -8 -10  -4    0.35    0.10 
  -8 -10  -4    0.31    0.11 
   8  10   4    0.28    0.09 
  -1 -11  -4    1.40    0.16 
   1  11   4    1.34    0.18 
   1  11   4    1.56    0.16 
  -2 -11  -4    0.29    0.09 
   2  11   4    0.36    0.08 
   2  11   4    0.35    0.10 
  -3 -11  -4    2.49    0.19 
   3  11   4    2.66    0.21 
   3  11   4    2.87    0.17 
  -4 -11  -4    0.11    0.08 
   4  11   4    0.04    0.08 
   4  11   4    0.16    0.06 
  -5 -11  -4    0.10    0.07 
  -5 -11  -4    0.20    0.08 
  -5 -11  -4    0.22    0.09 
   5  11   4    0.20    0.06 
   5  11   4    0.15    0.08 
  -6 -11  -4    0.01    0.08 
  -6 -11  -4   -0.05    0.07 
  -6 -11  -4   -0.08    0.06 
   6  11   4    0.06    0.07 
  -7 -11  -4    0.42    0.11 
  -7 -11  -4    0.37    0.18 
  -7 -11  -4    0.54    0.12 
   7  11   4    0.35    0.11 
   4  11  -5    0.03    0.08 
   4  11  -5    0.08    0.08 
  -4 -11   5    0.09    0.10 
   3  11  -5   -0.04    0.09 
   3  11  -5    0.05    0.08 
  -3 -11   5    0.01    0.09 
   2  11  -5    0.38    0.10 
   2  11  -5    0.42    0.12 
  -2 -11   5    0.25    0.11 
   6  10  -5    1.25    0.14 
   6  10  -5    1.14    0.14 
  -6 -10   5    1.70    0.19 
   5  10  -5    0.60    0.10 
  -5 -10   5    0.81    0.14 
   4  10  -5   -0.01    0.06 
  -4 -10   5    0.19    0.09 
   3  10  -5    0.78    0.13 
   3  10  -5    0.82    0.11 
  -3 -10   5    1.04    0.14 
   2  10  -5    0.28    0.08 
   2  10  -5    0.33    0.10 
  -2 -10   5    0.39    0.11 
   1  10  -5    2.47    0.21 
   1  10  -5    2.64    0.18 
  -1 -10   5    2.46    0.21 
   0  10  -5    0.71    0.13 
   0  10  -5    0.98    0.12 
   0 -10   5    1.07    0.17 
  -1  10  -5    0.56    0.10 
  -1  10  -5    0.59    0.14 
   7   9  -5    0.09    0.08 
   7   9  -5    0.02    0.07 
  -7  -9   5   -0.05    0.07 
   6   9  -5    0.16    0.08 
   6   9  -5    0.11    0.07 
  -6  -9   5    0.14    0.08 
   5   9  -5    1.32    0.14 
  -5  -9   5    0.75    0.12 
   4   9  -5    0.10    0.06 
  -4  -9   5    0.15    0.09 
   3   9  -5    0.19    0.07 
  -3  -9   5    0.07    0.07 
   2   9  -5    0.08    0.06 
   2   9  -5    0.01    0.07 
  -2  -9   5    0.05    0.08 
   1   9  -5    5.56    0.22 
   1   9  -5    5.04    0.27 
  -1  -9   5    5.56    0.28 
   0   9  -5    0.01    0.07 
   0   9  -5   -0.03    0.05 
   0  -9   5    0.08    0.08 
  -1   9  -5    1.71    0.14 
  -1   9  -5    1.65    0.17 
   1  -9   5    1.58    0.18 
  -2   9  -5    1.59    0.14 
  -2   9  -5    1.88    0.19 
  -3   9  -5    0.50    0.10 
  -3   9  -5    0.40    0.12 
   8   8  -5    0.35    0.11 
   8   8  -5    0.42    0.11 
  -8  -8   5    0.40    0.10 
   7   8  -5    3.27    0.22 
   7   8  -5    2.85    0.20 
  -7  -8   5    2.61    0.19 
   6   8  -5    2.98    0.19 
   6   8  -5    2.76    0.18 
  -6  -8   5    2.88    0.19 
   5   8  -5    3.77    0.20 
  -5  -8   5    3.52    0.20 
   4   8  -5    5.80    0.23 
  -4  -8   5    5.88    0.25 
   3   8  -5    0.18    0.06 
  -3  -8   5    0.13    0.08 
   2   8  -5    5.24    0.20 
  -2  -8   5    5.54    0.25 
  -2  -8   5    5.02    0.14 
   1   8  -5    2.58    0.15 
   1   8  -5    2.98    0.20 
  -1  -8   5    3.01    0.19 
   0   8  -5    0.49    0.10 
   0   8  -5    0.46    0.08 
   0  -8   5    0.58    0.10 
  -1   8  -5    0.19    0.08 
  -1   8  -5    0.26    0.07 
   1  -8   5    0.07    0.08 
  -2   8  -5    0.00    0.06 
  -2   8  -5    0.06    0.05 
  -3   8  -5    0.01    0.06 
  -3   8  -5    0.02    0.07 
  -4   8  -5    0.51    0.12 
  -4   8  -5    0.46    0.09 
   8   7  -5    0.73    0.14 
   8   7  -5    0.95    0.14 
   7   7  -5    0.39    0.10 
   7   7  -5    0.47    0.10 
   6   7  -5    0.10    0.07 
   6   7  -5    0.19    0.07 
  -6  -7   5    0.10    0.06 
  -6  -7   5    0.17    0.07 
   5   7  -5    0.94    0.11 
   5   7  -5    0.98    0.12 
  -5  -7   5    1.17    0.12 
  -5  -7   5    0.93    0.09 
   4   7  -5    0.46    0.08 
   4   7  -5    0.34    0.07 
  -4  -7   5    0.37    0.08 
  -4  -7   5    0.49    0.07 
  -4  -7   5    0.41    0.06 
   3   7  -5    0.16    0.05 
   3   7  -5    0.28    0.06 
   3   7  -5    0.15    0.05 
  -3  -7   5    0.21    0.04 
  -3  -7   5    0.20    0.07 
  -3  -7   5    0.25    0.04 
   2   7  -5    0.39    0.06 
   2   7  -5    0.47    0.06 
   2   7  -5    0.46    0.06 
  -2  -7   5    0.46    0.04 
  -2  -7   5    0.38    0.09 
   1   7  -5    0.61    0.07 
   1   7  -5    0.61    0.08 
   1   7  -5    0.56    0.07 
  -1  -7   5    0.76    0.12 
   0   7  -5   15.67    0.36 
   0   7  -5   15.14    0.37 
   0   7  -5   15.77    0.45 
   0   7  -5   15.32    0.41 
   0  -7   5   16.10    0.45 
  -1   7  -5    0.53    0.07 
  -1   7  -5    0.61    0.11 
  -1   7  -5    0.52    0.07 
   1  -7   5    0.57    0.10 
  -2   7  -5    3.32    0.16 
  -2   7  -5    3.53    0.21 
  -3   7  -5    2.76    0.15 
  -3   7  -5    2.55    0.19 
  -4   7  -5    1.99    0.15 
  -4   7  -5    2.36    0.18 
  -5   7  -5    0.07    0.06 
  -5   7  -5   -0.02    0.07 
   8   6  -5    0.52    0.12 
   8   6  -5    0.48    0.11 
  -8  -6   5    0.69    0.12 
   7   6  -5    1.03    0.13 
   7   6  -5    0.79    0.12 
  -7  -6   5    1.01    0.11 
   6   6  -5   -0.11    0.06 
   6   6  -5   -0.02    0.06 
  -6  -6   5   -0.05    0.04 
   5   6  -5   14.47    0.39 
   5   6  -5   15.33    0.40 
   5   6  -5   14.24    0.39 
  -5  -6   5   14.70    0.36 
  -5  -6   5   15.38    0.39 
   4   6  -5   15.62    0.39 
   4   6  -5   16.02    0.40 
   4   6  -5   15.79    0.39 
   4   6  -5   15.44    0.38 
  -4  -6   5   15.92    0.40 
  -4  -6   5   15.71    0.35 
  -4  -6   5   15.70    0.36 
   3   6  -5    8.82    0.25 
   3   6  -5    8.35    0.24 
   3   6  -5    8.68    0.25 
  -3  -6   5    8.54    0.21 
  -3  -6   5    8.19    0.26 
  -3  -6   5    8.50    0.21 
   2   6  -5    1.87    0.10 
   2   6  -5    1.96    0.10 
   2   6  -5    1.95    0.10 
  -2  -6   5    1.95    0.07 
  -2  -6   5    1.80    0.13 
   1   6  -5    0.07    0.03 
   1   6  -5    0.12    0.04 
   1   6  -5    0.07    0.03 
  -1  -6   5    0.02    0.05 
   0   6  -5   15.87    0.34 
   0   6  -5   15.20    0.34 
   0   6  -5   15.70    0.35 
   0  -6   5   15.71    0.42 
  -1   6  -5   -0.01    0.04 
  -1   6  -5    0.08    0.06 
  -1   6  -5    0.09    0.04 
  -1   6  -5    0.08    0.04 
   1  -6   5    0.18    0.08 
  -2   6  -5    9.93    0.33 
  -2   6  -5    9.17    0.25 
  -2   6  -5    9.51    0.26 
  -2   6  -5    9.52    0.26 
  -3   6  -5    1.23    0.13 
  -3   6  -5    0.99    0.09 
  -4   6  -5    0.55    0.08 
  -4   6  -5    0.57    0.10 
  -4   6  -5    0.85    0.09 
  -5   6  -5   -0.06    0.06 
  -5   6  -5   -0.07    0.04 
  -5   6  -5   -0.02    0.05 
  -6   6  -5    0.92    0.13 
  -6   6  -5    0.84    0.11 
  -6   6  -5    0.92    0.12 
   9   5  -5    0.00    0.09 
   9   5  -5   -0.14    0.07 
  -9  -5   5    0.04    0.09 
   8   5  -5   -0.09    0.07 
   8   5  -5   -0.04    0.08 
  -8  -5   5    0.02    0.06 
   7   5  -5    0.55    0.11 
   7   5  -5    0.48    0.10 
  -7  -5   5    0.44    0.08 
   6   5  -5    1.25    0.12 
   6   5  -5    1.73    0.21 
   6   5  -5    1.19    0.13 
  -6  -5   5    1.21    0.11 
  -6  -5   5    1.18    0.11 
   5   5  -5    2.06    0.14 
   5   5  -5    2.27    0.15 
   5   5  -5    2.34    0.15 
  -5  -5   5    2.16    0.12 
  -5  -5   5    2.19    0.13 
   4   5  -5    4.37    0.18 
   4   5  -5    4.20    0.17 
   4   5  -5    4.32    0.17 
   4   5  -5    4.32    0.17 
  -4  -5   5    4.20    0.15 
  -4  -5   5    4.37    0.17 
  -4  -5   5    4.38    0.16 
   3   5  -5    9.42    0.25 
   3   5  -5    9.63    0.26 
   3   5  -5    9.40    0.25 
  -3  -5   5    9.56    0.23 
  -3  -5   5    9.45    0.22 
  -3  -5   5    9.43    0.26 
   2   5  -5    6.66    0.19 
   2   5  -5    6.74    0.19 
   2   5  -5    6.36    0.18 
  -2  -5   5    6.57    0.15 
  -2  -5   5    6.73    0.15 
  -2  -5   5    6.82    0.22 
   1   5  -5    4.46    0.13 
   1   5  -5    4.35    0.14 
   1   5  -5    4.71    0.14 
  -1  -5   5    4.25    0.17 
   0   5  -5    4.26    0.13 
   0   5  -5    4.05    0.12 
   0   5  -5    4.18    0.13 
   0  -5   5    4.33    0.18 
  -1   5  -5    0.38    0.04 
  -1   5  -5    0.37    0.07 
  -1   5  -5    0.39    0.05 
  -1   5  -5    0.40    0.04 
   1  -5   5    0.30    0.07 
  -2   5  -5   29.45    0.57 
  -2   5  -5   30.39    0.58 
  -2   5  -5   31.07    0.67 
  -3   5  -5    2.25    0.11 
  -3   5  -5    2.16    0.11 
  -3   5  -5    2.10    0.11 
  -3   5  -5    2.37    0.15 
  -4   5  -5    3.07    0.16 
  -4   5  -5    2.81    0.17 
  -4   5  -5    3.17    0.15 
  -4   5  -5    3.29    0.15 
  -5   5  -5    0.95    0.11 
  -5   5  -5    1.00    0.10 
  -5   5  -5    0.86    0.12 
  -6   5  -5    3.51    0.19 
  -6   5  -5    3.85    0.20 
  -6   5  -5    3.97    0.22 
  -7   5  -5    2.13    0.18 
  -7   5  -5    1.75    0.17 
  -7   5  -5    1.89    0.18 
   9   4  -5    0.28    0.11 
  -9  -4   5    0.06    0.08 
   8   4  -5    0.81    0.12 
  -8  -4   5    0.83    0.11 
   7   4  -5    5.46    0.25 
  -7  -4   5    5.79    0.27 
  -7  -4   5    5.00    0.22 
   6   4  -5    3.14    0.18 
   6   4  -5    3.39    0.18 
  -6  -4   5    3.09    0.17 
  -6  -4   5    3.12    0.16 
   5   4  -5   14.11    0.38 
   5   4  -5   14.08    0.37 
  -5  -4   5   14.00    0.35 
  -5  -4   5   14.37    0.36 
   4   4  -5    3.52    0.15 
   4   4  -5    3.42    0.15 
   4   4  -5    3.46    0.15 
  -4  -4   5    3.62    0.14 
   3   4  -5   23.48    0.49 
   3   4  -5   24.11    0.50 
   3   4  -5   24.32    0.50 
  -3  -4   5   24.74    0.47 
  -3  -4   5   24.85    0.50 
  -3  -4   5   24.17    0.47 
   2   4  -5   41.18    0.75 
   2   4  -5   40.88    0.75 
  -2  -4   5   41.33    0.71 
  -2  -4   5   42.02    0.78 
   1   4  -5   21.34    0.41 
   1   4  -5   21.47    0.41 
   1   4  -5   21.40    0.41 
  -1  -4   5   21.33    0.45 
   0   4  -5    0.87    0.05 
   0   4  -5    0.84    0.05 
   0   4  -5    0.88    0.05 
   0  -4   5    0.97    0.08 
  -1   4  -5    9.75    0.20 
  -1   4  -5    9.43    0.20 
  -1   4  -5    9.43    0.20 
   1  -4   5    9.69    0.28 
  -2   4  -5    5.19    0.15 
  -2   4  -5    5.39    0.20 
  -2   4  -5    5.31    0.14 
  -2   4  -5    5.37    0.14 
  -3   4  -5    0.13    0.05 
  -3   4  -5   -0.02    0.03 
  -3   4  -5    0.05    0.03 
  -3   4  -5    0.10    0.04 
  -4   4  -5    1.16    0.08 
  -4   4  -5    1.17    0.09 
  -4   4  -5    0.89    0.10 
  -4   4  -5    1.03    0.08 
  -5   4  -5    0.44    0.08 
  -5   4  -5    0.41    0.07 
  -5   4  -5    0.27    0.06 
  -6   4  -5    1.10    0.12 
  -6   4  -5    1.32    0.12 
  -6   4  -5    1.16    0.12 
  -7   4  -5    1.48    0.15 
  -7   4  -5    1.80    0.16 
  -7   4  -5    1.69    0.15 
   9   3  -5    0.75    0.14 
  -9  -3   5    1.10    0.15 
   8   3  -5    0.14    0.08 
  -8  -3   5    0.01    0.06 
   7   3  -5    0.12    0.07 
  -7  -3   5    0.07    0.06 
  -7  -3   5    0.07    0.06 
   6   3  -5    1.25    0.12 
   6   3  -5    1.45    0.14 
  -6  -3   5    1.19    0.12 
  -6  -3   5    1.39    0.13 
   5   3  -5    0.00    0.05 
   5   3  -5    0.00    0.05 
  -5  -3   5    0.04    0.05 
  -5  -3   5    0.08    0.05 
   4   3  -5    0.11    0.04 
   4   3  -5    0.06    0.04 
   4   3  -5    0.11    0.04 
  -4  -3   5    0.16    0.04 
  -4  -3   5    0.06    0.04 
   3   3  -5    4.41    0.15 
   3   3  -5    4.32    0.15 
   3   3  -5    4.36    0.15 
  -3  -3   5    4.29    0.14 
  -3  -3   5    4.37    0.14 
   2   3  -5    4.54    0.13 
   2   3  -5    4.40    0.14 
   2   3  -5    4.83    0.14 
  -2  -3   5    4.38    0.12 
  -2  -3   5    4.38    0.14 
  -2  -3   5    4.71    0.12 
   1   3  -5   85.41    1.42 
   1   3  -5   84.94    1.43 
  -1  -3   5   84.64    1.46 
   0   3  -5   18.37    0.38 
   0   3  -5   18.78    0.33 
   0   3  -5   18.30    0.33 
   0  -3   5   18.53    0.40 
  -1   3  -5   16.83    0.37 
  -1   3  -5   17.04    0.30 
  -1   3  -5   17.13    0.30 
  -1   3  -5   17.00    0.30 
   1  -3   5   16.99    0.38 
  -2   3  -5   25.26    0.45 
  -2   3  -5   24.53    0.53 
  -2   3  -5   25.60    0.45 
  -2   3  -5   25.16    0.45 
  -3   3  -5   36.32    0.65 
  -3   3  -5   36.44    0.65 
  -3   3  -5   35.24    0.65 
  -3   3  -5   36.62    0.73 
  -4   3  -5    4.97    0.19 
  -4   3  -5    5.02    0.16 
  -4   3  -5    4.97    0.16 
  -4   3  -5    4.87    0.16 
  -5   3  -5    2.56    0.14 
  -5   3  -5    2.55    0.13 
  -5   3  -5    2.66    0.13 
  -5   3  -5    2.60    0.12 
   5  -3   5    2.65    0.07 
  -6   3  -5    6.20    0.23 
  -6   3  -5    5.95    0.23 
  -6   3  -5    5.98    0.23 
   6  -3   5    6.18    0.16 
  -7   3  -5    0.27    0.08 
  -7   3  -5    0.22    0.07 
  -7   3  -5    0.19    0.07 
  -8   3  -5    2.39    0.18 
  -8   3  -5    2.08    0.18 
  -8   3  -5    2.30    0.18 
   8   2  -5    0.02    0.07 
  -8  -2   5   -0.06    0.06 
   7   2  -5    0.01    0.07 
  -7  -2   5    0.13    0.07 
  -7  -2   5    0.14    0.07 
   6   2  -5    6.52    0.26 
   6   2  -5    6.82    0.27 
  -6  -2   5    6.60    0.25 
  -6  -2   5    6.95    0.25 
   5   2  -5   26.31    0.58 
   5   2  -5   25.95    0.59 
  -5  -2   5   26.52    0.57 
  -5  -2   5   26.05    0.57 
   4   2  -5    0.20    0.05 
   4   2  -5    0.04    0.04 
   4   2  -5    0.13    0.05 
  -4  -2   5    0.19    0.04 
  -4  -2   5    0.09    0.04 
   3   2  -5   19.08    0.41 
   3   2  -5   18.83    0.41 
   3   2  -5   18.89    0.41 
  -3  -2   5   18.88    0.39 
   2   2  -5    1.04    0.06 
   2   2  -5    1.06    0.06 
   2   2  -5    1.06    0.07 
  -2  -2   5    1.07    0.06 
  -2  -2   5    1.07    0.06 
   1   2  -5   27.47    0.50 
   1   2  -5   27.79    0.50 
   1   2  -5   27.65    0.50 
  -1  -2   5   27.35    0.51 
  -1  -2   5   28.33    0.46 
   0   2  -5  141.34    2.28 
   0   2  -5  140.69    2.31 
   0   2  -5  137.74    2.27 
   0  -2   5  140.03    2.33 
  -1   2  -5    1.65    0.08 
   1  -2   5    1.53    0.08 
  -2   2  -5   34.28    0.66 
  -2   2  -5   33.99    0.57 
  -2   2  -5   33.98    0.57 
  -2   2  -5   33.83    0.57 
  -2   2  -5   34.21    0.65 
  -3   2  -5   24.31    0.45 
  -3   2  -5   24.97    0.51 
  -3   2  -5   24.92    0.45 
  -3   2  -5   24.09    0.45 
  -4   2  -5    5.54    0.16 
  -4   2  -5    5.55    0.16 
  -4   2  -5    5.46    0.16 
  -4   2  -5    5.38    0.19 
  -5   2  -5    0.90    0.08 
  -5   2  -5    0.82    0.09 
  -5   2  -5    0.79    0.07 
  -5   2  -5    0.77    0.08 
   5  -2   5    0.78    0.04 
  -6   2  -5    1.09    0.10 
  -6   2  -5    1.13    0.10 
  -6   2  -5    0.95    0.10 
  -6   2  -5    0.97    0.09 
   6  -2   5    1.12    0.06 
   6  -2   5    1.00    0.06 
  -7   2  -5    2.28    0.16 
  -7   2  -5    2.32    0.15 
  -7   2  -5    2.13    0.15 
  -8   2  -5    3.53    0.21 
  -8   2  -5    3.72    0.20 
  -8   2  -5    3.55    0.21 
  -9   2  -5    1.44    0.16 
  -9   2  -5    1.48    0.16 
  -9   2  -5    1.57    0.18 
   8   1  -5    0.02    0.07 
  -8  -1   5    0.00    0.07 
   7   1  -5    1.98    0.17 
  -7  -1   5    2.27    0.17 
  -7  -1   5    1.85    0.16 
   6   1  -5    0.39    0.08 
  -6  -1   5    0.49    0.09 
  -6  -1   5    0.32    0.08 
   5   1  -5    3.09    0.16 
   5   1  -5    3.44    0.17 
  -5  -1   5    2.83    0.15 
  -5  -1   5    3.22    0.16 
   4   1  -5    9.52    0.28 
   4   1  -5    9.79    0.28 
  -4  -1   5    9.48    0.27 
  -4  -1   5    9.77    0.27 
   3   1  -5    2.29    0.12 
   3   1  -5    2.52    0.12 
   3   1  -5    2.21    0.11 
  -3  -1   5    2.31    0.11 
  -3  -1   5    2.33    0.11 
   2   1  -5    2.36    0.10 
   2   1  -5    2.51    0.10 
   2   1  -5    2.52    0.10 
  -2  -1   5    2.45    0.09 
  -2  -1   5    2.65    0.09 
  -2  -1   5    2.53    0.09 
   1   1  -5    6.12    0.15 
   1   1  -5    5.89    0.15 
   1   1  -5    5.78    0.15 
  -1  -1   5    5.84    0.13 
   0   1  -5   13.27    0.24 
   0   1  -5   13.06    0.25 
   0   1  -5   13.20    0.24 
   0  -1   5   13.01    0.26 
  -1   1  -5   51.94    0.90 
  -2   1  -5  108.48    1.78 
  -2   1  -5  109.27    1.85 
  -2   1  -5  110.81    1.78 
  -3   1  -5   84.39    1.42 
  -3   1  -5   85.99    1.42 
  -3   1  -5   85.73    1.49 
  -3   1  -5   86.42    1.42 
  -3   1  -5   83.82    1.46 
  -4   1  -5    5.12    0.16 
  -4   1  -5    4.73    0.14 
  -4   1  -5    4.88    0.14 
  -4   1  -5    4.78    0.11 
  -4   1  -5    4.69    0.14 
  -5   1  -5   10.73    0.27 
  -5   1  -5   10.40    0.26 
  -5   1  -5   10.72    0.27 
  -5   1  -5   10.51    0.27 
   5  -1   5   10.92    0.21 
   5  -1   5   10.40    0.22 
  -6   1  -5    6.15    0.20 
  -6   1  -5    6.32    0.21 
  -6   1  -5    6.19    0.20 
  -6   1  -5    6.11    0.21 
   6  -1   5    6.19    0.16 
  -7   1  -5   -0.06    0.04 
  -7   1  -5    0.00    0.04 
  -7   1  -5   -0.01    0.05 
  -8   1  -5    0.01    0.05 
  -8   1  -5   -0.04    0.05 
  -8   1  -5   -0.02    0.06 
  -9   1  -5    1.18    0.15 
  -9   1  -5    0.92    0.14 
  -9   1  -5    1.01    0.12 
   8   0  -5   -0.07    0.08 
  -8   0   5    0.03    0.08 
   7   0  -5    1.46    0.16 
  -7   0   5    1.40    0.14 
  -7   0   5    1.66    0.17 
   6   0  -5    0.49    0.09 
  -6   0   5    0.78    0.11 
  -6   0   5    0.72    0.11 
   5   0  -5    0.31    0.08 
   5   0  -5    0.36    0.08 
  -5   0   5    0.22    0.06 
  -5   0   5    0.23    0.06 
   4   0  -5    3.81    0.17 
   4   0  -5    3.86    0.17 
  -4   0   5    3.92    0.16 
  -4   0   5    4.10    0.17 
   3   0  -5    7.59    0.23 
   3   0  -5    7.62    0.23 
   3   0  -5    7.77    0.23 
  -3   0   5    7.68    0.22 
  -3   0   5    7.76    0.22 
   2   0  -5   45.89    0.85 
   2   0  -5   46.61    0.86 
   2   0  -5   46.45    0.85 
  -2   0   5   47.14    0.84 
  -2   0   5   46.75    0.85 
  -2   0   5   47.66    0.84 
   1   0  -5    0.28    0.04 
   1   0  -5    0.33    0.04 
   1   0  -5    0.45    0.04 
   1   0  -5    0.35    0.04 
  -1   0   5    0.31    0.03 
  -1   0   5    0.37    0.04 
   0   0  -5    0.48    0.04 
   0   0  -5    0.52    0.04 
   0   0  -5    0.49    0.04 
   0   0   5    0.45    0.02 
   0   0   5    0.43    0.02 
   0   0   5    0.49    0.03 
  -1   0  -5   79.72    1.32 
  -1   0  -5   79.94    1.32 
  -1   0  -5   80.36    1.33 
  -1   0  -5   80.18    1.32 
  -2   0  -5   97.86    1.61 
  -2   0  -5   98.87    1.65 
  -2   0  -5   97.51    1.61 
  -2   0  -5   99.75    1.62 
  -3   0  -5    0.67    0.04 
  -3   0  -5    0.61    0.04 
  -3   0  -5    0.67    0.04 
  -3   0  -5    0.78    0.06 
  -3   0  -5    0.69    0.05 
  -4   0  -5   18.53    0.36 
  -4   0  -5   18.17    0.37 
  -4   0  -5   18.52    0.37 
  -4   0  -5   18.28    0.37 
   4   0   5   18.72    0.33 
   4   0   5   18.27    0.33 
  -5   0  -5    1.75    0.09 
  -5   0  -5    1.79    0.10 
  -5   0  -5    1.80    0.09 
  -5   0  -5    1.78    0.10 
   5   0   5    1.73    0.07 
  -6   0  -5   21.84    0.47 
  -6   0  -5   21.84    0.49 
  -6   0  -5   22.17    0.49 
  -6   0  -5   21.95    0.46 
   6   0   5   22.12    0.44 
   6   0   5   22.40    0.43 
  -7   0  -5    4.65    0.20 
  -7   0  -5    4.00    0.19 
  -7   0  -5    4.12    0.20 
  -7   0  -5    4.35    0.17 
   7   0   5    4.35    0.15 
   7   0   5    4.33    0.15 
  -8   0  -5    0.37    0.08 
  -8   0  -5    0.43    0.09 
  -8   0  -5    0.41    0.07 
  -9   0  -5    7.82    0.32 
  -9   0  -5    8.21    0.32 
  -9   0  -5    7.58    0.27 
   8  -1  -5    0.57    0.13 
  -8   1   5    0.42    0.12 
   7  -1  -5    0.48    0.10 
  -7   1   5    0.40    0.09 
  -7   1   5    0.42    0.10 
   6  -1  -5    0.05    0.07 
  -6   1   5    0.02    0.06 
  -6   1   5    0.03    0.06 
   5  -1  -5    6.86    0.26 
  -5   1   5    7.26    0.26 
  -5   1   5    6.90    0.25 
   4  -1  -5    3.08    0.16 
   4  -1  -5    3.00    0.16 
   4  -1  -5    2.90    0.13 
  -4   1   5    2.95    0.15 
  -4   1   5    2.93    0.15 
   3  -1  -5   15.26    0.37 
   3  -1  -5   15.86    0.38 
  -3   1   5   15.75    0.36 
  -3   1   5   15.22    0.37 
   2  -1  -5   56.10    1.01 
   2  -1  -5   56.10    1.01 
   2  -1  -5   54.98    1.01 
  -2   1   5   55.55    0.99 
  -2   1   5   55.64    0.99 
  -2   1   5   54.49    1.00 
   1  -1  -5    2.55    0.10 
   1  -1  -5    2.68    0.10 
   1  -1  -5    2.54    0.10 
   1  -1  -5    2.63    0.11 
  -1   1   5    2.48    0.09 
  -1   1   5    2.45    0.10 
   0  -1  -5    0.90    0.05 
   0  -1  -5    0.91    0.06 
   0  -1  -5    0.87    0.05 
   0  -1  -5    0.93    0.06 
   0   1   5    0.94    0.05 
   0   1   5    0.89    0.05 
   0   1   5    0.91    0.05 
  -1  -1  -5    0.02    0.02 
  -1  -1  -5    0.05    0.01 
  -1  -1  -5    0.06    0.02 
  -1  -1  -5    0.03    0.02 
   1   1   5    0.03    0.01 
   1   1   5    0.02    0.01 
   1   1   5    0.06    0.01 
  -2  -1  -5   12.69    0.25 
  -2  -1  -5   12.96    0.26 
  -2  -1  -5   12.78    0.25 
  -2  -1  -5   12.85    0.23 
   2   1   5   12.56    0.23 
   2   1   5   12.80    0.23 
   2   1   5   12.64    0.23 
   2   1   5   13.11    0.23 
  -3  -1  -5   90.03    1.53 
  -3  -1  -5   92.04    1.53 
  -3  -1  -5   90.46    1.53 
  -3  -1  -5   90.99    1.51 
   3   1   5   91.33    1.50 
   3   1   5   93.02    1.50 
   3   1   5   87.71    1.50 
   3   1   5   95.33    1.50 
  -4  -1  -5   65.74    1.15 
  -4  -1  -5   65.43    1.15 
  -4  -1  -5   66.20    1.15 
  -4  -1  -5   66.93    1.12 
   4   1   5   65.90    1.12 
   4   1   5   67.24    1.12 
   4   1   5   68.91    1.12 
  -5  -1  -5   18.87    0.39 
  -5  -1  -5   18.93    0.36 
  -5  -1  -5   18.38    0.40 
  -5  -1  -5   18.43    0.40 
   5   1   5   19.14    0.37 
   5   1   5   18.79    0.37 
  -6  -1  -5    1.78    0.11 
  -6  -1  -5    1.76    0.09 
  -6  -1  -5    1.79    0.11 
  -6  -1  -5    1.83    0.11 
   6   1   5    2.05    0.09 
   6   1   5    1.85    0.09 
   6   1   5    1.85    0.09 
  -7  -1  -5    1.35    0.11 
  -7  -1  -5    1.39    0.09 
  -7  -1  -5    1.46    0.12 
  -7  -1  -5    1.31    0.12 
   7   1   5    1.32    0.09 
   7   1   5    1.42    0.09 
  -8  -1  -5    1.65    0.11 
  -8  -1  -5    1.87    0.15 
  -8  -1  -5    1.90    0.16 
   8   1   5    1.75    0.13 
  -9  -1  -5   -0.02    0.05 
  -9  -1  -5    0.01    0.07 
  -9  -1  -5    0.03    0.07 
 -10  -1  -5    2.43    0.22 
 -10  -1  -5    2.53    0.21 
   7  -2  -5    0.09    0.08 
  -7   2   5    0.05    0.08 
  -7   2   5    0.04    0.08 
   6  -2  -5    1.78    0.17 
  -6   2   5    1.71    0.16 
  -6   2   5    1.82    0.17 
  -6   2   5    2.25    0.18 
   5  -2  -5    3.47    0.16 
   5  -2  -5    3.48    0.19 
  -5   2   5    3.52    0.20 
  -5   2   5    3.43    0.19 
  -5   2   5    3.37    0.18 
   4  -2  -5    1.45    0.13 
   4  -2  -5    1.73    0.17 
  -4   2   5    1.39    0.12 
  -4   2   5    1.37    0.11 
  -4   2   5    1.40    0.13 
   3  -2  -5    1.24    0.10 
   3  -2  -5    1.22    0.11 
   3  -2  -5    1.31    0.09 
  -3   2   5    1.23    0.10 
  -3   2   5    1.23    0.10 
  -3   2   5    1.31    0.11 
   2  -2  -5    7.65    0.23 
   2  -2  -5    7.72    0.23 
   2  -2  -5    7.47    0.20 
   2  -2  -5    7.49    0.23 
  -2   2   5    7.85    0.23 
  -2   2   5    7.87    0.23 
   1  -2  -5    4.21    0.15 
   1  -2  -5    4.02    0.13 
   1  -2  -5    4.20    0.15 
   1  -2  -5    3.94    0.15 
  -1   2   5    4.24    0.11 
  -1   2   5    3.98    0.14 
  -1   2   5    4.19    0.15 
  -1   2   5    4.08    0.15 
   0  -2  -5   22.89    0.45 
   0  -2  -5   23.54    0.46 
   0  -2  -5   23.20    0.46 
   0  -2  -5   23.75    0.46 
   0  -2  -5   23.27    0.44 
   0   2   5   23.41    0.45 
   0   2   5   23.36    0.46 
   0   2   5   23.17    0.45 
  -1  -2  -5    0.74    0.05 
  -1  -2  -5    0.80    0.05 
  -1  -2  -5    0.71    0.04 
  -1  -2  -5    0.73    0.04 
  -1  -2  -5    0.73    0.05 
   1   2   5    0.74    0.05 
   1   2   5    0.74    0.05 
   1   2   5    0.73    0.05 
  -2  -2  -5    0.00    0.02 
  -2  -2  -5    0.03    0.01 
  -2  -2  -5   -0.02    0.02 
  -2  -2  -5    0.00    0.02 
   2   2   5    0.02    0.02 
   2   2   5   -0.02    0.02 
   2   2   5    0.01    0.02 
  -3  -2  -5    0.01    0.02 
  -3  -2  -5    0.01    0.02 
  -3  -2  -5   -0.02    0.02 
   3   2   5    0.00    0.02 
   3   2   5    0.00    0.02 
   3   2   5    0.01    0.02 
  -4  -2  -5   15.06    0.33 
  -4  -2  -5   16.61    0.34 
  -4  -2  -5   15.70    0.34 
   4   2   5   15.88    0.32 
   4   2   5   15.57    0.32 
   4   2   5   15.92    0.32 
   4   2   5   16.01    0.32 
  -5  -2  -5    3.52    0.14 
  -5  -2  -5    3.36    0.14 
  -5  -2  -5    3.52    0.09 
  -5  -2  -5    3.59    0.14 
   5   2   5    3.57    0.12 
   5   2   5    3.61    0.12 
  -6  -2  -5    0.62    0.05 
  -6  -2  -5    0.42    0.06 
  -6  -2  -5    0.70    0.08 
   6   2   5    0.58    0.06 
   6   2   5    0.65    0.05 
   6   2   5    0.60    0.06 
  -7  -2  -5    0.05    0.05 
  -7  -2  -5    0.01    0.04 
  -7  -2  -5   -0.02    0.03 
   7   2   5    0.03    0.03 
   7   2   5    0.03    0.03 
   7   2   5    0.03    0.04 
  -8  -2  -5    1.41    0.13 
  -8  -2  -5    1.48    0.14 
  -8  -2  -5    1.19    0.09 
   8   2   5    1.40    0.11 
  -9  -2  -5   10.50    0.37 
  -9  -2  -5   10.70    0.36 
 -10  -2  -5    0.53    0.13 
 -10  -2  -5    0.30    0.11 
   7  -3  -5   -0.01    0.10 
  -7   3   5   -0.02    0.08 
  -7   3   5   -0.03    0.11 
  -7   3   5   -0.02    0.08 
   6  -3  -5    2.31    0.18 
  -6   3   5    1.61    0.17 
  -6   3   5    1.85    0.17 
  -6   3   5    1.79    0.18 
   5  -3  -5    2.15    0.17 
  -5   3   5    2.42    0.18 
  -5   3   5    2.56    0.19 
  -5   3   5    2.32    0.16 
   4  -3  -5    1.26    0.13 
   4  -3  -5    1.37    0.11 
  -4   3   5    1.21    0.12 
  -4   3   5    1.30    0.12 
  -4   3   5    1.13    0.12 
   3  -3  -5    0.78    0.10 
   3  -3  -5    0.62    0.09 
  -3   3   5    0.71    0.08 
  -3   3   5    0.56    0.09 
  -3   3   5    0.71    0.09 
   2  -3  -5   18.28    0.43 
   2  -3  -5   18.53    0.43 
   2  -3  -5   18.87    0.40 
  -2   3   5   18.57    0.44 
  -2   3   5   18.15    0.38 
  -2   3   5   18.25    0.43 
   1  -3  -5   20.89    0.44 
   1  -3  -5   22.76    0.48 
   1  -3  -5   22.24    0.48 
   1  -3  -5   22.77    0.48 
  -1   3   5   22.63    0.47 
  -1   3   5   22.32    0.48 
  -1   3   5   22.03    0.42 
  -1   3   5   22.23    0.47 
   0  -3  -5   23.10    0.45 
   0  -3  -5   22.86    0.47 
   0  -3  -5   23.43    0.48 
   0  -3  -5   23.44    0.45 
   0  -3  -5   23.07    0.48 
   0   3   5   23.24    0.46 
   0   3   5   22.59    0.41 
   0   3   5   23.58    0.47 
   0   3   5   23.29    0.48 
  -1  -3  -5    0.16    0.02 
  -1  -3  -5    0.13    0.03 
  -1  -3  -5    0.20    0.04 
  -1  -3  -5    0.14    0.02 
  -1  -3  -5    0.19    0.04 
   1   3   5    0.13    0.03 
   1   3   5    0.09    0.03 
   1   3   5    0.14    0.04 
   1   3   5    0.27    0.04 
  -2  -3  -5   11.29    0.22 
  -2  -3  -5   10.70    0.26 
  -2  -3  -5   11.15    0.26 
  -2  -3  -5   10.80    0.26 
   2   3   5   11.09    0.25 
   2   3   5   11.22    0.25 
   2   3   5   10.98    0.26 
   2   3   5   11.03    0.22 
  -3  -3  -5   39.37    0.74 
  -3  -3  -5   40.14    0.74 
  -3  -3  -5   40.25    0.74 
   3   3   5   40.23    0.69 
   3   3   5   43.76    0.78 
   3   3   5   39.97    0.74 
   3   3   5   39.86    0.73 
  -4  -3  -5   47.36    0.87 
  -4  -3  -5   47.37    0.87 
  -4  -3  -5   46.99    0.87 
   4   3   5   48.81    0.80 
   4   3   5   47.28    0.86 
   4   3   5   48.43    0.85 
  -5  -3  -5   33.70    0.66 
  -5  -3  -5   33.83    0.66 
  -5  -3  -5   33.89    0.66 
   5   3   5   34.33    0.65 
  -6  -3  -5   15.42    0.38 
  -6  -3  -5   15.05    0.38 
  -6  -3  -5   15.54    0.38 
   6   3   5   15.87    0.36 
  -7  -3  -5    9.35    0.28 
  -7  -3  -5    8.88    0.29 
   7   3   5    9.32    0.19 
   7   3   5    9.00    0.21 
   7   3   5    8.28    0.25 
   7   3   5    9.30    0.26 
  -8  -3  -5    0.22    0.07 
  -8  -3  -5    0.25    0.08 
   8   3   5    0.22    0.03 
   8   3   5    0.27    0.06 
   8   3   5    0.38    0.07 
  -9  -3  -5    0.29    0.09 
  -9  -3  -5    0.29    0.09 
   9   3   5    0.40    0.04 
 -10  -3  -5    0.74    0.14 
 -10  -3  -5    0.88    0.13 
   6  -4  -5    0.13    0.09 
  -6   4   5    0.00    0.07 
  -6   4   5    0.18    0.10 
  -6   4   5    0.07    0.09 
   5  -4  -5    0.00    0.07 
  -5   4   5   -0.10    0.05 
  -5   4   5   -0.08    0.06 
  -5   4   5   -0.11    0.06 
   4  -4  -5    1.07    0.10 
   4  -4  -5    1.08    0.13 
  -4   4   5    1.08    0.12 
  -4   4   5    1.14    0.13 
   3  -4  -5    0.05    0.04 
   3  -4  -5    0.01    0.06 
  -3   4   5    0.06    0.06 
  -3   4   5   -0.03    0.05 
   2  -4  -5   33.79    0.70 
   2  -4  -5   33.91    0.71 
  -2   4   5   33.71    0.69 
  -2   4   5   31.93    0.64 
  -2   4   5   34.17    0.71 
   1  -4  -5    6.10    0.21 
   1  -4  -5    6.31    0.22 
  -1   4   5    6.49    0.22 
  -1   4   5    5.86    0.16 
  -1   4   5    6.34    0.20 
   0  -4  -5    1.03    0.09 
   0  -4  -5    1.14    0.10 
   0  -4  -5    1.15    0.08 
   0   4   5    1.17    0.07 
   0   4   5    1.05    0.05 
   0   4   5    1.12    0.08 
   0   4   5    1.08    0.09 
   0   4   5    1.11    0.09 
  -1  -4  -5   -0.02    0.03 
  -1  -4  -5    0.01    0.02 
  -1  -4  -5   -0.02    0.02 
  -1  -4  -5    0.01    0.02 
   1   4   5   -0.02    0.02 
   1   4   5    0.07    0.03 
   1   4   5    0.00    0.02 
   1   4   5    0.01    0.03 
  -2  -4  -5    4.43    0.12 
  -2  -4  -5    4.32    0.15 
  -2  -4  -5    4.16    0.12 
  -2  -4  -5    4.20    0.15 
  -2  -4  -5    4.40    0.16 
   2   4   5    4.31    0.15 
   2   4   5    4.48    0.13 
   2   4   5    4.34    0.12 
   2   4   5    4.35    0.15 
  -3  -4  -5   20.90    0.44 
  -3  -4  -5   20.82    0.44 
  -3  -4  -5   19.90    0.44 
   3   4   5   20.94    0.44 
   3   4   5   21.38    0.43 
   3   4   5   20.79    0.40 
  -4  -4  -5    1.56    0.10 
  -4  -4  -5    1.46    0.09 
  -4  -4  -5    1.57    0.10 
   4   4   5    1.45    0.09 
  -5  -4  -5    0.97    0.09 
  -5  -4  -5    1.04    0.09 
  -5  -4  -5    1.10    0.09 
   5   4   5    0.98    0.08 
   5   4   5    0.96    0.08 
  -6  -4  -5    0.04    0.04 
  -6  -4  -5    0.05    0.05 
   6   4   5    0.07    0.04 
   6   4   5   -0.01    0.03 
  -7  -4  -5    0.23    0.07 
  -7  -4  -5    0.13    0.06 
   7   4   5    0.17    0.05 
   7   4   5    0.12    0.05 
  -8  -4  -5    0.11    0.06 
  -8  -4  -5    0.01    0.06 
   8   4   5    0.07    0.05 
   8   4   5    0.02    0.04 
  -9  -4  -5    0.96    0.12 
  -9  -4  -5    0.93    0.13 
   9   4   5    1.33    0.08 
   9   4   5    1.27    0.13 
 -10  -4  -5    1.52    0.17 
 -10  -4  -5    1.56    0.18 
  10   4   5    1.50    0.08 
   5  -5  -5    0.00    0.07 
  -5   5   5    0.08    0.08 
  -5   5   5    0.17    0.09 
   4  -5  -5    0.95    0.12 
  -4   5   5    1.31    0.15 
  -4   5   5    1.62    0.15 
   3  -5  -5    5.54    0.25 
  -3   5   5    6.40    0.27 
  -3   5   5    6.37    0.25 
   2  -5  -5   13.59    0.38 
  -2   5   5   13.34    0.37 
  -2   5   5   13.11    0.38 
   1  -5  -5    2.88    0.15 
   1  -5  -5    2.95    0.16 
  -1   5   5    2.71    0.12 
  -1   5   5    3.12    0.16 
  -1   5   5    2.89    0.14 
   0  -5  -5    4.19    0.17 
   0  -5  -5    3.99    0.17 
   0   5   5    3.97    0.15 
   0   5   5    3.97    0.17 
   0   5   5    4.05    0.14 
   0   5   5    3.82    0.12 
  -1  -5  -5   16.75    0.40 
  -1  -5  -5   17.07    0.36 
   1   5   5   16.92    0.36 
   1   5   5   16.53    0.36 
   1   5   5   17.07    0.40 
  -2  -5  -5   24.80    0.48 
  -2  -5  -5   24.78    0.53 
  -2  -5  -5   24.96    0.48 
  -2  -5  -5   24.85    0.53 
   2   5   5   24.95    0.47 
   2   5   5   25.69    0.54 
   2   5   5   25.04    0.49 
  -3  -5  -5    7.60    0.19 
  -3  -5  -5    7.44    0.23 
  -3  -5  -5    7.48    0.23 
  -3  -5  -5    7.80    0.23 
   3   5   5    7.88    0.23 
   3   5   5    7.75    0.20 
   3   5   5    7.77    0.17 
  -4  -5  -5    1.67    0.11 
  -4  -5  -5    1.09    0.13 
  -4  -5  -5    1.67    0.11 
   4   5   5    1.55    0.10 
  -5  -5  -5    4.42    0.18 
  -5  -5  -5    4.48    0.18 
   5   5   5    4.76    0.18 
  -6  -5  -5    0.52    0.07 
  -6  -5  -5    0.47    0.07 
   6   5   5    0.54    0.07 
   6   5   5    0.69    0.08 
  -7  -5  -5    3.87    0.19 
  -7  -5  -5    3.73    0.18 
   7   5   5    3.64    0.17 
   7   5   5    3.81    0.17 
  -8  -5  -5    2.45    0.17 
  -8  -5  -5    2.37    0.17 
   8   5   5    2.43    0.15 
   8   5   5    2.51    0.15 
  -9  -5  -5    3.82    0.22 
  -9  -5  -5    3.56    0.22 
   9   5   5    3.58    0.19 
 -10  -5  -5    2.05    0.20 
 -10  -5  -5    2.54    0.21 
  10   5   5    2.28    0.11 
  -5   6   5    0.77    0.14 
  -5   6   5    1.03    0.15 
   4  -6  -5    0.72    0.12 
  -4   6   5    0.63    0.11 
  -4   6   5    0.73    0.13 
   3  -6  -5    1.77    0.16 
  -3   6   5    1.93    0.16 
  -3   6   5    1.82    0.17 
   2  -6  -5    2.40    0.17 
  -2   6   5    2.22    0.18 
  -2   6   5    2.21    0.16 
   1  -6  -5    0.59    0.08 
  -1   6   5    0.73    0.09 
  -1   6   5    0.71    0.09 
  -1   6   5    0.62    0.10 
   0  -6  -5    3.99    0.18 
   0   6   5    4.26    0.16 
   0   6   5    3.89    0.16 
   0   6   5    3.88    0.19 
  -1  -6  -5    5.59    0.18 
  -1  -6  -5    5.69    0.21 
   1   6   5    5.76    0.18 
   1   6   5    5.80    0.19 
   1   6   5    5.75    0.22 
  -2  -6  -5    2.18    0.13 
  -2  -6  -5    2.52    0.11 
  -2  -6  -5    2.32    0.13 
  -2  -6  -5    2.40    0.11 
   2   6   5    2.30    0.11 
   2   6   5    2.41    0.10 
   2   6   5    2.22    0.13 
  -3  -6  -5    0.40    0.05 
  -3  -6  -5    0.46    0.07 
  -3  -6  -5    0.37    0.07 
   3   6   5    0.42    0.04 
   3   6   5    0.61    0.08 
   3   6   5    0.62    0.07 
  -4  -6  -5    4.42    0.18 
  -4  -6  -5    4.35    0.18 
  -4  -6  -5    4.42    0.15 
   4   6   5    4.36    0.11 
   4   6   5    4.41    0.18 
  -5  -6  -5   56.13    1.07 
  -5  -6  -5   56.03    1.07 
   5   6   5   56.02    1.06 
  -6  -6  -5    0.19    0.06 
  -6  -6  -5    0.26    0.07 
   6   6   5    0.28    0.07 
  -7  -6  -5    0.09    0.06 
  -7  -6  -5    0.03    0.05 
   7   6   5    0.10    0.05 
   7   6   5    0.03    0.05 
  -8  -6  -5    0.12    0.07 
  -8  -6  -5    0.20    0.08 
   8   6   5    0.11    0.05 
   8   6   5    0.10    0.06 
  -9  -6  -5    0.07    0.08 
  -9  -6  -5    0.05    0.07 
   9   6   5   -0.01    0.06 
 -10  -6  -5    0.02    0.08 
 -10  -6  -5    0.05    0.08 
  -4   7   5    0.74    0.13 
  -4   7   5    1.06    0.16 
   3  -7  -5    2.13    0.18 
  -3   7   5    2.22    0.18 
  -3   7   5    2.11    0.20 
   2  -7  -5    1.87    0.16 
  -2   7   5    1.83    0.18 
  -2   7   5    1.94    0.16 
   1  -7  -5   16.39    0.45 
  -1   7   5   16.84    0.44 
  -1   7   5   15.24    0.40 
  -1   7   5   16.46    0.47 
   0  -7  -5    0.37    0.08 
   0   7   5    0.59    0.10 
   0   7   5    0.42    0.06 
   0   7   5    0.46    0.08 
  -1  -7  -5    0.49    0.08 
  -1  -7  -5    0.67    0.08 
   1   7   5    0.81    0.11 
   1   7   5    0.64    0.08 
   1   7   5    0.72    0.08 
  -2  -7  -5    0.18    0.05 
  -2  -7  -5    0.19    0.05 
   2   7   5    0.24    0.05 
   2   7   5    0.21    0.06 
   2   7   5    0.24    0.05 
  -3  -7  -5    3.98    0.18 
  -3  -7  -5    4.03    0.16 
  -3  -7  -5    3.73    0.18 
   3   7   5    3.94    0.14 
   3   7   5    4.18    0.19 
  -4  -7  -5    4.55    0.20 
  -4  -7  -5    4.90    0.21 
  -4  -7  -5    5.00    0.18 
   4   7   5    4.87    0.21 
   4   7   5    4.88    0.14 
  -5  -7  -5   33.07    0.71 
  -5  -7  -5   32.33    0.66 
  -5  -7  -5   33.94    0.71 
   5   7   5   32.99    0.58 
   5   7   5   33.03    0.71 
  -6  -7  -5    0.47    0.09 
  -6  -7  -5    0.54    0.09 
   6   7   5    0.41    0.07 
  -7  -7  -5    0.38    0.08 
  -7  -7  -5    0.41    0.09 
   7   7   5    0.26    0.07 
   7   7   5    0.24    0.07 
  -8  -7  -5    0.81    0.12 
  -8  -7  -5    0.80    0.11 
   8   7   5    0.79    0.10 
   8   7   5    0.96    0.12 
  -9  -7  -5    2.41    0.20 
  -9  -7  -5    2.50    0.20 
   9   7   5    2.39    0.17 
 -10  -7  -5    0.51    0.12 
 -10  -7  -5    0.40    0.11 
  -3   8   5    1.56    0.19 
  -3   8   5    1.26    0.15 
   2  -8  -5    8.01    0.32 
  -2   8   5    8.03    0.32 
  -2   8   5    8.36    0.35 
   1  -8  -5    0.71    0.11 
  -1   8   5    0.77    0.12 
  -1   8   5    0.67    0.10 
   0  -8  -5    0.87    0.11 
   0   8   5    0.88    0.09 
   0   8   5    1.02    0.14 
   0   8   5    0.96    0.11 
  -1  -8  -5    0.57    0.09 
  -1  -8  -5    0.58    0.09 
   1   8   5    0.63    0.09 
   1   8   5    0.60    0.10 
   1   8   5    0.67    0.09 
  -2  -8  -5    0.63    0.09 
  -2  -8  -5    0.57    0.08 
   2   8   5    0.65    0.08 
   2   8   5    0.78    0.09 
   2   8   5    0.59    0.09 
  -3  -8  -5    6.53    0.23 
  -3  -8  -5    6.45    0.26 
  -3  -8  -5    6.22    0.25 
   3   8   5    6.46    0.22 
   3   8   5    6.63    0.26 
   3   8   5    6.51    0.20 
  -4  -8  -5    0.75    0.11 
  -4  -8  -5    0.77    0.10 
  -4  -8  -5    0.83    0.09 
   4   8   5    0.60    0.09 
   4   8   5    0.80    0.07 
  -5  -8  -5   13.20    0.39 
  -5  -8  -5   13.41    0.35 
  -5  -8  -5   14.01    0.40 
   5   8   5   13.57    0.29 
   5   8   5   14.26    0.40 
  -6  -8  -5    1.04    0.13 
  -6  -8  -5    0.88    0.10 
  -6  -8  -5    1.00    0.12 
   6   8   5    0.93    0.05 
   6   8   5    0.84    0.10 
  -7  -8  -5    1.23    0.13 
  -7  -8  -5    1.17    0.12 
   7   8   5    1.66    0.14 
  -8  -8  -5    1.05    0.14 
  -8  -8  -5    1.08    0.14 
   8   8   5    0.90    0.11 
  -9  -8  -5    0.43    0.10 
  -9  -8  -5    0.63    0.13 
   9   8   5    0.52    0.10 
  -2   9   5    0.10    0.10 
  -2   9   5    0.08    0.08 
   1  -9  -5    0.01    0.08 
  -1   9   5   -0.04    0.08 
  -1   9   5    0.05    0.07 
   0  -9  -5    2.14    0.17 
   0   9   5    2.08    0.19 
   0   9   5    2.15    0.17 
  -1  -9  -5    4.11    0.20 
  -1  -9  -5    4.21    0.22 
   1   9   5    4.27    0.20 
   1   9   5    4.45    0.24 
  -2  -9  -5   -0.03    0.05 
  -2  -9  -5    0.03    0.06 
   2   9   5    0.01    0.06 
   2   9   5   -0.01    0.04 
  -3  -9  -5    0.08    0.06 
  -3  -9  -5    0.15    0.06 
   3   9   5    0.01    0.04 
   3   9   5    0.11    0.05 
   3   9   5    0.09    0.06 
  -4  -9  -5    0.20    0.07 
  -4  -9  -5    0.29    0.08 
  -4  -9  -5    0.33    0.08 
   4   9   5    0.35    0.06 
   4   9   5    0.41    0.09 
  -5  -9  -5    0.19    0.07 
  -5  -9  -5    0.23    0.08 
  -5  -9  -5    0.11    0.06 
   5   9   5    0.15    0.07 
   5   9   5    0.14    0.04 
  -6  -9  -5    0.80    0.10 
  -6  -9  -5    0.86    0.12 
  -6  -9  -5    0.97    0.14 
   6   9   5    0.73    0.10 
  -7  -9  -5    0.62    0.10 
  -7  -9  -5    0.76    0.11 
  -7  -9  -5    0.67    0.11 
   7   9   5    0.47    0.09 
  -8  -9  -5    2.10    0.19 
  -8  -9  -5    2.12    0.19 
   8   9   5    2.07    0.17 
  -9  -9  -5    0.83    0.14 
  -9  -9  -5    0.73    0.14 
   9   9   5    0.45    0.10 
   0  10   5    5.12    0.29 
   0  10   5    4.94    0.25 
  -1 -10  -5    2.91    0.19 
  -1 -10  -5    2.67    0.19 
   1  10   5    2.96    0.22 
   1  10   5    2.87    0.19 
  -2 -10  -5    1.07    0.13 
  -2 -10  -5    1.03    0.13 
   2  10   5    1.09    0.15 
   2  10   5    0.98    0.11 
  -3 -10  -5    0.82    0.12 
  -3 -10  -5    0.59    0.10 
   3  10   5    0.73    0.09 
   3  10   5    0.59    0.11 
  -4 -10  -5   -0.12    0.05 
  -4 -10  -5   -0.07    0.06 
  -4 -10  -5   -0.06    0.06 
   4  10   5    0.03    0.06 
   4  10   5   -0.01    0.04 
  -5 -10  -5    7.07    0.30 
  -5 -10  -5    7.08    0.28 
  -5 -10  -5    6.76    0.29 
   5  10   5    6.91    0.22 
   5  10   5    7.01    0.30 
  -6 -10  -5    2.55    0.18 
  -6 -10  -5    2.54    0.19 
  -6 -10  -5    2.50    0.20 
   6  10   5    2.47    0.19 
  -7 -10  -5    1.74    0.15 
  -7 -10  -5    1.60    0.17 
  -7 -10  -5    1.74    0.18 
   7  10   5    1.16    0.14 
  -8 -10  -5    0.21    0.09 
  -8 -10  -5    0.30    0.08 
  -8 -10  -5    0.28    0.09 
   8  10   5    0.03    0.07 
  -2 -11  -5    0.08    0.07 
   2  11   5    0.11    0.08 
   2  11   5   -0.02    0.06 
  -3 -11  -5    0.04    0.07 
   3  11   5   -0.05    0.06 
   3  11   5   -0.03    0.05 
  -4 -11  -5   -0.10    0.06 
  -4 -11  -5   -0.06    0.06 
   4  11   5    0.03    0.05 
   4  11   5   -0.03    0.06 
  -5 -11  -5    0.45    0.10 
  -5 -11  -5    0.52    0.10 
  -5 -11  -5    0.59    0.12 
   5  11   5    0.72    0.13 
  -6 -11  -5    1.47    0.17 
  -6 -11  -5    1.52    0.16 
  -6 -11  -5    1.35    0.16 
   6  11   5    1.37    0.16 
  -7 -11  -5    0.25    0.09 
  -7 -11  -5    0.12    0.10 
  -7 -11  -5    0.10    0.09 
   7  11   5    0.12    0.08 
   5  10  -6    0.92    0.12 
  -5 -10   6    1.37    0.17 
   4  10  -6    2.66    0.19 
  -4 -10   6    2.55    0.22 
   3  10  -6    0.68    0.10 
  -3 -10   6    0.58    0.13 
   2  10  -6    0.14    0.10 
   2  10  -6    0.02    0.06 
  -2 -10   6    0.04    0.09 
   1  10  -6    4.27    0.22 
   1  10  -6    4.49    0.28 
  -1 -10   6    4.44    0.28 
   0  10  -6    1.84    0.21 
   0  10  -6    1.64    0.15 
   0 -10   6    1.41    0.19 
   6   9  -6    0.13    0.08 
   6   9  -6    0.17    0.08 
  -6  -9   6    0.06    0.08 
   5   9  -6    1.58    0.15 
  -5  -9   6    1.50    0.16 
   4   9  -6    1.89    0.15 
  -4  -9   6    2.06    0.18 
   3   9  -6   -0.05    0.05 
  -3  -9   6    0.05    0.08 
   2   9  -6    0.03    0.06 
  -2  -9   6    0.02    0.07 
   1   9  -6    0.36    0.08 
   1   9  -6    0.32    0.10 
  -1  -9   6    0.41    0.11 
   0   9  -6    0.72    0.12 
   0   9  -6    0.68    0.10 
   0  -9   6    0.62    0.12 
  -1   9  -6    1.09    0.12 
  -1   9  -6    1.07    0.16 
   1  -9   6    1.14    0.16 
  -2   9  -6    0.10    0.06 
  -2   9  -6    0.09    0.10 
   7   8  -6    1.02    0.14 
   7   8  -6    1.02    0.14 
  -7  -8   6    1.14    0.14 
   6   8  -6    0.27    0.08 
   6   8  -6    0.46    0.10 
  -6  -8   6    0.26    0.09 
   5   8  -6    0.80    0.11 
   5   8  -6    0.75    0.11 
  -5  -8   6    1.15    0.14 
   4   8  -6    1.52    0.14 
  -4  -8   6    1.14    0.14 
   3   8  -6    5.82    0.22 
  -3  -8   6    5.49    0.26 
   2   8  -6   10.51    0.31 
  -2  -8   6   10.34    0.36 
   1   8  -6    2.01    0.13 
  -1  -8   6    2.13    0.17 
   0   8  -6    0.04    0.07 
   0   8  -6    0.13    0.05 
   0  -8   6    0.28    0.09 
  -1   8  -6    2.10    0.13 
  -1   8  -6    2.01    0.19 
   1  -8   6    1.97    0.18 
  -2   8  -6    0.91    0.14 
  -2   8  -6    0.68    0.09 
  -3   8  -6    3.74    0.19 
  -3   8  -6    3.89    0.24 
  -4   8  -6    0.03    0.08 
  -4   8  -6    0.13    0.06 
   8   7  -6   -0.01    0.09 
   8   7  -6    0.03    0.09 
   7   7  -6    1.03    0.13 
   7   7  -6    0.84    0.12 
  -7  -7   6    1.01    0.13 
   6   7  -6    1.79    0.16 
   6   7  -6    1.34    0.14 
  -6  -7   6    1.51    0.15 
   5   7  -6    3.36    0.18 
   5   7  -6    3.40    0.19 
  -5  -7   6    3.43    0.19 
   4   7  -6    1.68    0.13 
  -4  -7   6    1.86    0.15 
   3   7  -6    3.69    0.17 
  -3  -7   6    3.46    0.19 
  -3  -7   6    3.69    0.11 
   2   7  -6    5.74    0.19 
   2   7  -6    5.66    0.20 
  -2  -7   6    5.93    0.25 
   1   7  -6    6.51    0.20 
   1   7  -6    6.53    0.21 
  -1  -7   6    6.95    0.28 
   0   7  -6    3.92    0.22 
   0   7  -6    3.51    0.15 
   0   7  -6    3.47    0.14 
   0  -7   6    3.63    0.21 
  -1   7  -6    0.72    0.08 
  -1   7  -6    0.64    0.10 
   1  -7   6    0.74    0.12 
  -2   7  -6    0.05    0.04 
  -2   7  -6    0.03    0.06 
  -3   7  -6    1.26    0.15 
  -3   7  -6    1.09    0.10 
  -4   7  -6    0.12    0.08 
  -4   7  -6   -0.07    0.04 
  -5   7  -6    1.59    0.15 
  -5   7  -6    1.66    0.17 
   8   6  -6    2.95    0.24 
   8   6  -6    3.18    0.22 
   7   6  -6    1.71    0.16 
   7   6  -6    2.08    0.19 
   6   6  -6    0.42    0.09 
   6   6  -6    0.33    0.09 
  -6  -6   6    0.38    0.08 
  -6  -6   6    0.17    0.08 
   5   6  -6    3.08    0.18 
   5   6  -6    3.02    0.17 
  -5  -6   6    3.00    0.14 
  -5  -6   6    3.27    0.17 
   4   6  -6   -0.05    0.04 
   4   6  -6    0.06    0.05 
   4   6  -6   -0.04    0.04 
  -4  -6   6    0.04    0.03 
  -4  -6   6   -0.01    0.03 
  -4  -6   6    0.00    0.05 
   3   6  -6    0.01    0.04 
   3   6  -6    0.02    0.03 
   3   6  -6    0.03    0.04 
  -3  -6   6    0.01    0.02 
  -3  -6   6    0.00    0.02 
  -3  -6   6   -0.08    0.04 
   2   6  -6    0.43    0.06 
   2   6  -6    0.42    0.06 
   2   6  -6    0.54    0.06 
  -2  -6   6    0.26    0.08 
   1   6  -6   11.53    0.27 
   1   6  -6   11.32    0.27 
   1   6  -6   11.50    0.27 
  -1  -6   6   11.31    0.34 
   0   6  -6   80.36    1.40 
   0   6  -6   82.02    1.41 
   0   6  -6   81.83    1.41 
   0  -6   6   82.32    1.52 
  -1   6  -6    4.14    0.14 
  -1   6  -6    4.39    0.22 
  -1   6  -6    4.19    0.15 
  -1   6  -6    4.27    0.15 
   1  -6   6    4.18    0.21 
  -2   6  -6    0.41    0.06 
  -2   6  -6    0.33    0.05 
  -2   6  -6    0.28    0.08 
  -3   6  -6    0.55    0.07 
  -3   6  -6    0.72    0.11 
  -4   6  -6    0.94    0.13 
  -4   6  -6    0.83    0.09 
  -4   6  -6    0.80    0.08 
  -5   6  -6    2.61    0.16 
  -5   6  -6    2.37    0.15 
  -5   6  -6    2.47    0.18 
  -6   6  -6    0.74    0.13 
  -6   6  -6    0.94    0.12 
  -6   6  -6    0.70    0.10 
   8   5  -6    0.11    0.09 
   8   5  -6    0.02    0.07 
   7   5  -6    0.19    0.08 
  -7  -5   6    0.20    0.07 
   6   5  -6    6.80    0.27 
  -6  -5   6    7.27    0.25 
   5   5  -6    5.06    0.26 
   5   5  -6    5.03    0.21 
  -5  -5   6    4.83    0.18 
  -5  -5   6    4.80    0.18 
   4   5  -6    0.04    0.05 
   4   5  -6    0.13    0.05 
   4   5  -6    0.08    0.05 
   4   5  -6    0.09    0.04 
  -4  -5   6    0.08    0.04 
  -4  -5   6    0.08    0.04 
  -4  -5   6    0.07    0.05 
   3   5  -6    4.19    0.17 
   3   5  -6    4.19    0.16 
   3   5  -6    4.26    0.16 
   3   5  -6    4.22    0.16 
  -3  -5   6    4.41    0.17 
  -3  -5   6    4.38    0.13 
   2   5  -6    0.79    0.07 
   2   5  -6    0.79    0.07 
   2   5  -6    0.74    0.06 
  -2  -5   6    0.65    0.08 
   1   5  -6    7.31    0.19 
   1   5  -6    7.04    0.18 
   1   5  -6    6.95    0.18 
  -1  -5   6    7.09    0.24 
   0   5  -6    1.20    0.07 
   0   5  -6    1.10    0.07 
   0   5  -6    1.21    0.07 
   0  -5   6    1.13    0.11 
  -1   5  -6   14.46    0.41 
  -1   5  -6   14.67    0.30 
  -1   5  -6   14.95    0.31 
  -1   5  -6   15.09    0.31 
   1  -5   6   14.57    0.40 
  -2   5  -6   21.28    0.42 
  -2   5  -6   20.26    0.41 
  -2   5  -6   21.35    0.52 
  -3   5  -6    0.40    0.08 
  -3   5  -6    0.36    0.05 
  -3   5  -6    0.33    0.05 
  -3   5  -6    0.33    0.05 
  -4   5  -6    0.60    0.07 
  -4   5  -6    0.42    0.09 
  -4   5  -6    0.59    0.07 
  -5   5  -6    0.40    0.07 
  -5   5  -6    0.55    0.08 
  -5   5  -6    0.43    0.09 
  -6   5  -6   -0.01    0.06 
  -6   5  -6    0.03    0.05 
  -6   5  -6    0.03    0.05 
  -7   5  -6    1.05    0.13 
  -7   5  -6    1.00    0.13 
  -7   5  -6    0.95    0.13 
   8   4  -6    0.30    0.09 
  -8  -4   6    0.08    0.07 
   7   4  -6    1.58    0.16 
  -7  -4   6    1.60    0.14 
   6   4  -6    7.91    0.29 
  -6  -4   6    7.94    0.27 
  -6  -4   6    8.32    0.35 
   5   4  -6   16.55    0.42 
   5   4  -6   16.40    0.43 
  -5  -4   6   16.13    0.39 
   4   4  -6    0.36    0.07 
   4   4  -6    0.36    0.07 
   4   4  -6    0.38    0.07 
  -4  -4   6    0.38    0.06 
  -4  -4   6    0.42    0.06 
   3   4  -6    4.53    0.17 
   3   4  -6    4.80    0.17 
   3   4  -6    4.47    0.16 
  -3  -4   6    4.71    0.16 
  -3  -4   6    4.57    0.13 
  -3  -4   6    4.70    0.14 
   2   4  -6    0.47    0.05 
   2   4  -6    0.48    0.05 
   2   4  -6    0.60    0.06 
  -2  -4   6    0.58    0.03 
  -2  -4   6    0.48    0.06 
   1   4  -6    1.61    0.07 
   1   4  -6    1.42    0.07 
   1   4  -6    1.44    0.07 
  -1  -4   6    1.46    0.10 
   0   4  -6    1.53    0.06 
   0   4  -6    1.57    0.06 
   0   4  -6    1.54    0.06 
   0  -4   6    1.28    0.10 
  -1   4  -6   20.12    0.37 
  -1   4  -6   20.73    0.37 
  -1   4  -6   20.20    0.37 
   1  -4   6   20.09    0.47 
  -2   4  -6   89.08    1.50 
  -2   4  -6   89.78    1.50 
  -2   4  -6   89.47    1.50 
  -2   4  -6   90.05    1.62 
  -3   4  -6   24.88    0.49 
  -3   4  -6   24.75    0.48 
  -3   4  -6   25.26    0.57 
  -3   4  -6   25.23    0.48 
  -4   4  -6    0.13    0.04 
  -4   4  -6    0.14    0.06 
  -4   4  -6    0.12    0.04 
  -4   4  -6    0.15    0.04 
  -5   4  -6    4.65    0.18 
  -5   4  -6    4.29    0.20 
  -5   4  -6    4.30    0.17 
  -6   4  -6    2.89    0.18 
  -6   4  -6    2.70    0.16 
  -6   4  -6    2.63    0.16 
  -7   4  -6    4.36    0.21 
  -7   4  -6    4.73    0.23 
  -7   4  -6    4.33    0.22 
   8   3  -6    0.03    0.08 
  -8  -3   6   -0.03    0.06 
   7   3  -6    0.45    0.10 
  -7  -3   6    0.66    0.10 
   6   3  -6    0.10    0.06 
  -6  -3   6    0.21    0.07 
  -6  -3   6    0.17    0.06 
   5   3  -6    4.33    0.20 
   5   3  -6    3.93    0.19 
  -5  -3   6    4.18    0.18 
  -5  -3   6    3.93    0.17 
   4   3  -6   28.30    0.59 
   4   3  -6   27.35    0.58 
   4   3  -6   28.55    0.59 
  -4  -3   6   28.24    0.55 
  -4  -3   6   24.25    0.54 
   3   3  -6    0.88    0.08 
   3   3  -6    0.87    0.08 
   3   3  -6    0.82    0.07 
  -3  -3   6    0.77    0.06 
  -3  -3   6    1.01    0.07 
  -3  -3   6    1.06    0.07 
   2   3  -6    2.99    0.12 
   2   3  -6    2.92    0.11 
   2   3  -6    2.85    0.11 
  -2  -3   6    3.07    0.08 
  -2  -3   6    2.92    0.08 
  -2  -3   6    3.00    0.12 
   1   3  -6   13.34    0.27 
   1   3  -6   13.54    0.28 
  -1  -3   6   13.27    0.30 
   0   3  -6    8.53    0.17 
   0   3  -6    8.70    0.21 
   0   3  -6    8.55    0.17 
   0  -3   6    8.46    0.23 
  -1   3  -6    2.62    0.12 
   1  -3   6    2.71    0.13 
  -2   3  -6   20.20    0.47 
  -2   3  -6   20.16    0.36 
  -2   3  -6   20.51    0.36 
  -2   3  -6   20.37    0.36 
  -3   3  -6    5.90    0.16 
  -3   3  -6    6.08    0.22 
  -3   3  -6    5.85    0.15 
  -3   3  -6    5.76    0.15 
  -4   3  -6   25.67    0.50 
  -4   3  -6   25.11    0.50 
  -4   3  -6   25.04    0.50 
  -4   3  -6   25.69    0.56 
  -5   3  -6    7.30    0.22 
  -5   3  -6    7.72    0.26 
  -5   3  -6    7.72    0.23 
  -5   3  -6    7.58    0.23 
  -6   3  -6    3.76    0.18 
  -6   3  -6    3.70    0.17 
  -6   3  -6    3.71    0.19 
  -7   3  -6    3.31    0.18 
  -7   3  -6    3.42    0.19 
  -7   3  -6    3.66    0.19 
  -8   3  -6    0.30    0.09 
  -8   3  -6    0.24    0.08 
  -8   3  -6    0.23    0.08 
   8   2  -6    0.16    0.08 
  -8  -2   6    0.17    0.08 
   7   2  -6    0.57    0.11 
  -7  -2   6    0.50    0.10 
   6   2  -6    0.03    0.06 
  -6  -2   6   -0.07    0.04 
  -6  -2   6   -0.04    0.05 
   5   2  -6    1.61    0.13 
   5   2  -6    1.45    0.13 
  -5  -2   6    1.69    0.12 
  -5  -2   6    1.59    0.12 
   4   2  -6   12.36    0.33 
   4   2  -6   12.74    0.34 
   4   2  -6   13.19    0.35 
  -4  -2   6   12.72    0.32 
  -4  -2   6   12.50    0.32 
   3   2  -6    2.40    0.12 
   3   2  -6    2.66    0.12 
   3   2  -6    2.64    0.12 
  -3  -2   6    2.45    0.10 
  -3  -2   6    2.58    0.11 
   2   2  -6    2.69    0.11 
   2   2  -6    2.79    0.11 
   2   2  -6    2.85    0.12 
  -2  -2   6    2.92    0.09 
  -2  -2   6    2.76    0.09 
  -2  -2   6    2.95    0.10 
   1   2  -6    0.07    0.02 
   1   2  -6    0.11    0.02 
   1   2  -6    0.08    0.02 
  -1  -2   6    0.09    0.03 
   0   2  -6    0.79    0.04 
   0   2  -6    0.74    0.04 
   0   2  -6    0.82    0.05 
   0   2  -6    0.76    0.04 
   0  -2   6    0.74    0.06 
  -1   2  -6    1.34    0.07 
   1  -2   6    1.50    0.08 
  -2   2  -6   48.98    0.90 
  -3   2  -6   10.17    0.21 
  -3   2  -6   10.30    0.21 
  -3   2  -6   10.37    0.21 
  -3   2  -6   10.60    0.28 
  -4   2  -6   41.21    0.79 
  -4   2  -6   39.87    0.74 
  -4   2  -6   41.11    0.73 
  -4   2  -6   40.60    0.74 
  -5   2  -6   19.22    0.42 
  -5   2  -6   19.30    0.41 
  -5   2  -6   18.76    0.42 
  -5   2  -6   18.94    0.44 
  -6   2  -6    0.19    0.07 
  -6   2  -6    0.21    0.05 
  -6   2  -6    0.15    0.06 
  -6   2  -6    0.30    0.06 
  -7   2  -6    1.79    0.14 
  -7   2  -6    1.87    0.14 
  -7   2  -6    1.89    0.14 
  -8   2  -6    1.19    0.13 
  -8   2  -6    1.31    0.14 
  -8   2  -6    1.56    0.15 
   8   1  -6    0.08    0.09 
  -8  -1   6   -0.17    0.06 
   7   1  -6    0.05    0.08 
  -7  -1   6    0.05    0.07 
   6   1  -6   -0.05    0.06 
  -6  -1   6   -0.04    0.05 
  -6  -1   6   -0.08    0.04 
   5   1  -6    3.12    0.18 
   5   1  -6    2.95    0.17 
  -5  -1   6    2.99    0.16 
  -5  -1   6    2.93    0.16 
   4   1  -6    2.08    0.13 
   4   1  -6    2.02    0.13 
  -4  -1   6    2.04    0.12 
  -4  -1   6    2.12    0.12 
   3   1  -6    0.07    0.04 
   3   1  -6    0.05    0.04 
   3   1  -6    0.09    0.04 
  -3  -1   6    0.02    0.02 
  -3  -1   6    0.01    0.03 
   2   1  -6   22.30    0.46 
   2   1  -6   22.75    0.47 
   2   1  -6   22.81    0.46 
  -2  -1   6   22.89    0.43 
  -2  -1   6   23.01    0.43 
  -2  -1   6   22.51    0.44 
   1   1  -6   27.34    0.51 
   1   1  -6   27.20    0.50 
   1   1  -6   27.56    0.51 
  -1  -1   6   24.97    0.47 
  -1  -1   6   27.15    0.48 
  -1  -1   6   27.03    0.47 
   0   1  -6   33.83    0.58 
   0   1  -6   32.95    0.58 
   0   1  -6   32.86    0.58 
   0  -1   6   33.46    0.59 
  -1   1  -6    6.66    0.13 
  -1   1  -6    6.87    0.16 
  -1   1  -6    6.65    0.13 
  -1   1  -6    6.78    0.13 
  -2   1  -6   92.43    1.58 
  -3   1  -6    1.49    0.06 
  -3   1  -6    1.53    0.06 
  -3   1  -6    1.55    0.09 
  -3   1  -6    1.72    0.09 
  -3   1  -6    1.51    0.06 
  -3   1  -6    1.61    0.06 
  -4   1  -6    5.96    0.18 
  -4   1  -6    6.19    0.16 
  -4   1  -6    6.05    0.16 
  -4   1  -6    6.10    0.16 
  -5   1  -6    8.68    0.24 
  -5   1  -6    9.03    0.24 
  -5   1  -6    9.20    0.25 
  -5   1  -6    8.75    0.23 
  -6   1  -6    7.17    0.22 
  -6   1  -6    7.38    0.23 
  -6   1  -6    7.48    0.23 
  -6   1  -6    7.30    0.23 
   6  -1   6    7.29    0.15 
  -7   1  -6    5.96    0.23 
  -7   1  -6    6.26    0.24 
  -7   1  -6    6.57    0.22 
  -8   1  -6    1.73    0.15 
  -8   1  -6    1.73    0.13 
  -8   1  -6    1.70    0.15 
  -9   1  -6    1.95    0.18 
  -9   1  -6    1.79    0.15 
  -9   1  -6    2.31    0.19 
   8   0  -6    0.00    0.08 
  -8   0   6   -0.04    0.07 
   7   0  -6    1.38    0.16 
  -7   0   6    1.33    0.15 
   6   0  -6    3.78    0.21 
  -6   0   6    3.87    0.20 
  -6   0   6    3.96    0.21 
   5   0  -6    6.54    0.26 
   5   0  -6    6.44    0.25 
  -5   0   6    6.33    0.24 
  -5   0   6    6.19    0.23 
   4   0  -6    4.30    0.19 
   4   0  -6    4.67    0.20 
  -4   0   6    4.46    0.18 
  -4   0   6    4.78    0.19 
   3   0  -6    0.22    0.05 
   3   0  -6    0.23    0.05 
   3   0  -6    0.39    0.07 
  -3   0   6    0.22    0.05 
  -3   0   6    0.22    0.05 
   2   0  -6    1.06    0.08 
   2   0  -6    1.13    0.08 
   2   0  -6    1.25    0.09 
  -2   0   6    1.15    0.07 
   1   0  -6    0.35    0.04 
   1   0  -6    0.27    0.04 
   1   0  -6    0.35    0.04 
  -1   0   6    0.35    0.04 
  -1   0   6    0.30    0.04 
  -1   0   6    0.39    0.04 
  -1   0   6    0.29    0.03 
   0   0  -6   26.57    0.49 
   0   0  -6   26.81    0.49 
   0   0  -6   26.31    0.49 
   0   0   6   26.33    0.45 
   0   0   6   26.50    0.45 
   0   0   6   26.61    0.46 
  -1   0  -6    0.99    0.05 
  -1   0  -6    0.95    0.05 
  -1   0  -6    0.98    0.05 
  -1   0  -6    0.89    0.04 
  -2   0  -6   23.54    0.42 
  -2   0  -6   23.80    0.45 
  -2   0  -6   23.16    0.41 
  -2   0  -6   23.56    0.41 
  -3   0  -6    0.17    0.03 
  -3   0  -6    0.18    0.03 
  -3   0  -6    0.20    0.03 
  -3   0  -6    0.19    0.03 
  -4   0  -6    0.78    0.05 
  -4   0  -6    0.80    0.05 
  -4   0  -6    0.65    0.06 
  -4   0  -6    0.72    0.06 
  -4   0  -6    0.80    0.06 
  -5   0  -6   43.01    0.80 
  -5   0  -6   44.56    0.81 
  -5   0  -6   43.51    0.81 
  -5   0  -6   44.22    0.79 
   5   0   6   44.02    0.73 
   5   0   6   43.26    0.73 
  -6   0  -6   27.17    0.58 
  -6   0  -6   27.54    0.54 
  -6   0  -6   27.84    0.56 
  -6   0  -6   28.16    0.57 
   6   0   6   27.54    0.50 
   6   0   6   27.68    0.49 
  -7   0  -6    8.93    0.28 
  -7   0  -6    9.00    0.25 
  -7   0  -6    8.72    0.28 
   7   0   6    8.82    0.21 
  -8   0  -6    0.19    0.07 
  -8   0  -6    0.21    0.06 
  -8   0  -6    0.25    0.07 
  -9   0  -6    1.32    0.14 
  -9   0  -6    1.65    0.17 
  -9   0  -6    1.40    0.13 
   7  -1  -6    0.14    0.09 
  -7   1   6    0.13    0.09 
   6  -1  -6    0.29    0.09 
  -6   1   6    0.12    0.07 
  -6   1   6    0.11    0.07 
   5  -1  -6    3.30    0.19 
  -5   1   6    3.12    0.18 
  -5   1   6    3.43    0.19 
   4  -1  -6    1.44    0.10 
   4  -1  -6    1.31    0.12 
  -4   1   6    1.33    0.12 
  -4   1   6    1.45    0.11 
   3  -1  -6    0.12    0.04 
   3  -1  -6    0.12    0.05 
  -3   1   6    0.16    0.05 
  -3   1   6    0.12    0.04 
   2  -1  -6    0.12    0.04 
   2  -1  -6    0.05    0.04 
   2  -1  -6    0.05    0.03 
  -2   1   6    0.09    0.04 
   1  -1  -6    0.45    0.05 
   1  -1  -6    0.33    0.05 
  -1   1   6    0.38    0.04 
  -1   1   6    0.44    0.05 
   0  -1  -6    1.70    0.08 
   0  -1  -6    1.63    0.08 
   0  -1  -6    1.54    0.08 
   0  -1  -6    1.67    0.08 
   0   1   6    1.67    0.07 
   0   1   6    1.60    0.07 
   0   1   6    1.60    0.07 
  -1  -1  -6   34.07    0.61 
  -1  -1  -6   33.30    0.60 
  -1  -1  -6   33.35    0.60 
  -1  -1  -6   33.28    0.61 
   1   1   6   33.48    0.57 
   1   1   6   33.61    0.57 
  -2  -1  -6    3.71    0.11 
  -2  -1  -6    3.87    0.11 
  -2  -1  -6    3.78    0.09 
  -2  -1  -6    3.78    0.11 
  -3  -1  -6    0.92    0.05 
  -3  -1  -6    0.84    0.05 
  -3  -1  -6    0.97    0.06 
  -4  -1  -6   10.22    0.24 
  -4  -1  -6   10.03    0.23 
  -4  -1  -6   10.01    0.23 
  -4  -1  -6   10.37    0.21 
   4   1   6   10.28    0.20 
   4   1   6   10.47    0.20 
  -5  -1  -6    5.69    0.15 
  -5  -1  -6    5.93    0.18 
  -5  -1  -6    5.63    0.18 
  -5  -1  -6    5.78    0.18 
   5   1   6    5.84    0.13 
   5   1   6    5.82    0.14 
  -6  -1  -6    0.81    0.08 
  -6  -1  -6    0.89    0.09 
  -6  -1  -6    1.18    0.07 
   6   1   6    0.85    0.06 
   6   1   6    1.01    0.06 
  -7  -1  -6    1.53    0.12 
  -7  -1  -6    1.33    0.12 
  -7  -1  -6    1.40    0.11 
  -7  -1  -6    1.47    0.09 
   7   1   6    1.39    0.09 
   7   1   6    1.59    0.09 
  -8  -1  -6    9.30    0.26 
  -8  -1  -6    9.28    0.32 
  -8  -1  -6    9.75    0.31 
  -9  -1  -6    0.24    0.09 
  -9  -1  -6    0.17    0.07 
  -9  -1  -6    0.14    0.08 
 -10  -1  -6    0.08    0.10 
 -10  -1  -6    0.06    0.08 
   7  -2  -6    0.04    0.09 
  -7   2   6    0.13    0.09 
   6  -2  -6    0.87    0.13 
  -6   2   6    1.07    0.13 
  -6   2   6    0.80    0.12 
   5  -2  -6    1.78    0.16 
  -5   2   6    1.51    0.14 
  -5   2   6    1.64    0.15 
   4  -2  -6    7.97    0.29 
   4  -2  -6    8.11    0.25 
  -4   2   6    8.27    0.27 
  -4   2   6    8.40    0.29 
  -4   2   6    8.50    0.29 
   3  -2  -6    4.78    0.17 
   3  -2  -6    4.84    0.20 
   3  -2  -6    4.40    0.19 
  -3   2   6    5.19    0.20 
  -3   2   6    4.75    0.20 
   2  -2  -6   17.92    0.42 
   2  -2  -6   17.99    0.39 
   2  -2  -6   18.34    0.42 
  -2   2   6   18.00    0.41 
  -2   2   6   17.00    0.35 
   1  -2  -6    0.14    0.04 
   1  -2  -6    0.09    0.04 
   1  -2  -6    0.16    0.03 
   1  -2  -6    0.16    0.04 
  -1   2   6    0.13    0.04 
  -1   2   6    0.13    0.02 
   0  -2  -6    1.00    0.06 
   0  -2  -6    0.97    0.06 
   0  -2  -6    0.97    0.07 
   0  -2  -6    0.84    0.07 
   0  -2  -6    0.85    0.06 
   0   2   6    0.90    0.06 
   0   2   6    0.90    0.06 
  -1  -2  -6   10.80    0.23 
  -1  -2  -6   10.81    0.25 
  -1  -2  -6   10.71    0.25 
  -1  -2  -6   11.03    0.26 
  -1  -2  -6   10.55    0.23 
   1   2   6   10.64    0.23 
   1   2   6   10.99    0.24 
   1   2   6   10.70    0.24 
  -2  -2  -6   66.22    1.14 
  -2  -2  -6   66.02    1.11 
  -2  -2  -6   66.58    1.14 
  -2  -2  -6   66.39    1.14 
  -2  -2  -6   66.26    1.12 
   2   2   6   65.63    1.12 
   2   2   6   65.72    1.12 
   2   2   6   65.48    1.12 
  -3  -2  -6   13.96    0.30 
  -3  -2  -6   14.30    0.31 
  -3  -2  -6   14.42    0.31 
  -3  -2  -6   14.39    0.26 
   3   2   6   14.51    0.28 
   3   2   6   14.97    0.28 
   3   2   6   14.32    0.28 
   3   2   6   14.41    0.29 
  -4  -2  -6    0.07    0.03 
  -4  -2  -6    0.01    0.02 
  -4  -2  -6   -0.01    0.03 
   4   2   6   -0.02    0.02 
   4   2   6    0.00    0.02 
   4   2   6    0.02    0.02 
   4   2   6    0.01    0.02 
  -5  -2  -6    1.08    0.08 
  -5  -2  -6    1.14    0.08 
  -5  -2  -6    1.06    0.08 
  -5  -2  -6    0.98    0.04 
   5   2   6    1.00    0.06 
   5   2   6    1.12    0.07 
  -6  -2  -6    8.29    0.18 
  -6  -2  -6    8.38    0.25 
  -6  -2  -6    8.28    0.25 
   6   2   6    8.49    0.21 
   6   2   6    8.54    0.22 
  -7  -2  -6   18.24    0.37 
  -7  -2  -6   18.60    0.46 
  -7  -2  -6   19.01    0.45 
   7   2   6   18.64    0.40 
   7   2   6   19.10    0.40 
  -8  -2  -6   14.29    0.40 
  -8  -2  -6   14.03    0.41 
  -8  -2  -6   13.70    0.31 
  -9  -2  -6    6.44    0.28 
  -9  -2  -6    6.46    0.29 
 -10  -2  -6    0.10    0.10 
 -10  -2  -6    0.03    0.08 
   6  -3  -6    0.34    0.10 
  -6   3   6    0.34    0.10 
  -6   3   6    0.47    0.12 
   5  -3  -6    3.01    0.20 
  -5   3   6    2.94    0.18 
  -5   3   6    2.60    0.19 
  -5   3   6    2.63    0.19 
   4  -3  -6    1.70    0.15 
  -4   3   6    1.75    0.15 
  -4   3   6    1.81    0.16 
   3  -3  -6    1.76    0.14 
   3  -3  -6    2.21    0.15 
   3  -3  -6    2.05    0.12 
  -3   3   6    2.23    0.15 
  -3   3   6    2.10    0.15 
  -3   3   6    2.01    0.11 
   2  -3  -6    2.29    0.12 
   2  -3  -6    2.54    0.14 
   2  -3  -6    2.34    0.14 
  -2   3   6    2.15    0.13 
  -2   3   6    2.15    0.10 
  -2   3   6    2.24    0.14 
   1  -3  -6   24.03    0.55 
   1  -3  -6   22.40    0.46 
   1  -3  -6   22.88    0.50 
   1  -3  -6   22.34    0.49 
  -1   3   6   21.53    0.41 
  -1   3   6   22.71    0.49 
  -1   3   6   22.67    0.49 
   0  -3  -6    0.14    0.04 
   0  -3  -6    0.18    0.05 
   0  -3  -6    0.24    0.04 
   0  -3  -6    0.39    0.06 
   0   3   6    0.26    0.05 
   0   3   6    0.25    0.05 
  -1  -3  -6    3.84    0.14 
  -1  -3  -6    3.93    0.13 
  -1  -3  -6    3.88    0.14 
  -1  -3  -6    3.94    0.12 
   1   3   6    3.85    0.13 
   1   3   6    3.82    0.14 
  -2  -3  -6   28.93    0.58 
  -2  -3  -6   30.65    0.58 
  -2  -3  -6   30.29    0.58 
  -2  -3  -6   30.01    0.51 
  -2  -3  -6   30.06    0.53 
   2   3   6   30.02    0.56 
   2   3   6   29.73    0.57 
  -3  -3  -6    5.45    0.17 
  -3  -3  -6    5.64    0.17 
  -3  -3  -6    5.54    0.17 
   3   3   6    5.59    0.15 
   3   3   6    5.78    0.16 
  -4  -3  -6   19.47    0.42 
  -4  -3  -6   19.96    0.42 
  -4  -3  -6   20.40    0.42 
   4   3   6   20.31    0.40 
   4   3   6   20.07    0.41 
  -5  -3  -6    1.20    0.09 
  -5  -3  -6    1.15    0.09 
  -5  -3  -6    0.96    0.08 
   5   3   6    1.23    0.08 
   5   3   6    1.26    0.08 
  -6  -3  -6    2.65    0.14 
  -6  -3  -6    2.67    0.13 
  -6  -3  -6    2.79    0.14 
   6   3   6    2.62    0.11 
   6   3   6    2.64    0.12 
  -7  -3  -6    5.63    0.22 
  -7  -3  -6    5.76    0.22 
   7   3   6    5.57    0.18 
   7   3   6    5.54    0.19 
  -8  -3  -6    2.52    0.16 
  -8  -3  -6    2.12    0.16 
   8   3   6    2.50    0.14 
  -9  -3  -6    1.90    0.17 
  -9  -3  -6    1.34    0.14 
 -10  -3  -6   10.80    0.38 
 -10  -3  -6    9.94    0.39 
   6  -4  -6    2.13    0.20 
  -6   4   6    2.22    0.20 
  -6   4   6    2.22    0.22 
   5  -4  -6    0.29    0.09 
  -5   4   6    0.31    0.10 
  -5   4   6    0.24    0.09 
   4  -4  -6    0.03    0.07 
  -4   4   6    0.12    0.07 
  -4   4   6    0.04    0.06 
   3  -4  -6    5.87    0.24 
  -3   4   6    5.45    0.23 
  -3   4   6    5.75    0.25 
   2  -4  -6    8.04    0.24 
   2  -4  -6    8.18    0.27 
   2  -4  -6    7.94    0.27 
  -2   4   6    7.62    0.21 
  -2   4   6    7.76    0.26 
  -2   4   6    7.89    0.27 
   1  -4  -6    2.22    0.14 
   1  -4  -6    2.02    0.11 
   1  -4  -6    1.93    0.12 
  -1   4   6    2.06    0.08 
  -1   4   6    1.95    0.12 
  -1   4   6    2.31    0.14 
   0  -4  -6   18.16    0.41 
   0  -4  -6   17.71    0.42 
   0   4   6   16.90    0.33 
   0   4   6   17.71    0.41 
   0   4   6   17.92    0.39 
  -1  -4  -6    1.91    0.09 
  -1  -4  -6    1.94    0.07 
  -1  -4  -6    1.97    0.11 
  -1  -4  -6    1.84    0.11 
   1   4   6    1.78    0.10 
   1   4   6    1.80    0.09 
  -2  -4  -6    5.87    0.19 
  -2  -4  -6    5.81    0.14 
  -2  -4  -6    5.96    0.19 
  -2  -4  -6    5.68    0.15 
  -2  -4  -6    5.75    0.19 
   2   4   6    5.91    0.15 
   2   4   6    5.92    0.15 
   2   4   6    5.85    0.19 
  -3  -4  -6    0.77    0.08 
  -3  -4  -6    0.70    0.07 
  -3  -4  -6    0.73    0.04 
  -3  -4  -6    0.67    0.07 
   3   4   6    0.74    0.05 
   3   4   6    0.61    0.06 
  -4  -4  -6   13.22    0.32 
  -4  -4  -6   13.14    0.32 
  -4  -4  -6   13.38    0.33 
   4   4   6   13.73    0.32 
   4   4   6   13.34    0.26 
  -5  -4  -6    8.91    0.26 
  -5  -4  -6    9.40    0.27 
  -5  -4  -6    9.54    0.27 
   5   4   6    9.60    0.19 
   5   4   6    9.51    0.25 
  -6  -4  -6    0.61    0.08 
  -6  -4  -6    0.39    0.06 
  -6  -4  -6    0.31    0.06 
   6   4   6    0.44    0.06 
   6   4   6    0.39    0.04 
  -7  -4  -6    0.11    0.06 
  -7  -4  -6    0.19    0.06 
   7   4   6    0.02    0.03 
   7   4   6    0.15    0.05 
  -8  -4  -6    0.87    0.11 
  -8  -4  -6    0.97    0.12 
   8   4   6    0.88    0.09 
  -9  -4  -6    0.81    0.12 
  -9  -4  -6    0.88    0.12 
 -10  -4  -6    3.89    0.26 
 -10  -4  -6    4.20    0.25 
   5  -5  -6   -0.06    0.07 
  -5   5   6    0.15    0.09 
  -5   5   6    0.05    0.08 
   4  -5  -6    0.83    0.13 
  -4   5   6    0.72    0.12 
  -4   5   6    0.62    0.11 
   3  -5  -6    3.46    0.21 
  -3   5   6    3.61    0.20 
  -3   5   6    3.66    0.21 
   2  -5  -6   17.93    0.47 
  -2   5   6   17.73    0.46 
  -2   5   6   18.37    0.48 
   1  -5  -6    0.06    0.05 
   1  -5  -6    0.06    0.05 
  -1   5   6    0.04    0.03 
  -1   5   6    0.07    0.05 
  -1   5   6    0.00    0.04 
   0  -5  -6    2.38    0.14 
   0  -5  -6    2.18    0.14 
   0   5   6    2.22    0.09 
   0   5   6    2.45    0.14 
   0   5   6    2.34    0.12 
  -1  -5  -6    3.92    0.13 
   1   5   6    3.85    0.14 
   1   5   6    3.89    0.14 
   1   5   6    4.03    0.17 
  -2  -5  -6    0.99    0.06 
  -2  -5  -6    1.01    0.09 
  -2  -5  -6    0.86    0.06 
  -2  -5  -6    0.90    0.09 
   2   5   6    0.84    0.06 
   2   5   6    0.96    0.07 
   2   5   6    0.95    0.09 
  -3  -5  -6    1.04    0.09 
  -3  -5  -6    1.09    0.06 
  -3  -5  -6    1.22    0.15 
  -3  -5  -6    0.99    0.05 
  -3  -5  -6    0.74    0.08 
   3   5   6    1.10    0.09 
   3   5   6    1.05    0.05 
   3   5   6    1.10    0.07 
  -4  -5  -6   20.88    0.47 
  -4  -5  -6   20.39    0.46 
   4   5   6   20.69    0.41 
   4   5   6   20.28    0.46 
  -5  -5  -6    0.25    0.06 
  -5  -5  -6    0.11    0.05 
   5   5   6    0.24    0.04 
   5   5   6    0.23    0.05 
  -6  -5  -6   43.63    0.88 
  -6  -5  -6   44.55    0.88 
   6   5   6   45.11    0.85 
   6   5   6   44.89    0.86 
  -7  -5  -6    0.24    0.07 
  -7  -5  -6    0.34    0.07 
   7   5   6    0.37    0.07 
   7   5   6    0.26    0.06 
  -8  -5  -6    2.12    0.16 
  -8  -5  -6    2.24    0.16 
   8   5   6    2.22    0.14 
  -9  -5  -6    7.04    0.30 
  -9  -5  -6    6.87    0.29 
   9   5   6    6.41    0.17 
 -10  -5  -6    1.94    0.19 
 -10  -5  -6    1.37    0.16 
  10   5   6    1.49    0.07 
   4  -6  -6    6.11    0.29 
  -4   6   6    6.01    0.30 
  -4   6   6    6.18    0.30 
   3  -6  -6    3.81    0.22 
  -3   6   6    3.78    0.23 
  -3   6   6    3.82    0.22 
   2  -6  -6    6.27    0.26 
  -2   6   6    5.77    0.25 
  -2   6   6    6.02    0.27 
   1  -6  -6    1.77    0.14 
  -1   6   6    1.81    0.13 
  -1   6   6    1.76    0.15 
   0  -6  -6    0.60    0.09 
   0   6   6    0.45    0.05 
   0   6   6    0.37    0.06 
   0   6   6    0.47    0.07 
   0   6   6    0.48    0.09 
  -1  -6  -6    3.28    0.16 
  -1  -6  -6    3.46    0.17 
  -1  -6  -6    3.71    0.14 
   1   6   6    3.77    0.18 
   1   6   6    3.66    0.14 
   1   6   6    3.71    0.15 
  -2  -6  -6    7.23    0.25 
  -2  -6  -6    7.67    0.21 
  -2  -6  -6    7.83    0.25 
   2   6   6    7.54    0.20 
   2   6   6    7.55    0.21 
   2   6   6    7.53    0.25 
  -3  -6  -6    1.82    0.13 
  -3  -6  -6    2.02    0.10 
  -3  -6  -6    2.17    0.14 
   3   6   6    2.10    0.10 
   3   6   6    1.99    0.13 
   3   6   6    2.06    0.09 
  -4  -6  -6    1.32    0.12 
  -4  -6  -6    1.54    0.12 
  -4  -6  -6    1.55    0.09 
   4   6   6    1.52    0.06 
   4   6   6    1.41    0.12 
   4   6   6    1.64    0.09 
  -5  -6  -6    8.03    0.27 
  -5  -6  -6    8.33    0.27 
   5   6   6    7.89    0.26 
  -6  -6  -6    4.78    0.21 
  -6  -6  -6    5.11    0.22 
   6   6   6    5.24    0.20 
  -7  -6  -6    3.85    0.20 
  -7  -6  -6    3.64    0.19 
   7   6   6    3.57    0.18 
   7   6   6    3.64    0.17 
  -8  -6  -6    0.19    0.07 
  -8  -6  -6    0.25    0.08 
   8   6   6    0.15    0.06 
  -9  -6  -6    0.02    0.07 
  -9  -6  -6    0.10    0.08 
   9   6   6   -0.08    0.06 
 -10  -6  -6    1.19    0.16 
 -10  -6  -6    1.03    0.14 
   3  -7  -6    0.25    0.10 
  -3   7   6    0.42    0.11 
  -3   7   6    0.36    0.10 
   2  -7  -6   -0.05    0.06 
  -2   7   6    0.05    0.07 
  -2   7   6    0.10    0.08 
   1  -7  -6    1.88    0.16 
  -1   7   6    2.11    0.15 
  -1   7   6    1.99    0.17 
   0  -7  -6    5.49    0.24 
   0   7   6    5.35    0.21 
   0   7   6    5.53    0.24 
   0   7   6    5.24    0.20 
  -1  -7  -6    5.36    0.23 
  -1  -7  -6    5.35    0.19 
   1   7   6    5.04    0.19 
   1   7   6    5.23    0.23 
   1   7   6    5.27    0.19 
  -2  -7  -6    0.99    0.11 
  -2  -7  -6    1.21    0.10 
   2   7   6    1.19    0.09 
   2   7   6    1.24    0.09 
   2   7   6    1.32    0.12 
  -3  -7  -6    1.53    0.10 
  -3  -7  -6    1.41    0.12 
  -3  -7  -6    1.31    0.13 
   3   7   6    1.19    0.12 
   3   7   6    1.24    0.08 
   3   7   6    1.38    0.09 
  -4  -7  -6   -0.05    0.06 
  -4  -7  -6   -0.03    0.04 
  -4  -7  -6   -0.04    0.05 
   4   7   6   -0.07    0.04 
   4   7   6    0.01    0.03 
   4   7   6    0.00    0.02 
  -5  -7  -6    0.41    0.08 
  -5  -7  -6    0.24    0.06 
  -5  -7  -6    0.39    0.08 
   5   7   6    0.35    0.07 
  -6  -7  -6    0.03    0.06 
  -6  -7  -6    0.11    0.06 
   6   7   6    0.09    0.05 
  -7  -7  -6    0.38    0.08 
  -7  -7  -6    0.57    0.10 
   7   7   6    0.38    0.07 
   7   7   6    0.54    0.08 
  -8  -7  -6    2.47    0.18 
  -8  -7  -6    2.45    0.18 
   8   7   6    2.43    0.16 
  -9  -7  -6    2.50    0.20 
  -9  -7  -6    1.94    0.18 
   9   7   6    2.19    0.16 
 -10  -7  -6    0.42    0.11 
 -10  -7  -6    0.58    0.12 
   2  -8  -6    4.86    0.26 
  -2   8   6    5.27    0.29 
  -2   8   6    5.11    0.26 
   1  -8  -6    3.01    0.21 
  -1   8   6    3.53    0.20 
  -1   8   6    3.47    0.23 
   0  -8  -6    0.46    0.10 
   0   8   6    0.42    0.08 
   0   8   6    0.45    0.09 
   0   8   6    0.45    0.10 
  -1  -8  -6    1.27    0.13 
  -1  -8  -6    1.06    0.11 
   1   8   6    1.19    0.13 
   1   8   6    1.36    0.11 
   1   8   6    1.32    0.11 
  -2  -8  -6    0.48    0.08 
  -2  -8  -6    0.60    0.08 
   2   8   6    0.70    0.08 
   2   8   6    0.75    0.11 
   2   8   6    0.49    0.07 
  -3  -8  -6    4.21    0.21 
  -3  -8  -6    3.76    0.17 
  -3  -8  -6    3.88    0.21 
   3   8   6    4.08    0.17 
   3   8   6    3.79    0.15 
   3   8   6    4.00    0.21 
  -4  -8  -6    6.80    0.27 
  -4  -8  -6    7.20    0.24 
  -4  -8  -6    7.31    0.28 
   4   8   6    7.29    0.27 
   4   8   6    7.18    0.23 
   4   8   6    7.01    0.19 
  -5  -8  -6    5.72    0.24 
  -5  -8  -6    5.39    0.24 
  -5  -8  -6    5.27    0.20 
   5   8   6    5.15    0.23 
   5   8   6    5.03    0.14 
  -6  -8  -6    0.94    0.12 
  -6  -8  -6    0.73    0.09 
  -6  -8  -6    0.74    0.11 
   6   8   6    0.84    0.10 
  -7  -8  -6    3.86    0.22 
  -7  -8  -6    3.98    0.22 
   7   8   6    3.94    0.20 
  -8  -8  -6    0.06    0.07 
  -8  -8  -6   -0.02    0.06 
   8   8   6    0.07    0.06 
  -9  -8  -6    0.03    0.08 
  -9  -8  -6   -0.04    0.07 
   9   8   6    0.02    0.06 
   1  -9  -6    1.17    0.17 
  -1   9   6    1.21    0.17 
  -1   9   6    1.57    0.16 
   0  -9  -6    0.30    0.09 
   0   9   6    0.11    0.08 
   0   9   6    0.11    0.07 
  -1  -9  -6    4.34    0.23 
   1   9   6    4.72    0.21 
   1   9   6    4.55    0.25 
  -2  -9  -6    0.55    0.10 
  -2  -9  -6    0.68    0.10 
   2   9   6    0.69    0.09 
   2   9   6    0.94    0.12 
   2   9   6    0.70    0.09 
  -3  -9  -6    7.38    0.26 
  -3  -9  -6    7.58    0.29 
   3   9   6    7.53    0.23 
   3   9   6    7.50    0.25 
   3   9   6    7.16    0.30 
  -4  -9  -6    1.05    0.12 
  -4  -9  -6    1.32    0.12 
  -4  -9  -6    1.11    0.14 
   4   9   6    1.26    0.09 
   4   9   6    1.00    0.12 
   4   9   6    1.23    0.11 
  -5  -9  -6    3.36    0.21 
  -5  -9  -6    3.67    0.18 
  -5  -9  -6    3.87    0.22 
   5   9   6    3.62    0.21 
  -6  -9  -6    2.18    0.15 
  -6  -9  -6    2.39    0.18 
  -6  -9  -6    2.12    0.18 
   6   9   6    2.48    0.18 
  -7  -9  -6    0.05    0.07 
  -7  -9  -6    0.09    0.06 
  -7  -9  -6   -0.03    0.06 
   7   9   6    0.05    0.06 
  -8  -9  -6    0.40    0.11 
  -8  -9  -6    0.44    0.10 
   8   9   6    0.23    0.07 
  -9  -9  -6    0.18    0.09 
  -9  -9  -6    0.03    0.08 
   9   9   6   -0.02    0.06 
   0  10   6    0.91    0.14 
  -1 -10  -6    2.62    0.20 
   1  10   6    2.92    0.23 
   1  10   6    2.89    0.19 
  -2 -10  -6    0.12    0.07 
  -2 -10  -6    0.10    0.08 
   2  10   6    0.17    0.08 
   2  10   6    0.17    0.07 
  -3 -10  -6    0.10    0.06 
  -3 -10  -6    0.10    0.07 
   3  10   6    0.18    0.06 
   3  10   6    0.09    0.08 
  -4 -10  -6    0.60    0.10 
  -4 -10  -6    0.70    0.12 
   4  10   6    0.68    0.08 
   4  10   6    0.66    0.12 
  -5 -10  -6    0.39    0.09 
  -5 -10  -6    0.29    0.08 
  -5 -10  -6    0.43    0.11 
   5  10   6    0.44    0.10 
  -6 -10  -6    0.28    0.08 
  -6 -10  -6    0.31    0.10 
  -6 -10  -6    0.21    0.09 
   6  10   6    0.18    0.08 
  -7 -10  -6    0.02    0.07 
  -7 -10  -6   -0.04    0.07 
  -7 -10  -6    0.05    0.07 
   7  10   6   -0.07    0.06 
  -8 -10  -6    1.82    0.16 
  -8 -10  -6    2.07    0.20 
  -8 -10  -6    1.78    0.19 
   8  10   6    1.89    0.18 
  -3 -11  -6   -0.03    0.06 
   3  11   6    0.05    0.09 
   3  11   6    0.04    0.06 
  -4 -11  -6    0.20    0.09 
  -4 -11  -6    0.31    0.09 
   4  11   6    0.24    0.09 
  -5 -11  -6    4.91    0.27 
  -5 -11  -6    4.22    0.23 
  -5 -11  -6    4.59    0.25 
   5  11   6    4.40    0.26 
  -6 -11  -6    0.03    0.08 
  -6 -11  -6   -0.01    0.07 
  -6 -11  -6    0.05    0.08 
   6  11   6    0.10    0.08 
   4  10  -7    4.63    0.24 
  -4 -10   7    5.04    0.29 
   3  10  -7    0.03    0.06 
  -3 -10   7    0.14    0.09 
   2  10  -7    1.21    0.13 
   2  10  -7    1.48    0.20 
  -2 -10   7    1.22    0.17 
   1  10  -7    0.09    0.11 
   1  10  -7    0.02    0.06 
  -1 -10   7    0.00    0.10 
   6   9  -7    0.35    0.10 
   6   9  -7    0.71    0.12 
  -6  -9   7    0.40    0.11 
   5   9  -7    1.81    0.17 
   5   9  -7    1.71    0.16 
  -5  -9   7    1.94    0.19 
   4   9  -7   -0.02    0.05 
  -4  -9   7    0.07    0.08 
   3   9  -7    0.02    0.06 
  -3  -9   7   -0.05    0.07 
   2   9  -7    1.95    0.15 
  -2  -9   7    1.82    0.18 
   1   9  -7    2.80    0.16 
   1   9  -7    3.19    0.24 
  -1  -9   7    2.89    0.22 
   0   9  -7    0.68    0.12 
   0   9  -7    0.64    0.09 
   0  -9   7    0.91    0.15 
  -1   9  -7    0.85    0.11 
  -1   9  -7    0.77    0.15 
   1  -9   7    0.93    0.15 
  -2   9  -7    0.04    0.08 
  -2   9  -7   -0.05    0.04 
   6   8  -7   -0.01    0.07 
   6   8  -7   -0.02    0.06 
  -6  -8   7   -0.05    0.06 
   5   8  -7    2.13    0.16 
   5   8  -7    2.36    0.17 
  -5  -8   7    2.15    0.17 
   4   8  -7    2.95    0.18 
  -4  -8   7    2.47    0.19 
   3   8  -7   13.13    0.36 
  -3  -8   7   12.79    0.41 
   2   8  -7   14.85    0.38 
  -2  -8   7   14.05    0.44 
   1   8  -7    0.84    0.09 
  -1  -8   7    0.88    0.12 
   0   8  -7    0.20    0.09 
   0   8  -7    0.22    0.06 
   0  -8   7    0.16    0.08 
  -1   8  -7    0.22    0.09 
  -1   8  -7    0.21    0.06 
   1  -8   7    0.12    0.09 
  -2   8  -7   -0.06    0.07 
  -2   8  -7   -0.05    0.04 
  -3   8  -7    1.07    0.16 
  -3   8  -7    0.77    0.10 
   7   7  -7   -0.05    0.07 
   7   7  -7   -0.03    0.08 
  -7  -7   7   -0.08    0.06 
   6   7  -7    0.01    0.06 
   6   7  -7    0.02    0.06 
  -6  -7   7    0.05    0.06 
   5   7  -7    0.83    0.11 
   5   7  -7    0.83    0.11 
  -5  -7   7    0.87    0.11 
   4   7  -7    0.19    0.07 
   4   7  -7    0.14    0.05 
  -4  -7   7    0.19    0.07 
   3   7  -7    3.90    0.17 
  -3  -7   7    3.58    0.20 
   2   7  -7    0.28    0.06 
  -2  -7   7    0.26    0.08 
   1   7  -7    2.99    0.14 
  -1  -7   7    3.09    0.19 
   0   7  -7    2.20    0.12 
   0  -7   7    2.27    0.17 
  -1   7  -7    1.04    0.14 
  -1   7  -7    1.16    0.09 
   1  -7   7    0.89    0.13 
  -2   7  -7    7.97    0.24 
  -3   7  -7    2.87    0.21 
  -3   7  -7    2.67    0.14 
  -4   7  -7    0.81    0.10 
  -4   7  -7    0.82    0.13 
   7   6  -7   -0.03    0.08 
   7   6  -7    0.04    0.07 
   6   6  -7   -0.10    0.06 
   6   6  -7   -0.01    0.06 
  -6  -6   7    0.03    0.06 
   5   6  -7    0.36    0.08 
   5   6  -7    0.42    0.09 
  -5  -6   7    0.47    0.08 
   4   6  -7    2.15    0.15 
   4   6  -7    1.98    0.13 
  -4  -6   7    2.07    0.14 
   3   6  -7    1.16    0.11 
   3   6  -7    1.41    0.11 
   3   6  -7    1.23    0.10 
  -3  -6   7    1.20    0.12 
   2   6  -7    6.80    0.21 
   2   6  -7    6.90    0.21 
  -2  -6   7    7.02    0.26 
   1   6  -7   41.45    0.76 
   1   6  -7   40.46    0.76 
   1   6  -7   40.76    0.78 
  -1  -6   7   41.44    0.85 
   0   6  -7   14.03    0.32 
   0   6  -7   14.21    0.33 
   0   6  -7   14.36    0.31 
   0  -6   7   14.86    0.41 
  -1   6  -7    1.00    0.13 
  -1   6  -7    0.68    0.06 
  -1   6  -7    0.72    0.07 
   1  -6   7    0.75    0.11 
  -2   6  -7    0.46    0.10 
  -2   6  -7    0.51    0.06 
  -2   6  -7    0.60    0.07 
  -3   6  -7    0.12    0.04 
  -3   6  -7    0.13    0.08 
  -4   6  -7   -0.08    0.04 
  -4   6  -7   -0.05    0.04 
  -4   6  -7   -0.04    0.06 
  -5   6  -7    0.38    0.10 
  -5   6  -7    0.25    0.06 
  -5   6  -7    0.41    0.08 
   8   5  -7    2.25    0.22 
   8   5  -7    2.22    0.21 
   7   5  -7    1.12    0.15 
   6   5  -7    0.01    0.06 
   5   5  -7    1.97    0.15 
  -5  -5   7    1.99    0.13 
   4   5  -7    4.27    0.18 
   4   5  -7    4.59    0.24 
  -4  -5   7    4.52    0.15 
  -4  -5   7    4.37    0.18 
  -4  -5   7    4.50    0.15 
   3   5  -7    3.56    0.15 
   3   5  -7    3.64    0.16 
   3   5  -7    3.63    0.15 
  -3  -5   7    3.69    0.09 
  -3  -5   7    3.65    0.10 
  -3  -5   7    3.75    0.17 
   2   5  -7    0.59    0.07 
   2   5  -7    0.55    0.06 
   2   5  -7    0.64    0.07 
  -2  -5   7    0.57    0.08 
   1   5  -7    1.32    0.07 
   1   5  -7    1.33    0.08 
   1   5  -7    1.29    0.08 
  -1  -5   7    1.21    0.11 
   0   5  -7    0.62    0.06 
   0   5  -7    0.67    0.05 
   0   5  -7    0.60    0.05 
   0  -5   7    0.47    0.08 
  -1   5  -7   35.18    0.63 
  -1   5  -7   35.98    0.64 
  -1   5  -7   34.68    0.63 
   1  -5   7   35.91    0.76 
  -2   5  -7    0.62    0.06 
  -2   5  -7    0.61    0.09 
  -2   5  -7    0.66    0.05 
  -2   5  -7    0.69    0.05 
  -3   5  -7    1.99    0.10 
  -3   5  -7    1.95    0.10 
  -3   5  -7    2.07    0.10 
  -3   5  -7    2.12    0.16 
  -4   5  -7    5.58    0.25 
  -4   5  -7    5.55    0.18 
  -4   5  -7    5.61    0.19 
  -5   5  -7    3.86    0.17 
  -5   5  -7    3.83    0.21 
  -5   5  -7    3.90    0.17 
  -6   5  -7   -0.01    0.05 
  -6   5  -7    0.06    0.05 
  -6   5  -7   -0.04    0.07 
   8   4  -7    0.20    0.09 
   7   4  -7    0.80    0.13 
   6   4  -7    1.34    0.14 
  -6  -4   7    1.40    0.12 
   5   4  -7    0.37    0.08 
  -5  -4   7    0.34    0.06 
   4   4  -7    1.62    0.12 
   4   4  -7    1.55    0.12 
   4   4  -7    1.78    0.14 
  -4  -4   7    1.59    0.09 
  -4  -4   7    1.68    0.11 
  -4  -4   7    1.58    0.09 
   3   4  -7    0.02    0.04 
   3   4  -7    0.04    0.03 
   3   4  -7   -0.02    0.03 
  -3  -4   7    0.02    0.02 
  -3  -4   7    0.02    0.02 
  -3  -4   7    0.03    0.04 
   2   4  -7    0.44    0.05 
   2   4  -7    0.39    0.05 
   2   4  -7    0.34    0.05 
  -2  -4   7    0.31    0.05 
   1   4  -7    5.80    0.16 
   1   4  -7    5.97    0.16 
  -1  -4   7    6.05    0.20 
   0   4  -7    0.14    0.03 
   0   4  -7    0.15    0.03 
   0   4  -7    0.19    0.03 
   0  -4   7    0.15    0.05 
  -1   4  -7   33.26    0.57 
  -1   4  -7   32.90    0.57 
  -1   4  -7   33.37    0.57 
   1  -4   7   33.29    0.69 
  -2   4  -7   10.20    0.32 
  -2   4  -7   10.06    0.21 
  -2   4  -7    9.94    0.21 
  -2   4  -7   10.14    0.21 
  -3   4  -7    9.18    0.22 
  -3   4  -7   10.09    0.31 
  -3   4  -7    9.57    0.22 
  -3   4  -7    9.32    0.22 
  -4   4  -7    0.80    0.10 
  -4   4  -7    0.86    0.07 
  -4   4  -7    0.88    0.07 
  -4   4  -7    0.92    0.08 
  -5   4  -7    0.39    0.07 
  -5   4  -7    0.21    0.07 
  -5   4  -7    0.34    0.06 
  -6   4  -7    0.02    0.05 
  -6   4  -7    0.00    0.06 
  -6   4  -7    0.04    0.05 
  -7   4  -7    1.62    0.16 
  -7   4  -7    1.39    0.13 
  -7   4  -7    1.90    0.15 
   8   3  -7    0.07    0.09 
   7   3  -7    1.52    0.15 
  -7  -3   7    2.36    0.25 
   6   3  -7    3.99    0.22 
  -6  -3   7    3.92    0.19 
   5   3  -7   11.10    0.34 
  -5  -3   7   10.64    0.30 
   4   3  -7   11.11    0.32 
   4   3  -7   11.32    0.32 
   4   3  -7   11.32    0.32 
  -4  -3   7   11.00    0.28 
  -4  -3   7   10.63    0.28 
   3   3  -7    9.12    0.25 
   3   3  -7    9.37    0.26 
   3   3  -7    8.95    0.26 
  -3  -3   7    9.04    0.22 
  -3  -3   7    9.16    0.21 
  -3  -3   7    9.28    0.24 
   2   3  -7    0.18    0.04 
   2   3  -7    0.23    0.04 
   2   3  -7    0.30    0.05 
  -2  -3   7    0.28    0.05 
  -2  -3   7    0.27    0.03 
   1   3  -7    0.76    0.05 
   1   3  -7    0.81    0.06 
   1   3  -7    0.82    0.05 
  -1  -3   7    0.95    0.07 
   0   3  -7    3.15    0.09 
   0   3  -7    3.14    0.12 
   0   3  -7    3.01    0.09 
   0  -3   7    2.87    0.13 
   1  -3   7    2.60    0.13 
  -3   3  -7   82.53    1.39 
  -3   3  -7   83.87    1.40 
  -3   3  -7   84.92    1.52 
  -3   3  -7   82.44    1.39 
  -4   3  -7    0.11    0.04 
  -4   3  -7    0.17    0.06 
  -4   3  -7    0.12    0.04 
  -4   3  -7    0.12    0.03 
  -5   3  -7    0.07    0.04 
  -5   3  -7    0.00    0.03 
  -5   3  -7   -0.03    0.04 
  -5   3  -7    0.03    0.04 
  -6   3  -7    3.66    0.17 
  -6   3  -7    3.54    0.19 
  -6   3  -7    3.31    0.16 
  -7   3  -7    3.58    0.19 
  -7   3  -7    3.51    0.19 
  -7   3  -7    3.48    0.19 
  -8   3  -7    0.02    0.07 
  -8   3  -7    0.13    0.07 
  -8   3  -7    0.09    0.07 
   8   2  -7   -0.05    0.07 
   7   2  -7    2.83    0.21 
  -7  -2   7    2.68    0.18 
   6   2  -7    0.78    0.12 
  -6  -2   7    0.81    0.10 
   5   2  -7    3.11    0.18 
  -5  -2   7    3.17    0.16 
  -5  -2   7    3.47    0.16 
   4   2  -7   16.52    0.54 
   4   2  -7   16.50    0.41 
   4   2  -7   15.92    0.40 
  -4  -2   7   13.89    0.36 
  -4  -2   7   15.89    0.37 
   3   2  -7    1.06    0.09 
   3   2  -7    1.00    0.09 
   3   2  -7    1.06    0.09 
  -3  -2   7    1.06    0.07 
  -3  -2   7    1.00    0.08 
   2   2  -7    4.53    0.15 
   2   2  -7    4.33    0.15 
   2   2  -7    4.46    0.16 
  -2  -2   7    4.50    0.14 
   1   2  -7    0.26    0.04 
   1   2  -7    0.24    0.04 
   1   2  -7    0.23    0.04 
  -1  -2   7    0.23    0.04 
   0   2  -7    3.87    0.10 
   0   2  -7    3.82    0.10 
   0   2  -7    3.76    0.10 
   0  -2   7    3.77    0.13 
  -1   2  -7    8.08    0.20 
  -2   2  -7    9.02    0.24 
  -3   2  -7    0.65    0.04 
  -3   2  -7    0.60    0.04 
  -3   2  -7    0.49    0.07 
  -3   2  -7    0.60    0.04 
  -4   2  -7   15.15    0.32 
  -4   2  -7   15.24    0.31 
  -4   2  -7   15.84    0.38 
  -4   2  -7   15.33    0.32 
  -5   2  -7    6.56    0.20 
  -5   2  -7    6.19    0.18 
  -5   2  -7    6.47    0.19 
  -5   2  -7    6.45    0.22 
  -6   2  -7    1.30    0.10 
  -6   2  -7    1.29    0.10 
  -6   2  -7    1.24    0.11 
  -7   2  -7    2.52    0.16 
  -7   2  -7    2.37    0.15 
  -7   2  -7    2.39    0.15 
  -8   2  -7    0.71    0.11 
  -8   2  -7    0.97    0.12 
  -8   2  -7    0.87    0.11 
   7   1  -7    0.23    0.09 
  -7  -1   7    0.06    0.07 
   6   1  -7    0.04    0.07 
  -6  -1   7   -0.03    0.06 
   5   1  -7    0.31    0.08 
  -5  -1   7    0.19    0.06 
  -5  -1   7    0.19    0.06 
   4   1  -7    0.23    0.07 
   4   1  -7    0.20    0.06 
  -4  -1   7    0.18    0.05 
  -4  -1   7    0.24    0.06 
   3   1  -7   10.06    0.29 
   3   1  -7   10.22    0.29 
   3   1  -7   10.64    0.30 
  -3  -1   7   10.53    0.27 
  -3  -1   7   10.66    0.26 
   2   1  -7    0.27    0.05 
   2   1  -7    0.29    0.05 
   2   1  -7    0.21    0.04 
  -2  -1   7    0.22    0.04 
  -2  -1   7    0.25    0.03 
   1   1  -7    0.28    0.04 
   1   1  -7    0.22    0.04 
   1   1  -7    0.25    0.04 
  -1  -1   7    0.20    0.03 
  -1  -1   7    0.27    0.03 
  -1  -1   7    0.28    0.03 
   0   1  -7    5.76    0.15 
   0   1  -7    5.82    0.14 
   0   1  -7    5.80    0.15 
   0  -1   7    6.14    0.15 
  -1   1  -7    1.26    0.05 
  -1   1  -7    1.16    0.04 
  -1   1  -7    1.19    0.06 
  -2   1  -7    2.56    0.06 
  -2   1  -7    2.83    0.11 
  -2   1  -7    2.63    0.06 
  -2   1  -7    2.48    0.06 
  -3   1  -7    0.54    0.04 
  -3   1  -7    0.58    0.04 
  -3   1  -7    0.60    0.04 
  -3   1  -7    0.52    0.04 
  -3   1  -7    0.55    0.06 
  -3   1  -7    0.52    0.06 
  -4   1  -7   11.52    0.25 
  -4   1  -7   11.70    0.29 
  -4   1  -7   11.63    0.25 
  -4   1  -7   11.47    0.24 
  -5   1  -7   10.11    0.25 
  -5   1  -7   10.43    0.26 
  -5   1  -7   10.56    0.27 
  -5   1  -7   10.31    0.26 
  -6   1  -7   16.05    0.37 
  -6   1  -7   16.55    0.39 
  -6   1  -7   16.55    0.39 
  -6   1  -7   16.49    0.39 
  -7   1  -7    0.42    0.08 
  -7   1  -7    0.38    0.07 
  -7   1  -7    0.38    0.07 
  -8   1  -7    0.10    0.07 
  -8   1  -7    0.04    0.06 
  -8   1  -7    0.04    0.06 
  -9   1  -7    2.47    0.21 
  -9   1  -7    2.63    0.19 
  -9   1  -7    2.93    0.20 
   7   0  -7    0.22    0.10 
  -7   0   7    0.12    0.08 
   6   0  -7    0.08    0.07 
  -6   0   7   -0.03    0.06 
   5   0  -7    4.88    0.23 
  -5   0   7    5.14    0.21 
  -5   0   7    5.07    0.22 
   4   0  -7    2.69    0.16 
   4   0  -7    2.71    0.16 
  -4   0   7    2.69    0.15 
  -4   0   7    2.69    0.14 
   3   0  -7    2.52    0.14 
   3   0  -7    2.57    0.14 
   3   0  -7    2.46    0.14 
  -3   0   7    2.33    0.12 
  -3   0   7    2.34    0.12 
   2   0  -7   39.95    0.77 
   2   0  -7   40.50    0.78 
   2   0  -7   39.76    0.77 
  -2   0   7   40.95    0.75 
   1   0  -7    1.37    0.08 
   1   0  -7    1.32    0.08 
   1   0  -7    1.33    0.08 
  -1   0   7    1.36    0.05 
  -1   0   7    1.46    0.08 
  -1   0   7    1.30    0.07 
   0   0  -7    5.30    0.15 
   0   0  -7    5.30    0.15 
   0   0  -7    5.33    0.15 
   0   0   7    5.26    0.11 
   0   0   7    5.06    0.11 
  -1   0  -7    1.36    0.06 
  -1   0  -7    1.37    0.05 
  -1   0  -7    1.36    0.06 
  -2   0  -7    5.34    0.13 
  -2   0  -7    5.23    0.12 
  -2   0  -7    5.27    0.14 
  -2   0  -7    5.27    0.13 
  -3   0  -7    4.50    0.12 
  -3   0  -7    4.36    0.15 
  -3   0  -7    4.38    0.12 
  -3   0  -7    4.54    0.12 
  -4   0  -7    3.03    0.12 
  -4   0  -7    3.28    0.11 
  -4   0  -7    3.07    0.10 
  -4   0  -7    3.01    0.10 
  -5   0  -7    0.55    0.06 
  -5   0  -7    0.52    0.06 
  -5   0  -7    0.54    0.06 
  -5   0  -7    0.52    0.06 
  -6   0  -7    1.43    0.10 
  -6   0  -7    1.40    0.10 
  -6   0  -7    1.36    0.10 
  -6   0  -7    1.36    0.09 
  -7   0  -7    2.44    0.14 
  -7   0  -7    2.34    0.14 
  -7   0  -7    2.25    0.12 
  -8   0  -7    2.98    0.15 
  -8   0  -7    3.35    0.18 
  -8   0  -7    3.23    0.18 
  -9   0  -7    2.68    0.20 
  -9   0  -7    2.62    0.19 
   7  -1  -7    2.01    0.20 
  -7   1   7    2.23    0.20 
   6  -1  -7    0.73    0.12 
  -6   1   7    0.98    0.13 
   5  -1  -7    1.94    0.16 
  -5   1   7    1.61    0.14 
  -5   1   7    1.59    0.14 
   4  -1  -7    0.05    0.04 
   4  -1  -7    0.07    0.06 
   4  -1  -7   -0.04    0.05 
  -4   1   7    0.02    0.05 
  -4   1   7    0.05    0.05 
   3  -1  -7    0.23    0.07 
   3  -1  -7    0.19    0.06 
  -3   1   7    0.22    0.06 
   2  -1  -7    0.39    0.06 
   2  -1  -7    0.44    0.06 
   2  -1  -7    0.47    0.07 
  -2   1   7    0.44    0.06 
   1  -1  -7    2.47    0.12 
   1  -1  -7    2.34    0.12 
   1  -1  -7    2.24    0.11 
  -1   1   7    2.35    0.10 
   0  -1  -7    4.28    0.14 
   0  -1  -7    4.19    0.14 
   0  -1  -7    4.39    0.14 
   0   1   7    4.49    0.12 
   0   1   7    4.31    0.12 
  -1  -1  -7    0.14    0.03 
  -1  -1  -7    0.17    0.03 
  -1  -1  -7    0.18    0.03 
   1   1   7    0.17    0.02 
   1   1   7    0.21    0.02 
   1   1   7    0.15    0.02 
  -2  -1  -7   30.72    0.54 
  -2  -1  -7   30.41    0.56 
  -2  -1  -7   31.00    0.56 
  -2  -1  -7   31.28    0.53 
  -2  -1  -7   31.13    0.57 
  -3  -1  -7    2.70    0.09 
  -3  -1  -7    2.96    0.10 
  -3  -1  -7    2.88    0.10 
  -4  -1  -7    2.27    0.08 
  -4  -1  -7    2.34    0.09 
  -4  -1  -7    2.36    0.09 
  -4  -1  -7    2.20    0.09 
  -5  -1  -7    6.54    0.19 
  -5  -1  -7    6.85    0.16 
  -5  -1  -7    6.46    0.19 
  -5  -1  -7    6.25    0.19 
  -6  -1  -7    1.85    0.08 
  -6  -1  -7    1.68    0.11 
  -6  -1  -7    1.42    0.10 
   6   1   7    1.62    0.06 
  -7  -1  -7    1.44    0.09 
  -7  -1  -7    1.63    0.12 
  -7  -1  -7    1.53    0.12 
   7   1   7    1.51    0.07 
  -8  -1  -7    9.12    0.25 
  -8  -1  -7    9.82    0.31 
  -8  -1  -7    9.43    0.32 
  -9  -1  -7    5.88    0.27 
  -9  -1  -7    5.75    0.26 
   6  -2  -7    2.94    0.22 
  -6   2   7    3.46    0.22 
   5  -2  -7    3.91    0.22 
  -5   2   7    3.94    0.22 
  -5   2   7    3.89    0.21 
   4  -2  -7    1.13    0.13 
  -4   2   7    1.43    0.13 
   3  -2  -7    1.76    0.14 
   3  -2  -7    1.69    0.13 
   3  -2  -7    1.83    0.11 
  -3   2   7    1.88    0.13 
   2  -2  -7    8.45    0.26 
   2  -2  -7    7.88    0.23 
   2  -2  -7    8.37    0.26 
  -2   2   7    8.15    0.19 
  -2   2   7    8.12    0.25 
   1  -2  -7   10.26    0.28 
   1  -2  -7   10.60    0.28 
   1  -2  -7   10.31    0.28 
   1  -2  -7   10.27    0.26 
  -1   2   7   10.36    0.27 
   0  -2  -7    9.57    0.25 
   0  -2  -7    9.26    0.25 
   0  -2  -7    9.17    0.22 
   0  -2  -7    9.15    0.24 
   0   2   7    9.36    0.24 
  -1  -2  -7   11.68    0.26 
  -1  -2  -7   11.50    0.27 
  -1  -2  -7   11.15    0.27 
  -1  -2  -7   11.20    0.25 
   1   2   7   11.46    0.25 
   1   2   7   11.01    0.25 
  -2  -2  -7    0.32    0.04 
  -2  -2  -7    0.35    0.04 
  -2  -2  -7    0.28    0.04 
  -2  -2  -7    0.29    0.02 
  -2  -2  -7    0.36    0.04 
  -2  -2  -7    0.31    0.04 
   2   2   7    0.31    0.03 
   2   2   7    0.35    0.04 
   2   2   7    0.24    0.03 
  -3  -2  -7    7.63    0.16 
  -3  -2  -7    7.85    0.20 
  -3  -2  -7    7.66    0.20 
  -3  -2  -7    7.39    0.20 
   3   2   7    7.71    0.16 
   3   2   7    8.01    0.16 
   3   2   7    7.37    0.17 
   3   2   7    7.63    0.17 
  -4  -2  -7    2.53    0.11 
  -4  -2  -7    2.38    0.06 
  -4  -2  -7    2.69    0.11 
  -4  -2  -7    2.39    0.10 
   4   2   7    2.41    0.07 
   4   2   7    2.36    0.07 
   4   2   7    2.40    0.08 
   4   2   7    2.34    0.08 
  -5  -2  -7    9.44    0.25 
  -5  -2  -7    9.25    0.24 
  -5  -2  -7    9.28    0.25 
   5   2   7    9.05    0.21 
   5   2   7    9.52    0.20 
  -6  -2  -7    0.39    0.07 
  -6  -2  -7    0.30    0.06 
  -6  -2  -7    0.34    0.06 
  -6  -2  -7    0.34    0.03 
   6   2   7    0.25    0.04 
  -7  -2  -7    3.22    0.16 
  -7  -2  -7    3.24    0.10 
  -7  -2  -7    3.21    0.16 
   7   2   7    3.42    0.12 
   7   2   7    3.47    0.15 
  -8  -2  -7    0.03    0.06 
  -8  -2  -7    0.02    0.06 
  -9  -2  -7    0.77    0.12 
  -9  -2  -7    0.88    0.13 
 -10  -2  -7    0.70    0.13 
 -10  -2  -7    0.49    0.13 
   6  -3  -7    0.11    0.10 
  -6   3   7    0.04    0.08 
   5  -3  -7    0.04    0.08 
  -5   3   7   -0.06    0.07 
   4  -3  -7    0.64    0.11 
  -4   3   7    0.68    0.11 
   3  -3  -7    0.09    0.07 
   3  -3  -7    0.17    0.06 
   3  -3  -7    0.12    0.06 
  -3   3   7    0.01    0.06 
  -3   3   7    0.19    0.07 
   2  -3  -7    9.01    0.29 
   2  -3  -7    8.63    0.28 
   2  -3  -7    8.59    0.25 
  -2   3   7    8.91    0.28 
  -2   3   7    8.51    0.21 
  -2   3   7    9.16    0.28 
   1  -3  -7    0.83    0.09 
   1  -3  -7    0.84    0.08 
   1  -3  -7    0.65    0.08 
  -1   3   7    0.82    0.04 
  -1   3   7    0.83    0.09 
   0  -3  -7   12.10    0.31 
   0  -3  -7   12.19    0.32 
   0  -3  -7   12.05    0.31 
   0  -3  -7   12.07    0.28 
   0   3   7   11.85    0.30 
  -1  -3  -7    0.02    0.03 
  -1  -3  -7    0.05    0.04 
  -1  -3  -7    0.02    0.03 
  -1  -3  -7    0.01    0.04 
   1   3   7    0.04    0.03 
  -2  -3  -7   11.54    0.21 
  -2  -3  -7   11.45    0.28 
  -2  -3  -7   11.57    0.28 
  -2  -3  -7   11.31    0.24 
  -2  -3  -7   11.50    0.29 
   2   3   7   11.65    0.27 
  -3  -3  -7    0.33    0.05 
  -3  -3  -7    0.33    0.03 
  -3  -3  -7    0.36    0.05 
   3   3   7    0.34    0.04 
  -4  -3  -7    4.95    0.17 
  -4  -3  -7    4.83    0.16 
  -4  -3  -7    4.93    0.17 
   4   3   7    4.96    0.14 
   4   3   7    5.11    0.15 
  -5  -3  -7    0.95    0.08 
  -5  -3  -7    0.96    0.08 
  -5  -3  -7    0.98    0.08 
   5   3   7    1.06    0.07 
   5   3   7    0.90    0.06 
  -6  -3  -7    1.24    0.10 
  -6  -3  -7    1.14    0.10 
  -6  -3  -7    1.02    0.09 
   6   3   7    1.14    0.07 
   6   3   7    1.06    0.08 
  -7  -3  -7    2.78    0.16 
  -7  -3  -7    2.81    0.16 
   7   3   7    2.82    0.12 
   7   3   7    2.97    0.13 
  -8  -3  -7    0.79    0.11 
  -8  -3  -7    0.83    0.12 
  -9  -3  -7    3.15    0.21 
  -9  -3  -7    3.61    0.21 
 -10  -3  -7    1.43    0.18 
 -10  -3  -7    1.40    0.17 
   5  -4  -7    1.14    0.15 
  -5   4   7    1.35    0.17 
  -5   4   7    1.33    0.17 
   4  -4  -7    8.25    0.32 
  -4   4   7    8.46    0.33 
  -4   4   7    8.36    0.32 
   3  -4  -7    5.45    0.25 
  -3   4   7    5.47    0.24 
  -3   4   7    5.41    0.24 
   2  -4  -7   12.01    0.36 
   2  -4  -7   12.50    0.36 
   2  -4  -7   11.96    0.32 
  -2   4   7   12.35    0.36 
  -2   4   7   12.68    0.36 
  -2   4   7   12.07    0.31 
   1  -4  -7    0.41    0.08 
   1  -4  -7    0.42    0.07 
   1  -4  -7    0.24    0.04 
  -1   4   7    0.58    0.08 
  -1   4   7    0.52    0.08 
  -1   4   7    0.48    0.04 
   0  -4  -7   11.40    0.32 
   0  -4  -7   11.05    0.31 
   0   4   7   11.40    0.31 
   0   4   7   11.06    0.29 
  -1  -4  -7   27.56    0.58 
  -1  -4  -7   27.79    0.58 
   1   4   7   27.91    0.58 
  -2  -4  -7   24.15    0.52 
  -2  -4  -7   24.47    0.52 
  -2  -4  -7   24.78    0.52 
  -2  -4  -7   24.48    0.44 
  -2  -4  -7   24.31    0.46 
   2   4   7   24.53    0.51 
  -3  -4  -7    7.54    0.23 
  -3  -4  -7    8.10    0.23 
  -3  -4  -7    7.57    0.17 
  -3  -4  -7    7.56    0.16 
  -3  -4  -7    7.45    0.23 
   3   4   7    7.67    0.22 
  -4  -4  -7    5.70    0.19 
  -4  -4  -7    5.92    0.20 
  -4  -4  -7    5.72    0.20 
   4   4   7    6.10    0.19 
  -5  -4  -7    3.00    0.14 
  -5  -4  -7    3.14    0.15 
  -5  -4  -7    3.24    0.15 
   5   4   7    3.19    0.13 
   5   4   7    3.07    0.12 
  -6  -4  -7    0.73    0.08 
  -6  -4  -7    0.98    0.10 
  -6  -4  -7    0.89    0.10 
   6   4   7    0.89    0.08 
   6   4   7    1.01    0.08 
  -7  -4  -7    1.23    0.12 
  -7  -4  -7    1.05    0.11 
   7   4   7    0.97    0.09 
   7   4   7    1.07    0.09 
  -8  -4  -7    1.41    0.13 
  -8  -4  -7    1.62    0.15 
  -9  -4  -7    3.11    0.20 
  -9  -4  -7    3.09    0.21 
 -10  -4  -7    1.52    0.17 
 -10  -4  -7    2.16    0.20 
   5  -5  -7    0.08    0.09 
  -5   5   7   -0.05    0.08 
  -5   5   7    0.00    0.08 
   4  -5  -7    0.03    0.08 
  -4   5   7    0.14    0.09 
  -4   5   7    0.09    0.09 
   3  -5  -7    0.59    0.11 
  -3   5   7    0.70    0.12 
  -3   5   7    0.43    0.10 
   2  -5  -7    5.00    0.24 
  -2   5   7    5.68    0.24 
  -2   5   7    5.60    0.25 
   1  -5  -7    5.45    0.23 
  -1   5   7    4.90    0.18 
  -1   5   7    5.22    0.22 
  -1   5   7    5.40    0.21 
   0  -5  -7    9.18    0.29 
   0  -5  -7    8.86    0.29 
   0   5   7    9.22    0.29 
   0   5   7    9.02    0.27 
  -1  -5  -7    2.79    0.15 
   1   5   7    3.02    0.13 
   1   5   7    3.25    0.16 
  -2  -5  -7    1.41    0.07 
  -2  -5  -7    1.20    0.11 
  -2  -5  -7    1.34    0.11 
  -2  -5  -7    1.15    0.08 
   2   5   7    1.48    0.11 
   2   5   7    1.32    0.08 
  -3  -5  -7    0.05    0.03 
  -3  -5  -7    0.05    0.05 
  -3  -5  -7    0.06    0.03 
  -3  -5  -7    0.01    0.04 
   3   5   7    0.09    0.04 
   3   5   7    0.03    0.03 
  -4  -5  -7    3.37    0.16 
  -4  -5  -7    3.00    0.15 
   4   5   7    3.38    0.11 
   4   5   7    3.30    0.15 
  -5  -5  -7   21.17    0.49 
  -5  -5  -7   21.29    0.49 
   5   5   7   21.58    0.48 
   5   5   7   21.41    0.40 
  -6  -5  -7    2.30    0.15 
  -6  -5  -7    2.45    0.15 
   6   5   7    2.10    0.13 
   6   5   7    2.17    0.07 
  -7  -5  -7    1.75    0.14 
  -7  -5  -7    1.68    0.14 
   7   5   7    1.90    0.12 
  -8  -5  -7    0.03    0.06 
  -8  -5  -7    0.00    0.06 
   8   5   7    0.01    0.05 
  -9  -5  -7    0.24    0.09 
  -9  -5  -7    0.28    0.09 
 -10  -5  -7    0.01    0.09 
 -10  -5  -7   -0.04    0.08 
   4  -6  -7    0.34    0.10 
  -4   6   7    0.60    0.13 
  -4   6   7    0.46    0.12 
   3  -6  -7    1.45    0.16 
  -3   6   7    1.39    0.16 
  -3   6   7    1.74    0.18 
   2  -6  -7    3.92    0.22 
  -2   6   7    3.95    0.21 
  -2   6   7    4.07    0.23 
   1  -6  -7    4.68    0.22 
  -1   6   7    4.23    0.22 
  -1   6   7    4.34    0.20 
   0  -6  -7    0.38    0.08 
   0   6   7    0.58    0.09 
   0   6   7    0.42    0.07 
  -1  -6  -7    2.22    0.15 
  -1  -6  -7    2.34    0.14 
   1   6   7    2.13    0.14 
   1   6   7    2.12    0.12 
  -2  -6  -7   -0.05    0.04 
  -2  -6  -7    0.03    0.03 
   2   6   7    0.00    0.03 
   2   6   7    0.01    0.04 
   2   6   7    0.03    0.03 
  -3  -6  -7   10.30    0.25 
  -3  -6  -7   10.24    0.31 
  -3  -6  -7   11.05    0.32 
  -3  -6  -7   10.14    0.24 
   3   6   7   10.60    0.31 
   3   6   7   10.49    0.26 
   3   6   7   10.44    0.24 
  -4  -6  -7   17.22    0.43 
  -4  -6  -7   16.94    0.36 
  -4  -6  -7   16.96    0.43 
   4   6   7   16.38    0.42 
   4   6   7   16.74    0.36 
  -5  -6  -7   17.91    0.46 
  -5  -6  -7   19.28    0.47 
   5   6   7   18.38    0.38 
   5   6   7   18.59    0.45 
  -6  -6  -7    2.89    0.17 
  -6  -6  -7    2.85    0.17 
   6   6   7    2.78    0.11 
   6   6   7    2.44    0.14 
   6   6   7    2.90    0.15 
  -7  -6  -7    0.01    0.05 
  -7  -6  -7    0.07    0.06 
   7   6   7    0.05    0.04 
   7   6   7    0.02    0.03 
  -8  -6  -7    0.39    0.09 
  -8  -6  -7    0.18    0.07 
   8   6   7    0.37    0.05 
   8   6   7    0.39    0.07 
  -9  -6  -7    2.37    0.19 
  -9  -6  -7    1.97    0.19 
   9   6   7    2.12    0.08 
 -10  -6  -7    0.71    0.13 
 -10  -6  -7    0.35    0.10 
   3  -7  -7    0.70    0.13 
  -3   7   7    0.86    0.14 
  -3   7   7    1.02    0.15 
   2  -7  -7    3.92    0.23 
  -2   7   7    4.30    0.25 
  -2   7   7    4.14    0.22 
   1  -7  -7    0.09    0.07 
  -1   7   7    0.27    0.08 
  -1   7   7    0.14    0.09 
   0  -7  -7    2.91    0.18 
   0   7   7    3.05    0.17 
   0   7   7    3.12    0.20 
  -1  -7  -7    0.61    0.10 
   1   7   7    0.70    0.08 
   1   7   7    0.84    0.11 
   1   7   7    0.64    0.08 
  -2  -7  -7    0.25    0.05 
  -2  -7  -7    0.19    0.07 
   2   7   7    0.23    0.05 
   2   7   7    0.27    0.05 
   2   7   7    0.27    0.07 
  -3  -7  -7   10.71    0.34 
  -3  -7  -7   10.84    0.28 
  -3  -7  -7   10.77    0.34 
   3   7   7   10.78    0.28 
   3   7   7   10.99    0.34 
   3   7   7   10.92    0.26 
  -4  -7  -7    5.71    0.24 
  -4  -7  -7    5.66    0.23 
  -4  -7  -7    5.39    0.18 
   4   7   7    5.31    0.14 
   4   7   7    5.21    0.18 
   4   7   7    5.17    0.22 
  -5  -7  -7    3.60    0.19 
  -5  -7  -7    3.34    0.15 
  -5  -7  -7    3.26    0.18 
   5   7   7    3.45    0.18 
   5   7   7    3.25    0.13 
  -6  -7  -7    6.84    0.27 
  -6  -7  -7    6.88    0.27 
   6   7   7    6.52    0.20 
   6   7   7    7.00    0.26 
  -7  -7  -7    8.92    0.32 
  -7  -7  -7    9.71    0.33 
   7   7   7    8.49    0.23 
   7   7   7    8.68    0.30 
  -8  -7  -7    0.38    0.10 
  -8  -7  -7    0.57    0.11 
   8   7   7    0.48    0.09 
  -9  -7  -7    0.02    0.08 
  -9  -7  -7    0.00    0.07 
   2  -8  -7    0.10    0.08 
  -2   8   7    0.17    0.09 
  -2   8   7    0.05    0.09 
   1  -8  -7    0.20    0.09 
  -1   8   7    0.26    0.10 
  -1   8   7    0.44    0.10 
   0  -8  -7    3.21    0.21 
   0   8   7    3.51    0.19 
   0   8   7    3.23    0.22 
  -1  -8  -7    5.39    0.25 
   1   8   7    5.56    0.22 
   1   8   7    5.15    0.20 
   1   8   7    5.99    0.27 
  -2  -8  -7    0.94    0.10 
  -2  -8  -7    0.96    0.12 
   2   8   7    1.09    0.10 
   2   8   7    0.96    0.13 
   2   8   7    1.13    0.10 
  -3  -8  -7    0.35    0.06 
  -3  -8  -7    0.35    0.08 
   3   8   7    0.27    0.08 
   3   8   7    0.33    0.07 
   3   8   7    0.31    0.05 
  -4  -8  -7    0.89    0.12 
  -4  -8  -7    0.68    0.11 
  -4  -8  -7    0.67    0.08 
   4   8   7    0.73    0.07 
   4   8   7    0.69    0.08 
   4   8   7    0.75    0.11 
  -5  -8  -7    0.19    0.06 
  -5  -8  -7    0.26    0.08 
  -5  -8  -7    0.27    0.08 
   5   8   7    0.15    0.05 
   5   8   7    0.22    0.07 
  -6  -8  -7    3.27    0.20 
  -6  -8  -7    3.29    0.16 
  -6  -8  -7    3.26    0.20 
   6   8   7    3.34    0.19 
   6   8   7    3.65    0.15 
  -7  -8  -7    3.77    0.22 
  -7  -8  -7    3.47    0.22 
   7   8   7    3.68    0.20 
  -8  -8  -7    2.10    0.19 
  -8  -8  -7    2.04    0.19 
   8   8   7    2.27    0.17 
  -9  -8  -7    1.29    0.16 
  -9  -8  -7    1.61    0.17 
   0  -9  -7    3.95    0.24 
   0   9   7    3.93    0.21 
   0   9   7    4.29    0.26 
  -1  -9  -7    0.01    0.07 
   1   9   7   -0.04    0.05 
   1   9   7    0.10    0.08 
  -2  -9  -7    0.97    0.11 
  -2  -9  -7    1.24    0.15 
   2   9   7    1.03    0.11 
   2   9   7    1.10    0.12 
   2   9   7    1.31    0.15 
  -3  -9  -7    0.77    0.10 
  -3  -9  -7    0.71    0.11 
   3   9   7    0.83    0.13 
   3   9   7    0.82    0.08 
   3   9   7    0.88    0.10 
  -4  -9  -7    0.29    0.07 
  -4  -9  -7    0.31    0.09 
  -4  -9  -7    0.29    0.10 
   4   9   7    0.30    0.07 
   4   9   7    0.31    0.07 
   4   9   7    0.23    0.08 
  -5  -9  -7    7.55    0.31 
  -5  -9  -7    8.06    0.27 
  -5  -9  -7    8.36    0.32 
   5   9   7    7.57    0.25 
   5   9   7    7.98    0.31 
  -6  -9  -7    2.60    0.20 
  -6  -9  -7    2.44    0.15 
  -6  -9  -7    2.16    0.18 
   6   9   7    2.33    0.13 
   6   9   7    2.60    0.18 
  -7  -9  -7   -0.08    0.06 
  -7  -9  -7    0.17    0.08 
  -7  -9  -7    0.05    0.06 
   7   9   7    0.01    0.06 
  -8  -9  -7    0.69    0.12 
  -8  -9  -7    0.62    0.12 
   8   9   7    0.63    0.11 
  -1 -10  -7    0.12    0.09 
   1  10   7    0.41    0.12 
   1  10   7    0.20    0.08 
  -2 -10  -7    0.08    0.08 
   2  10   7    0.00    0.07 
   2  10   7    0.05    0.06 
  -3 -10  -7    2.18    0.16 
  -3 -10  -7    1.68    0.17 
   3  10   7    2.45    0.20 
   3  10   7    2.39    0.14 
  -4 -10  -7    0.39    0.10 
  -4 -10  -7    0.33    0.08 
   4  10   7    0.47    0.11 
   4  10   7    0.50    0.09 
  -5 -10  -7    0.20    0.08 
  -5 -10  -7    0.06    0.07 
  -5 -10  -7    0.07    0.08 
   5  10   7    0.07    0.05 
   5  10   7    0.12    0.07 
  -6 -10  -7    1.66    0.18 
  -6 -10  -7    1.41    0.16 
  -6 -10  -7    1.48    0.14 
   6  10   7    1.69    0.17 
   6  10   7    1.42    0.12 
  -7 -10  -7    0.08    0.07 
  -7 -10  -7    0.09    0.08 
  -7 -10  -7    0.03    0.07 
   7  10   7   -0.02    0.04 
   7  10   7    0.00    0.07 
   4   9  -8    0.05    0.06 
   4   9  -8    0.03    0.05 
  -4  -9   8   -0.08    0.08 
   3   9  -8    1.49    0.14 
  -3  -9   8    1.29    0.16 
   2   9  -8    0.36    0.08 
  -2  -9   8    0.44    0.11 
   1   9  -8    0.48    0.09 
   1   9  -8    0.53    0.13 
  -1  -9   8    0.52    0.13 
   0   9  -8    0.31    0.07 
   0   9  -8    0.19    0.11 
   0  -9   8    0.32    0.11 
  -1   9  -8    0.17    0.09 
  -1   9  -8    0.03    0.06 
   6   8  -8    0.21    0.09 
   6   8  -8    0.45    0.10 
  -6  -8   8    0.27    0.09 
   5   8  -8    0.07    0.07 
   5   8  -8    0.01    0.05 
  -5  -8   8   -0.07    0.06 
   4   8  -8    0.35    0.08 
   4   8  -8    0.45    0.08 
  -4  -8   8    0.43    0.10 
   3   8  -8    4.60    0.20 
  -3  -8   8    4.33    0.24 
   2   8  -8    1.85    0.13 
  -2  -8   8    1.80    0.17 
   1   8  -8    0.67    0.08 
  -1  -8   8    0.86    0.14 
   0   8  -8    2.60    0.22 
   0   8  -8    2.32    0.13 
   0  -8   8    2.35    0.20 
  -1   8  -8    1.25    0.11 
  -1   8  -8    1.12    0.15 
   1  -8   8    1.40    0.17 
  -2   8  -8    3.79    0.17 
  -2   8  -8    4.22    0.26 
  -3   8  -8    0.02    0.08 
  -3   8  -8   -0.01    0.04 
   6   7  -8    0.33    0.10 
   6   7  -8    0.57    0.11 
  -6  -7   8    0.46    0.09 
   5   7  -8    0.29    0.08 
   5   7  -8    0.13    0.07 
  -5  -7   8    0.28    0.08 
   4   7  -8    0.50    0.08 
   4   7  -8    0.55    0.09 
  -4  -7   8    0.52    0.09 
   3   7  -8    0.00    0.04 
   3   7  -8    0.06    0.05 
  -3  -7   8   -0.01    0.06 
   2   7  -8    0.10    0.05 
  -2  -7   8    0.06    0.07 
   1   7  -8    5.81    0.19 
  -1  -7   8    6.17    0.27 
   0   7  -8    7.90    0.23 
   0  -7   8    8.13    0.31 
  -1   7  -8    0.06    0.04 
  -1   7  -8    0.04    0.08 
   1  -7   8    0.04    0.08 
  -2   7  -8    0.36    0.06 
  -2   7  -8    0.14    0.08 
  -3   7  -8    0.44    0.11 
  -3   7  -8    0.41    0.07 
  -4   7  -8    0.01    0.07 
  -4   7  -8    0.01    0.04 
   7   6  -8    0.02    0.08 
   7   6  -8   -0.15    0.08 
  -7  -6   8   -0.01    0.07 
   6   6  -8    0.28    0.10 
   6   6  -8    0.21    0.09 
  -6  -6   8    0.33    0.08 
   5   6  -8    0.03    0.06 
   5   6  -8    0.15    0.08 
  -5  -6   8    0.16    0.07 
   4   6  -8   -0.02    0.04 
   4   6  -8   -0.03    0.05 
  -4  -6   8   -0.01    0.05 
   3   6  -8    2.28    0.13 
   3   6  -8    2.49    0.14 
  -3  -6   8    2.65    0.16 
   2   6  -8    1.23    0.10 
  -2  -6   8    1.39    0.13 
   1   6  -8    1.64    0.09 
   1   6  -8    1.61    0.10 
  -1  -6   8    1.67    0.14 
   0   6  -8    0.74    0.07 
   0   6  -8    0.91    0.07 
   0  -6   8    0.72    0.11 
  -1   6  -8    4.09    0.23 
  -1   6  -8    3.85    0.13 
  -1   6  -8    3.77    0.13 
   1  -6   8    4.02    0.22 
  -2   6  -8    0.87    0.10 
  -2   6  -8    0.97    0.07 
  -2   6  -8    1.02    0.14 
  -3   6  -8    1.72    0.10 
  -3   6  -8    1.98    0.17 
  -4   6  -8    5.44    0.20 
  -4   6  -8    6.36    0.29 
  -5   6  -8    0.09    0.07 
  -5   6  -8    0.15    0.05 
  -5   6  -8    0.06    0.05 
   7   5  -8    0.51    0.11 
   6   5  -8    0.08    0.08 
  -6  -5   8    0.00    0.06 
   5   5  -8    4.35    0.22 
  -5  -5   8    5.08    0.21 
   4   5  -8    0.51    0.08 
  -4  -5   8    0.64    0.09 
   3   5  -8    0.23    0.05 
  -3  -5   8    0.10    0.05 
   2   5  -8    0.38    0.06 
   2   5  -8    0.28    0.06 
   2   5  -8    0.45    0.06 
  -2  -5   8    0.29    0.07 
   1   5  -8    0.31    0.05 
   1   5  -8    0.27    0.04 
   1   5  -8    0.27    0.04 
  -1  -5   8    0.16    0.06 
   0   5  -8    0.32    0.04 
   0   5  -8    0.32    0.04 
   0   5  -8    0.28    0.04 
   0  -5   8    0.25    0.07 
  -1   5  -8    0.09    0.03 
  -1   5  -8    0.00    0.02 
  -1   5  -8    0.05    0.02 
   1  -5   8    0.04    0.06 
  -2   5  -8   24.61    0.60 
  -2   5  -8   24.14    0.45 
  -2   5  -8   23.45    0.49 
  -2   5  -8   23.67    0.45 
  -3   5  -8    0.43    0.09 
  -3   5  -8    0.43    0.05 
  -3   5  -8    0.40    0.05 
  -3   5  -8    0.42    0.05 
  -4   5  -8    0.36    0.09 
  -4   5  -8    0.52    0.07 
  -4   5  -8    0.46    0.06 
  -5   5  -8   -0.01    0.04 
  -5   5  -8    0.00    0.04 
  -5   5  -8   -0.01    0.06 
  -6   5  -8    0.18    0.08 
  -6   5  -8    0.09    0.06 
  -6   5  -8    0.13    0.06 
   7   4  -8    1.51    0.16 
   6   4  -8    2.34    0.18 
   5   4  -8    1.67    0.15 
  -5  -4   8    1.59    0.12 
   4   4  -8    0.30    0.07 
  -4  -4   8    0.44    0.07 
   3   4  -8    5.72    0.20 
   3   4  -8    5.43    0.20 
  -3  -4   8    5.42    0.19 
  -3  -4   8    5.55    0.14 
   2   4  -8    0.13    0.04 
   2   4  -8    0.09    0.04 
   2   4  -8    0.09    0.04 
  -2  -4   8    0.10    0.05 
   1   4  -8    0.20    0.04 
   1   4  -8    0.25    0.04 
   1   4  -8    0.20    0.04 
  -1  -4   8    0.20    0.05 
   0   4  -8    0.33    0.04 
   0   4  -8    0.35    0.04 
   0  -4   8    0.27    0.06 
  -1   4  -8    0.65    0.04 
  -1   4  -8    0.73    0.04 
  -1   4  -8    0.74    0.04 
   1  -4   8    0.69    0.09 
  -2   4  -8   10.22    0.20 
  -2   4  -8   10.31    0.20 
  -2   4  -8   10.12    0.20 
  -2   4  -8   10.59    0.33 
  -3   4  -8    1.51    0.07 
  -3   4  -8    1.48    0.14 
  -3   4  -8    1.45    0.07 
  -3   4  -8    1.42    0.07 
  -4   4  -8    0.03    0.03 
  -4   4  -8    0.44    0.09 
  -4   4  -8    0.01    0.03 
  -4   4  -8    0.01    0.03 
  -5   4  -8    4.50    0.17 
  -5   4  -8    4.51    0.17 
  -5   4  -8    4.60    0.22 
  -6   4  -8    8.63    0.27 
  -6   4  -8    8.82    0.27 
  -6   4  -8    8.19    0.31 
  -7   4  -8    1.80    0.16 
  -7   4  -8    1.67    0.14 
  -7   4  -8    1.94    0.15 
   7   3  -8    0.49    0.12 
   6   3  -8    0.71    0.11 
   5   3  -8    1.51    0.14 
   4   3  -8    1.23    0.12 
  -4  -3   8    1.28    0.09 
  -4  -3   8    1.21    0.09 
  -4  -3   8    1.42    0.11 
   3   3  -8    0.98    0.10 
   3   3  -8    1.01    0.10 
   3   3  -8    1.15    0.11 
  -3  -3   8    1.10    0.09 
  -3  -3   8    0.77    0.06 
   2   3  -8    6.32    0.20 
   2   3  -8    6.57    0.20 
   2   3  -8    6.72    0.20 
  -2  -3   8    6.64    0.20 
   1   3  -8    7.85    0.20 
   1   3  -8    8.07    0.20 
   1   3  -8    7.85    0.20 
  -1  -3   8    8.07    0.22 
   0   3  -8    0.04    0.02 
   0   3  -8    0.00    0.02 
   0   3  -8    0.00    0.02 
   0  -3   8   -0.03    0.03 
   1  -3   8    0.46    0.07 
  -3   3  -8   11.89    0.23 
  -3   3  -8   12.10    0.35 
  -3   3  -8   11.85    0.23 
  -3   3  -8   11.84    0.23 
  -4   3  -8   11.99    0.27 
  -4   3  -8   12.21    0.27 
  -4   3  -8   12.23    0.26 
  -4   3  -8   12.79    0.36 
  -5   3  -8    9.80    0.25 
  -5   3  -8    8.81    0.29 
  -5   3  -8    9.62    0.25 
  -5   3  -8    9.50    0.31 
  -6   3  -8    1.64    0.14 
  -6   3  -8    1.61    0.12 
  -6   3  -8    1.83    0.12 
  -7   3  -8    1.58    0.13 
  -7   3  -8    1.47    0.13 
  -7   3  -8    1.67    0.15 
   7   2  -8    0.13    0.08 
   6   2  -8    0.12    0.07 
   5   2  -8    2.23    0.16 
  -5  -2   8    1.65    0.12 
   4   2  -8    0.36    0.08 
  -4  -2   8    0.62    0.08 
  -4  -2   8    0.46    0.07 
   3   2  -8    0.54    0.08 
   3   2  -8    0.71    0.09 
   3   2  -8    0.70    0.09 
  -3  -2   8    0.59    0.06 
  -3  -2   8    0.61    0.06 
   2   2  -8    3.25    0.14 
   2   2  -8    3.48    0.14 
   2   2  -8    3.32    0.14 
  -2  -2   8    3.24    0.09 
  -2  -2   8    3.51    0.12 
   1   2  -8    0.37    0.05 
   1   2  -8    0.37    0.05 
   1   2  -8    0.33    0.05 
  -1  -2   8    0.35    0.05 
   0   2  -8    6.57    0.16 
   0   2  -8    6.68    0.16 
   0   2  -8    6.81    0.16 
   0  -2   8    6.68    0.19 
  -1   2  -8    0.47    0.03 
  -1   2  -8    0.43    0.03 
  -1   2  -8    0.53    0.05 
  -1   2  -8    0.47    0.03 
  -2   2  -8    4.51    0.18 
  -3   2  -8    0.12    0.02 
  -3   2  -8    0.12    0.05 
  -3   2  -8    0.09    0.02 
  -3   2  -8    0.07    0.02 
  -4   2  -8   20.48    0.39 
  -4   2  -8   20.28    0.39 
  -4   2  -8   20.38    0.39 
  -4   2  -8   20.59    0.47 
  -5   2  -8    1.30    0.08 
  -5   2  -8    1.14    0.09 
  -5   2  -8    1.33    0.09 
  -5   2  -8    1.35    0.12 
  -6   2  -8    1.53    0.11 
  -6   2  -8    1.80    0.13 
  -6   2  -8    1.44    0.11 
  -7   2  -8   -0.04    0.04 
  -7   2  -8    0.08    0.06 
  -7   2  -8    0.00    0.05 
  -8   2  -8    4.52    0.21 
  -8   2  -8    4.53    0.22 
  -8   2  -8    4.21    0.21 
   7   1  -8    0.79    0.13 
   6   1  -8    1.89    0.17 
  -6  -1   8    2.48    0.21 
   5   1  -8    3.97    0.21 
  -5  -1   8    4.19    0.19 
   4   1  -8    0.05    0.06 
  -4  -1   8   -0.05    0.03 
  -4  -1   8    0.07    0.04 
   3   1  -8    2.44    0.14 
   3   1  -8    2.26    0.14 
   3   1  -8    2.11    0.14 
  -3  -1   8    2.20    0.12 
   2   1  -8    8.33    0.24 
   2   1  -8    8.56    0.25 
   2   1  -8    8.50    0.25 
  -2  -1   8    8.34    0.20 
  -2  -1   8    8.27    0.19 
   1   1  -8    1.07    0.08 
   1   1  -8    1.08    0.08 
   1   1  -8    1.07    0.08 
  -1  -1   8    1.21    0.06 
   0   1  -8   15.70    0.32 
   0   1  -8   15.88    0.33 
   0   1  -8   16.18    0.33 
   0  -1   8   15.94    0.32 
  -1   1  -8   21.53    0.40 
  -1   1  -8   22.01    0.40 
  -1   1  -8   22.30    0.41 
  -2   1  -8    6.94    0.18 
  -2   1  -8    6.68    0.14 
  -2   1  -8    6.69    0.14 
  -2   1  -8    6.93    0.14 
  -3   1  -8    0.95    0.10 
  -3   1  -8    0.75    0.04 
  -3   1  -8    0.80    0.04 
  -3   1  -8    0.88    0.04 
  -4   1  -8    3.83    0.11 
  -4   1  -8    3.80    0.12 
  -4   1  -8    3.93    0.16 
  -4   1  -8    3.82    0.11 
  -5   1  -8    0.03    0.03 
  -5   1  -8    0.01    0.03 
  -5   1  -8    0.02    0.03 
  -5   1  -8    0.00    0.04 
  -6   1  -8   13.04    0.33 
  -6   1  -8   13.03    0.33 
  -6   1  -8   12.59    0.32 
  -7   1  -8    9.94    0.30 
  -7   1  -8   10.51    0.31 
  -7   1  -8   10.19    0.29 
  -8   1  -8    2.06    0.16 
  -8   1  -8    2.25    0.14 
  -8   1  -8    2.31    0.16 
   7   0  -8   -0.17    0.08 
   6   0  -8    0.50    0.11 
  -6   0   8    0.88    0.12 
   5   0  -8    0.58    0.11 
  -5   0   8    0.49    0.09 
   4   0  -8    3.09    0.18 
  -4   0   8    2.77    0.16 
   3   0  -8    2.71    0.15 
   3   0  -8    2.67    0.15 
  -3   0   8    2.71    0.13 
   2   0  -8    1.16    0.10 
   2   0  -8    1.05    0.10 
   2   0  -8    0.85    0.09 
  -2   0   8    1.02    0.08 
  -2   0   8    0.99    0.05 
   1   0  -8    3.31    0.14 
   1   0  -8    3.53    0.14 
   1   0  -8    3.49    0.14 
  -1   0   8    3.35    0.08 
   0   0  -8   12.90    0.29 
   0   0  -8   13.10    0.29 
   0   0  -8   12.76    0.29 
  -1   0  -8   11.12    0.24 
  -1   0  -8   10.95    0.24 
  -2   0  -8    4.79    0.13 
  -2   0  -8    4.51    0.12 
  -2   0  -8    4.70    0.13 
  -2   0  -8    4.58    0.12 
  -3   0  -8    0.46    0.04 
  -3   0  -8    0.44    0.04 
  -3   0  -8    0.48    0.06 
  -3   0  -8    0.48    0.04 
  -4   0  -8    1.29    0.07 
  -4   0  -8    1.27    0.07 
  -4   0  -8    1.54    0.07 
  -4   0  -8    1.79    0.09 
  -5   0  -8    0.80    0.07 
  -5   0  -8    0.72    0.07 
  -5   0  -8    0.73    0.07 
  -6   0  -8    0.32    0.06 
  -6   0  -8    0.18    0.05 
  -6   0  -8    0.18    0.05 
  -7   0  -8    3.00    0.14 
  -7   0  -8    3.25    0.17 
  -7   0  -8    3.12    0.16 
  -8   0  -8    0.14    0.07 
  -8   0  -8    0.18    0.07 
  -9   0  -8    0.04    0.07 
  -9   0  -8   -0.12    0.06 
   6  -1  -8    1.94    0.18 
  -6   1   8    2.59    0.19 
   5  -1  -8    0.00    0.07 
  -5   1   8   -0.04    0.05 
   4  -1  -8    4.58    0.22 
  -4   1   8    4.90    0.21 
   3  -1  -8    6.51    0.24 
   3  -1  -8    6.04    0.21 
   3  -1  -8    6.12    0.24 
  -3   1   8    6.07    0.22 
   2  -1  -8    0.04    0.04 
   2  -1  -8    0.00    0.04 
   2  -1  -8    0.05    0.04 
  -2   1   8    0.03    0.03 
   1  -1  -8    0.45    0.07 
   1  -1  -8    0.41    0.06 
   1  -1  -8    0.55    0.07 
  -1   1   8    0.50    0.06 
   0  -1  -8    1.76    0.10 
   0  -1  -8    1.69    0.10 
   0  -1  -8    1.73    0.10 
  -1  -1  -8    1.01    0.07 
  -1  -1  -8    0.93    0.07 
   1   1   8    0.85    0.04 
   1   1   8    0.95    0.04 
  -2  -1  -8    1.39    0.07 
  -2  -1  -8    1.20    0.05 
  -2  -1  -8    1.26    0.07 
  -2  -1  -8    1.43    0.07 
  -3  -1  -8   10.33    0.23 
  -3  -1  -8   10.33    0.23 
  -3  -1  -8   10.24    0.24 
  -3  -1  -8   10.27    0.23 
  -4  -1  -8    0.74    0.06 
  -4  -1  -8    0.94    0.07 
  -4  -1  -8    0.85    0.06 
  -4  -1  -8    0.73    0.06 
  -5  -1  -8    1.78    0.10 
  -5  -1  -8    1.75    0.10 
  -5  -1  -8    1.74    0.09 
  -5  -1  -8    1.61    0.08 
  -6  -1  -8    3.02    0.10 
  -6  -1  -8    2.91    0.13 
  -6  -1  -8    2.86    0.13 
  -7  -1  -8    7.45    0.25 
  -7  -1  -8    7.95    0.25 
  -7  -1  -8    7.53    0.20 
  -8  -1  -8    5.98    0.25 
  -8  -1  -8    5.97    0.24 
  -9  -1  -8    8.39    0.32 
  -9  -1  -8    8.67    0.32 
   6  -2  -8    1.34    0.16 
  -6   2   8    1.29    0.15 
   5  -2  -8    0.00    0.07 
  -5   2   8   -0.02    0.06 
   4  -2  -8    4.52    0.23 
  -4   2   8    4.17    0.21 
   3  -2  -8   -0.04    0.05 
   3  -2  -8   -0.06    0.05 
  -3   2   8    0.01    0.05 
   2  -2  -8    3.37    0.17 
   2  -2  -8    3.12    0.17 
   2  -2  -8    3.47    0.15 
  -2   2   8    3.35    0.10 
  -2   2   8    3.40    0.16 
   1  -2  -8    4.99    0.19 
   1  -2  -8    5.21    0.20 
   1  -2  -8    5.40    0.19 
   1  -2  -8    5.06    0.17 
  -1   2   8    4.95    0.18 
   0  -2  -8    9.86    0.27 
   0  -2  -8    9.80    0.24 
   0  -2  -8   10.03    0.27 
   0  -2  -8   10.05    0.27 
   0   2   8    9.66    0.25 
  -1  -2  -8   34.53    0.63 
  -1  -2  -8   35.22    0.67 
  -1  -2  -8   34.23    0.67 
   1   2   8   34.08    0.63 
  -2  -2  -8   27.27    0.54 
  -2  -2  -8   27.15    0.51 
  -2  -2  -8   27.38    0.54 
  -2  -2  -8   27.46    0.54 
   2   2   8   26.75    0.49 
  -3  -2  -8   15.34    0.33 
  -3  -2  -8   15.05    0.30 
  -3  -2  -8   15.58    0.34 
  -3  -2  -8   15.42    0.34 
   3   2   8   15.24    0.28 
   3   2   8   15.50    0.28 
  -4  -2  -8    6.62    0.14 
  -4  -2  -8    6.54    0.19 
  -4  -2  -8    6.49    0.19 
  -4  -2  -8    6.68    0.19 
  -4  -2  -8    6.57    0.15 
  -5  -2  -8    1.36    0.09 
  -5  -2  -8    1.29    0.09 
  -5  -2  -8    1.39    0.09 
   5   2   8    1.37    0.06 
  -6  -2  -8    2.67    0.13 
  -6  -2  -8    2.91    0.14 
   6   2   8    2.69    0.09 
  -7  -2  -8    0.82    0.10 
  -7  -2  -8    0.89    0.10 
   7   2   8    0.78    0.07 
  -8  -2  -8    0.35    0.08 
  -8  -2  -8    0.53    0.09 
  -9  -2  -8   -0.03    0.07 
  -9  -2  -8   -0.02    0.07 
   5  -3  -8    3.91    0.25 
  -5   3   8    3.14    0.22 
   4  -3  -8    4.20    0.24 
  -4   3   8    4.31    0.22 
   3  -3  -8    0.04    0.06 
  -3   3   8    0.20    0.07 
   2  -3  -8   12.73    0.34 
   2  -3  -8   12.88    0.37 
   2  -3  -8   12.74    0.37 
  -2   3   8   12.66    0.35 
   1  -3  -8    0.07    0.05 
   1  -3  -8   -0.03    0.03 
   1  -3  -8    0.03    0.04 
  -1   3   8    0.01    0.04 
   0  -3  -8    2.53    0.14 
   0  -3  -8    2.35    0.11 
   0  -3  -8    2.59    0.13 
   0  -3  -8    2.28    0.14 
   0   3   8    2.55    0.13 
  -1  -3  -8    0.06    0.04 
  -1  -3  -8    0.08    0.04 
  -1  -3  -8    0.07    0.04 
   1   3   8    0.06    0.04 
  -2  -3  -8    8.98    0.25 
  -2  -3  -8    8.65    0.25 
  -2  -3  -8    8.86    0.25 
  -2  -3  -8    8.48    0.21 
   2   3   8    8.73    0.22 
  -3  -3  -8    4.67    0.12 
  -3  -3  -8    4.56    0.16 
  -3  -3  -8    4.64    0.16 
  -3  -3  -8    4.83    0.17 
   3   3   8    4.77    0.14 
  -4  -3  -8    0.07    0.03 
  -4  -3  -8    0.08    0.04 
  -4  -3  -8    0.09    0.04 
   4   3   8    0.07    0.03 
   4   3   8    0.16    0.03 
  -5  -3  -8    1.65    0.10 
  -5  -3  -8    1.59    0.10 
  -5  -3  -8    1.84    0.11 
   5   3   8    1.69    0.07 
  -6  -3  -8    3.84    0.16 
  -6  -3  -8    3.46    0.16 
   6   3   8    3.86    0.12 
  -7  -3  -8    1.37    0.12 
  -7  -3  -8    1.31    0.12 
  -8  -3  -8    1.84    0.15 
  -8  -3  -8    1.63    0.14 
  -9  -3  -8    0.34    0.09 
  -9  -3  -8    0.39    0.09 
   5  -4  -8    0.53    0.13 
  -5   4   8    0.40    0.11 
   4  -4  -8    1.22    0.15 
  -4   4   8    1.24    0.15 
   3  -4  -8   -0.05    0.07 
  -3   4   8    0.05    0.06 
   2  -4  -8    1.89    0.15 
  -2   4   8    1.77    0.14 
   1  -4  -8    5.21    0.22 
   1  -4  -8    4.88    0.18 
   1  -4  -8    4.62    0.21 
  -1   4   8    4.74    0.20 
   0  -4  -8    0.84    0.10 
   0  -4  -8    0.90    0.10 
   0   4   8    0.95    0.10 
  -1  -4  -8   17.29    0.42 
  -1  -4  -8   18.43    0.52 
   1   4   8   17.02    0.41 
  -2  -4  -8    5.15    0.15 
  -2  -4  -8    5.01    0.19 
  -2  -4  -8    4.81    0.19 
  -2  -4  -8    5.18    0.19 
   2   4   8    4.98    0.18 
  -3  -4  -8   19.85    0.45 
  -3  -4  -8   21.02    0.46 
  -3  -4  -8   19.81    0.37 
  -3  -4  -8   19.97    0.37 
  -3  -4  -8   19.55    0.45 
   3   4   8   19.92    0.43 
  -4  -4  -8   23.57    0.51 
  -4  -4  -8   23.29    0.51 
  -4  -4  -8   23.38    0.51 
   4   4   8   23.48    0.48 
  -5  -4  -8    0.88    0.09 
  -5  -4  -8    0.80    0.08 
  -5  -4  -8    0.77    0.08 
   5   4   8    0.96    0.07 
   5   4   8    0.98    0.08 
  -6  -4  -8    0.81    0.09 
  -6  -4  -8    0.92    0.10 
   6   4   8    0.77    0.08 
   6   4   8    0.86    0.07 
  -7  -4  -8    0.07    0.06 
  -7  -4  -8    0.02    0.05 
  -8  -4  -8    2.94    0.18 
  -8  -4  -8    2.91    0.18 
  -9  -4  -8    0.16    0.09 
  -9  -4  -8    0.18    0.09 
   4  -5  -8    6.45    0.31 
  -4   5   8    6.15    0.30 
  -4   5   8    6.33    0.31 
   3  -5  -8    3.34    0.22 
  -3   5   8    3.11    0.21 
  -3   5   8    3.52    0.22 
   2  -5  -8    7.83    0.30 
  -2   5   8    7.96    0.30 
  -2   5   8    7.81    0.30 
   1  -5  -8    3.40    0.19 
  -1   5   8    3.49    0.18 
  -1   5   8    3.70    0.19 
   0  -5  -8   13.65    0.39 
   0  -5  -8   13.82    0.39 
   0   5   8   13.94    0.36 
   0   5   8   13.45    0.38 
  -1  -5  -8    5.71    0.22 
  -1  -5  -8    5.65    0.22 
   1   5   8    5.42    0.21 
  -2  -5  -8    3.30    0.09 
  -2  -5  -8    2.89    0.16 
  -2  -5  -8    3.59    0.15 
   2   5   8    3.51    0.16 
  -3  -5  -8    2.33    0.14 
  -3  -5  -8    2.46    0.09 
  -3  -5  -8    2.44    0.09 
  -3  -5  -8    2.37    0.15 
   3   5   8    2.20    0.13 
  -4  -5  -8    1.86    0.13 
  -4  -5  -8    1.92    0.14 
  -4  -5  -8    1.82    0.09 
   4   5   8    1.72    0.12 
  -5  -5  -8   21.02    0.50 
  -5  -5  -8   21.62    0.50 
   5   5   8   21.33    0.47 
  -6  -5  -8   12.30    0.35 
  -6  -5  -8   12.23    0.35 
   6   5   8   11.97    0.33 
   6   5   8   12.28    0.32 
  -7  -5  -8    2.88    0.18 
  -7  -5  -8    3.20    0.18 
   7   5   8    3.17    0.24 
  -8  -5  -8    6.14    0.27 
  -8  -5  -8    6.42    0.26 
  -9  -5  -8    1.76    0.17 
  -9  -5  -8    1.95    0.18 
   3  -6  -8    0.53    0.12 
  -3   6   8    0.60    0.12 
  -3   6   8    0.45    0.11 
   2  -6  -8   -0.04    0.06 
  -2   6   8    0.07    0.07 
  -2   6   8    0.04    0.07 
   1  -6  -8    0.74    0.12 
  -1   6   8    0.60    0.10 
  -1   6   8    0.70    0.11 
   0  -6  -8    0.13    0.06 
   0   6   8    0.12    0.06 
   0   6   8    0.10    0.06 
  -1  -6  -8    0.99    0.11 
  -1  -6  -8    1.58    0.13 
   1   6   8    1.57    0.11 
   1   6   8    1.52    0.13 
  -2  -6  -8    2.12    0.09 
  -2  -6  -8    2.16    0.15 
   2   6   8    2.31    0.15 
   2   6   8    2.14    0.11 
  -3  -6  -8    6.80    0.25 
  -3  -6  -8    7.09    0.26 
  -3  -6  -8    6.98    0.19 
   3   6   8    7.00    0.24 
  -4  -6  -8    0.11    0.04 
  -4  -6  -8   -0.01    0.05 
  -4  -6  -8   -0.06    0.05 
   4   6   8   -0.09    0.04 
   4   6   8    0.00    0.03 
  -5  -6  -8   15.26    0.41 
  -5  -6  -8   14.94    0.41 
   5   6   8   15.53    0.31 
   5   6   8   15.25    0.39 
  -6  -6  -8    1.65    0.14 
  -6  -6  -8    1.84    0.15 
   6   6   8    1.68    0.12 
   6   6   8    1.79    0.07 
  -7  -6  -8    0.22    0.08 
  -7  -6  -8    0.16    0.07 
   7   6   8    0.15    0.06 
  -8  -6  -8    0.68    0.11 
  -8  -6  -8    0.57    0.11 
  -9  -6  -8    0.26    0.09 
  -9  -6  -8    0.05    0.08 
   2  -7  -8    2.20    0.20 
  -2   7   8    2.09    0.20 
  -2   7   8    2.35    0.19 
   1  -7  -8    0.94    0.13 
  -1   7   8    1.39    0.14 
  -1   7   8    1.29    0.16 
   0  -7  -8    0.77    0.11 
   0   7   8    0.90    0.13 
   0   7   8    0.93    0.12 
  -1  -7  -8    0.10    0.07 
   1   7   8    0.17    0.06 
   1   7   8    0.21    0.07 
  -2  -7  -8    3.47    0.14 
  -2  -7  -8    3.44    0.20 
   2   7   8    3.88    0.16 
   2   7   8    3.63    0.20 
  -3  -7  -8    9.31    0.32 
  -3  -7  -8    9.63    0.25 
  -3  -7  -8   10.07    0.33 
   3   7   8    9.56    0.25 
   3   7   8    9.83    0.25 
   3   7   8   10.45    0.32 
  -4  -7  -8    0.12    0.04 
  -4  -7  -8    0.11    0.07 
  -4  -7  -8    0.11    0.06 
   4   7   8    0.09    0.04 
   4   7   8    0.11    0.06 
  -5  -7  -8    0.03    0.06 
  -5  -7  -8    0.08    0.04 
  -5  -7  -8   -0.09    0.05 
   5   7   8    0.01    0.05 
   5   7   8   -0.02    0.03 
  -6  -7  -8    4.66    0.23 
  -6  -7  -8    5.02    0.24 
   6   7   8    4.78    0.22 
   6   7   8    4.68    0.15 
  -7  -7  -8   20.04    0.53 
  -7  -7  -8   21.02    0.53 
   7   7   8   19.48    0.53 
   7   7   8   19.64    0.39 
  -8  -7  -8    5.26    0.26 
  -8  -7  -8    5.15    0.26 
   8   7   8    4.97    0.13 
  -9  -7  -8    0.12    0.09 
  -9  -7  -8    0.15    0.09 
   1  -8  -8    0.18    0.09 
  -1   8   8    0.34    0.10 
  -1   8   8    0.19    0.10 
   0  -8  -8    0.26    0.09 
   0   8   8    0.35    0.10 
   0   8   8    0.32    0.08 
  -1  -8  -8    2.31    0.19 
   1   8   8    2.22    0.15 
   1   8   8    2.29    0.18 
  -2  -8  -8    0.10    0.07 
   2   8   8    0.19    0.06 
   2   8   8    0.10    0.05 
   2   8   8    0.23    0.08 
  -3  -8  -8    5.58    0.25 
  -3  -8  -8    5.69    0.20 
   3   8   8    5.77    0.20 
   3   8   8    5.75    0.25 
   3   8   8    5.91    0.19 
  -4  -8  -8    2.13    0.17 
  -4  -8  -8    2.25    0.17 
  -4  -8  -8    2.07    0.13 
   4   8   8    2.07    0.16 
   4   8   8    2.09    0.12 
  -5  -8  -8    2.86    0.14 
  -5  -8  -8    2.96    0.20 
  -5  -8  -8    2.80    0.19 
   5   8   8    2.90    0.18 
   5   8   8    2.96    0.13 
  -6  -8  -8    0.10    0.07 
  -6  -8  -8    0.07    0.05 
  -6  -8  -8    0.06    0.08 
   6   8   8    0.11    0.05 
   6   8   8    0.06    0.06 
  -7  -8  -8    6.98    0.30 
  -7  -8  -8    6.97    0.30 
   7   8   8    6.67    0.32 
   7   8   8    6.65    0.20 
  -8  -8  -8    4.92    0.26 
  -8  -8  -8    5.82    0.28 
   8   8   8    4.90    0.16 
   0  -9  -8    0.29    0.10 
   0   9   8    0.21    0.10 
  -1  -9  -8    2.47    0.20 
   1   9   8    2.65    0.21 
   1   9   8    2.75    0.17 
  -2  -9  -8    0.68    0.12 
   2   9   8    0.63    0.09 
   2   9   8    0.69    0.09 
   2   9   8    0.50    0.11 
  -3  -9  -8    0.84    0.12 
   3   9   8    0.89    0.10 
   3   9   8    0.94    0.13 
   3   9   8    0.98    0.11 
  -4  -9  -8    0.00    0.05 
  -4  -9  -8    0.03    0.06 
  -4  -9  -8    0.07    0.07 
   4   9   8    0.10    0.07 
   4   9   8    0.11    0.05 
  -5  -9  -8    0.34    0.09 
  -5  -9  -8    0.87    0.13 
  -5  -9  -8    0.66    0.09 
   5   9   8    0.48    0.09 
   5   9   8    0.52    0.08 
  -6  -9  -8    0.28    0.09 
  -6  -9  -8    0.49    0.10 
  -6  -9  -8    0.23    0.07 
   6   9   8    0.32    0.09 
   6   9   8    0.47    0.07 
  -7  -9  -8    0.02    0.07 
  -7  -9  -8   -0.04    0.05 
  -7  -9  -8    0.09    0.08 
   7   9   8   -0.03    0.04 
  -8  -9  -8    0.05    0.08 
  -8  -9  -8    0.02    0.06 
  -8  -9  -8    0.01    0.08 
   8   9   8    0.04    0.04 
  -3 -10  -8   -0.02    0.07 
   3  10   8    0.04    0.05 
   3  10   8    0.10    0.07 
  -4 -10  -8    0.02    0.06 
   4  10   8    0.03    0.05 
   4  10   8    0.08    0.08 
  -5 -10  -8    1.05    0.14 
  -5 -10  -8    1.43    0.17 
   5  10   8    1.40    0.17 
   5  10   8    1.22    0.11 
  -6 -10  -8   -0.01    0.08 
  -6 -10  -8    0.03    0.07 
  -6 -10  -8   -0.05    0.06 
   6  10   8    0.04    0.07 
   6  10   8   -0.06    0.04 
   2   9  -9    1.27    0.12 
  -2  -9   9    1.20    0.16 
   1   9  -9    0.10    0.10 
   1   9  -9    0.08    0.05 
  -1  -9   9    0.12    0.08 
   4   8  -9    0.40    0.08 
   4   8  -9    0.49    0.09 
  -4  -8   9    0.52    0.11 
   3   8  -9    0.16    0.06 
   3   8  -9    0.20    0.07 
  -3  -8   9    0.11    0.08 
   2   8  -9    0.02    0.05 
  -2  -8   9   -0.05    0.07 
   1   8  -9    0.57    0.08 
  -1  -8   9    0.42    0.11 
   0   8  -9    0.05    0.04 
   0   8  -9    0.23    0.10 
   0  -8   9    0.11    0.09 
  -1   8  -9    2.43    0.22 
  -1   8  -9    2.37    0.13 
  -2   8  -9    0.65    0.13 
  -2   8  -9    0.71    0.08 
   5   7  -9    0.51    0.10 
   5   7  -9    0.31    0.08 
  -5  -7   9    0.35    0.09 
   4   7  -9   -0.02    0.06 
   4   7  -9    0.04    0.05 
  -4  -7   9    0.04    0.07 
   3   7  -9    0.05    0.05 
   3   7  -9    0.00    0.05 
  -3  -7   9    0.02    0.07 
   2   7  -9    0.32    0.07 
  -2  -7   9    0.30    0.09 
   1   7  -9    0.02    0.04 
  -1  -7   9    0.08    0.07 
   0   7  -9    1.32    0.09 
   0  -7   9    0.95    0.13 
  -1   7  -9    0.19    0.05 
  -1   7  -9    0.09    0.09 
  -2   7  -9    0.48    0.12 
  -2   7  -9    0.56    0.07 
  -3   7  -9    0.39    0.11 
  -3   7  -9    0.42    0.07 
   6   6  -9    1.17    0.15 
   6   6  -9    1.41    0.16 
  -6  -6   9    1.15    0.13 
   5   6  -9    0.06    0.06 
   5   6  -9   -0.13    0.06 
  -5  -6   9    0.08    0.07 
   4   6  -9    3.70    0.18 
   4   6  -9    4.38    0.21 
  -4  -6   9    4.05    0.20 
   3   6  -9    2.58    0.15 
   3   6  -9    2.60    0.15 
  -3  -6   9    2.98    0.18 
   2   6  -9    1.31    0.10 
   2   6  -9    1.40    0.11 
  -2  -6   9    1.65    0.14 
   1   6  -9    1.89    0.10 
  -1  -6   9    1.74    0.15 
   0   6  -9    0.06    0.03 
   0  -6   9    0.16    0.07 
  -1   6  -9    0.78    0.09 
  -1   6  -9    0.76    0.06 
   1  -6   9    0.73    0.11 
  -2   6  -9    0.07    0.03 
  -2   6  -9    0.10    0.08 
  -3   6  -9    1.99    0.10 
  -3   6  -9    2.18    0.19 
  -4   6  -9    1.29    0.15 
  -4   6  -9    1.53    0.10 
   6   5  -9    0.04    0.08 
  -6  -5   9    0.01    0.06 
   5   5  -9    0.81    0.11 
  -5  -5   9    0.53    0.09 
   4   5  -9    0.30    0.07 
  -4  -5   9    0.27    0.07 
   3   5  -9    1.73    0.12 
  -3  -5   9    1.86    0.14 
   2   5  -9    1.40    0.10 
  -2  -5   9    1.57    0.12 
   1   5  -9    2.68    0.12 
   1   5  -9    2.66    0.12 
   1   5  -9    2.77    0.11 
  -1  -5   9    2.94    0.16 
   0   5  -9    0.25    0.04 
   0   5  -9    0.34    0.04 
   0  -5   9    0.19    0.07 
  -1   5  -9    1.70    0.07 
  -1   5  -9    1.66    0.07 
   1  -5   9    1.77    0.14 
  -2   5  -9    0.05    0.02 
  -2   5  -9    0.05    0.03 
  -2   5  -9    0.07    0.07 
  -3   5  -9    4.24    0.13 
  -3   5  -9    4.33    0.23 
  -3   5  -9    4.21    0.13 
  -4   5  -9    0.00    0.07 
  -4   5  -9    0.09    0.03 
  -4   5  -9    0.07    0.04 
  -5   5  -9    0.43    0.11 
  -5   5  -9    0.53    0.07 
  -5   5  -9    0.52    0.07 
   6   4  -9    2.68    0.20 
  -6  -4   9    2.56    0.16 
   5   4  -9    5.33    0.24 
  -5  -4   9    4.81    0.20 
   4   4  -9    0.08    0.06 
  -4  -4   9    0.09    0.06 
   3   4  -9    0.41    0.07 
  -3  -4   9    0.47    0.07 
   2   4  -9    5.44    0.19 
   2   4  -9    5.01    0.17 
  -2  -4   9    5.41    0.20 
   1   4  -9    0.45    0.05 
   1   4  -9    0.41    0.05 
  -1  -4   9    0.35    0.07 
   0   4  -9    0.05    0.03 
   0   4  -9   -0.02    0.02 
   0   4  -9    0.04    0.02 
   0  -4   9    0.04    0.04 
  -1   4  -9    1.66    0.06 
  -1   4  -9    1.58    0.06 
  -1   4  -9    1.66    0.06 
  -3   4  -9    3.93    0.11 
  -3   4  -9    3.74    0.21 
  -3   4  -9    3.94    0.11 
  -3   4  -9    3.97    0.11 
  -4   4  -9    4.77    0.14 
  -4   4  -9    4.60    0.14 
  -4   4  -9    4.76    0.14 
  -4   4  -9    4.77    0.23 
  -5   4  -9    2.30    0.12 
  -5   4  -9    2.38    0.18 
  -5   4  -9    2.14    0.12 
  -6   4  -9    0.41    0.07 
  -6   4  -9    0.61    0.11 
  -6   4  -9    0.40    0.07 
   6   3  -9    5.31    0.26 
   5   3  -9    0.79    0.11 
  -5  -3   9    0.67    0.08 
   4   3  -9    1.43    0.13 
  -4  -3   9    1.68    0.11 
   3   3  -9    0.59    0.08 
  -3  -3   9    0.73    0.08 
   2   3  -9    0.10    0.04 
   2   3  -9    0.13    0.04 
  -2  -3   9    0.19    0.05 
   1   3  -9    0.91    0.07 
   1   3  -9    0.97    0.07 
   1   3  -9    0.94    0.07 
  -1  -3   9    1.06    0.08 
   0   3  -9    0.14    0.03 
   0   3  -9    0.15    0.03 
   0   3  -9    0.16    0.03 
   0  -3   9    0.17    0.05 
  -1   3  -9    3.33    0.09 
  -1   3  -9    3.38    0.09 
  -1   3  -9    3.28    0.08 
  -3   3  -9    1.63    0.06 
  -3   3  -9    1.61    0.14 
  -4   3  -9    0.41    0.09 
  -4   3  -9    0.41    0.04 
  -4   3  -9    0.54    0.05 
  -4   3  -9    0.45    0.05 
  -5   3  -9   10.07    0.25 
  -5   3  -9   10.30    0.32 
  -5   3  -9   10.14    0.26 
  -6   3  -9    1.44    0.14 
  -6   3  -9    1.13    0.10 
  -6   3  -9    1.30    0.11 
  -7   3  -9    1.22    0.12 
  -7   3  -9    1.33    0.14 
  -7   3  -9    1.02    0.11 
   6   2  -9    5.72    0.28 
   5   2  -9    0.09    0.07 
   4   2  -9    9.80    0.32 
  -4  -2   9    9.72    0.25 
   3   2  -9   24.92    0.56 
  -3  -2   9   25.14    0.50 
   2   2  -9    1.38    0.11 
   2   2  -9    1.13    0.10 
  -2  -2   9    1.38    0.08 
   1   2  -9    1.04    0.08 
   1   2  -9    0.97    0.08 
   1   2  -9    0.88    0.07 
  -1  -2   9    0.90    0.07 
   0   2  -9    1.41    0.07 
   0   2  -9    1.43    0.07 
   0   2  -9    1.47    0.07 
   0  -2   9    1.45    0.09 
  -1   2  -9    3.34    0.09 
  -1   2  -9    3.32    0.12 
  -1   2  -9    3.35    0.09 
  -1   2  -9    3.16    0.09 
  -4   2  -9    6.67    0.16 
  -4   2  -9    6.35    0.24 
  -4   2  -9    6.71    0.16 
  -4   2  -9    6.48    0.16 
  -5   2  -9    6.70    0.24 
  -5   2  -9    6.48    0.18 
  -5   2  -9    6.58    0.19 
  -5   2  -9    6.82    0.19 
  -6   2  -9    0.16    0.05 
  -6   2  -9    0.19    0.05 
  -6   2  -9    0.27    0.07 
  -7   2  -9    0.12    0.06 
  -7   2  -9    0.19    0.07 
  -7   2  -9    0.06    0.05 
   6   1  -9    0.21    0.09 
   5   1  -9    0.43    0.09 
   4   1  -9   11.39    0.35 
   3   1  -9   11.31    0.33 
  -3  -1   9   11.11    0.26 
  -3  -1   9   11.48    0.29 
   2   1  -9   28.17    0.65 
   2   1  -9   28.14    0.59 
   2   1  -9   28.25    0.60 
  -2  -1   9   27.52    0.52 
  -2  -1   9   28.17    0.52 
   1   1  -9    3.94    0.15 
   1   1  -9    3.76    0.15 
   1   1  -9    4.07    0.15 
  -1  -1   9    3.99    0.12 
   0   1  -9    0.30    0.05 
   0   1  -9    0.29    0.04 
   0   1  -9    0.30    0.04 
  -1   1  -9    0.02    0.02 
  -1   1  -9    0.01    0.02 
  -1   1  -9    0.00    0.02 
  -2   1  -9    0.20    0.03 
  -2   1  -9    0.18    0.03 
  -2   1  -9    0.23    0.04 
  -2   1  -9    0.24    0.03 
  -3   1  -9    0.20    0.03 
  -3   1  -9    0.20    0.03 
  -3   1  -9    0.20    0.03 
  -4   1  -9    8.56    0.25 
  -4   1  -9    8.26    0.19 
  -4   1  -9    8.14    0.19 
  -4   1  -9    8.10    0.19 
  -5   1  -9    1.66    0.09 
  -5   1  -9    1.70    0.09 
  -5   1  -9    1.92    0.12 
  -6   1  -9   -0.01    0.04 
  -6   1  -9    0.02    0.04 
  -6   1  -9    0.05    0.05 
  -7   1  -9    0.80    0.09 
  -7   1  -9    0.68    0.09 
  -7   1  -9    0.73    0.09 
  -8   1  -9    3.27    0.18 
  -8   1  -9    3.33    0.18 
   6   0  -9    0.17    0.09 
   5   0  -9    3.89    0.23 
   4   0  -9    3.36    0.20 
  -4   0   9    3.44    0.21 
   3   0  -9   -0.06    0.05 
  -3   0   9    0.02    0.04 
   2   0  -9   27.62    0.59 
   2   0  -9   27.27    0.73 
   2   0  -9   27.57    0.59 
  -2   0   9   26.84    0.53 
  -2   0   9   26.84    0.48 
   1   0  -9   53.41    0.99 
   1   0  -9   53.46    0.99 
   1   0  -9   52.79    0.99 
  -1   0   9   53.04    0.92 
   0   0  -9    6.27    0.19 
   0   0  -9    6.08    0.19 
   0   0  -9    6.19    0.19 
  -1   0  -9    0.38    0.05 
  -1   0  -9    0.25    0.04 
  -1   0  -9    0.29    0.04 
  -2   0  -9    7.44    0.18 
  -2   0  -9    7.08    0.17 
  -2   0  -9    7.30    0.17 
  -2   0  -9    7.29    0.18 
  -3   0  -9    3.70    0.11 
  -3   0  -9    3.72    0.13 
  -3   0  -9    3.38    0.11 
  -3   0  -9    3.49    0.11 
  -4   0  -9    0.02    0.03 
  -4   0  -9    0.01    0.02 
  -4   0  -9    0.00    0.02 
  -4   0  -9    0.04    0.02 
  -5   0  -9    0.66    0.06 
  -5   0  -9    0.61    0.07 
  -5   0  -9    0.69    0.06 
  -6   0  -9    1.89    0.11 
  -6   0  -9    2.11    0.11 
  -6   0  -9    2.11    0.12 
  -7   0  -9    2.07    0.14 
  -7   0  -9    2.23    0.14 
  -7   0  -9    2.04    0.13 
  -8   0  -9    5.05    0.22 
  -8   0  -9    4.90    0.22 
   6  -1  -9    0.55    0.12 
   5  -1  -9    0.18    0.09 
   4  -1  -9    0.00    0.06 
  -4   1   9    0.01    0.05 
   3  -1  -9    1.13    0.12 
  -3   1   9    1.12    0.11 
   2  -1  -9    4.24    0.19 
   2  -1  -9    4.47    0.20 
  -2   1   9    4.37    0.16 
   1  -1  -9   10.41    0.29 
   1  -1  -9   10.31    0.30 
   1  -1  -9   10.32    0.29 
  -1   1   9   10.46    0.26 
   0  -1  -9   28.46    0.59 
   0  -1  -9   28.52    0.59 
   0  -1  -9   29.73    0.59 
   0   1   9   29.14    0.53 
  -1  -1  -9   43.46    0.80 
  -1  -1  -9   42.40    0.79 
  -2  -1  -9    2.10    0.10 
  -2  -1  -9    2.06    0.10 
  -2  -1  -9    2.31    0.10 
  -3  -1  -9    0.33    0.04 
  -3  -1  -9    0.31    0.04 
  -3  -1  -9    0.31    0.04 
  -3  -1  -9    0.32    0.04 
  -4  -1  -9    1.20    0.08 
  -4  -1  -9    1.15    0.07 
  -4  -1  -9    1.12    0.07 
  -4  -1  -9    1.20    0.07 
  -4  -1  -9    1.12    0.08 
  -5  -1  -9    2.60    0.11 
  -5  -1  -9    2.55    0.10 
  -5  -1  -9    2.49    0.11 
  -6  -1  -9    0.00    0.02 
  -6  -1  -9    0.04    0.04 
  -6  -1  -9    0.01    0.03 
  -7  -1  -9    0.14    0.06 
  -7  -1  -9    0.15    0.06 
  -8  -1  -9    0.36    0.08 
  -8  -1  -9    0.42    0.09 
  -9  -1  -9    0.24    0.08 
  -9  -1  -9    0.11    0.07 
   5  -2  -9    0.22    0.10 
   4  -2  -9    1.29    0.15 
  -4   2   9    1.35    0.14 
   3  -2  -9    3.80    0.21 
  -3   2   9    3.89    0.19 
   2  -2  -9    7.01    0.26 
   2  -2  -9    6.88    0.26 
  -2   2   9    6.77    0.23 
   1  -2  -9    0.25    0.06 
   1  -2  -9    0.17    0.05 
   1  -2  -9    0.13    0.05 
   1  -2  -9    0.17    0.05 
  -1   2   9    0.21    0.05 
   0  -2  -9   58.35    1.09 
   0  -2  -9   60.66    1.10 
   0  -2  -9   58.81    1.10 
   0   2   9   58.47    1.05 
  -1  -2  -9   36.49    0.71 
  -1  -2  -9   35.69    0.70 
  -1  -2  -9   36.63    0.71 
  -2  -2  -9    5.10    0.17 
  -2  -2  -9    5.10    0.18 
  -2  -2  -9    5.24    0.18 
  -2  -2  -9    5.21    0.16 
   2   2   9    4.93    0.12 
  -3  -2  -9   14.26    0.32 
  -3  -2  -9   14.23    0.32 
  -3  -2  -9   13.96    0.29 
  -3  -2  -9   13.77    0.27 
  -3  -2  -9   13.73    0.32 
  -4  -2  -9    3.81    0.11 
  -4  -2  -9    3.71    0.14 
  -4  -2  -9    3.89    0.14 
  -4  -2  -9    3.82    0.11 
  -4  -2  -9    3.80    0.14 
  -5  -2  -9    4.58    0.17 
  -5  -2  -9    4.98    0.17 
  -5  -2  -9    4.92    0.11 
  -6  -2  -9    2.00    0.12 
  -6  -2  -9    1.93    0.12 
  -7  -2  -9    0.47    0.08 
  -7  -2  -9    0.59    0.08 
  -8  -2  -9    0.92    0.11 
  -8  -2  -9    0.79    0.10 
  -9  -2  -9    1.65    0.16 
  -9  -2  -9    1.74    0.16 
   5  -3  -9    0.35    0.11 
   4  -3  -9    0.67    0.12 
  -4   3   9    0.72    0.12 
   3  -3  -9    0.57    0.10 
  -3   3   9    0.69    0.10 
   2  -3  -9    2.90    0.18 
  -2   3   9    2.79    0.16 
   1  -3  -9    2.30    0.13 
   1  -3  -9    2.41    0.21 
   1  -3  -9    2.51    0.16 
  -1   3   9    2.58    0.14 
   0  -3  -9    0.17    0.05 
   0  -3  -9    0.28    0.05 
   0  -3  -9    0.23    0.06 
   0  -3  -9    0.16    0.06 
   0   3   9    0.20    0.05 
  -1  -3  -9    0.39    0.07 
  -1  -3  -9    0.42    0.07 
  -1  -3  -9    0.38    0.07 
  -1  -3  -9    0.27    0.06 
   1   3   9    0.43    0.06 
  -2  -3  -9   17.38    0.40 
  -2  -3  -9   17.04    0.36 
  -2  -3  -9   17.09    0.40 
  -2  -3  -9   17.32    0.40 
   2   3   9   16.84    0.36 
  -3  -3  -9   43.26    0.82 
  -3  -3  -9   43.45    0.82 
  -3  -3  -9   42.38    0.72 
  -3  -3  -9   42.98    0.82 
  -3  -3  -9   42.29    0.75 
  -4  -3  -9    2.72    0.13 
  -4  -3  -9    2.60    0.07 
  -4  -3  -9    2.34    0.12 
  -4  -3  -9    2.62    0.13 
   4   3   9    2.65    0.08 
   4   3   9    2.54    0.09 
  -5  -3  -9    0.24    0.05 
  -5  -3  -9    0.24    0.06 
   5   3   9    0.32    0.03 
   5   3   9    0.26    0.04 
  -6  -3  -9    1.42    0.11 
  -6  -3  -9    1.45    0.11 
   6   3   9    1.31    0.07 
  -7  -3  -9    0.47    0.08 
  -7  -3  -9    0.54    0.08 
  -8  -3  -9    0.06    0.06 
  -8  -3  -9    0.05    0.06 
  -9  -3  -9    0.91    0.12 
  -9  -3  -9    0.81    0.12 
   4  -4  -9    1.03    0.15 
  -4   4   9    1.09    0.15 
   3  -4  -9    1.26    0.15 
  -3   4   9    1.23    0.15 
   2  -4  -9    0.68    0.11 
  -2   4   9    0.55    0.09 
   1  -4  -9    0.58    0.10 
  -1   4   9    0.58    0.09 
   0  -4  -9   24.65    0.54 
   0  -4  -9   26.48    0.70 
   0  -4  -9   24.46    0.58 
   0   4   9   24.55    0.55 
  -1  -4  -9    0.16    0.05 
  -1  -4  -9    0.08    0.05 
   1   4   9    0.15    0.05 
  -2  -4  -9   12.58    0.34 
  -2  -4  -9   12.09    0.34 
   2   4   9   11.93    0.31 
  -3  -4  -9   20.73    0.48 
  -3  -4  -9   20.26    0.47 
  -3  -4  -9   20.63    0.47 
   3   4   9   20.10    0.43 
  -4  -4  -9    2.94    0.15 
  -4  -4  -9    2.64    0.15 
  -4  -4  -9    2.53    0.21 
   4   4   9    2.71    0.12 
  -5  -4  -9    2.09    0.13 
  -5  -4  -9    2.00    0.13 
   5   4   9    1.85    0.10 
   5   4   9    1.85    0.09 
  -6  -4  -9    0.35    0.07 
  -6  -4  -9    0.38    0.07 
  -7  -4  -9    0.03    0.06 
  -7  -4  -9    0.06    0.06 
  -8  -4  -9   10.84    0.34 
  -8  -4  -9   10.80    0.36 
  -9  -4  -9    0.04    0.07 
  -9  -4  -9    0.16    0.08 
   3  -5  -9    0.15    0.09 
  -3   5   9    0.08    0.07 
   2  -5  -9    0.03    0.07 
  -2   5   9    0.08    0.07 
   1  -5  -9    0.48    0.09 
  -1   5   9    0.56    0.10 
   0  -5  -9    6.85    0.27 
   0   5   9    6.87    0.25 
  -1  -5  -9    2.42    0.16 
   1   5   9    2.49    0.15 
  -2  -5  -9    8.74    0.29 
   2   5   9    8.45    0.26 
  -3  -5  -9    0.96    0.11 
  -3  -5  -9    1.10    0.05 
  -3  -5  -9    1.23    0.12 
   3   5   9    1.19    0.10 
  -4  -5  -9   12.99    0.36 
  -4  -5  -9   12.67    0.27 
  -4  -5  -9   12.43    0.35 
   4   5   9   12.39    0.32 
  -5  -5  -9   24.81    0.56 
  -5  -5  -9   24.48    0.56 
   5   5   9   24.76    0.53 
  -6  -5  -9    3.16    0.17 
  -6  -5  -9    3.33    0.18 
  -7  -5  -9    4.50    0.22 
  -7  -5  -9    4.68    0.22 
  -8  -5  -9    0.15    0.08 
  -8  -5  -9    0.08    0.07 
  -9  -5  -9   -0.02    0.07 
  -9  -5  -9    0.09    0.07 
   2  -6  -9    0.45    0.11 
  -2   6   9    0.46    0.11 
  -2   6   9    0.61    0.12 
   1  -6  -9   -0.06    0.07 
  -1   6   9   -0.10    0.05 
  -1   6   9    0.07    0.07 
   0  -6  -9    1.56    0.15 
   0   6   9    1.51    0.15 
   0   6   9    1.34    0.13 
  -1  -6  -9    0.05    0.06 
   1   6   9    0.18    0.07 
  -2  -6  -9    3.69    0.19 
   2   6   9    3.07    0.17 
  -3  -6  -9    0.19    0.07 
  -3  -6  -9    0.32    0.08 
   3   6   9    0.36    0.07 
  -4  -6  -9    0.77    0.11 
  -4  -6  -9    0.86    0.10 
  -4  -6  -9    0.79    0.06 
   4   6   9    0.86    0.10 
  -5  -6  -9    3.39    0.19 
  -5  -6  -9    3.43    0.19 
  -5  -6  -9    3.73    0.13 
   5   6   9    3.40    0.17 
  -6  -6  -9    0.00    0.05 
  -6  -6  -9   -0.05    0.05 
  -7  -6  -9    4.14    0.22 
  -7  -6  -9    4.27    0.22 
  -8  -6  -9   -0.02    0.07 
  -8  -6  -9    0.00    0.07 
  -9  -6  -9    0.91    0.13 
  -9  -6  -9    1.00    0.15 
   1  -7  -9    0.13    0.08 
  -1   7   9    0.14    0.08 
  -1   7   9    0.36    0.10 
   0  -7  -9    1.89    0.18 
   0   7   9    2.13    0.16 
   0   7   9    2.24    0.18 
  -1  -7  -9    5.59    0.26 
   1   7   9    6.24    0.26 
   1   7   9    6.04    0.23 
  -2  -7  -9    1.40    0.15 
   2   7   9    1.51    0.14 
  -3  -7  -9    3.69    0.21 
   3   7   9    3.45    0.19 
  -4  -7  -9    8.83    0.31 
  -4  -7  -9    8.99    0.32 
   4   7   9    8.83    0.30 
  -5  -7  -9    0.00    0.06 
  -5  -7  -9    0.06    0.04 
  -5  -7  -9   -0.04    0.07 
   5   7   9    0.09    0.06 
  -6  -7  -9    9.73    0.27 
  -6  -7  -9    9.86    0.35 
  -6  -7  -9    9.38    0.34 
  -7  -7  -9    9.43    0.34 
  -7  -7  -9    9.24    0.34 
  -8  -7  -9    2.98    0.21 
  -8  -7  -9    3.25    0.21 
   0  -8  -9    1.94    0.19 
   0   8   9    1.97    0.17 
   0   8   9    2.17    0.20 
  -1  -8  -9    0.10    0.08 
   1   8   9   -0.05    0.05 
   1   8   9    0.05    0.06 
  -2  -8  -9    0.04    0.07 
   2   8   9    0.13    0.06 
   2   8   9    0.09    0.07 
  -3  -8  -9    0.65    0.12 
   3   8   9    0.61    0.10 
  -4  -8  -9   -0.06    0.06 
  -4  -8  -9   -0.08    0.06 
   4   8   9   -0.01    0.05 
  -5  -8  -9    0.19    0.09 
  -5  -8  -9    0.32    0.08 
   5   8   9    0.33    0.09 
   5   8   9    0.30    0.05 
  -6  -8  -9    0.73    0.11 
  -6  -8  -9    0.78    0.13 
  -6  -8  -9    0.65    0.10 
   6   8   9    0.77    0.07 
  -7  -8  -9    0.74    0.13 
  -7  -8  -9    0.74    0.13 
  -7  -8  -9    0.72    0.09 
   7   8   9    0.71    0.06 
  -8  -8  -9    0.24    0.10 
  -8  -8  -9    0.26    0.10 
  -2  -9  -9    0.71    0.12 
   2   9   9    0.78    0.16 
   2   9   9    0.60    0.11 
  -3  -9  -9    3.75    0.23 
   3   9   9    4.14    0.24 
  -4  -9  -9    1.80    0.17 
   4   9   9    2.08    0.12 
   4   9   9    2.18    0.18 
  -5  -9  -9    1.34    0.16 
  -5  -9  -9    1.05    0.13 
   5   9   9    1.13    0.09 
  -6  -9  -9    0.70    0.12 
  -6  -9  -9    0.90    0.14 
   6   9   9    0.97    0.09 
  -7  -9  -9    0.03    0.08 
  -7  -9  -9   -0.01    0.07 
   7   9   9   -0.04    0.03 
   3   8 -10    0.04    0.05 
   3   8 -10    0.04    0.06 
  -3  -8  10    0.06    0.08 
   2   8 -10    0.09    0.06 
   2   8 -10    0.16    0.05 
  -2  -8  10    0.14    0.09 
   1   8 -10    0.11    0.05 
  -1  -8  10    0.18    0.09 
   0   8 -10    0.14    0.05 
   0   8 -10    0.18    0.10 
   0  -8  10    0.16    0.09 
   4   7 -10   -0.04    0.05 
   4   7 -10   -0.07    0.04 
  -4  -7  10   -0.01    0.06 
   3   7 -10   -0.02    0.05 
   3   7 -10   -0.01    0.05 
  -3  -7  10   -0.06    0.06 
   2   7 -10    1.90    0.13 
   2   7 -10    1.66    0.12 
  -2  -7  10    1.92    0.17 
   1   7 -10    0.34    0.06 
  -1  -7  10    0.37    0.09 
   0   7 -10    1.42    0.09 
   0  -7  10    1.33    0.15 
  -1   7 -10    1.17    0.08 
  -1   7 -10    1.33    0.17 
  -2   7 -10    1.46    0.18 
  -2   7 -10    1.12    0.08 
   5   6 -10    0.85    0.13 
   5   6 -10    0.75    0.11 
  -5  -6  10    0.79    0.11 
   4   6 -10    0.31    0.07 
   4   6 -10    0.40    0.09 
  -4  -6  10    0.46    0.10 
   3   6 -10    0.00    0.05 
   3   6 -10    0.15    0.06 
  -3  -6  10    0.01    0.07 
   2   6 -10    0.29    0.06 
   2   6 -10    0.37    0.07 
  -2  -6  10    0.29    0.08 
   1   6 -10    0.01    0.03 
   1   6 -10    0.00    0.04 
  -1  -6  10    0.00    0.06 
   0   6 -10    0.40    0.05 
   0  -6  10    0.35    0.09 
  -1   6 -10    0.23    0.04 
  -2   6 -10    0.11    0.03 
  -2   6 -10    0.07    0.08 
  -3   6 -10    0.60    0.12 
  -3   6 -10    0.54    0.06 
  -4   6 -10    0.18    0.10 
  -4   6 -10    0.23    0.05 
   5   5 -10    0.03    0.06 
  -5  -5  10    0.07    0.06 
   4   5 -10    1.24    0.12 
  -4  -5  10    1.05    0.12 
   3   5 -10    5.29    0.21 
  -3  -5  10    5.04    0.22 
   2   5 -10    0.15    0.05 
  -2  -5  10    0.23    0.07 
   1   5 -10    0.88    0.08 
   1   5 -10    1.01    0.08 
  -1  -5  10    1.06    0.11 
   0   5 -10    1.64    0.08 
   0   5 -10    1.58    0.08 
   0   5 -10    1.68    0.08 
   0  -5  10    1.65    0.13 
  -1   5 -10    0.42    0.04 
  -1   5 -10    0.53    0.04 
  -2   5 -10   -0.01    0.06 
  -2   5 -10    0.02    0.02 
  -2   5 -10    0.04    0.02 
  -3   5 -10    0.08    0.07 
  -3   5 -10    0.16    0.03 
  -4   5 -10    0.33    0.10 
  -4   5 -10    0.36    0.05 
  -5   5 -10    1.56    0.10 
  -5   5 -10    1.25    0.15 
  -5   5 -10    1.45    0.10 
   5   4 -10    0.48    0.10 
  -5  -4  10    0.62    0.09 
   4   4 -10    0.83    0.10 
  -4  -4  10    0.60    0.09 
   3   4 -10    3.69    0.17 
  -3  -4  10    3.49    0.17 
   2   4 -10    1.44    0.10 
  -2  -4  10    1.38    0.11 
   1   4 -10    8.54    0.23 
   1   4 -10    9.34    0.27 
  -1  -4  10    9.29    0.28 
   0   4 -10   -0.03    0.03 
   0   4 -10   -0.02    0.02 
   0  -4  10    0.06    0.05 
  -1   4 -10    0.28    0.03 
  -1   4 -10    0.21    0.03 
  -1   4 -10    0.24    0.03 
  -3   4 -10    0.78    0.12 
  -4   4 -10    0.39    0.10 
  -4   4 -10    0.53    0.05 
  -4   4 -10    0.51    0.05 
  -5   4 -10    4.68    0.16 
  -5   4 -10    4.55    0.16 
  -5   4 -10    4.59    0.24 
  -6   4 -10    0.22    0.09 
  -6   4 -10    0.20    0.06 
  -6   4 -10    0.11    0.05 
   6   3 -10    0.82    0.14 
   5   3 -10   -0.03    0.06 
  -5  -3  10    0.10    0.05 
   4   3 -10    3.50    0.19 
  -4  -3  10    3.62    0.15 
   3   3 -10    1.05    0.10 
  -3  -3  10    1.11    0.09 
   2   3 -10    0.25    0.06 
  -2  -3  10    0.20    0.05 
   1   3 -10    0.96    0.08 
   1   3 -10    0.96    0.08 
  -1  -3  10    1.01    0.09 
   0   3 -10    1.88    0.09 
   0   3 -10    1.99    0.09 
   0  -3  10    2.12    0.12 
  -1   3 -10    0.20    0.03 
  -1   3 -10    0.17    0.03 
  -1   3 -10    0.18    0.03 
  -3   3 -10    4.55    0.21 
  -4   3 -10    4.98    0.13 
  -4   3 -10    5.01    0.13 
  -4   3 -10    5.08    0.13 
  -4   3 -10    5.32    0.23 
  -5   3 -10    1.89    0.10 
  -5   3 -10    2.04    0.10 
  -5   3 -10    2.02    0.16 
  -6   3 -10    0.13    0.07 
  -6   3 -10    0.03    0.04 
  -6   3 -10   -0.01    0.04 
   5   2 -10    0.15    0.08 
   4   2 -10    1.58    0.15 
  -4  -2  10    1.54    0.10 
   3   2 -10    0.17    0.06 
  -3  -2  10    0.17    0.04 
   2   2 -10    0.06    0.04 
  -2  -2  10    0.01    0.03 
   1   2 -10    0.24    0.05 
   1   2 -10    0.35    0.05 
  -1  -2  10    0.27    0.05 
   0   2 -10    7.74    0.20 
   0   2 -10    7.75    0.20 
   0   2 -10    7.86    0.23 
  -1   2 -10   18.79    0.36 
  -1   2 -10   18.47    0.36 
  -1   2 -10   19.06    0.36 
  -2   2 -10    1.43    0.05 
  -2   2 -10    1.41    0.05 
  -4   2 -10    5.52    0.14 
  -4   2 -10    5.19    0.22 
  -4   2 -10    5.32    0.13 
  -5   2 -10    1.11    0.08 
  -5   2 -10    1.20    0.08 
  -5   2 -10    1.23    0.12 
  -6   2 -10    1.65    0.13 
  -6   2 -10    1.70    0.11 
  -6   2 -10    1.68    0.11 
  -7   2 -10    1.44    0.12 
  -7   2 -10    1.53    0.15 
  -7   2 -10    1.54    0.12 
   5   1 -10    2.65    0.20 
   4   1 -10    0.81    0.11 
   3   1 -10    7.08    0.26 
  -3  -1  10    7.14    0.19 
   2   1 -10    2.55    0.14 
  -2  -1  10    2.32    0.09 
   1   1 -10    3.23    0.14 
   1   1 -10    3.55    0.15 
  -1  -1  10    3.07    0.10 
   0   1 -10    0.35    0.05 
   0   1 -10    0.41    0.05 
   0   1 -10    0.48    0.07 
  -1   1 -10    0.02    0.03 
  -1   1 -10    0.03    0.03 
  -1   1 -10    0.05    0.03 
  -2   1 -10    0.89    0.06 
  -2   1 -10    0.88    0.05 
  -3   1 -10    0.02    0.02 
  -3   1 -10    0.01    0.02 
  -3   1 -10    0.05    0.02 
  -4   1 -10    1.54    0.12 
  -4   1 -10    1.42    0.07 
  -4   1 -10    1.39    0.07 
  -5   1 -10   11.29    0.26 
  -5   1 -10   10.99    0.26 
  -5   1 -10   11.39    0.31 
  -6   1 -10   -0.03    0.04 
  -6   1 -10    0.01    0.03 
  -6   1 -10   -0.02    0.03 
  -7   1 -10    0.08    0.04 
  -7   1 -10    0.10    0.05 
  -8   1 -10    0.01    0.06 
   5   0 -10    0.14    0.09 
   4   0 -10    0.04    0.07 
   3   0 -10   -0.04    0.05 
   2   0 -10    0.39    0.07 
   1   0 -10    2.76    0.16 
   1   0 -10    2.76    0.14 
   0   0 -10    0.01    0.03 
   0   0 -10    0.09    0.04 
  -1   0 -10    0.20    0.04 
  -1   0 -10    0.17    0.04 
  -1   0 -10    0.15    0.04 
  -2   0 -10    3.87    0.13 
  -2   0 -10    3.97    0.13 
  -2   0 -10    3.75    0.12 
  -3   0 -10   14.30    0.30 
  -3   0 -10   13.91    0.29 
  -3   0 -10   14.06    0.30 
  -4   0 -10    3.50    0.12 
  -4   0 -10    3.71    0.12 
  -4   0 -10    3.72    0.15 
  -5   0 -10    0.05    0.03 
  -5   0 -10    0.07    0.04 
  -5   0 -10    0.10    0.04 
  -6   0 -10    0.11    0.05 
  -6   0 -10    0.11    0.04 
  -6   0 -10    0.10    0.04 
  -7   0 -10    0.57    0.08 
  -7   0 -10    0.51    0.08 
  -8   0 -10    0.11    0.06 
  -8   0 -10    0.23    0.07 
   5  -1 -10    0.21    0.10 
   4  -1 -10    0.03    0.07 
   3  -1 -10    0.89    0.11 
   2  -1 -10    1.88    0.15 
   1  -1 -10    6.94    0.24 
   0  -1 -10    1.35    0.11 
   0  -1 -10    1.47    0.11 
   0   1  10    1.56    0.07 
  -1  -1 -10    7.36    0.21 
  -1  -1 -10    7.39    0.22 
  -1  -1 -10    7.32    0.25 
  -2  -1 -10    0.25    0.05 
  -2  -1 -10    0.25    0.04 
  -3  -1 -10    0.16    0.04 
  -3  -1 -10    0.17    0.04 
  -3  -1 -10    0.26    0.05 
  -4  -1 -10    1.85    0.10 
  -4  -1 -10    1.83    0.10 
  -4  -1 -10    1.85    0.10 
  -5  -1 -10    0.67    0.07 
  -5  -1 -10    0.59    0.07 
  -5  -1 -10    0.67    0.07 
  -6  -1 -10    1.38    0.10 
  -6  -1 -10    1.27    0.10 
  -7  -1 -10    5.50    0.21 
  -7  -1 -10    5.80    0.21 
  -8  -1 -10    2.26    0.15 
  -8  -1 -10    2.13    0.15 
   4  -2 -10    0.04    0.08 
   3  -2 -10    0.16    0.08 
   2  -2 -10    0.76    0.11 
   1  -2 -10    1.07    0.11 
   0  -2 -10    1.25    0.11 
   0   2  10    1.31    0.09 
  -1  -2 -10   14.79    0.36 
  -1  -2 -10   14.97    0.37 
   1   2  10   15.27    0.30 
  -2  -2 -10    2.19    0.12 
  -3  -2 -10    0.80    0.08 
  -3  -2 -10    0.85    0.08 
  -4  -2 -10    5.74    0.18 
  -4  -2 -10    5.25    0.18 
  -5  -2 -10   13.49    0.33 
  -5  -2 -10   13.34    0.33 
  -6  -2 -10    3.99    0.17 
  -6  -2 -10    4.16    0.17 
  -7  -2 -10    0.43    0.08 
  -7  -2 -10    0.49    0.08 
  -8  -2 -10   -0.03    0.05 
  -8  -2 -10   -0.07    0.05 
   4  -3 -10    0.63    0.13 
   3  -3 -10    0.79    0.12 
   2  -3 -10    0.06    0.07 
   1  -3 -10    1.05    0.12 
  -1   3  10    1.12    0.13 
   0  -3 -10    1.09    0.11 
   0   3  10    1.31    0.10 
  -1  -3 -10    2.15    0.13 
   1   3  10    2.02    0.10 
  -2  -3 -10    0.69    0.08 
   2   3  10    0.58    0.06 
  -3  -3 -10    0.00    0.03 
  -3  -3 -10    0.00    0.04 
   3   3  10    0.01    0.02 
  -4  -3 -10    2.81    0.14 
  -4  -3 -10    2.82    0.14 
  -5  -3 -10    0.29    0.06 
  -5  -3 -10    0.21    0.05 
  -6  -3 -10    0.74    0.09 
  -6  -3 -10    0.61    0.08 
  -7  -3 -10    2.45    0.16 
  -7  -3 -10    2.57    0.16 
  -8  -3 -10    0.13    0.06 
  -8  -3 -10    0.18    0.07 
  -9  -3 -10   -0.01    0.05 
  -9  -3 -10   -0.01    0.06 
   3  -4 -10    0.00    0.08 
   2  -4 -10    0.76    0.12 
   1  -4 -10    0.12    0.07 
  -1   4  10    0.07    0.09 
   0  -4 -10    1.56    0.14 
   0   4  10    1.47    0.12 
  -1  -4 -10    0.30    0.07 
   1   4  10    0.17    0.05 
  -2  -4 -10    1.96    0.14 
   2   4  10    2.04    0.12 
  -3  -4 -10    0.31    0.07 
  -3  -4 -10    0.32    0.06 
  -4  -4 -10    3.09    0.12 
  -4  -4 -10    2.96    0.15 
  -4  -4 -10    3.20    0.16 
  -5  -4 -10    0.81    0.09 
  -5  -4 -10    0.82    0.10 
  -6  -4 -10    0.09    0.05 
  -6  -4 -10    0.02    0.05 
  -7  -4 -10   13.28    0.38 
  -7  -4 -10   13.26    0.38 
  -8  -4 -10    4.77    0.23 
  -8  -4 -10    5.03    0.23 
  -9  -4 -10   -0.01    0.07 
  -9  -4 -10   -0.07    0.06 
   2  -5 -10    1.06    0.13 
   1  -5 -10    2.48    0.19 
   0  -5 -10    1.17    0.13 
   0   5  10    1.41    0.15 
  -1  -5 -10   -0.02    0.05 
   1   5  10    0.03    0.05 
  -2  -5 -10    0.13    0.06 
   2   5  10    0.08    0.05 
  -3  -5 -10    1.75    0.14 
  -3  -5 -10    1.83    0.14 
  -4  -5 -10    0.03    0.05 
  -4  -5 -10    0.08    0.05 
  -5  -5 -10    0.00    0.05 
  -5  -5 -10    0.07    0.05 
  -6  -5 -10    0.18    0.07 
  -6  -5 -10    0.01    0.05 
  -7  -5 -10    3.07    0.19 
  -7  -5 -10    3.04    0.19 
  -8  -5 -10    6.63    0.28 
  -8  -5 -10    6.72    0.29 
   1  -6 -10   -0.09    0.07 
   0  -6 -10    2.68    0.20 
  -1  -6 -10    2.46    0.18 
   1   6  10    1.89    0.21 
  -2  -6 -10    0.63    0.11 
   2   6  10    0.47    0.11 
  -3  -6 -10    3.50    0.19 
  -4  -6 -10    0.18    0.07 
  -4  -6 -10    0.28    0.08 
  -5  -6 -10    0.23    0.07 
  -5  -6 -10    0.04    0.06 
  -6  -6 -10    0.52    0.10 
  -6  -6 -10    0.57    0.10 
  -7  -6 -10    0.42    0.10 
  -7  -6 -10    0.46    0.10 
  -8  -6 -10    0.61    0.11 
  -8  -6 -10    0.70    0.12 
   0  -7 -10    0.66    0.12 
  -1  -7 -10   -0.01    0.06 
  -2  -7 -10    0.32    0.09 
  -3  -7 -10    1.73    0.16 
  -4  -7 -10    0.51    0.10 
  -4  -7 -10    0.30    0.09 
  -5  -7 -10    0.30    0.08 
  -5  -7 -10    0.47    0.10 
  -6  -7 -10    0.60    0.11 
  -6  -7 -10    0.85    0.12 
  -7  -7 -10    0.96    0.13 
  -7  -7 -10    0.87    0.12 
  -8  -7 -10    0.24    0.10 
  -8  -7 -10    0.55    0.11 
  -1  -8 -10    1.55    0.17 
  -2  -8 -10    2.12    0.19 
  -3  -8 -10    2.37    0.19 
  -4  -8 -10    0.75    0.12 
  -5  -8 -10    1.16    0.15 
  -5  -8 -10    0.96    0.13 
  -6  -8 -10    0.18    0.08 
  -6  -8 -10    0.33    0.10 
  -7  -8 -10    0.09    0.09 
  -7  -8 -10    0.17    0.09 
  -4  -9 -10   -0.06    0.07 
  -5  -9 -10    0.00    0.08 
  -5  -9 -10    0.01    0.07 
   2   7 -11    1.22    0.11 
   2   7 -11    1.36    0.12 
  -2  -7  11    1.10    0.14 
   1   7 -11    0.05    0.04 
   1   7 -11    0.03    0.04 
  -1  -7  11    0.02    0.07 
   0   7 -11    0.35    0.05 
   0  -7  11    0.29    0.10 
  -1   7 -11    0.07    0.10 
  -1   7 -11    0.09    0.05 
   3   6 -11    3.16    0.18 
   3   6 -11    2.74    0.16 
  -3  -6  11    3.12    0.19 
   2   6 -11    2.24    0.14 
   2   6 -11    2.08    0.13 
  -2  -6  11    2.25    0.17 
   1   6 -11   -0.05    0.03 
   1   6 -11    0.05    0.04 
  -1  -6  11   -0.03    0.06 
   0   6 -11    0.28    0.05 
   0   6 -11    0.30    0.05 
   0  -6  11    0.28    0.09 
  -1   6 -11    0.77    0.06 
  -2   6 -11    4.83    0.28 
  -3   6 -11    0.04    0.09 
   4   5 -11   -0.01    0.05 
  -4  -5  11   -0.03    0.06 
   3   5 -11    0.03    0.05 
  -3  -5  11    0.09    0.06 
   2   5 -11    4.93    0.19 
  -2  -5  11    4.68    0.21 
   1   5 -11    0.01    0.03 
   1   5 -11    0.00    0.04 
  -1  -5  11    0.02    0.06 
   0   5 -11    0.57    0.05 
   0   5 -11    0.61    0.06 
   0  -5  11    0.60    0.10 
  -1   5 -11    1.40    0.06 
  -1   5 -11    1.35    0.06 
  -2   5 -11    0.09    0.08 
  -3   5 -11    1.49    0.17 
  -4   5 -11    1.03    0.14 
   4   4 -11    0.70    0.10 
   3   4 -11   -0.01    0.05 
  -3  -4  11    0.06    0.05 
   2   4 -11    1.60    0.11 
  -2  -4  11    1.44    0.12 
   1   4 -11    0.89    0.08 
  -1  -4  11    0.87    0.10 
   0   4 -11    0.67    0.06 
   0  -4  11    0.68    0.09 
  -1   4 -11    0.72    0.05 
  -1   4 -11    0.71    0.05 
  -1   4 -11    0.74    0.05 
  -3   4 -11    1.43    0.16 
  -4   4 -11    4.16    0.12 
  -4   4 -11    4.84    0.25 
  -5   4 -11    1.63    0.09 
  -5   4 -11    1.37    0.09 
  -5   4 -11    1.60    0.16 
   5   3 -11    0.09    0.08 
   4   3 -11    0.08    0.06 
   3   3 -11    0.65    0.09 
   2   3 -11    0.23    0.06 
  -2  -3  11    0.30    0.06 
   1   3 -11    0.29    0.05 
  -1  -3  11    0.34    0.06 
   0   3 -11    3.55    0.13 
   0   3 -11    3.59    0.15 
  -1   3 -11    0.98    0.06 
  -1   3 -11    1.12    0.06 
  -3   3 -11    0.14    0.07 
  -4   3 -11    7.84    0.30 
  -4   3 -11    7.30    0.16 
  -5   3 -11    4.94    0.24 
  -5   3 -11    4.82    0.15 
  -5   3 -11    4.64    0.14 
  -6   3 -11    1.20    0.13 
  -6   3 -11    1.14    0.09 
  -6   3 -11    1.33    0.10 
   5   2 -11    0.25    0.09 
   4   2 -11    0.16    0.07 
   3   2 -11    0.03    0.05 
   2   2 -11    0.44    0.07 
   1   2 -11    0.07    0.04 
  -1  -2  11    0.05    0.03 
   0   2 -11    4.81    0.16 
   0   2 -11    4.80    0.19 
  -1   2 -11    0.12    0.03 
  -1   2 -11    0.05    0.03 
  -2   2 -11    0.08    0.02 
  -2   2 -11    0.13    0.02 
  -3   2 -11    0.31    0.03 
  -4   2 -11    1.70    0.07 
  -4   2 -11    1.87    0.14 
  -4   2 -11    1.71    0.07 
  -5   2 -11    0.97    0.07 
  -5   2 -11    1.02    0.08 
  -5   2 -11    1.30    0.13 
  -6   2 -11    0.07    0.06 
  -6   2 -11    0.17    0.05 
  -6   2 -11    0.29    0.06 
   4   1 -11    0.38    0.09 
   3   1 -11    0.46    0.08 
   2   1 -11    0.07    0.05 
   1   1 -11    0.36    0.06 
   0   1 -11    0.83    0.08 
  -1   1 -11    0.32    0.05 
  -1   1 -11    0.31    0.05 
  -2   1 -11    3.41    0.11 
  -2   1 -11    3.29    0.11 
  -3   1 -11    3.13    0.10 
  -3   1 -11    3.12    0.10 
  -4   1 -11    1.14    0.07 
  -4   1 -11    1.20    0.07 
  -4   1 -11    1.12    0.12 
  -5   1 -11    1.65    0.13 
  -5   1 -11    1.72    0.09 
  -5   1 -11    1.66    0.09 
  -6   1 -11    4.41    0.16 
  -6   1 -11    4.37    0.17 
  -7   1 -11    1.43    0.11 
  -7   1 -11    1.44    0.12 
   4   0 -11    0.04    0.07 
   3   0 -11    1.96    0.16 
   2   0 -11    0.13    0.06 
   1   0 -11    2.13    0.13 
   0   0 -11    1.06    0.09 
  -1   0 -11    0.01    0.03 
  -1   0 -11    0.02    0.03 
  -2   0 -11    1.76    0.09 
  -3   0 -11    0.14    0.04 
  -3   0 -11    0.15    0.04 
  -4   0 -11    0.42    0.07 
  -4   0 -11    0.33    0.05 
  -4   0 -11    0.37    0.05 
  -5   0 -11    1.99    0.10 
  -5   0 -11    2.20    0.13 
  -5   0 -11    2.36    0.11 
  -6   0 -11    1.24    0.10 
  -6   0 -11    1.11    0.09 
  -7   0 -11    0.48    0.07 
  -7   0 -11    0.35    0.07 
   4  -1 -11    0.95    0.14 
   3  -1 -11    0.28    0.09 
   2  -1 -11    0.41    0.09 
   1  -1 -11   11.63    0.34 
   0  -1 -11    1.41    0.11 
  -1  -1 -11    0.02    0.03 
  -2  -1 -11    0.00    0.03 
  -3  -1 -11    0.37    0.06 
  -3  -1 -11    0.38    0.06 
  -4  -1 -11    4.99    0.17 
  -4  -1 -11    4.82    0.16 
  -5  -1 -11    9.68    0.26 
  -5  -1 -11   10.04    0.26 
  -6  -1 -11    0.61    0.07 
  -6  -1 -11    0.71    0.08 
  -7  -1 -11    0.64    0.09 
  -7  -1 -11    0.54    0.08 
  -8  -1 -11    0.14    0.06 
  -8  -1 -11    0.05    0.06 
   3  -2 -11    1.94    0.18 
   2  -2 -11    0.23    0.09 
   1  -2 -11    0.82    0.11 
   0  -2 -11    5.12    0.21 
  -1  -2 -11    7.04    0.24 
  -2  -2 -11    1.00    0.09 
  -3  -2 -11    0.21    0.05 
  -3  -2 -11    0.21    0.05 
  -4  -2 -11    1.48    0.11 
  -4  -2 -11    1.72    0.11 
  -5  -2 -11    0.02    0.04 
  -5  -2 -11    0.06    0.04 
  -6  -2 -11    0.05    0.04 
  -6  -2 -11    0.27    0.06 
  -7  -2 -11    0.54    0.08 
  -7  -2 -11    0.66    0.09 
  -8  -2 -11    0.37    0.08 
  -8  -2 -11    0.34    0.08 
   3  -3 -11    0.14    0.09 
   2  -3 -11    2.15    0.19 
   1  -3 -11    1.16    0.13 
   0  -3 -11    5.63    0.24 
  -1  -3 -11   12.82    0.36 
  -2  -3 -11    0.42    0.07 
  -3  -3 -11    1.65    0.12 
  -3  -3 -11    1.63    0.12 
  -4  -3 -11    2.14    0.13 
  -4  -3 -11    2.14    0.13 
  -5  -3 -11    0.35    0.07 
  -5  -3 -11    0.31    0.07 
  -6  -3 -11    3.88    0.18 
  -6  -3 -11    3.74    0.18 
  -7  -3 -11    1.20    0.12 
  -7  -3 -11    1.07    0.11 
  -8  -3 -11    2.15    0.16 
  -8  -3 -11    2.23    0.16 
   2  -4 -11   -0.01    0.08 
   1  -4 -11    2.01    0.18 
   0  -4 -11    7.10    0.28 
  -1  -4 -11    0.33    0.08 
  -2  -4 -11    0.22    0.07 
  -3  -4 -11    1.51    0.12 
  -4  -4 -11    0.17    0.05 
  -4  -4 -11    0.35    0.07 
  -5  -4 -11    1.68    0.13 
  -5  -4 -11    1.57    0.13 
  -6  -4 -11    0.01    0.05 
  -6  -4 -11    0.06    0.06 
  -7  -4 -11    0.23    0.07 
  -7  -4 -11    0.20    0.07 
  -8  -4 -11    0.36    0.09 
  -8  -4 -11    0.47    0.09 
   1  -5 -11    0.06    0.07 
   0  -5 -11    1.37    0.15 
  -1  -5 -11    0.29    0.08 
  -2  -5 -11    1.10    0.12 
  -3  -5 -11    2.81    0.17 
  -4  -5 -11    2.13    0.15 
  -4  -5 -11    1.99    0.15 
  -5  -5 -11    2.29    0.16 
  -5  -5 -11    2.56    0.16 
  -6  -5 -11    1.22    0.13 
  -6  -5 -11    1.41    0.14 
  -7  -5 -11    3.16    0.20 
  -7  -5 -11    2.82    0.19 
  -8  -5 -11    0.22    0.09 
  -8  -5 -11    0.42    0.10 
   0  -6 -11    0.31    0.09 
  -1  -6 -11    2.14    0.18 
  -2  -6 -11    1.11    0.14 
  -3  -6 -11    1.34    0.13 
  -4  -6 -11    2.25    0.17 
  -4  -6 -11    2.54    0.18 
  -5  -6 -11   -0.05    0.05 
  -5  -6 -11    0.11    0.07 
  -6  -6 -11    0.21    0.08 
  -6  -6 -11    0.11    0.07 
  -7  -6 -11    4.04    0.23 
  -7  -6 -11    3.97    0.22 
  -1  -7 -11    1.28    0.15 
  -2  -7 -11    1.27    0.15 
  -3  -7 -11    0.01    0.07 
  -4  -7 -11    0.12    0.07 
  -5  -7 -11    0.62    0.11 
  -5  -7 -11    0.43    0.09 
  -6  -7 -11    0.35    0.10 
  -6  -7 -11    0.30    0.09 
  -7  -7 -11   -0.03    0.08 
  -7  -7 -11    0.07    0.08 
  -3  -8 -11    0.46    0.10 
  -4  -8 -11    0.41    0.10 
  -5  -8 -11    1.53    0.16 
  -5  -8 -11    1.90    0.19 
   1   6 -12    0.01    0.04 
   1   6 -12   -0.01    0.03 
  -1  -6  12   -0.06    0.06 
   0   6 -12    0.06    0.04 
   0   6 -12    0.08    0.03 
   2   5 -12    0.06    0.05 
   1   5 -12    0.01    0.03 
   1   5 -12   -0.01    0.04 
  -1  -5  12   -0.06    0.05 
   0   5 -12    0.19    0.04 
   0   5 -12    0.17    0.04 
  -1   5 -12    0.55    0.05 
  -2   5 -12    0.07    0.09 
  -3   5 -12    1.80    0.19 
   3   4 -12    0.04    0.06 
   2   4 -12    0.03    0.04 
   1   4 -12    0.71    0.07 
   0   4 -12    0.54    0.06 
  -1   4 -12    0.27    0.03 
  -1   4 -12    0.31    0.04 
  -3   4 -12    0.46    0.11 
  -4   4 -12   -0.05    0.07 
   3   3 -12    0.02    0.05 
   2   3 -12    0.57    0.08 
   1   3 -12   -0.02    0.03 
   0   3 -12    0.10    0.04 
  -1   3 -12    2.92    0.10 
  -3   3 -12   -0.02    0.07 
  -4   3 -12    0.05    0.07 
  -5   3 -12    0.03    0.03 
  -5   3 -12   -0.03    0.06 
   3   2 -12    0.50    0.09 
   2   2 -12    1.84    0.13 
   1   2 -12    0.06    0.04 
   0   2 -12    1.10    0.08 
  -1   2 -12    0.35    0.05 
  -2   2 -12    2.44    0.10 
  -2   2 -12    2.28    0.09 
  -3   2 -12    1.24    0.06 
  -4   2 -12    0.18    0.08 
  -4   2 -12    0.24    0.03 
  -5   2 -12    0.76    0.06 
  -5   2 -12    0.82    0.11 
  -5   2 -12    0.72    0.06 
   3   1 -12    2.32    0.17 
   2   1 -12    1.08    0.11 
   1   1 -12    0.47    0.07 
   0   1 -12    0.53    0.07 
  -1   1 -12    0.07    0.03 
  -2   1 -12    0.00    0.03 
  -3   1 -12    1.38    0.07 
  -4   1 -12    2.41    0.16 
  -4   1 -12    2.27    0.09 
  -4   1 -12    2.23    0.09 
  -5   1 -12    0.06    0.03 
  -5   1 -12    0.09    0.04 
  -6   1 -12    1.03    0.08 
  -6   1 -12    1.17    0.09 
   3   0 -12    0.13    0.07 
   2   0 -12   -0.08    0.04 
   1   0 -12    1.47    0.12 
   0   0 -12   -0.05    0.04 
  -1   0 -12    0.93    0.09 
  -2   0 -12    0.34    0.05 
  -3   0 -12    0.25    0.04 
  -4   0 -12    2.07    0.13 
  -4   0 -12    2.06    0.10 
  -4   0 -12    2.00    0.10 
  -5   0 -12    0.76    0.07 
  -5   0 -12    0.69    0.07 
  -6   0 -12    0.40    0.07 
  -6   0 -12    0.47    0.07 
  -7   0 -12    2.77    0.14 
  -7   0 -12    2.97    0.16 
   3  -1 -12   -0.10    0.08 
   2  -1 -12    0.05    0.06 
   1  -1 -12    0.13    0.06 
   0  -1 -12    4.10    0.19 
  -1  -1 -12    6.28    0.22 
  -2  -1 -12   -0.01    0.04 
  -3  -1 -12    0.24    0.05 
  -4  -1 -12    0.69    0.07 
  -4  -1 -12    0.55    0.07 
  -5  -1 -12    0.13    0.04 
  -5  -1 -12    0.05    0.04 
  -6  -1 -12    3.65    0.16 
  -6  -1 -12    3.47    0.15 
  -7  -1 -12   -0.04    0.04 
  -7  -1 -12   -0.06    0.04 
   2  -2 -12    0.49    0.10 
   1  -2 -12    0.14    0.07 
   0  -2 -12    0.75    0.10 
  -1  -2 -12    0.00    0.05 
  -2  -2 -12    0.04    0.04 
  -3  -2 -12    1.04    0.10 
  -4  -2 -12    3.07    0.15 
  -4  -2 -12    3.07    0.15 
  -5  -2 -12    0.25    0.06 
  -5  -2 -12    0.26    0.06 
  -6  -2 -12    0.47    0.07 
  -6  -2 -12    0.43    0.07 
  -7  -2 -12    0.15    0.06 
  -7  -2 -12    0.18    0.06 
   2  -3 -12    0.13    0.09 
   1  -3 -12    0.52    0.11 
   0  -3 -12    0.05    0.07 
  -1  -3 -12    7.83    0.28 
  -2  -3 -12    2.25    0.15 
  -3  -3 -12    4.04    0.18 
  -4  -3 -12    1.72    0.12 
  -4  -3 -12    1.55    0.12 
  -5  -3 -12    0.04    0.04 
  -5  -3 -12   -0.02    0.04 
  -6  -3 -12   -0.03    0.05 
  -6  -3 -12   -0.02    0.04 
  -7  -3 -12    0.18    0.07 
  -7  -3 -12    0.17    0.06 
   1  -4 -12    1.64    0.17 
   0  -4 -12    1.38    0.15 
  -1  -4 -12    0.01    0.06 
  -2  -4 -12    0.15    0.06 
  -3  -4 -12    1.29    0.13 
  -4  -4 -12    0.39    0.08 
  -4  -4 -12    0.39    0.07 
  -5  -4 -12    0.06    0.05 
  -5  -4 -12    0.14    0.06 
  -6  -4 -12    1.79    0.14 
  -6  -4 -12    1.70    0.14 
  -7  -4 -12    0.81    0.11 
  -7  -4 -12    0.93    0.12 
   0  -5 -12    0.22    0.09 
  -1  -5 -12    1.45    0.15 
  -2  -5 -12    0.32    0.09 
  -3  -5 -12    0.19    0.07 
  -4  -5 -12    0.03    0.06 
  -4  -5 -12    0.11    0.06 
  -5  -5 -12    1.49    0.14 
  -5  -5 -12    1.69    0.15 
  -6  -5 -12    1.98    0.16 
  -6  -5 -12    2.04    0.16 
  -7  -5 -12    0.68    0.11 
  -7  -5 -12    0.58    0.10 
  -1  -6 -12   -0.02    0.08 
  -2  -6 -12    1.03    0.14 
  -3  -6 -12    1.37    0.14 
  -4  -6 -12    0.31    0.09 
  -5  -6 -12    0.59    0.10 
  -5  -6 -12    1.01    0.13 
  -6  -6 -12    0.21    0.08 
  -6  -6 -12    0.18    0.08 
  -4  -7 -12    1.14    0.15 
   1   4 -13    0.07    0.05 
   0   4 -13    0.02    0.03 
  -1   4 -13    0.04    0.03 
   2   3 -13    0.00    0.05 
   1   3 -13    0.16    0.06 
   0   3 -13    0.26    0.05 
  -1   3 -13    0.63    0.06 
  -3   3 -13    1.21    0.14 
   2   2 -13    1.52    0.13 
   1   2 -13    0.52    0.08 
   0   2 -13    0.37    0.06 
  -1   2 -13    0.29    0.05 
  -2   2 -13    0.12    0.03 
  -3   2 -13    0.00    0.02 
  -4   2 -13    0.02    0.02 
  -4   2 -13   -0.08    0.05 
   2   1 -13   -0.01    0.05 
   1   1 -13   -0.03    0.04 
   0   1 -13    0.02    0.04 
  -1   1 -13    0.30    0.05 
  -2   1 -13    0.37    0.05 
  -3   1 -13    0.43    0.05 
  -4   1 -13    0.02    0.09 
  -4   1 -13    0.17    0.04 
  -5   1 -13    2.76    0.11 
  -5   1 -13    2.70    0.12 
   2   0 -13    0.55    0.10 
   1   0 -13    0.60    0.09 
   0   0 -13    0.05    0.05 
  -1   0 -13    0.44    0.07 
  -2   0 -13    0.01    0.04 
  -3   0 -13    1.19    0.09 
  -4   0 -13    1.29    0.09 
  -4   0 -13    1.22    0.08 
  -5   0 -13    1.08    0.08 
  -5   0 -13    1.11    0.08 
   1  -1 -13    0.09    0.06 
   0  -1 -13    0.13    0.06 
  -1  -1 -13    1.03    0.11 
  -2  -1 -13    0.47    0.07 
  -3  -1 -13    1.65    0.11 
  -4  -1 -13    0.22    0.05 
  -4  -1 -13    0.25    0.05 
  -5  -1 -13    0.34    0.06 
  -5  -1 -13    0.31    0.06 
  -6  -1 -13    0.49    0.07 
  -6  -1 -13    0.46    0.07 
   1  -2 -13    0.55    0.11 
   0  -2 -13    0.46    0.09 
  -1  -2 -13    2.43    0.16 
  -2  -2 -13    4.48    0.20 
  -3  -2 -13    0.88    0.10 
  -4  -2 -13    0.30    0.06 
  -4  -2 -13    0.19    0.06 
  -5  -2 -13    0.02    0.04 
  -5  -2 -13    0.09    0.04 
  -6  -2 -13    0.52    0.08 
  -6  -2 -13    0.43    0.07 
   0  -3 -13    2.94    0.20 
  -1  -3 -13    0.41    0.09 
  -2  -3 -13    0.66    0.10 
  -3  -3 -13    0.24    0.07 
  -4  -3 -13    0.37    0.07 
  -5  -3 -13    1.76    0.13 
  -5  -3 -13    1.85    0.13 
  -6  -3 -13    0.61    0.09 
  -6  -3 -13    0.55    0.09 
  -1  -4 -13    0.16    0.08 
  -2  -4 -13    0.13    0.06 
  -3  -4 -13    2.84    0.18 
  -4  -4 -13   -0.01    0.05 
  -5  -4 -13    2.14    0.16 
  -5  -4 -13    2.35    0.16 
  -6  -4 -13    0.26    0.07 
  -6  -4 -13    0.29    0.07 
  -2  -5 -13    1.49    0.15 
  -3  -5 -13    0.02    0.07 
  -4  -5 -13    0.01    0.06 
  -5  -5 -13    0.14    0.07 
  -5  -5 -13   -0.02    0.05 
  -1   2 -14    0.04    0.04 
   0   1 -14    3.23    0.16 
  -1   1 -14    1.26    0.10 
  -2   1 -14    1.07    0.09 
  -3   1 -14    0.57    0.06 
   0   0 -14    1.95    0.15 
  -1   0 -14   -0.09    0.04 
  -2   0 -14   -0.01    0.04 
  -3   0 -14    0.08    0.04 
  -4   0 -14    0.13    0.04 
  -1  -1 -14    0.06    0.05 
  -2  -1 -14    5.22    0.21 
  -3  -1 -14    4.58    0.19 
  -4  -1 -14    1.59    0.11 
  -1  -2 -14    3.87    0.20 
  -2  -2 -14    0.21    0.06 
  -3  -2 -14    0.71    0.09 
  -4  -2 -14    0.37    0.07 
  -3  -3 -14    0.03    0.06 
   0   0   0    0.00    0.00 
;
_shelx_hkl_checksum              97152
loop_
_space_group_symop_operation_xyz
'x, y, z'
'-x, -y, -z'
loop_
_atom_site_label
_atom_site_type_symbol
_atom_site_fract_x
_atom_site_fract_y
_atom_site_fract_z
_atom_site_U_iso_or_equiv
_atom_site_adp_type
_atom_site_occupancy
_atom_site_site_symmetry_order
_atom_site_calc_flag
_atom_site_refinement_flags_posn
_atom_site_refinement_flags_adp
C1 C 0.7579(2) 1.02138(17) 0.51109(13) 0.0431(3) Uani 1 1 d . .
H1 H 0.6798 1.1150 0.4957 0.052 Uiso 1 1 calc R U
C2 C 0.7889(2) 0.9924(2) 0.62655(14) 0.0523(4) Uani 1 1 d . .
H2 H 0.7324 1.0658 0.6882 0.063 Uiso 1 1 calc R U
C3 C 0.9042(2) 0.8538(2) 0.64998(15) 0.0554(4) Uani 1 1 d . .
H3 H 0.9260 0.8341 0.7277 0.066 Uiso 1 1 calc R U
C4 C 0.9876(2) 0.74415(19) 0.55910(15) 0.0513(4) Uani 1 1 d . .
H4 H 1.0643 0.6506 0.5760 0.062 Uiso 1 1 calc R U
C5 C 0.95756(18) 0.77287(16) 0.44220(13) 0.0399(3) Uani 1 1 d . .
C6 C 0.93771(18) 0.68284(15) 0.21673(13) 0.0404(3) Uani 1 1 d . .
H6 H 1.0117 0.6421 0.1379 0.048 Uiso 1 1 calc R U
C7 C 0.85202(17) 0.85063(15) 0.20356(12) 0.0365(3) Uani 1 1 d . .
C8 C 0.80956(17) 0.94984(15) 0.29566(12) 0.0360(3) Uani 1 1 d . .
H8 H 0.7552 1.0509 0.2806 0.043 Uiso 1 1 calc R U
C9 C 0.84095(18) 0.91357(15) 0.41691(12) 0.0359(3) Uani 1 1 d . .
C10 C 0.81112(18) 0.60384(14) 0.24356(12) 0.0371(3) Uani 1 1 d . .
C11 C 0.8477(2) 0.46988(15) 0.18190(13) 0.0417(3) Uani 1 1 d . .
H11 H 0.9487 0.4306 0.1235 0.050 Uiso 1 1 calc R U
C12 C 0.7359(2) 0.39408(16) 0.20617(15) 0.0499(4) Uani 1 1 d . .
H12 H 0.7617 0.3048 0.1636 0.060 Uiso 1 1 calc R U
C13 C 0.5869(2) 0.44986(18) 0.29274(16) 0.0530(4) Uani 1 1 d . .
H13 H 0.5122 0.3983 0.3094 0.064 Uiso 1 1 calc R U
C14 C 0.5488(2) 0.58313(18) 0.35490(16) 0.0542(4) Uani 1 1 d . .
H14 H 0.4482 0.6213 0.4138 0.065 Uiso 1 1 calc R U
C15 C 0.6593(2) 0.65985(17) 0.32991(15) 0.0485(4) Uani 1 1 d . .
H15 H 0.6317 0.7502 0.3714 0.058 Uiso 1 1 calc R U
C16 C 0.82368(19) 0.89884(17) 0.07966(13) 0.0413(3) Uani 1 1 d . .
C17 C 0.68791(19) 1.04618(16) 0.06208(12) 0.0381(3) Uani 1 1 d . .
C18 C 0.7184(2) 1.1259(2) -0.04059(13) 0.0516(4) Uani 1 1 d . .
H18 H 0.8227 1.0873 -0.0960 0.062 Uiso 1 1 calc R U
C19 C 0.5943(3) 1.2617(2) -0.06005(17) 0.0657(5) Uani 1 1 d . .
H19 H 0.6163 1.3150 -0.1280 0.079 Uiso 1 1 calc R U
C20 C 0.4392(3) 1.3190(2) 0.01963(18) 0.0662(5) Uani 1 1 d . .
H20 H 0.3566 1.4111 0.0061 0.079 Uiso 1 1 calc R U
C21 C 0.4058(2) 1.2402(2) 0.11930(17) 0.0572(4) Uani 1 1 d . .
H21 H 0.2995 1.2782 0.1726 0.069 Uiso 1 1 calc R U
C22 C 0.52922(19) 1.10472(17) 0.14114(14) 0.0440(4) Uani 1 1 d . .
H22 H 0.5057 1.0524 0.2094 0.053 Uiso 1 1 calc R U
O1 O 0.91489(16) 0.81812(14) -0.00803(10) 0.0661(4) Uani 1 1 d . .
S1 S 1.08088(5) 0.63846(4) 0.32512(4) 0.05136(15) Uani 1 1 d . .
loop_
_atom_site_aniso_label
_atom_site_aniso_U_11
_atom_site_aniso_U_22
_atom_site_aniso_U_33
_atom_site_aniso_U_23
_atom_site_aniso_U_13
_atom_site_aniso_U_12
C1 0.0495(9) 0.0396(8) 0.0393(8) -0.0007(6) -0.0082(7) -0.0159(7)
C2 0.0628(10) 0.0633(10) 0.0361(8) -0.0017(7) -0.0071(7) -0.0307(9)
C3 0.0668(11) 0.0700(11) 0.0434(9) 0.0160(8) -0.0210(8) -0.0379(10)
C4 0.0538(9) 0.0500(9) 0.0617(10) 0.0217(8) -0.0275(8) -0.0265(8)
C5 0.0380(7) 0.0376(7) 0.0501(9) 0.0069(6) -0.0140(6) -0.0188(6)
C6 0.0377(8) 0.0338(7) 0.0425(8) -0.0088(6) -0.0024(6) -0.0072(6)
C7 0.0349(7) 0.0337(7) 0.0391(8) -0.0031(6) -0.0037(6) -0.0123(6)
C8 0.0389(7) 0.0287(7) 0.0382(7) 0.0013(5) -0.0076(6) -0.0104(6)
C9 0.0388(7) 0.0337(7) 0.0380(7) 0.0026(6) -0.0084(6) -0.0166(6)
C10 0.0395(7) 0.0275(7) 0.0410(8) -0.0024(6) -0.0120(6) -0.0066(6)
C11 0.0508(9) 0.0307(7) 0.0393(8) -0.0028(6) -0.0151(6) -0.0069(6)
C12 0.0700(11) 0.0317(7) 0.0538(10) -0.0007(7) -0.0272(8) -0.0175(7)
C13 0.0599(10) 0.0440(9) 0.0680(11) 0.0087(8) -0.0262(9) -0.0278(8)
C14 0.0469(9) 0.0493(9) 0.0652(11) -0.0059(8) -0.0046(8) -0.0192(8)
C15 0.0462(9) 0.0359(8) 0.0601(10) -0.0138(7) -0.0039(7) -0.0136(7)
C16 0.0435(8) 0.0467(8) 0.0362(8) -0.0074(6) -0.0035(6) -0.0212(7)
C17 0.0466(8) 0.0442(8) 0.0327(7) 0.0007(6) -0.0124(6) -0.0248(7)
C18 0.0672(11) 0.0684(11) 0.0319(8) 0.0023(7) -0.0104(7) -0.0395(9)
C19 0.1025(16) 0.0667(12) 0.0492(10) 0.0261(9) -0.0368(11) -0.0470(12)
C20 0.0777(13) 0.0580(11) 0.0713(12) 0.0190(9) -0.0413(11) -0.0232(10)
C21 0.0478(9) 0.0580(10) 0.0664(11) 0.0077(9) -0.0211(8) -0.0160(8)
C22 0.0452(8) 0.0494(9) 0.0427(8) 0.0089(7) -0.0118(7) -0.0230(7)
O1 0.0696(8) 0.0699(8) 0.0418(7) -0.0204(6) -0.0021(6) -0.0093(7)
S1 0.0368(2) 0.0379(2) 0.0736(3) -0.00512(18) -0.01725(19) -0.00357(16)
loop_
_atom_type_symbol
_atom_type_description
_atom_type_scat_dispersion_real
_atom_type_scat_dispersion_imag
_atom_type_scat_source
C C 0.0033 0.0016 'International Tables Vol C Tables 4.2.6.8 and 6.1.1.4'
H H 0.0000 0.0000 'International Tables Vol C Tables 4.2.6.8 and 6.1.1.4'
O O 0.0106 0.0060 'International Tables Vol C Tables 4.2.6.8 and 6.1.1.4'
S S 0.1246 0.1234 'International Tables Vol C Tables 4.2.6.8 and 6.1.1.4'
loop_
_geom_angle_atom_site_label_1
_geom_angle_atom_site_label_2
_geom_angle_atom_site_label_3
_geom_angle
C2 C1 C9 121.48(14)
C2 C1 H1 119.3
C9 C1 H1 119.3
C3 C2 C1 119.51(15)
C3 C2 H2 120.2
C1 C2 H2 120.2
C2 C3 C4 120.50(15)
C2 C3 H3 119.7
C4 C3 H3 119.7
C3 C4 C5 120.29(15)
C3 C4 H4 119.9
C5 C4 H4 119.9
C4 C5 C9 119.84(14)
C4 C5 S1 119.37(12)
C9 C5 S1 120.53(11)
C10 C6 C7 113.41(11)
C10 C6 S1 111.95(10)
C7 C6 S1 111.98(10)
C10 C6 H6 106.3
C7 C6 H6 106.3
S1 C6 H6 106.3
C8 C7 C16 122.06(12)
C8 C7 C6 122.44(13)
C16 C7 C6 115.47(12)
C7 C8 C9 125.74(13)
C7 C8 H8 117.1
C9 C8 H8 117.1
C1 C9 C5 118.36(13)
C1 C9 C8 119.94(12)
C5 C9 C8 121.68(12)
C15 C10 C11 118.32(14)
C15 C10 C6 122.05(12)
C11 C10 C6 119.61(13)
C12 C11 C10 120.81(14)
C12 C11 H11 119.6
C10 C11 H11 119.6
C13 C12 C11 120.32(14)
C13 C12 H12 119.8
C11 C12 H12 119.8
C12 C13 C14 119.53(15)
C12 C13 H13 120.2
C14 C13 H13 120.2
C15 C14 C13 120.25(16)
C15 C14 H14 119.9
C13 C14 H14 119.9
C14 C15 C10 120.76(14)
C14 C15 H15 119.6
C10 C15 H15 119.6
O1 C16 C17 119.78(13)
O1 C16 C7 119.62(14)
C17 C16 C7 120.58(12)
C22 C17 C18 118.47(14)
C22 C17 C16 122.64(13)
C18 C17 C16 118.83(14)
C19 C18 C17 120.15(16)
C19 C18 H18 119.9
C17 C18 H18 119.9
C20 C19 C18 120.67(16)
C20 C19 H19 119.7
C18 C19 H19 119.7
C19 C20 C21 119.83(17)
C19 C20 H20 120.1
C21 C20 H20 120.1
C20 C21 C22 120.38(17)
C20 C21 H21 119.8
C22 C21 H21 119.8
C21 C22 C17 120.47(15)
C21 C22 H22 119.8
C17 C22 H22 119.8
C5 S1 C6 101.80(6)
loop_
_geom_bond_atom_site_label_1
_geom_bond_atom_site_label_2
_geom_bond_distance
C1 C2 1.378(2)
C1 C9 1.3937(19)
C1 H1 0.9300
C2 C3 1.378(2)
C2 H2 0.9300
C3 C4 1.379(2)
C3 H3 0.9300
C4 C5 1.391(2)
C4 H4 0.9300
C5 C9 1.402(2)
C5 S1 1.7556(15)
C6 C10 1.513(2)
C6 C7 1.5131(19)
C6 S1 1.8260(15)
C6 H6 0.9800
C7 C8 1.3391(19)
C7 C16 1.492(2)
C8 C9 1.4504(19)
C8 H8 0.9300
C10 C15 1.387(2)
C10 C11 1.3869(18)
C11 C12 1.380(2)
C11 H11 0.9300
C12 C13 1.372(2)
C12 H12 0.9300
C13 C14 1.381(2)
C13 H13 0.9300
C14 C15 1.379(2)
C14 H14 0.9300
C15 H15 0.9300
C16 O1 1.2192(17)
C16 C17 1.489(2)
C17 C22 1.387(2)
C17 C18 1.395(2)
C18 C19 1.378(3)
C18 H18 0.9300
C19 C20 1.368(3)
C19 H19 0.9300
C20 C21 1.370(3)
C20 H20 0.9300
C21 C22 1.381(2)
C21 H21 0.9300
C22 H22 0.9300
loop_
_geom_torsion_atom_site_label_1
_geom_torsion_atom_site_label_2
_geom_torsion_atom_site_label_3
_geom_torsion_atom_site_label_4
_geom_torsion
C9 C1 C2 C3 -0.1(2)
C1 C2 C3 C4 -0.4(2)
C2 C3 C4 C5 0.7(2)
C3 C4 C5 C9 -0.5(2)
C3 C4 C5 S1 173.72(12)
C10 C6 C7 C8 95.07(16)
S1 C6 C7 C8 -32.81(17)
C10 C6 C7 C16 -87.08(15)
S1 C6 C7 C16 145.04(10)
C16 C7 C8 C9 -176.46(13)
C6 C7 C8 C9 1.3(2)
C2 C1 C9 C5 0.3(2)
C2 C1 C9 C8 -177.88(14)
C4 C5 C9 C1 0.0(2)
S1 C5 C9 C1 -174.16(11)
C4 C5 C9 C8 178.16(13)
S1 C5 C9 C8 4.02(18)
C7 C8 C9 C1 -165.81(14)
C7 C8 C9 C5 16.0(2)
C7 C6 C10 C15 -45.81(19)
S1 C6 C10 C15 82.09(15)
C7 C6 C10 C11 135.23(13)
S1 C6 C10 C11 -96.88(13)
C15 C10 C11 C12 -0.2(2)
C6 C10 C11 C12 178.83(13)
C10 C11 C12 C13 -0.5(2)
C11 C12 C13 C14 0.5(2)
C12 C13 C14 C15 0.2(3)
C13 C14 C15 C10 -0.9(3)
C11 C10 C15 C14 0.9(2)
C6 C10 C15 C14 -178.11(15)
C8 C7 C16 O1 153.48(15)
C6 C7 C16 O1 -24.4(2)
C8 C7 C16 C17 -25.1(2)
C6 C7 C16 C17 157.09(12)
O1 C16 C17 C22 144.12(15)
C7 C16 C17 C22 -37.4(2)
O1 C16 C17 C18 -33.2(2)
C7 C16 C17 C18 145.35(13)
C22 C17 C18 C19 1.8(2)
C16 C17 C18 C19 179.22(14)
C17 C18 C19 C20 -1.0(3)
C18 C19 C20 C21 -0.6(3)
C19 C20 C21 C22 1.3(3)
C20 C21 C22 C17 -0.5(2)
C18 C17 C22 C21 -1.1(2)
C16 C17 C22 C21 -178.39(14)
C4 C5 S1 C6 155.57(12)
C9 C5 S1 C6 -30.26(13)
C10 C6 S1 C5 -86.33(10)
C7 C6 S1 C5 42.32(11)
