#------------------------------------------------------------------------------
#$Date: 2017-03-04 09:46:49 +0200 (Sat, 04 Mar 2017) $
#$Revision: 193216 $
#$URL: file:///home/coder/svn-repositories/cod/cif/4/03/22/4032214.cif $
#------------------------------------------------------------------------------
#
# This file is available in the Crystallography Open Database (COD),
# http://www.crystallography.net/
#
# All data on this site have been placed in the public domain by the
# contributors.
#
data_4032214
loop_
_publ_author_name
'Ru\<cil, Tom\'a\<s'
'Tr\'avn\'i\<cek, Zden\<ek'
'Canka\<r, Petr'
_publ_section_title
;
 Ring-Opening Reactions of the N-4-Nosyl Hough-Richardson Aziridine with
 Nitrogen Nucleophiles.
;
_journal_issue                   1
_journal_name_full               'The Journal of organic chemistry'
_journal_page_first              723
_journal_page_last               730
_journal_paper_doi               10.1021/acs.joc.6b01942
_journal_volume                  82
_journal_year                    2017
_chemical_absolute_configuration unk
_chemical_formula_sum            'C20 H21 N5 O8 S'
_chemical_formula_weight         491.48
_space_group_crystal_system      triclinic
_space_group_IT_number           1
_space_group_name_Hall           'P 1'
_space_group_name_H-M_alt        'P 1'
_symmetry_space_group_name_Hall  'P 1'
_symmetry_space_group_name_H-M   'P 1'
_atom_sites_solution_hydrogens   geom
_audit_creation_method           SHELXL-2014/7
_cell_angle_alpha                88.489(4)
_cell_angle_beta                 87.470(4)
_cell_angle_gamma                86.454(4)
_cell_formula_units_Z            1
_cell_length_a                   6.0519(3)
_cell_length_b                   7.6610(4)
_cell_length_c                   11.9361(6)
_cell_measurement_reflns_used    3673
_cell_measurement_temperature    120(2)
_cell_measurement_theta_max      24.74
_cell_measurement_theta_min      2.66
_cell_volume                     551.65(5)
_computing_cell_refinement       'APEX3 (Bruker); SAINT (Bruker, 2015)'
_computing_data_collection       'Bruker APEX3'
_computing_data_reduction        'SAINT (Bruker, 2015)'
_computing_molecular_graphics    'Bruker SHELXTL'
_computing_publication_material  'Bruker SHELXTL'
_computing_structure_refinement  'SHELXL-2014/7 (Sheldrick, 2014)'
_diffrn_ambient_temperature      120(2)
_diffrn_measured_fraction_theta_full 0.994
_diffrn_measured_fraction_theta_max 0.994
_diffrn_measurement_device_type  'Bruker APEX-II CCD'
_diffrn_measurement_method       '\f and \w scans'
_diffrn_radiation_type           MoK\a
_diffrn_radiation_wavelength     0.71073
_diffrn_reflns_av_R_equivalents  0.0450
_diffrn_reflns_av_unetI/netI     0.0503
_diffrn_reflns_Laue_measured_fraction_full 0.994
_diffrn_reflns_Laue_measured_fraction_max 0.994
_diffrn_reflns_limit_h_max       7
_diffrn_reflns_limit_h_min       -7
_diffrn_reflns_limit_k_max       9
_diffrn_reflns_limit_k_min       -9
_diffrn_reflns_limit_l_max       14
_diffrn_reflns_limit_l_min       -14
_diffrn_reflns_number            10403
_diffrn_reflns_point_group_measured_fraction_full 0.959
_diffrn_reflns_point_group_measured_fraction_max 0.959
_diffrn_reflns_theta_full        25.105
_diffrn_reflns_theta_max         25.105
_diffrn_reflns_theta_min         2.665
_exptl_absorpt_coefficient_mu    0.205
_exptl_absorpt_correction_type   multi-scan
_exptl_absorpt_process_details
'Sheldrick, G. M. (2014) SADABS. Bruker AXS Inc., Madison, Wisconsin, USA.'
_exptl_crystal_colour            colourless
_exptl_crystal_density_diffrn    1.479
_exptl_crystal_description       prism
_exptl_crystal_F_000             256
_exptl_crystal_size_max          0.200
_exptl_crystal_size_mid          0.180
_exptl_crystal_size_min          0.160
_exptl_transmission_factor_max   0.969
_exptl_transmission_factor_min   0.961
_refine_diff_density_max         0.774
_refine_diff_density_min         -0.705
_refine_diff_density_rms         0.065
_refine_ls_abs_structure_details
;
 Flack x determined using 1363 quotients [(I+)-(I-)]/[(I+)+(I-)]
 (Parsons, Flack and Wagner, Acta Cryst. B69 (2013) 249-259).
;
_refine_ls_abs_structure_Flack   0.08(4)
_refine_ls_extinction_method     none
_refine_ls_goodness_of_fit_ref   1.053
_refine_ls_hydrogen_treatment    constr
_refine_ls_matrix_type           full
_refine_ls_number_parameters     302
_refine_ls_number_reflns         3769
_refine_ls_number_restraints     3
_refine_ls_restrained_S_all      1.053
_refine_ls_R_factor_all          0.0571
_refine_ls_R_factor_gt           0.0462
_refine_ls_shift/su_max          0.000
_refine_ls_shift/su_mean         0.000
_refine_ls_structure_factor_coef Fsqd
_refine_ls_weighting_details
'w=1/[\s^2^(Fo^2^)+(0.0452P)^2^+0.4754P] where P=(Fo^2^+2Fc^2^)/3'
_refine_ls_weighting_scheme      calc
_refine_ls_wR_factor_gt          0.0996
_refine_ls_wR_factor_ref         0.1047
_reflns_Friedel_coverage         0.929
_reflns_Friedel_fraction_full    0.924
_reflns_Friedel_fraction_max     0.924
_reflns_number_gt                3301
_reflns_number_total             3769
_reflns_threshold_expression     'I > 2\s(I)'
_cod_data_source_file            jo6b01942_si_002.cif
_cod_data_source_block           p
_cod_database_code               4032214
_shelx_shelxl_version_number     2014/7
_shelx_space_group_comment
;
The symmetry employed for this shelxl refinement is uniquely defined
by the following loop, which should always be used as a source of
symmetry information in preference to the above space-group names.
They are only intended as comments.
;
_shelx_estimated_absorpt_t_min   0.960
_shelx_estimated_absorpt_t_max   0.968
_shelx_res_file
;

    p.res created by SHELXL-2014/7


TITL scan_0m_P1 in P1
CELL 0.71073 6.0519 7.6610 11.9361 88.489 87.470 86.454
ZERR 1.00 0.0003 0.0004 0.0006 0.004 0.004 0.004
LATT -1
SFAC C H N O S
UNIT 20 21 5 8 1
TEMP -153.140
SIZE 0.160 0.180 0.200
ACTA
L.S. 40
FMAP 2
MERG
LIST
PLAN 20
HTAB
BOND $H

REM Instructions for potential hydrogen bonds
EQIV $1 x-1, y, z
HTAB C3 O16_$1
EQIV $2 x+1, y, z
HTAB C9 O7_$2
EQIV $3 x, y+1, z
HTAB C6 O15_$3
EQIV $4 x, y-1, z
HTAB C22 O26_$4

HTAB C3 O16_$1
HTAB C9 O7_$2
HTAB C6 O15_$3
HTAB C22 O26_$4

EADP o25 O24

WGHT    0.045200    0.475400
FVAR       1.16465
S14   5    1.084801    0.157228    0.712540    11.00000    0.00979    0.01126 =
         0.01402   -0.00141   -0.00130    0.00126
O8    4    1.007556    0.524825    0.952624    11.00000    0.01160    0.01936 =
         0.01901   -0.00259   -0.00124   -0.00042
O7    4    0.650839    0.652041    0.932726    11.00000    0.01291    0.01274 =
         0.01346   -0.00068   -0.00042    0.00194
C4    1    0.592291    0.493191    0.764927    11.00000    0.01360    0.01309 =
         0.01638   -0.00107   -0.00173   -0.00220
AFIX  13
H4    2    0.434555    0.481112    0.791022    11.00000   -1.20000
AFIX   0
C3    1    0.727887    0.333206    0.805429    11.00000    0.00813    0.01324 =
         0.01795   -0.00215   -0.00092   -0.00332
AFIX  13
H3    2    0.660900    0.225865    0.779755    11.00000   -1.20000
AFIX   0
C2    1    0.718634    0.332809    0.935155    11.00000    0.01309    0.01539 =
         0.01577    0.00447    0.00016    0.00100
AFIX  13
H2    2    0.819926    0.236402    0.965279    11.00000   -1.20000
AFIX   0
C1    1    0.779204    0.510439    0.978762    11.00000    0.01283    0.01790 =
         0.00839   -0.00096    0.00225   -0.00038
AFIX  13
H1    2    0.754754    0.509699    1.062175    11.00000   -1.20000
AFIX   0
C9    1    1.093579    0.671077    1.005886    11.00000    0.01631    0.02610 =
         0.02251   -0.01131   -0.00309   -0.00258
AFIX 137
H9C   2    1.036096    0.780257    0.970197    11.00000   -1.50000
H9B   2    1.255748    0.662965    0.998111    11.00000   -1.50000
H9A   2    1.047494    0.669640    1.085636    11.00000   -1.50000
AFIX   0
C5    1    0.669384    0.659643    0.812408    11.00000    0.01332    0.01313 =
         0.01310    0.00265    0.00124   -0.00105
AFIX  13
H5    2    0.826633    0.675625    0.786932    11.00000   -1.20000
AFIX   0
C6    1    0.522159    0.811859    0.771080    11.00000    0.01632    0.01196 =
         0.01368    0.00086    0.00058    0.00014
AFIX  23
H6B   2    0.367719    0.800338    0.799924    11.00000   -1.20000
H6A   2    0.573748    0.923199    0.797474    11.00000   -1.20000
AFIX   0
C32   1    0.516466    0.720075    0.251399    11.00000    0.05224    0.02800 =
         0.01693   -0.00151   -0.00289    0.00812
AFIX  43
H32   2    0.529163    0.739678    0.172519    11.00000   -1.20000
AFIX   0
C31   1    0.691931    0.637972    0.307756    11.00000    0.03556    0.03573 =
         0.02324    0.00103    0.00360    0.00526
AFIX  43
H31   2    0.824104    0.599468    0.267461    11.00000   -1.20000
AFIX   0
C30   1    0.672694    0.612659    0.423226    11.00000    0.02367    0.03021 =
         0.01680    0.00247   -0.00338    0.00565
AFIX  43
H30   2    0.792737    0.556474    0.461542    11.00000   -1.20000
AFIX   0
C29   1    0.482558    0.667575    0.483291    11.00000    0.02548    0.00951 =
         0.01920   -0.00311   -0.00293    0.00065
C27   1    0.462952    0.651718    0.608924    11.00000    0.01400    0.01036 =
         0.01614    0.00152   -0.00387    0.00254
AFIX  13
H27   2    0.305476    0.635791    0.633998    11.00000   -1.20000
AFIX   0
C17   1    1.034523    0.170384    0.566632    11.00000    0.02130    0.00988 =
         0.01377   -0.00221   -0.00136   -0.00010
C18   1    1.181311    0.253104    0.495518    11.00000    0.01952    0.01936 =
         0.01506   -0.00170   -0.00016   -0.00176
AFIX  43
H18   2    1.306834    0.302327    0.524289    11.00000   -1.20000
AFIX   0
C19   1    1.145784    0.264394    0.382356    11.00000    0.02577    0.01840 =
         0.02664    0.00142    0.00295    0.00141
AFIX  43
H19   2    1.243777    0.323684    0.332317    11.00000   -1.20000
AFIX   0
C20   1    0.965028    0.187827    0.343299    11.00000    0.03324    0.02010 =
         0.01306   -0.00171   -0.00300    0.00517
C33   1    0.324893    0.772680    0.310141    11.00000    0.04894    0.03015 =
         0.02352   -0.00277   -0.01561    0.01619
AFIX  43
H33   2    0.203913    0.826653    0.271462    11.00000   -1.20000
AFIX   0
C34   1    0.306709    0.747504    0.425875    11.00000    0.02576    0.03017 =
         0.02078   -0.00714   -0.00647    0.01024
AFIX  43
H34   2    0.173823    0.784971    0.465934    11.00000   -1.20000
AFIX   0
C22   1    0.849974    0.094385    0.528011    11.00000    0.01769    0.01928 =
         0.01753    0.00098   -0.00392   -0.00173
AFIX  43
H22   2    0.750226    0.038021    0.578652    11.00000   -1.20000
AFIX   0
C21   1    0.815363    0.102874    0.414372    11.00000    0.02766    0.02585 =
         0.02267   -0.00102   -0.00942   -0.00729
AFIX  43
H21   2    0.691637    0.051668    0.385184    11.00000   -1.20000
AFIX   0
O28   4    0.600873    0.506795    0.645913    11.00000    0.01779    0.01469 =
         0.01063   -0.00093   -0.00337    0.00241
O25   4    1.044153    0.286609    0.162399    11.00000    0.08349    0.07585 =
         0.02513    0.01429   -0.01574   -0.03129
O16   4    1.315763    0.177366    0.724370    11.00000    0.01247    0.01564 =
         0.02127   -0.00442   -0.00426    0.00358
O26   4    0.533021    0.810215    0.650410    11.00000    0.02158    0.01330 =
         0.01493    0.00084   -0.00280   -0.00052
O15   4    0.983728    0.003897    0.757368    11.00000    0.01981    0.01157 =
         0.01762    0.00203   -0.00132   -0.00134
O24   4    0.779903    0.117619    0.188231    11.00000    0.08349    0.07585 =
         0.02513    0.01429   -0.01574   -0.03129
N13   3    0.958632    0.332361    0.763840    11.00000    0.01329    0.00438 =
         0.02025   -0.00384    0.00052   -0.00201
AFIX  43
H13   2    1.030440    0.428480    0.766656    11.00000   -1.20000
AFIX   0
N23   3    0.927144    0.199044    0.222764    11.00000    0.05124    0.03564 =
         0.02864   -0.00236   -0.01479   -0.00671
N10   3    0.490156    0.314483    0.980041    11.00000    0.01709    0.01619 =
         0.02479    0.00538    0.00466   -0.00189
N11   3    0.437924    0.162815    0.999323    11.00000    0.01626    0.02381 =
         0.01778   -0.00335    0.00352   -0.00193
N12   3    0.366516    0.033231    1.020978    11.00000    0.03968    0.02451 =
         0.04822   -0.00234    0.00871   -0.01508

HKLF 4 1 1 0 0 0 1 0 0 0 1

REM  scan_0m_P1 in P1
REM R1 =  0.0462 for    3301 Fo > 4sig(Fo)  and  0.0571 for all    3769 data
REM    302 parameters refined using      3 restraints

END

WGHT      0.0455      0.4733

REM Instructions for potential hydrogen bonds
HTAB C3 O16_$1
HTAB C9 O7_$2
HTAB C6 O15_$3
HTAB C22 O26_$4

REM Highest difference peak  0.774,  deepest hole -0.705,  1-sigma level  0.065
Q1    1   0.6754  0.1782  0.2047  11.00000  0.05    0.47
Q2    1   1.0468  0.3852  0.8167  11.00000  0.05    0.43
Q3    1   0.8762  0.0630  0.1737  11.00000  0.05    0.32
Q4    1   1.1603  0.0621  0.2765  11.00000  0.05    0.28
Q5    1   0.7141  0.8148  1.0368  11.00000  0.05    0.27
Q6    1   0.5108  0.1503  0.2406  11.00000  0.05    0.24
Q7    1   0.1151  1.0099  0.2621  11.00000  0.05    0.24
Q8    1   0.7079 -0.0333  0.5872  11.00000  0.05    0.23
Q9    1   1.3330  0.2556  0.2979  11.00000  0.05    0.21
Q10   1   0.5346  0.0907  0.5931  11.00000  0.05    0.20
Q11   1   1.0951  0.6572  0.8049  11.00000  0.05    0.20
Q12   1   1.1693  0.4467  0.8745  11.00000  0.05    0.20
Q13   1   1.4178  0.1654  0.3515  11.00000  0.05    0.19
Q14   1   0.7935  0.7769  0.6569  11.00000  0.05    0.19
Q15   1   0.5337  0.6035  0.4479  11.00000  0.05    0.19
Q16   1   0.6937  0.5259  0.4802  11.00000  0.05    0.19
Q17   1   0.4155  0.5331  0.7871  11.00000  0.05    0.19
Q18   1   0.4340  0.0263  0.5396  11.00000  0.05    0.19
Q19   1   0.3629  1.0543  0.2612  11.00000  0.05    0.18
Q20   1   0.9660  0.0182  0.9256  11.00000  0.05    0.18
;
_shelx_res_checksum              970
_shelx_hkl_file
;
  -1   0   0  541.61   10.45
  -1   0   0  554.16   10.21
   1   0   0  525.54   11.17
   1   0   0  545.07   10.32
   1   0   0  532.48   10.20
   1   0   0  562.08   11.59
  -2   0   0 1150.29   21.88
  -2   0   0 1141.03   21.07
   2   0   0 1166.94   21.80
   2   0   0 1188.38   21.72
   2   0   0 1133.35   23.30
   2   0   0 1167.16   23.85
  -3   0   0  633.99   16.40
  -3   0   0  625.29   17.32
   3   0   0  621.75   19.37
   3   0   0  653.67   17.12
   3   0   0  629.58   16.79
   3   0   0  646.72   19.15
  -4   0   0  192.02   11.99
  -4   0   0  178.44   10.26
   4   0   0  180.24   10.86
   4   0   0  190.22   11.81
   4   0   0  178.68   13.07
   4   0   0  186.98   14.42
  -5   0   0  109.68   11.10
  -5   0   0   97.91   11.38
   5   0   0  128.60   15.00
   5   0   0  109.63   14.16
   5   0   0   93.70   10.62
   5   0   0  126.27   12.76
  -6   0   0   79.51   13.04
  -6   0   0   75.31   11.71
   6   0   0   71.79   14.24
   6   0   0   72.83   15.57
  -7   0   0   43.43   13.49
   7   0   0    2.73   17.12
   7   0   0    9.60   16.48
   7   0   0   24.25   14.51
   7   0   0   35.16   18.44
   7  -1   0   62.76   17.12
   7  -1   0   42.00   25.02
   7  -1   0   33.85   19.63
   7  -1   0   33.54   13.26
  -7   1   0   59.59   17.08
  -7   1   0   65.93   16.49
   6  -1   0  157.46   18.57
   6  -1   0  189.82   15.99
   6  -1   0  168.68   19.59
   6  -1   0  203.12   22.59
  -6   1   0  188.19   18.90
  -6   1   0  162.97   18.99
   5  -1   0   58.39   11.04
   5  -1   0   56.57   11.66
   5  -1   0   69.61    9.27
  -5   1   0   45.50    9.30
  -5   1   0   68.23   10.11
   4  -1   0  132.52   11.83
   4  -1   0  127.69   12.34
   4  -1   0  113.97   13.48
   4  -1   0  132.81    9.64
  -4   1   0  123.47   10.93
  -4   1   0  113.03   10.13
   3  -1   0   71.23    6.26
   3  -1   0   81.39    8.52
   3  -1   0   94.08    9.40
   3  -1   0   80.49    7.79
  -3   1   0   85.62    7.68
  -3   1   0   79.35    7.63
   2  -1   0 1093.79   22.78
   2  -1   0 1084.27   23.11
   2  -1   0 1050.38   19.71
  -2   1   0 1096.37   20.49
  -2   1   0 1050.50   22.54
  -2   1   0 1082.43   23.38
   1  -1   0 2682.17   39.63
   1  -1   0 2615.57   37.83
   1  -1   0 2600.48   40.64
  -1   1   0 2672.79   39.81
  -1   1   0 2646.11   40.84
  -1   1   0 2606.09   38.07
   0  -1   0 1006.09   15.15
   0  -1   0 1041.30   16.66
   0  -1   0 1074.37   17.16
   0   1   0 1024.42   16.64
   0   1   0 1045.61   15.25
  -1  -1   0 8283.39  113.08
  -1  -1   0 8390.26  114.81
   1   1   0 8685.56  115.11
  -2  -1   0 1088.05   22.66
  -2  -1   0 1105.75   18.43
  -2  -1   0 1123.40   22.87
   2   1   0 1125.82   22.75
   2   1   0 1117.94   19.00
   2   1   0 1139.25   23.14
  -3  -1   0  756.64   19.94
  -3  -1   0  717.97   15.44
   3   1   0  716.01   16.34
   3   1   0  687.87   20.12
   3   1   0  706.81   20.22
   3   1   0  705.08   19.31
  -4  -1   0  103.79   10.99
  -4  -1   0  113.00    7.73
   4   1   0  115.69   12.25
   4   1   0  107.61   10.19
   4   1   0  110.82    9.07
   4   1   0  139.56   12.20
  -5  -1   0    8.05    5.11
  -5  -1   0   -0.09    7.91
   5   1   0    1.86    8.39
   5   1   0    1.84    6.79
   5   1   0   -1.46    6.17
   5   1   0  -10.72    7.84
  -6  -1   0   28.23    8.33
  -6  -1   0   20.37   12.24
   6   1   0   29.36   12.18
   6   1   0   39.29   13.51
   6   1   0   52.09   11.59
  -7  -1   0   57.25   17.73
   7   1   0   49.67   16.05
   7   1   0   43.57   13.39
   7   1   0   39.08   19.81
   7   1   0   59.96   19.28
   6  -2   0  121.64   17.36
   6  -2   0  128.11   14.80
   6  -2   0  110.90   19.13
   6  -2   0   76.75   15.93
  -6   2   0  105.58   16.37
  -6   2   0  105.35   14.81
   5  -2   0 1697.14   43.83
   5  -2   0 1795.51   44.78
   5  -2   0 1700.86   35.25
   5  -2   0 1649.84   45.47
  -5   2   0 1694.36   38.45
  -5   2   0 1701.02   42.41
   4  -2   0  253.36   11.50
   4  -2   0  261.01   17.58
   4  -2   0  243.04   15.35
  -4   2   0  254.13   13.62
  -4   2   0  231.74   15.62
   3  -2   0  760.75   17.99
   3  -2   0  773.57   23.05
   3  -2   0  799.75   22.40
  -3   2   0  783.97   22.94
  -3   2   0  778.14   23.25
  -3   2   0  773.75   19.53
   2  -2   0   28.12    4.44
   2  -2   0   27.54    3.65
  -2   2   0   28.69    5.07
  -2   2   0   39.16    6.03
  -2   2   0   31.16    4.33
   1  -2   0 1631.11   27.15
   1  -2   0 1609.65   30.55
   1  -2   0 1586.16   27.02
  -1   2   0 1620.08   30.69
  -1   2   0 1619.76   27.45
  -1   2   0 1641.31   27.78
   0  -2   0 6362.26   87.44
   0  -2   0 6562.75   91.57
   0  -2   0 6526.93   90.97
   0   2   0 6555.07   90.90
   0   2   0 6635.78   92.01
   0   2   0 6583.17   87.77
  -1  -2   0  583.72   12.21
  -1  -2   0  595.34   12.04
   1   2   0  597.36   12.02
   1   2   0  587.37   14.38
   1   2   0  578.43   15.27
   1   2   0  577.15   12.26
  -2  -2   0  246.41    9.56
  -2  -2   0  234.69   10.82
   2   2   0  264.11    9.57
   2   2   0  241.42    6.63
   2   2   0  243.44   10.85
  -3  -2   0   87.87    8.23
  -3  -2   0   80.31    9.10
   3   2   0   75.46    8.37
   3   2   0   75.75    4.49
   3   2   0   65.46    8.00
   3   2   0   76.65    5.61
  -4  -2   0  223.02   14.55
   4   2   0  232.95   14.61
   4   2   0  219.91   14.26
   4   2   0  225.32   14.57
   4   2   0  226.88    7.95
   4   2   0  228.16   10.20
  -5  -2   0   51.92   10.90
   5   2   0   54.72    7.27
   5   2   0   48.60   10.49
   5   2   0   53.38   10.38
   5   2   0   44.41    5.42
   5   2   0   42.85   10.32
  -6  -2   0   51.74   13.92
   6   2   0   35.24   13.37
   6   2   0   19.55    7.93
   6   2   0    8.55   13.83
   6   2   0   13.48    5.64
   6   2   0   23.99   12.63
  -7  -2   0   82.79   20.53
   7   2   0   59.01   21.16
   7   2   0   98.68   18.15
   7   2   0   94.56   12.55
   7   2   0   54.88   20.95
   7   2   0   87.28    9.43
   6  -3   0  131.53   21.99
   6  -3   0  142.59   15.59
   6  -3   0  161.88   21.06
   6  -3   0  157.37   21.66
  -6   3   0  147.01   16.67
  -6   3   0   99.23   17.82
   5  -3   0   87.80   13.35
   5  -3   0   84.02   14.72
   5  -3   0   42.31   13.30
   5  -3   0   67.81    9.31
  -5   3   0   79.63   14.93
  -5   3   0   70.40   11.79
   4  -3   0 1076.78   25.21
   4  -3   0 1057.18   33.36
   4  -3   0 1111.34   31.37
  -4   3   0 1079.68   27.67
  -4   3   0 1111.44   33.49
  -4   3   0 1070.46   33.04
   3  -3   0  168.35   11.35
   3  -3   0  163.68    9.21
   3  -3   0  181.39   14.38
  -3   3   0  170.60   13.06
  -3   3   0  175.15   13.58
  -3   3   0  179.90   11.06
   2  -3   0  671.64   21.84
   2  -3   0  694.75   17.25
   2  -3   0  683.57   18.11
  -2   3   0  710.44   22.06
  -2   3   0  696.96   19.53
  -2   3   0  719.17   18.34
   1  -3   0   90.40    6.27
   1  -3   0   80.71    8.12
   1  -3   0   82.59    5.35
  -1   3   0   90.73    6.76
  -1   3   0   86.00    6.31
  -1   3   0   79.80    7.66
   0  -3   0   58.65    6.02
   0  -3   0   51.92    3.63
   0  -3   0   58.42    5.19
   0   3   0   60.20    6.20
   0   3   0   63.35    4.43
  -1  -3   0  593.78   14.73
  -1  -3   0  589.17   13.21
   1   3   0  595.75   17.82
   1   3   0  596.07   16.56
   1   3   0  612.01   13.00
   1   3   0  621.93   15.29
  -2  -3   0   59.17    4.74
  -2  -3   0   55.23    5.67
   2   3   0   63.44    5.76
   2   3   0   73.86    7.80
   2   3   0   70.00    8.32
   2   3   0   58.20    4.83
  -3  -3   0  102.03    8.91
  -3  -3   0   92.26   10.97
   3   3   0   88.01    6.45
   3   3   0  102.67    5.74
   3   3   0  101.72    8.35
   3   3   0  110.57   11.00
  -4  -3   0  912.50   29.26
  -4  -3   0  839.88   26.33
   4   3   0  850.75   28.19
   4   3   0  884.89   25.64
   4   3   0  864.77   18.83
   4   3   0  884.28   17.62
  -5  -3   0   26.13   13.34
   5   3   0   30.05    6.33
   5   3   0   37.23   10.78
   5   3   0   25.65    4.42
   5   3   0   16.96    9.95
   5   3   0   29.93   10.29
  -6  -3   0  115.61   18.27
   6   3   0  126.46   18.80
   6   3   0  109.07   16.93
   6   3   0  104.86    8.19
   6   3   0   94.60   16.50
   6   3   0  102.68   11.42
   6  -4   0  207.08   17.96
   6  -4   0  110.82   19.54
   6  -4   0  159.32   25.12
   6  -4   0  168.30   25.11
  -6   4   0  182.58   19.60
  -6   4   0  152.78   21.76
   5  -4   0  348.19   23.53
   5  -4   0  382.26   17.93
   5  -4   0  344.25   28.04
   5  -4   0  428.53   28.35
  -5   4   0  378.43   22.35
  -5   4   0  380.76   26.21
   4  -4   0   38.71    7.42
   4  -4   0   30.25   12.81
   4  -4   0   25.65    8.45
  -4   4   0   16.98   10.25
  -4   4   0   25.58   11.86
  -4   4   0   26.45    8.31
   3  -4   0  114.03    9.55
   3  -4   0  115.02   11.07
   3  -4   0   86.96   12.46
  -3   4   0  113.65   14.11
  -3   4   0  108.36   11.38
  -3   4   0   88.18   11.28
   2  -4   0   -1.21    3.87
   2  -4   0    0.49    6.10
   2  -4   0    2.53    3.76
  -2   4   0   -6.98    3.97
  -2   4   0    1.79    4.73
  -2   4   0    1.26    6.45
   1  -4   0  435.31   18.00
   1  -4   0  467.99   15.63
   1  -4   0  447.65   13.09
  -1   4   0  460.84   15.62
  -1   4   0  438.72   17.54
  -1   4   0  473.41   14.26
   0  -4   0    2.23    3.29
   0  -4   0    5.39    2.30
   0  -4   0    4.41    4.30
   0   4   0    2.80    2.66
   0   4   0    4.00    4.15
   0   4   0    7.46    4.08
  -1  -4   0  243.45    8.75
  -1  -4   0  235.80   10.97
   1   4   0  252.12    8.68
   1   4   0  252.52   11.48
   1   4   0  237.38   12.24
   1   4   0  227.26   12.92
  -2  -4   0  261.19   10.77
  -2  -4   0  272.01   10.37
   2   4   0  263.56   15.30
   2   4   0  295.17   14.52
   2   4   0  276.92   10.30
   2   4   0  247.37   10.74
  -3  -4   0  607.98   14.85
  -3  -4   0  602.12   19.37
   3   4   0  618.65   24.12
   3   4   0  609.05   21.97
   3   4   0  573.58   15.45
   3   4   0  608.31   18.14
  -4  -4   0  217.10   15.39
   4   4   0  213.02   10.54
   4   4   0  213.21   14.54
   4   4   0  237.31   19.02
   4   4   0  227.59    9.38
   5   4   0  733.60   16.50
   5   4   0  776.05   27.91
   5   4   0  762.12   29.48
   5   4   0  771.57   17.85
   5   4   0  799.95   33.05
   6   4   0   67.15   15.25
   6   4   0   36.12   16.82
   6   4   0   42.67   14.76
   6   4   0   48.64   15.75
   5  -5   0   81.49   20.97
   5  -5   0   67.97   14.74
   5  -5   0   81.57   18.38
   5  -5   0   72.96   11.73
  -5   5   0   63.60   14.43
  -5   5   0   81.04   18.47
   4  -5   0  150.02   16.16
   4  -5   0  182.49   15.55
   4  -5   0  144.89   20.23
  -4   5   0  171.02   18.76
  -4   5   0  143.42   17.80
  -4   5   0  199.64   22.85
   3  -5   0   32.28   12.41
   3  -5   0   30.54    7.91
   3  -5   0   47.40    8.74
  -3   5   0   55.45   13.18
  -3   5   0   31.27    9.12
  -3   5   0   42.87   10.36
   2  -5   0   98.51   10.99
   2  -5   0  102.64    9.57
  -2   5   0  104.13   11.80
  -2   5   0   83.45    9.94
  -2   5   0  103.83   13.63
   1  -5   0  712.33   18.18
   1  -5   0  696.27   25.14
   1  -5   0  727.84   22.23
  -1   5   0  674.52   19.49
  -1   5   0  718.39   25.59
  -1   5   0  710.02   22.46
   0  -5   0   93.73   10.24
   0  -5   0   94.76    6.79
   0  -5   0  106.95   11.38
   0   5   0   92.93    7.75
   0   5   0   91.35   10.77
   0   5   0   87.53   10.34
  -1  -5   0   50.76    5.93
  -1  -5   0   41.27    7.27
   1   5   0   52.22    5.63
   1   5   0   52.09    9.08
   1   5   0   33.35    8.46
  -2  -5   0  108.63    9.22
  -2  -5   0  123.60    9.22
   2   5   0  112.65   13.18
   2   5   0  109.63   10.10
   2   5   0  119.48    8.29
   2   5   0  128.66   13.73
  -3  -5   0  405.83   13.92
  -3  -5   0  416.55   17.04
   3   5   0  380.65   19.19
   3   5   0  397.44   15.00
   3   5   0  385.15   14.98
  -4  -5   0  277.30   18.05
   4   5   0  254.80   12.15
   4   5   0  245.79   11.81
   4   5   0  263.00   15.82
   4   5   0  243.86   22.00
   4   5   0  214.13   19.26
  -5  -5   0  104.21   14.83
   5   5   0   85.75   18.45
   5   5   0   61.73   12.66
   5   5   0   68.49    8.02
   5   5   0   70.20    7.71
   5   5   0   57.23   13.93
   6   5   0  212.44   25.98
   6   5   0  189.49   22.12
   6   5   0  258.39   26.16
   6   5   0  193.35   22.06
   5  -6   0   88.48   27.62
   5  -6   0  125.67   15.55
   5  -6   0   96.88   18.29
  -5   6   0  173.24   26.35
  -5   6   0   93.88   19.58
   4  -6   0   21.11   15.14
   4  -6   0   34.81   12.11
   4  -6   0   25.54   17.10
  -4   6   0   20.04   14.45
  -4   6   0   69.31   15.11
  -4   6   0   35.12   16.74
   3  -6   0   56.72   10.56
   3  -6   0   53.81   10.66
   3  -6   0   47.86   15.77
  -3   6   0   64.57   12.79
  -3   6   0   26.84   14.06
   2  -6   0  177.25   14.63
   2  -6   0  168.77   19.88
   2  -6   0  170.44   12.65
  -2   6   0  198.81   18.46
  -2   6   0  198.35   15.71
  -2   6   0  191.90   16.56
   1  -6   0  157.05   10.42
   1  -6   0  151.40   14.04
   1  -6   0  165.77   17.54
  -1   6   0  141.01   15.07
  -1   6   0  151.71   12.21
  -1   6   0  132.57   18.05
   0  -6   0 1661.83   40.71
   0  -6   0 1710.70   32.39
   0   6   0 1620.92   41.92
   0   6   0 1610.64   32.65
  -1  -6   0   26.60    5.27
  -1  -6   0   29.18    8.47
   1   6   0   18.82    7.99
   1   6   0   35.51    8.69
   1   6   0    6.59   15.06
   1   6   0   23.64    5.63
  -2  -6   0  883.66   25.14
  -2  -6   0  916.60   23.50
   2   6   0  893.56   30.12
   2   6   0  938.91   22.03
   2   6   0  833.99   32.46
  -3  -6   0  485.79   17.68
  -3  -6   0  493.82   19.94
   3   6   0  497.62   26.98
   3   6   0  492.55   24.87
   3   6   0  485.18   17.46
  -4  -6   0   62.75   11.20
   4   6   0   66.84   14.54
   4   6   0   72.33   17.87
   4   6   0   56.58    9.78
  -5  -6   0   62.94   14.06
   5   6   0   54.41    9.09
   5   6   0   47.20   11.71
   5   6   0   52.05    7.78
   5   6   0   66.72   17.39
   5   6   0   67.41   20.35
   4  -7   0   21.61   13.79
   4  -7   0   36.81   14.51
   4  -7   0   -8.75   22.94
  -4   7   0   34.28   22.19
  -4   7   0   21.08   17.84
  -4   7   0   34.01   17.26
   3  -7   0   -2.97   25.68
   3  -7   0   40.16   12.23
   3  -7   0    8.90    9.51
  -3   7   0   32.35   14.86
  -3   7   0   41.43   13.66
  -3   7   0   27.49   17.51
   2  -7   0    4.57   10.47
   2  -7   0   21.27   14.13
   2  -7   0    2.37    8.13
  -2   7   0   -5.90   10.45
  -2   7   0    2.12   10.07
  -2   7   0   26.36   15.36
   1  -7   0  414.42   25.44
  -1   7   0  426.96   24.37
  -1   7   0  425.49   19.54
  -1   7   0  398.99   26.01
   0  -7   0  113.20   10.37
   0  -7   0  141.79   17.42
   0   7   0  123.83   14.87
   0   7   0  130.25   16.56
   0   7   0  114.22   16.64
   0   7   0  144.20   12.78
  -1  -7   0  336.11   14.84
  -1  -7   0  336.04   20.23
   1   7   0  369.02   22.96
   1   7   0  324.57   23.80
   1   7   0  326.95   14.79
   1   7   0  320.81   26.34
  -2  -7   0  111.35   13.57
  -2  -7   0  114.02   12.43
   2   7   0  121.60   14.48
   2   7   0   99.50   15.09
   2   7   0   87.20    9.53
   2   7   0  111.43   18.25
  -3  -7   0  549.32   22.35
  -3  -7   0  538.09   21.46
   3   7   0  544.26   30.63
   3   7   0  524.65   19.45
   3   7   0  551.52   24.07
   3   7   0  525.97   32.04
  -4  -7   0   24.44    8.63
   4   7   0   31.17   10.03
   4   7   0   58.10   20.03
   4   7   0   34.31   16.14
   4   7   0   23.43   10.87
   3  -8   0  197.59   21.26
   3  -8   0  213.42   22.58
  -3   8   0  241.83   25.43
  -3   8   0  232.29   31.76
  -3   8   0  186.23   22.48
   2  -8   0    6.00    9.57
   2  -8   0   -4.59   18.48
  -2   8   0   54.39   17.19
  -2   8   0  -22.88   18.38
  -2   8   0    9.89   12.82
   1  -8   0  137.46   14.82
   1  -8   0  167.44   21.33
  -1   8   0  138.64   21.48
  -1   8   0  172.88   21.93
  -1   8   0  158.95   21.67
   0  -8   0  267.67   25.87
   0  -8   0  239.92   15.45
   0   8   0  253.94   18.23
   0   8   0  291.38   27.51
   0   8   0  243.28   27.73
   0   8   0  270.20   26.67
  -1  -8   0   43.10   14.19
  -1  -8   0   67.32    9.76
   1   8   0   53.00   18.26
   1   8   0   63.48   10.46
   1   8   0   63.19   16.46
   1   8   0   52.40   16.19
  -2  -8   0  391.93   24.62
  -2  -8   0  353.91   19.28
   2   8   0  346.68   28.10
   2   8   0  390.54   32.96
   2   8   0  376.97   28.33
   2   8   0  343.92   18.10
  -3  -8   0   98.20   13.19
  -3  -8   0   85.60   14.02
   3   8   0   54.66   20.60
   3   8   0   51.46   20.60
   3   8   0  103.74   20.18
   3   8   0   71.00   11.82
   0  -9   0    4.98   10.41
   0  -9   0    8.53   19.79
   0   9   0   55.27   23.10
   0   9   0   44.46   22.64
   0   9   0   26.15   22.18
   0   9   0   34.46   13.82
  -1  -9   0   81.93   12.84
  -1  -9   0   96.79   19.93
   1   9   0  111.48   26.15
   1   9   0  119.27   14.19
   1   9   0   65.87   21.75
   1   9   0  125.36   21.84
   1   9  -1    4.89   11.19
   1   9  -1   50.23   24.99
   1   9  -1   18.88   25.43
   1   9  -1   15.47   20.74
  -1  -9   1   42.36   19.17
  -1  -9   1   30.91   10.57
   0   9  -1    6.79   12.60
   0   9  -1    4.02   19.75
   0   9  -1   22.41   21.69
   0   9  -1   21.17   21.21
   0  -9   1    4.97   19.78
   0  -9   1   12.71    9.40
   3   8  -1   47.78   16.57
   3   8  -1   51.15   19.25
   3   8  -1   53.96   22.07
   3   8  -1   39.78    9.54
  -3  -8   1   37.50   10.70
  -3  -8   1   36.27   14.13
   2   8  -1   53.56   15.15
   2   8  -1   68.80   17.10
   2   8  -1   52.98   21.46
   2   8  -1   29.73    8.16
  -2  -8   1   60.13   13.63
  -2  -8   1   44.01    9.22
   1   8  -1   31.16   15.40
   1   8  -1   19.35   13.90
   1   8  -1   57.72   16.42
   1   8  -1   30.77    8.58
  -1  -8   1   25.76   13.58
  -1  -8   1   20.20    7.33
   0   8  -1  143.36   20.25
   0   8  -1  139.62   14.55
   0   8  -1  164.49   20.85
   0   8  -1  104.76   19.73
   0  -8   1  119.45   18.71
   0  -8   1  155.65   12.38
  -1   8  -1  129.47   18.28
  -1   8  -1   97.15   19.61
  -1   8  -1  102.51   13.73
   1  -8   1  143.50   13.82
   1  -8   1  123.69   17.23
   1  -8   1  151.47   21.64
  -2   8  -1  157.56   24.18
  -2   8  -1  124.61   19.52
  -2   8  -1  132.06   16.85
   2  -8   1  115.01   13.23
   2  -8   1  106.40   17.80
   2  -8   1  122.16   22.99
  -3   8  -1   98.98   18.76
  -3   8  -1   64.14   24.94
   3  -8   1  111.42   18.31
   3  -8   1  134.48   15.37
   4   7  -1   41.65   10.21
   4   7  -1   74.28   18.09
   4   7  -1   77.00   21.26
  -4  -7   1   42.09   10.33
  -4  -7   1   52.82   12.82
   3   7  -1  451.60   28.88
   3   7  -1  416.76   22.48
   3   7  -1  477.16   17.35
   3   7  -1  441.11   31.10
  -3  -7   1  427.47   19.16
  -3  -7   1  440.05   20.86
   2   7  -1  243.15   23.40
   2   7  -1  238.06   12.90
   2   7  -1  261.27   21.54
  -2  -7   1  240.44   13.57
  -2  -7   1  250.05   21.17
   1   7  -1  408.95   25.52
   1   7  -1  466.04   24.96
   1   7  -1  473.53   25.16
   1   7  -1  445.78   15.81
  -1  -7   1  442.70   22.52
  -1  -7   1  451.50   15.35
   0   7  -1    7.67    6.58
   0   7  -1   16.39   11.72
   0   7  -1   22.05   11.30
   0  -7   1   23.64   11.62
   0  -7   1   21.96    5.49
  -1   7  -1  101.29   15.70
  -1   7  -1  143.07   16.88
  -1   7  -1  112.30   11.80
   1  -7   1  139.30   16.20
   1  -7   1  104.59   16.57
  -2   7  -1   84.04   15.13
  -2   7  -1   48.92   12.02
  -2   7  -1   66.42   17.41
   2  -7   1   58.28    9.66
   2  -7   1   58.70   15.72
   2  -7   1   73.02   11.81
  -3   7  -1   16.41   17.47
  -3   7  -1   14.59   12.77
  -3   7  -1   13.63   14.66
   3  -7   1   -9.49   10.89
   3  -7   1  -12.20   18.52
   3  -7   1    9.80    9.84
  -4   7  -1   11.10   18.26
  -4   7  -1   -2.42   20.79
   4  -7   1    0.96   13.46
   4  -7   1    3.87   23.45
   4  -7   1   24.86   15.44
   5   6  -1   19.82    8.91
   5   6  -1   25.16   17.91
   5   6  -1    6.01   14.48
   5   6  -1   23.78   11.29
   5   6  -1   17.69    9.93
   5   6  -1   11.89   13.03
   4   6  -1  157.95   20.81
   4   6  -1  117.35   11.72
   4   6  -1  167.93   18.32
   4   6  -1  130.98   14.03
  -4  -6   1  125.84   13.62
   3   6  -1  157.72   18.95
   3   6  -1  144.97   14.14
   3   6  -1  170.26   11.37
   3   6  -1  173.40   19.60
  -3  -6   1  153.21   12.51
  -3  -6   1  157.33   12.75
   2   6  -1  114.51   14.96
   2   6  -1  106.49   14.48
   2   6  -1  102.17   12.04
   2   6  -1  105.53    8.50
  -2  -6   1  129.24   12.73
  -2  -6   1  103.08    9.52
   1   6  -1   15.87    9.14
   1   6  -1   15.31    4.80
   1   6  -1   10.58    9.00
   1   6  -1    4.90    7.99
  -1  -6   1   16.56    4.26
  -1  -6   1   15.68    8.07
   0   6  -1 1782.43   33.26
   0   6  -1 1740.34   43.34
   0   6  -1 1770.76   42.16
   0  -6   1 1745.10   45.44
   0  -6   1 1746.81   32.02
   0  -6   1 1764.57   42.15
  -1   6  -1   35.92   10.91
  -1   6  -1   49.90    7.92
  -1   6  -1   42.47   10.54
   1  -6   1   52.20   11.82
   1  -6   1   42.36    8.33
   1  -6   1   43.55    6.10
  -2   6  -1   72.51   11.36
  -2   6  -1   68.53   10.59
  -2   6  -1   60.71   13.39
   2  -6   1   51.96   10.72
   2  -6   1   70.02    8.72
   2  -6   1   53.26   13.83
  -3   6  -1   27.42   10.85
  -3   6  -1   21.84   13.69
  -3   6  -1   28.53   12.42
   3  -6   1   12.51   14.21
   3  -6   1    8.17    8.84
  -4   6  -1  122.52   18.20
  -4   6  -1  121.97   19.97
  -4   6  -1   43.67   15.45
   4  -6   1  106.25   14.17
   4  -6   1   56.58   13.25
   4  -6   1   82.49   18.57
  -5   6  -1   20.53   19.87
  -5   6  -1   43.06   18.19
   5  -6   1   46.66   13.28
   5  -6   1   44.88   24.72
   5  -6   1   69.71   21.70
   5  -6   1   14.69   16.12
   6   5  -1   95.07    9.14
   6   5  -1   94.52   18.40
   6   5  -1   89.99   18.44
   6   5  -1   92.78   17.34
   6   5  -1  104.16   23.44
   6   5  -1   92.45   10.90
   5   5  -1   31.60    8.76
   5   5  -1   33.72    7.57
   5   5  -1   52.09   11.65
   5   5  -1   23.54   15.14
   5   5  -1   29.31   12.98
   5   5  -1   44.74   13.08
   4   5  -1  814.03   32.79
   4   5  -1  841.24   23.03
   4   5  -1  936.97   31.18
   4   5  -1  856.98   22.71
   4   5  -1  817.03   24.75
  -4  -5   1  810.84   26.55
   3   5  -1  123.90   10.71
   3   5  -1  136.62    9.99
   3   5  -1  139.25   14.75
   3   5  -1   97.83   18.58
  -3  -5   1  125.65   11.07
  -3  -5   1  137.11   10.28
   2   5  -1   32.05    7.20
   2   5  -1   31.84    4.55
   2   5  -1   33.60    9.25
   2   5  -1   41.14    8.58
  -2  -5   1   29.82    6.62
  -2  -5   1   25.75    4.76
   1   5  -1  211.77   13.94
   1   5  -1  225.62   13.47
   1   5  -1  229.91    8.78
  -1  -5   1  215.88   12.92
  -1  -5   1  211.62    8.65
   0   5  -1    1.97    5.02
   0   5  -1    0.87    6.04
   0   5  -1    2.64    3.41
   0  -5   1   -1.15    2.56
   0  -5   1    2.41    6.47
   0  -5   1    9.93    4.84
  -1   5  -1  640.77   21.75
  -1   5  -1  623.31   17.92
  -1   5  -1  598.64   23.63
   1  -5   1  613.28   16.00
   1  -5   1  637.49   23.72
   1  -5   1  636.41   21.25
  -2   5  -1    9.49    8.35
  -2   5  -1    1.72    5.95
  -2   5  -1   -2.65    7.28
   2  -5   1   -4.08    5.30
   2  -5   1    8.80    4.73
  -3   5  -1    2.66    8.35
  -3   5  -1   -5.90    7.63
  -3   5  -1   -3.89    9.73
   3  -5   1   16.00   11.60
   3  -5   1   -6.24    6.16
   3  -5   1    0.94    6.53
  -4   5  -1   87.48   15.09
  -4   5  -1   86.35   16.43
   4  -5   1  140.88   20.32
   4  -5   1   79.81   11.73
   4  -5   1  114.70   12.44
  -5   5  -1   52.85   18.03
  -5   5  -1   42.17   14.69
   5  -5   1   28.83   18.59
   5  -5   1   50.23   16.91
   5  -5   1   53.99   14.64
   6   4  -1   13.99   15.61
   6   4  -1   -2.09    6.71
   6   4  -1   -6.92   13.51
   6   4  -1   12.62   14.58
   6   4  -1    8.82    8.78
   6   4  -1   -5.24   12.33
   5   4  -1  638.97   19.61
   5   4  -1  637.01   17.70
   5   4  -1  642.92   26.31
   5   4  -1  627.36   25.68
   5   4  -1  643.90   27.26
   5   4  -1  620.35   30.52
   4   4  -1  896.34   22.04
   4   4  -1  916.11   28.30
   4   4  -1  903.70   31.52
   4   4  -1  851.94   20.98
   4   4  -1  892.61   25.35
   3   4  -1  617.92   17.28
   3   4  -1  651.18   18.13
   3   4  -1  673.35   22.50
   3   4  -1  663.72   24.53
  -3  -4   1  613.66   19.13
  -3  -4   1  611.43   16.45
   2   4  -1   24.74    3.87
   2   4  -1   34.52    5.71
   2   4  -1   23.77    6.14
   2   4  -1   20.95    5.99
  -2  -4   1   22.37    4.03
  -2  -4   1   27.30    5.12
   1   4  -1  637.50   19.94
   1   4  -1  688.36   19.29
   1   4  -1  673.25   13.93
  -1  -4   1  669.03   18.62
  -1  -4   1  692.30   20.46
  -1  -4   1  687.18   14.55
   0   4  -1   23.26    6.17
   0   4  -1   20.27    3.59
   0   4  -1   17.53    4.97
   0  -4   1   15.26    5.15
   0  -4   1   19.46    4.87
  -1   4  -1   97.52    7.51
  -1   4  -1  114.22    9.32
   1  -4   1  110.15    6.62
   1  -4   1  127.41    9.03
   1  -4   1  136.84   11.55
  -2   4  -1  154.06   11.12
  -2   4  -1  143.88   12.69
  -2   4  -1  167.36   11.90
   2  -4   1  171.28   10.79
   2  -4   1  172.89   14.43
   2  -4   1  183.45   10.01
  -3   4  -1  191.16   16.86
  -3   4  -1  158.83   13.49
  -3   4  -1  155.63   14.05
   3  -4   1  159.90   12.12
   3  -4   1  167.78   11.24
   3  -4   1  158.53   15.61
  -4   4  -1  103.24   12.27
  -4   4  -1   73.06   13.64
   4  -4   1   69.01   13.94
   4  -4   1   69.68   12.91
   4  -4   1   75.68    9.88
   4  -4   1   85.54   12.67
  -5   4  -1   31.36   13.45
  -5   4  -1   42.08   12.85
   5  -4   1   32.06   14.19
   5  -4   1   41.57   14.83
   5  -4   1   39.85   12.40
   5  -4   1   24.28    8.86
  -6   4  -1   31.45   17.51
  -6   4  -1   10.84   16.52
   6  -4   1   28.39   19.06
   6  -4   1   30.86   16.14
   6  -4   1   -1.91   17.83
   6  -4   1   16.69   11.98
   6   3  -1   87.33   14.94
   6   3  -1  132.35   18.79
   6   3  -1   94.16   10.64
   6   3  -1   81.53   16.30
   6   3  -1   67.52   14.93
   6   3  -1   92.38   11.11
   5   3  -1   89.20   11.91
   5   3  -1   73.55   12.18
   5   3  -1   82.59    9.47
   5   3  -1   68.71   12.60
   5   3  -1   76.11    8.33
   5   3  -1   89.10   13.52
   4   3  -1  968.98   27.24
   4   3  -1  958.46   27.11
   4   3  -1  986.99   30.50
   4   3  -1  978.25   28.28
   4   3  -1  987.18   22.64
   4   3  -1  991.60   21.18
   3   3  -1  136.01    8.41
   3   3  -1  144.94    9.69
   3   3  -1  155.78    7.56
   3   3  -1  132.36   11.37
   3   3  -1  145.13   10.96
  -3  -3   1  143.63    9.73
   2   3  -1   87.84    6.15
   2   3  -1   75.05    5.74
   2   3  -1   80.45    8.32
   2   3  -1   85.89    7.75
  -2  -3   1   76.37    5.92
  -2  -3   1   82.86    6.03
   1   3  -1  116.07    6.90
   1   3  -1  116.62    4.80
   1   3  -1  114.23    8.01
  -1  -3   1  106.69    7.31
  -1  -3   1  112.31    4.91
  -1  -3   1  108.48    6.72
   0   3  -1  527.44   15.08
   0   3  -1  538.27   15.81
   0   3  -1  541.06   11.12
   0  -3   1  523.91   14.90
   0  -3   1  516.64   10.40
   0  -3   1  523.46   15.41
  -1   3  -1  588.24   18.49
  -1   3  -1  602.54   16.64
  -1   3  -1  604.57   14.69
   1  -3   1  591.12   16.17
   1  -3   1  602.23   18.22
   1  -3   1  615.89   13.90
  -2   3  -1  763.94   22.97
  -2   3  -1  732.21   19.98
  -2   3  -1  765.55   20.22
   2  -3   1  767.99   22.87
   2  -3   1  730.10   18.68
   2  -3   1  734.32   18.94
  -3   3  -1  142.94   12.92
  -3   3  -1  158.66   11.82
  -3   3  -1  155.17   12.68
   3  -3   1  151.03    9.62
   3  -3   1  179.19   13.95
   3  -3   1  176.53   11.19
  -4   3  -1 1574.50   36.59
  -4   3  -1 1546.05   40.61
   4  -3   1 1631.43   41.42
   4  -3   1 1555.86   38.25
   4  -3   1 1584.35   34.16
  -5   3  -1  214.78   20.42
  -5   3  -1  210.97   18.45
   5  -3   1  202.99   19.96
   5  -3   1  195.58   21.67
   5  -3   1  192.06   15.12
   5  -3   1  195.77   18.37
  -6   3  -1   42.88   14.36
  -6   3  -1    0.55   13.55
   6  -3   1   12.82   17.58
   6  -3   1    8.88   15.83
   6  -3   1   14.86   10.76
   6  -3   1   14.80   15.16
   7   2  -1   30.20   14.78
   7   2  -1   16.05   16.54
   7   2  -1   24.29   19.46
   7   2  -1   22.74   13.02
   7   2  -1   25.41    9.85
   7   2  -1   31.04   18.89
   6   2  -1  176.59   19.53
   6   2  -1  173.27   16.92
   6   2  -1  193.38   12.60
   6   2  -1  163.40   17.67
   6   2  -1  169.33   19.39
  -6  -2   1  193.31   20.82
   5   2  -1  167.51   13.17
   5   2  -1  186.98   10.30
   5   2  -1  188.55   17.78
   5   2  -1  192.67   16.58
   5   2  -1  178.32   16.88
  -5  -2   1  182.22   16.17
   4   2  -1  650.96   18.32
   4   2  -1  645.83   22.28
   4   2  -1  652.85   22.15
   4   2  -1  636.71   21.89
   4   2  -1  662.30   16.10
  -4  -2   1  645.81   22.06
   3   2  -1  147.92    8.32
   3   2  -1  158.02   10.03
   3   2  -1  150.68    6.72
   3   2  -1  164.26   10.16
   3   2  -1  154.89    9.80
  -3  -2   1  157.76   10.36
   2   2  -1  152.25    6.11
   2   2  -1  149.52    7.32
   2   2  -1  157.93    8.73
   2   2  -1  154.96    8.05
  -2  -2   1  141.34    7.10
   1   2  -1  173.91    5.22
   1   2  -1  172.11    7.60
   1   2  -1  172.89    6.48
  -1  -2   1  178.62    5.37
  -1  -2   1  175.57    6.55
  -1  -2   1  167.38    7.24
   0   2  -1  620.44   14.21
   0   2  -1  627.79   14.69
   0   2  -1  626.73   10.50
   0  -2   1  613.48   10.20
   0  -2   1  603.73   14.29
   0  -2   1  604.30   14.06
  -1   2  -1  424.74   11.10
  -1   2  -1  434.24   12.02
  -1   2  -1  428.65   13.25
   1  -2   1  451.52   13.53
   1  -2   1  432.78   11.85
   1  -2   1  439.25   10.67
  -2   2  -1  743.32   18.74
  -2   2  -1  727.01   20.06
  -2   2  -1  740.57   19.18
   2  -2   1  783.98   17.98
   2  -2   1  752.17   18.53
   2  -2   1  772.49   20.39
  -3   2  -1  894.17   24.62
  -3   2  -1  875.39   22.64
   3  -2   1  875.57   24.71
   3  -2   1  878.51   21.20
   3  -2   1  879.70   24.91
   3  -2   1  904.51   24.06
  -4   2  -1  199.03   13.89
  -4   2  -1  191.56   13.91
   4  -2   1  209.23   12.04
   4  -2   1  192.63   15.04
   4  -2   1  210.15   14.83
   4  -2   1  205.23   15.93
  -5   2  -1 1134.44   34.21
  -5   2  -1 1182.70   33.36
   5  -2   1 1228.93   35.46
   5  -2   1 1189.64   36.08
   5  -2   1 1202.28   30.45
   5  -2   1 1204.78   37.92
  -6   2  -1   44.07   13.67
  -6   2  -1   24.26   12.82
   6  -2   1   38.65   15.03
   6  -2   1   30.90   10.48
   6  -2   1    8.79   14.67
   6  -2   1   22.64   13.52
   7   1  -1    3.66   18.08
   7   1  -1   18.98   13.75
   7   1  -1   12.56   13.29
   7   1  -1   -9.74   20.21
  -7  -1   1   -0.43   15.44
   6   1  -1  -13.92   12.17
   6   1  -1    8.74    9.60
   6   1  -1  -12.90   11.73
   6   1  -1   -3.56    9.71
  -6  -1   1   18.68    8.04
  -6  -1   1   26.37   11.01
   5   1  -1  396.72   18.46
   5   1  -1  354.87   20.61
   5   1  -1  364.81   17.49
   5   1  -1  383.89   21.86
  -5  -1   1  374.02   18.12
  -5  -1   1  389.77   15.93
   4   1  -1   43.43    7.05
   4   1  -1   46.47    8.73
   4   1  -1   35.05    6.73
   4   1  -1   28.66    6.93
  -4  -1   1   45.33    6.00
  -4  -1   1   37.89    7.20
   3   1  -1 1057.67   25.09
   3   1  -1 1058.75   23.79
   3   1  -1 1079.66   22.75
   3   1  -1 1018.39   25.23
  -3  -1   1 1031.12   21.41
  -3  -1   1 1047.73   23.37
   2   1  -1  916.53   19.76
   2   1  -1  928.12   19.36
   2   1  -1  908.06   19.60
   2   1  -1  915.00   18.22
  -2  -1   1  921.27   19.12
  -2  -1   1  907.78   17.60
   1   1  -1 3220.91   46.14
   1   1  -1 3226.59   47.12
   1   1  -1 3108.65   45.25
   1   1  -1 3278.58   45.45
  -1  -1   1 3182.00   45.36
   0   1  -1  735.81   13.46
   0   1  -1  727.20   10.07
   0   1  -1  682.62   13.17
   0  -1   1  705.55   13.11
   0  -1   1  721.33   13.32
  -1   1  -1  947.33   17.75
  -1   1  -1  919.77   18.01
   1  -1   1  906.55   16.94
   1  -1   1  920.63   17.93
   1  -1   1  915.11   17.28
  -2   1  -1  481.86   13.48
  -2   1  -1  463.23   13.41
   2  -1   1  471.05   13.62
   2  -1   1  477.67   14.25
   2  -1   1  477.99   12.86
   2  -1   1  462.55   13.70
  -3   1  -1  140.53    9.02
  -3   1  -1  149.83   10.02
   3  -1   1  150.99   10.13
   3  -1   1  158.44   10.77
   3  -1   1  145.37    8.85
   3  -1   1  160.03    9.84
  -4   1  -1 1011.27   26.33
  -4   1  -1 1035.58   27.27
   4  -1   1 1014.16   25.75
   4  -1   1  999.80   29.76
   4  -1   1 1033.60   29.35
   4  -1   1 1028.04   27.06
  -5   1  -1  265.64   16.02
  -5   1  -1  255.17   17.35
   5  -1   1  256.04   18.56
   5  -1   1  299.74   20.18
   5  -1   1  229.16   16.85
   5  -1   1  239.87   15.89
  -6   1  -1   45.73   13.32
  -6   1  -1   28.68   10.79
   6  -1   1   24.32   14.22
   6  -1   1   44.60   14.83
   6  -1   1   52.19   12.92
   6  -1   1   40.07   11.39
  -7   1  -1   -5.66   16.86
  -7   1  -1   31.12   15.66
   7  -1   1    3.22   15.48
   7  -1   1   21.10   14.57
   7  -1   1   21.61   20.96
   7  -1   1   13.87   22.36
   7   0  -1   23.33   19.62
   7   0  -1   10.38   12.22
   7   0  -1   -2.34   17.51
  -7   0   1  -15.63   13.65
  -7   0   1   48.92   14.61
   6   0  -1   38.66   13.94
   6   0  -1   37.77   12.66
   6   0  -1   34.75    9.62
   6   0  -1   26.74   11.60
  -6   0   1   35.01   10.70
  -6   0   1   39.66   10.53
   5   0  -1   27.56    9.02
   5   0  -1   19.53    7.98
   5   0  -1   18.14    6.41
   5   0  -1   17.20    9.75
  -5   0   1   13.12    7.25
  -5   0   1   13.44    7.09
   4   0  -1   32.64    8.15
   4   0  -1   48.98    8.59
   4   0  -1   48.28    7.77
   4   0  -1   37.42    5.73
  -4   0   1   44.94    6.67
  -4   0   1   42.10    6.59
   3   0  -1 1057.80   26.58
   3   0  -1 1102.45   21.99
   3   0  -1 1126.61   26.11
   3   0  -1 1053.04   24.35
  -3   0   1 1093.94   24.01
  -3   0   1 1061.46   22.07
   2   0  -1  731.09   14.40
   2   0  -1  730.87   16.76
   2   0  -1  728.10   17.16
  -2   0   1  728.23   17.70
  -2   0   1  743.57   14.51
  -2   0   1  711.03   16.14
   1   0  -1  701.31   13.65
   1   0  -1  722.64   13.44
   1   0  -1  685.32   11.07
  -1   0   1  698.36   13.53
  -1   0   1  692.50   13.54
  -1   0   1  699.08   11.03
  -1   0  -1   21.17    1.99
  -1   0  -1   17.08    2.70
  -1   0  -1   21.37    2.55
   1   0   1   18.88    1.92
   1   0   1   19.59    2.56
   1   0   1   18.64    2.60
  -2   0  -1 1601.89   26.43
  -2   0  -1 1584.11   29.58
  -2   0  -1 1574.04   30.11
   2   0   1 1604.20   29.32
   2   0   1 1633.69   30.01
   2   0   1 1648.25   26.79
  -3   0  -1  209.53    8.77
  -3   0  -1  221.46   11.06
   3   0   1  224.51   11.77
   3   0   1  220.28   10.24
   3   0   1  231.61   11.93
  -4   0  -1  283.88   15.14
  -4   0  -1  276.08   11.80
   4   0   1  269.38   13.70
   4   0   1  278.77   16.22
  -5   0  -1   50.42   10.32
  -5   0  -1   36.18    7.26
   5   0   1   32.31    8.72
   5   0   1   41.26   12.09
   5   0   1   34.26   10.53
   5   0   1   39.32    8.06
  -6   0  -1   51.89   10.76
  -6   0  -1   49.85   13.64
   6   0   1   68.83   14.40
   6   0   1   83.79   15.11
   6   0   1   48.49   11.14
  -7   0  -1   40.27   16.89
  -7   0  -1    6.97   12.19
   7   0   1    7.15   17.21
   7   0   1   17.69   19.39
   7   0   1   14.08   17.69
   7   0   1   36.75   13.94
   7  -1  -1   71.34   20.32
   7  -1  -1   79.22   34.03
   7  -1  -1   62.90   12.28
   7  -1  -1   76.81   19.32
  -7   1   1   45.20   14.52
  -7   1   1   64.15   17.19
   6  -1  -1  100.16   15.17
   6  -1  -1  114.17   15.90
   6  -1  -1  131.74   13.42
   6  -1  -1  116.79   16.85
  -6   1   1  115.70   26.75
  -6   1   1  144.34   16.62
   5  -1  -1  192.26   16.74
   5  -1  -1  201.54   11.74
   5  -1  -1  159.49   18.50
   5  -1  -1  155.75   16.08
  -5   1   1  171.85   12.96
  -5   1   1  167.98   14.77
   4  -1  -1  430.42   18.45
   4  -1  -1  431.28   19.93
   4  -1  -1  450.05   18.91
   4  -1  -1  419.19   13.33
  -4   1   1  419.73   14.71
  -4   1   1  432.77   17.53
   3  -1  -1  135.67    9.62
   3  -1  -1  134.69   10.68
   3  -1  -1  130.96    6.36
  -3   1   1  128.75    7.41
  -3   1   1  129.97    9.42
  -3   1   1  143.87   10.40
   2  -1  -1 1022.06   21.88
   2  -1  -1 1025.13   17.02
   2  -1  -1  996.08   22.73
  -2   1   1 1003.52   22.27
  -2   1   1 1013.34   22.50
  -2   1   1 1015.74   17.78
   1  -1  -1 9999.00  131.89
  -1   1   1 9421.85  131.34
  -1   1   1 9472.85  129.78
   0  -1  -1  398.54    7.90
   0  -1  -1  397.39    8.85
   0  -1  -1  392.67    8.70
   0   1   1  392.68    7.96
   0   1   1  404.64    8.77
   0   1   1  386.24    8.64
  -1  -1  -1  577.92   13.55
  -1  -1  -1  552.61   11.89
   1   1   1  547.11   13.32
   1   1   1  571.48   11.96
  -2  -1  -1  149.85    3.91
  -2  -1  -1  149.03    8.41
   2   1   1  153.43    8.00
   2   1   1  152.33    4.31
   2   1   1  148.72    7.53
  -3  -1  -1  266.47   12.91
  -3  -1  -1  286.68   12.83
  -3  -1  -1  279.87    7.80
   3   1   1  255.84    8.33
   3   1   1  261.01   12.29
   3   1   1  260.89   12.28
  -4  -1  -1  105.39    6.64
  -4  -1  -1  116.88   12.02
   4   1   1  116.59   12.26
   4   1   1  124.60   12.81
   4   1   1  133.63   11.26
   4   1   1  117.17    7.97
  -5  -1  -1   70.59    7.94
  -5  -1  -1   49.85   10.64
   5   1   1   59.75   11.22
   5   1   1   68.38   10.69
   5   1   1   59.01    8.05
   5   1   1   69.39   11.89
  -6  -1  -1   26.63    7.25
   6   1   1   51.67    9.32
   6   1   1   34.72   12.10
   6   1   1   18.10   11.59
   6   1   1   14.53   12.67
  -7  -1  -1  162.07   22.19
  -7  -1  -1  153.23   16.04
   7   1   1   77.84   21.69
   7   1   1  127.34   21.12
   7   1   1  129.05   19.47
   7   1   1  129.24   14.41
   6  -2  -1   -3.02   13.92
   6  -2  -1    6.16   13.35
   6  -2  -1   19.27    7.33
  -6   2   1   -6.55    9.27
  -6   2   1    0.46   12.25
   5  -2  -1   88.17   12.18
   5  -2  -1  105.64   15.97
   5  -2  -1   85.55    8.50
  -5   2   1   96.21   13.11
  -5   2   1   95.76   10.69
   4  -2  -1  532.47   22.42
   4  -2  -1  517.26   14.40
  -4   2   1  552.10   23.19
  -4   2   1  512.53   21.29
  -4   2   1  537.52   16.88
   3  -2  -1  339.28   16.16
   3  -2  -1  354.92   10.38
  -3   2   1  374.25   12.00
  -3   2   1  385.05   16.31
  -3   2   1  376.32   16.11
   2  -2  -1  302.31   11.33
   2  -2  -1  327.70   13.82
   2  -2  -1  305.61    8.51
  -2   2   1  329.68   12.53
  -2   2   1  304.65    9.33
  -2   2   1  317.85   13.06
   1  -2  -1 5232.09   73.56
   1  -2  -1 5179.79   75.15
   1  -2  -1 5436.14   79.63
  -1   2   1 5313.99   75.87
  -1   2   1 5258.73   79.07
  -1   2   1 5268.57   73.53
   0  -2  -1 1205.36   22.48
   0  -2  -1 1191.76   20.16
   0   2   1 1201.67   20.39
   0   2   1 1188.44   22.67
   0   2   1 1193.91   22.62
   0   2   1 1214.75   21.71
  -1  -2  -1 1828.09   27.93
  -1  -2  -1 1775.54   29.61
  -1  -2  -1 1833.15   33.40
   1   2   1 1832.41   29.34
   1   2   1 1861.03   33.53
   1   2   1 1814.49   28.11
  -2  -2  -1  158.18    9.61
  -2  -2  -1  163.17    8.01
   2   2   1  158.85    4.26
   2   2   1  146.49    8.91
   2   2   1  162.20    7.82
   2   2   1  156.05    4.27
  -3  -2  -1   80.33    8.45
  -3  -2  -1  104.84   10.17
   3   2   1  101.10    9.63
   3   2   1   93.38    8.82
   3   2   1   87.57    4.24
   3   2   1   85.61    3.29
  -4  -2  -1  116.70   13.35
  -4  -2  -1  116.26   11.77
   4   2   1  122.25   12.80
   4   2   1  111.30    6.50
   4   2   1  103.08   12.27
   4   2   1  110.39    4.61
  -5  -2  -1   12.38    9.56
   5   2   1    3.58    8.97
   5   2   1    1.77    3.09
   5   2   1   -3.47    9.45
   5   2   1    6.21    4.71
   5   2   1   10.33    8.70
  -6  -2  -1   43.35   14.87
   6   2   1   29.37   13.18
   6   2   1   29.09   13.58
   6   2   1   35.87    5.16
   6   2   1   30.85    7.07
   6   2   1   40.13   14.66
  -7  -2  -1    7.00   18.35
   7   2   1   -4.97   16.39
   7   2   1    4.79    5.45
   7   2   1    7.99    7.59
   7   2   1    1.71   19.20
   7   2   1    6.43   17.28
   6  -3  -1  182.56   14.10
   6  -3  -1  178.00   23.43
   6  -3  -1  195.50   24.91
   6  -3  -1  227.75   25.72
  -6   3   1  173.71   18.99
  -6   3   1  279.46   26.51
   5  -3  -1   71.50   13.25
   5  -3  -1   60.43    7.64
  -5   3   1   41.27    9.50
  -5   3   1   58.16   12.98
   4  -3  -1  259.64   11.16
   4  -3  -1  294.87   22.01
  -4   3   1  264.94   13.48
  -4   3   1  258.52   18.77
  -4   3   1  255.42   17.60
   3  -3  -1  227.69   13.08
   3  -3  -1  268.41   16.30
   3  -3  -1  241.45    9.72
  -3   3   1  229.99   14.63
  -3   3   1  246.82   11.52
  -3   3   1  244.57   15.06
   2  -3  -1 1667.09   36.94
   2  -3  -1 1622.35   29.36
   2  -3  -1 1651.16   32.43
  -2   3   1 1674.16   30.27
  -2   3   1 1611.21   36.54
  -2   3   1 1624.22   33.58
   1  -3  -1 1840.18   32.28
   1  -3  -1 1835.96   32.10
  -1   3   1 1842.97   32.31
  -1   3   1 1797.85   36.72
  -1   3   1 1855.49   33.01
   0  -3  -1  444.57   14.01
   0   3   1  436.57   11.44
   0   3   1  432.91   13.30
   0   3   1  443.32   14.03
   0   3   1  436.14   14.01
  -1  -3  -1  617.27   14.63
  -1  -3  -1  642.13   15.23
   1   3   1  631.27   15.15
   1   3   1  651.50   14.64
   1   3   1  621.25   17.23
   1   3   1  631.05   18.82
  -2  -3  -1 1346.96   22.37
  -2  -3  -1 1331.39   31.50
  -2  -3  -1 1362.25   27.48
   2   3   1 1372.21   23.43
   2   3   1 1342.34   26.48
   2   3   1 1320.26   31.72
  -3  -3  -1   76.72   10.41
  -3  -3  -1   62.18    7.40
   3   3   1   96.28   11.29
   3   3   1   80.44    4.77
   3   3   1   78.85    8.65
   3   3   1   83.18    4.10
  -4  -3  -1  726.89   26.49
  -4  -3  -1  747.33   25.15
   4   3   1  745.63   27.02
   4   3   1  755.19   23.88
  -5  -3  -1   85.08   14.48
  -5  -3  -1   80.21   12.29
   5   3   1  112.41   14.17
  -6  -3  -1  101.61   18.39
   6   3   1   77.43   16.04
   6   3   1   50.90   15.27
   6   3   1   90.88   16.95
   6  -4  -1   31.79    9.50
   6  -4  -1   51.89   19.56
   6  -4  -1   33.74   15.56
   6  -4  -1   26.11   23.68
  -6   4   1   47.86   18.62
  -6   4   1   37.63   13.61
   5  -4  -1   74.55   13.85
   5  -4  -1   72.92    8.69
   5  -4  -1   84.38   18.03
  -5   4   1   61.71   11.85
  -5   4   1   62.64   14.90
  -5   4   1   65.72   15.86
   4  -4  -1  623.77   24.17
   4  -4  -1  605.74   18.53
   4  -4  -1  661.52   30.19
  -4   4   1  557.14   26.08
  -4   4   1  550.73   27.27
  -4   4   1  610.03   20.94
   3  -4  -1  126.76    9.36
   3  -4  -1  115.79   11.10
   3  -4  -1  118.62   14.45
  -3   4   1  132.89   13.49
  -3   4   1  142.36   15.06
  -3   4   1  141.05   11.36
   2  -4  -1  882.90   21.65
   2  -4  -1  880.45   22.50
   2  -4  -1  876.20   28.20
  -2   4   1  877.28   24.22
  -2   4   1  892.49   22.26
  -2   4   1  871.08   27.82
   1  -4  -1 1412.30   33.80
   1  -4  -1 1423.05   29.48
  -1   4   1 1416.87   28.93
  -1   4   1 1384.70   29.23
  -1   4   1 1395.16   33.52
   0  -4  -1  174.47   11.18
   0  -4  -1  181.66    8.12
   0   4   1  184.28    8.59
   0   4   1  176.44   10.57
   0   4   1  185.28   11.19
   0   4   1  188.15   11.04
  -1  -4  -1  487.27   13.60
  -1  -4  -1  472.63   15.05
   1   4   1  492.20   15.54
   1   4   1  483.43   16.97
   1   4   1  494.20   13.36
   1   4   1  465.85   18.03
  -2  -4  -1  486.53   15.47
  -2  -4  -1  498.19   13.76
   2   4   1  515.73   15.13
   2   4   1  483.05   13.95
   2   4   1  502.00   20.09
   2   4   1  507.16   18.63
  -3  -4  -1  423.33   16.68
  -3  -4  -1  409.74   19.99
  -3  -4  -1  418.17   10.61
   3   4   1  417.55   15.61
   3   4   1  413.18   20.56
  -4  -4  -1  237.19   16.03
  -4  -4  -1  239.69   19.41
   4   4   1  248.39   15.44
   4   4   1  230.95   20.16
   4   4   1  213.77    7.14
  -5  -4  -1  531.13   25.87
  -5  -4  -1  535.13   28.59
   5   4   1  473.02   23.33
   5   4   1  551.84   29.05
  -6  -4  -1   36.23   17.25
   6   4   1   13.26   13.84
   6   4   1  -21.25   16.99
   6   4   1   27.76   16.14
   5  -5  -1  112.03   17.59
   5  -5  -1  106.89   11.63
   5  -5  -1  100.85   24.56
  -5   5   1   78.25   13.86
  -5   5   1   87.06   21.51
  -5   5   1   44.91   17.79
   4  -5  -1   80.22   11.81
   4  -5  -1  104.85   10.63
   4  -5  -1  102.00   18.33
  -4   5   1   92.34   15.03
  -4   5   1  108.81   12.93
  -4   5   1   79.84   15.00
   3  -5  -1 1304.07   40.13
   3  -5  -1 1192.14   33.75
   3  -5  -1 1246.80   29.95
  -3   5   1 1290.85   31.88
  -3   5   1 1277.53   35.55
  -3   5   1 1258.32   39.43
   2  -5  -1   24.90    5.90
   2  -5  -1   27.72    7.02
  -2   5   1   29.91    8.13
  -2   5   1   26.59    7.01
  -2   5   1   33.21    9.35
   1  -5  -1  748.86   26.18
   1  -5  -1  752.69   19.70
   1  -5  -1  762.33   22.52
  -1   5   1  747.56   22.49
  -1   5   1  740.29   21.15
  -1   5   1  770.34   26.51
   0  -5  -1  393.32   17.58
   0  -5  -1  397.49   13.12
   0   5   1  388.69   18.07
   0   5   1  394.09   17.75
   0   5   1  396.13   13.75
   0   5   1  378.40   16.69
  -1  -5  -1  211.78   12.78
  -1  -5  -1  216.56   10.14
   1   5   1  218.63   13.45
   1   5   1  227.86   15.44
   1   5   1  228.25   10.54
   1   5   1  212.32   14.13
  -2  -5  -1  557.51   17.80
  -2  -5  -1  549.92   16.83
   2   5   1  566.73   21.93
   2   5   1  585.03   17.04
   2   5   1  550.83   17.86
   2   5   1  576.54   24.23
  -3  -5  -1    6.44    4.11
  -3  -5  -1    4.31    6.36
   3   5   1   10.16   11.83
   3   5   1   11.87    4.91
   3   5   1   -3.19    5.06
   3   5   1   12.55    8.73
  -4  -5  -1  458.33   21.68
   4   5   1  474.95   24.89
   4   5   1  484.09   13.15
   4   5   1  528.12   28.23
   4   5   1  479.60   13.08
   4   5   1  524.26   23.34
  -5  -5  -1   74.54   14.26
   5   5   1   95.38   15.89
   5   5   1   43.60   11.60
   5   5   1   65.43   17.00
   6   5   1  166.07   20.14
   6   5   1   97.26   23.16
   5  -6  -1   62.02   12.99
   5  -6  -1   26.27   24.36
   5  -6  -1   88.47   17.67
  -5   6   1   33.77   22.76
  -5   6   1   54.80   16.58
  -5   6   1   60.68   21.74
   4  -6  -1   76.28   12.98
   4  -6  -1  114.46   24.59
   4  -6  -1   96.10   12.76
  -4   6   1   82.81   18.87
  -4   6   1  146.98   19.79
  -4   6   1   97.50   16.02
   3  -6  -1  138.54   20.56
   3  -6  -1  153.69   14.93
   3  -6  -1  165.42   15.73
  -3   6   1  142.57   16.88
  -3   6   1  157.28   18.25
  -3   6   1  148.34   14.97
   2  -6  -1  876.65   25.36
   2  -6  -1  868.61   32.93
   2  -6  -1  901.32   27.44
  -2   6   1  915.62   28.81
  -2   6   1  879.24   33.80
  -2   6   1  952.75   29.14
   1  -6  -1   28.94   11.52
   1  -6  -1   39.68    6.99
  -1   6   1   43.62    8.49
  -1   6   1   52.21   10.32
   0  -6  -1  773.11   20.65
   0  -6  -1  771.37   27.41
   0   6   1  738.90   21.17
   0   6   1  747.92   26.38
   0   6   1  752.55   27.57
   0   6   1  767.01   27.82
  -1  -6  -1   21.42    7.99
  -1  -6  -1   20.01    5.15
   1   6   1   20.10    9.88
   1   6   1   12.38    8.15
   1   6   1   25.31    6.02
  -2  -6  -1  158.17   11.82
  -2  -6  -1  163.99   12.69
   2   6   1  122.39   16.07
   2   6   1  150.10   10.90
   2   6   1  147.11   13.78
   2   6   1  153.41   17.36
  -3  -6  -1   30.65    6.91
  -3  -6  -1   27.62    8.68
   3   6   1   28.13   13.20
   3   6   1   41.64   11.79
   3   6   1   19.64    7.62
   3   6   1   55.98    8.65
  -4  -6  -1   43.86   13.61
   4   6   1   37.10    9.24
   4   6   1   40.37    7.36
   4   6   1   44.77   16.75
   4   6   1   37.01   14.73
  -5  -6  -1   56.69   14.36
   5   6   1   98.00   21.36
   5   6   1   68.15   13.28
   4  -7  -1   64.70   23.07
   4  -7  -1   58.56   14.69
   4  -7  -1   64.75   14.55
  -4   7   1   15.34   21.39
  -4   7   1   30.10   30.53
  -4   7   1   60.95   17.76
   3  -7  -1  390.62   38.50
   3  -7  -1  370.12   23.61
   3  -7  -1  461.87   23.18
  -3   7   1  448.41   28.20
  -3   7   1  430.87   32.68
  -3   7   1  400.74   26.44
   2  -7  -1   13.68    8.81
   2  -7  -1    8.43   15.59
  -2   7   1   10.78   14.03
  -2   7   1   -4.20   11.35
  -2   7   1   11.10   11.16
   1  -7  -1  796.54   33.06
  -1   7   1  774.77   25.78
  -1   7   1  727.95   31.05
  -1   7   1  761.60   29.44
  -1   7   1  704.31   32.38
   0  -7  -1   23.01   11.39
   0  -7  -1   41.52    7.33
   0   7   1   31.32   12.88
   0   7   1   25.60   12.06
   0   7   1   22.91    8.18
   0   7   1   34.46   11.55
  -1  -7  -1  403.10   17.02
   1   7   1  399.80   17.41
   1   7   1  371.41   23.22
   1   7   1  381.07   25.63
   1   7   1  397.25   23.02
  -2  -7  -1   54.99    9.31
  -2  -7  -1   46.91   10.15
   2   7   1   33.34    8.16
   2   7   1   40.37   14.81
   2   7   1   48.75   11.69
   2   7   1   42.83   12.13
  -3  -7  -1   86.49   10.98
  -3  -7  -1   99.23   12.70
   3   7   1  100.74   16.71
   3   7   1   79.25   11.01
   3   7   1   84.08   17.89
   3   7   1   82.19   12.09
  -4  -7  -1   41.89   13.87
  -4  -7  -1   54.81    8.78
   4   7   1   15.40   15.62
   4   7   1   78.56   21.65
   4   7   1   49.70   11.85
   4   7   1   58.74   10.34
   3  -8  -1    9.49   14.21
  -3   8   1   12.68   18.04
  -3   8   1   12.55   23.50
   2  -8  -1  109.56   22.02
   2  -8  -1  104.44   13.69
  -2   8   1  106.32   21.53
  -2   8   1  101.62   16.25
  -2   8   1  121.71   18.91
  -2   8   1  160.55   21.39
   1  -8  -1   27.14   16.86
   1  -8  -1   38.06    9.98
  -1   8   1   45.55   15.15
  -1   8   1  -10.83   16.45
  -1   8   1   33.74   16.25
  -1   8   1   39.31   12.37
   0  -8  -1   43.70    9.34
   0  -8  -1   24.23   16.05
   0   8   1   33.84   18.24
   0   8   1   56.74   14.05
   0   8   1   34.79   16.76
   0   8   1   56.92   15.67
  -1  -8  -1   35.60    9.66
  -1  -8  -1   71.37   15.75
   1   8   1   50.82   15.60
   1   8   1   57.54   15.20
   1   8   1   42.45   18.95
   1   8   1   42.48   10.52
  -2  -8  -1  176.05   17.36
  -2  -8  -1  123.35   16.50
   2   8   1  170.56   22.35
   2   8   1  153.55   22.44
   2   8   1  109.21   17.15
  -3  -8  -1   20.86   11.18
  -3  -8  -1   25.31   11.64
   3   8   1   -1.36   19.36
   3   8   1   25.36   14.09
   3   8   1   12.61   10.37
   3   8   1   28.88   19.29
   0  -9  -1   86.48   22.32
   0  -9  -1   90.40   12.79
   0   9   1  125.38   23.27
   0   9   1  168.04   26.37
   0   9   1   61.33   15.21
   0   9   1   31.58   21.68
  -1  -9  -1  -10.24   11.26
  -1  -9  -1   27.16   18.32
   1   9   1   25.40   19.88
   1   9   1    7.57   12.50
   1   9   1  -12.70   18.84
   1   9   1   53.56   23.26
   0   9  -2   48.61   12.43
   3   8  -2    6.05   20.40
   3   8  -2   19.02    8.33
   3   8  -2   26.50   15.14
   3   8  -2   24.42   18.85
  -3  -8   2   27.19   13.27
  -3  -8   2    3.08    9.44
   2   8  -2   25.09   15.45
   2   8  -2   45.69   18.57
   2   8  -2   14.04    7.59
  -2  -8   2    8.19   12.56
  -2  -8   2   11.77    7.23
   1   8  -2   36.86   29.81
   1   8  -2   -9.63   16.35
   1   8  -2   17.97   15.19
   1   8  -2   13.39    7.58
  -1  -8   2    0.31    6.06
  -1  -8   2   12.79   13.90
   0   8  -2   46.05   14.04
   0   8  -2   47.45   16.32
   0   8  -2   49.28    9.47
   0  -8   2   51.36    7.39
   0  -8   2   59.31   17.13
  -1   8  -2   67.02   17.25
  -1   8  -2   54.30   11.49
  -1   8  -2   56.53   18.40
   1  -8   2    9.13   13.16
   1  -8   2   34.46    7.62
   1  -8   2   53.07   27.49
  -2   8  -2   59.43   22.50
  -2   8  -2   61.40   19.22
  -2   8  -2   54.96   16.32
   2  -8   2   67.66   11.29
   2  -8   2   36.19   17.06
   2  -8   2   85.86   20.64
   4   7  -2    0.71   11.84
   4   7  -2    7.63    8.17
   4   7  -2   12.01   20.33
   4   7  -2   -9.08   15.52
  -4  -7   2   -8.85    9.67
   3   7  -2  211.62   24.51
   3   7  -2  136.32   11.72
   3   7  -2  182.92   19.43
   3   7  -2  147.24   18.29
  -3  -7   2  180.54   13.74
   2   7  -2   15.77    5.61
   2   7  -2   23.73   11.78
   2   7  -2   12.64   13.57
   2   7  -2   15.42   13.02
  -2  -7   2   17.70    5.96
  -2  -7   2   29.75   10.06
   1   7  -2  250.75   21.62
   1   7  -2  226.04   21.90
   1   7  -2  222.44   11.29
   1   7  -2  224.24   21.75
  -1  -7   2  232.34   20.67
  -1  -7   2  252.95   10.84
   0   7  -2  217.35   12.66
   0  -7   2  240.02   10.58
   0  -7   2  232.20   21.20
   0  -7   2  213.34   18.94
  -1   7  -2  397.01   27.16
  -1   7  -2  383.90   24.76
  -1   7  -2  382.63   17.73
   1  -7   2  378.30   24.97
   1  -7   2  363.45   21.68
  -2   7  -2   54.80   17.40
  -2   7  -2   58.79   11.53
  -2   7  -2   37.44   15.07
   2  -7   2   80.49   18.57
   2  -7   2   57.31    9.25
   2  -7   2   31.19   11.27
  -3   7  -2   57.06   14.68
  -3   7  -2   54.26   17.07
  -3   7  -2   23.90   19.66
   3  -7   2   40.27   12.98
   3  -7   2   38.71   17.53
   3  -7   2   49.42   11.17
  -4   7  -2  126.27   25.64
  -4   7  -2   98.12   22.39
   4  -7   2   75.02   16.25
   4  -7   2   55.99   14.52
   4  -7   2   65.76   19.84
   4  -7   2   62.61   23.59
   5   6  -2   76.43   18.93
   5   6  -2   30.92   18.55
   5   6  -2   73.75   13.04
   5   6  -2   65.33   12.04
   5   6  -2   73.08   14.46
   5   6  -2   73.90   12.34
   4   6  -2   16.56    9.70
   4   6  -2   19.78    7.56
   4   6  -2   29.15   10.54
   4   6  -2   23.91   12.45
   4   6  -2    9.35   14.68
   4   6  -2    9.56    9.47
   3   6  -2  162.73   18.60
   3   6  -2  182.11   11.11
   3   6  -2  201.95   21.74
   3   6  -2  210.83   16.60
  -3  -6   2  186.97   12.95
  -3  -6   2  204.11   14.73
   2   6  -2   98.31   12.37
   2   6  -2  100.90   14.71
   2   6  -2  110.90    7.97
   2   6  -2  101.31   14.45
  -2  -6   2  100.37    8.58
  -2  -6   2  120.99   13.06
   1   6  -2   67.58   11.30
   1   6  -2   72.14   10.98
   1   6  -2   79.81    7.42
  -1  -6   2   73.92   11.17
  -1  -6   2   65.68   10.29
  -1  -6   2   73.19    6.55
   0   6  -2  144.20    9.07
   0   6  -2  149.17   15.92
   0   6  -2  159.59   16.33
   0  -6   2  142.55   15.03
   0  -6   2  167.42   19.74
   0  -6   2  137.65    7.42
  -1   6  -2  532.48   17.81
  -1   6  -2  526.49   24.98
  -1   6  -2  569.16   24.31
   1  -6   2  481.63   22.48
   1  -6   2  551.62   24.97
   1  -6   2  507.90   14.92
  -2   6  -2   53.95   12.11
  -2   6  -2   60.28   12.39
  -2   6  -2   44.08    9.21
   2  -6   2   48.96    7.28
   2  -6   2   36.47    9.31
   2  -6   2   25.91   11.55
  -3   6  -2   30.56   14.55
  -3   6  -2   -3.38   11.42
   3  -6   2   -1.32    9.40
   3  -6   2   11.16   13.25
   3  -6   2   10.90    8.28
  -4   6  -2  180.69   22.84
  -4   6  -2  147.50   22.30
   4  -6   2  147.43   22.66
   4  -6   2  157.72   18.40
   4  -6   2  137.92   15.58
   4  -6   2   99.73   14.34
  -5   6  -2  -45.17   20.15
  -5   6  -2  -26.42   17.75
   5  -6   2  -47.85   29.21
   5  -6   2   -2.56   14.46
   5  -6   2    4.87   23.65
   5  -6   2    2.31   13.39
   6   5  -2    2.54    9.48
   6   5  -2   17.36   14.25
   6   5  -2   12.69   11.80
   6   5  -2   21.27   16.64
   6   5  -2   -8.73   15.63
   6   5  -2   30.04   20.09
   5   5  -2  112.48   13.74
   5   5  -2  105.52   18.40
   5   5  -2   98.79   11.21
   5   5  -2  102.89   15.29
   5   5  -2   94.58   16.05
   5   5  -2  101.52   12.52
   4   5  -2  213.35   19.23
   4   5  -2  213.96   13.98
   4   5  -2  227.36   21.54
   4   5  -2  207.75   15.16
   4   5  -2  205.13   16.17
   4   5  -2  229.12   14.83
   3   5  -2   10.15    8.16
   3   5  -2   -0.46    5.73
   3   5  -2   -5.27    4.19
  -3  -5   2    4.90    5.51
  -3  -5   2   -4.73    4.92
   2   5  -2  112.80   11.24
   2   5  -2  131.38    7.40
   2   5  -2  130.13   14.46
   2   5  -2  153.78   13.66
  -2  -5   2  124.82   10.89
  -2  -5   2  131.04    7.81
   1   5  -2  360.02   16.68
   1   5  -2  352.26    9.64
   1   5  -2  371.16   17.81
  -1  -5   2  357.26    9.85
  -1  -5   2  344.20   15.88
  -1  -5   2  330.65   16.04
   0   5  -2  469.90   19.17
   0   5  -2  447.62   12.09
   0   5  -2  430.01   19.15
   0  -5   2  430.85   18.13
   0  -5   2  445.17   10.97
   0  -5   2  432.06   18.35
  -1   5  -2   40.88    6.36
  -1   5  -2   38.95    9.46
  -1   5  -2   34.14    8.21
   1  -5   2   42.98    8.57
   1  -5   2   33.41    8.55
   1  -5   2   40.10    4.86
  -2   5  -2   58.64   11.71
  -2   5  -2   67.46   10.72
  -2   5  -2   73.61    9.20
   2  -5   2   82.00    9.50
   2  -5   2   59.36    7.16
   2  -5   2   52.98   11.43
  -3   5  -2   44.25   10.45
  -3   5  -2   30.78   11.33
   3  -5   2   47.26    8.92
   3  -5   2   48.27   12.40
   3  -5   2   57.40    8.90
  -4   5  -2   97.17   17.14
  -4   5  -2   81.22   14.45
   4  -5   2   84.04   16.48
   4  -5   2   96.14   15.34
   4  -5   2  107.71   13.51
  -5   5  -2   47.62   18.85
  -5   5  -2   52.39   16.85
   5  -5   2   60.28   15.44
   5  -5   2   37.01   18.88
   5  -5   2   43.97   11.76
   5  -5   2   81.16   18.18
   6   4  -2   16.99   14.04
   6   4  -2    0.84   11.16
   6   4  -2   13.11   15.75
   6   4  -2  -10.32   12.69
   6   4  -2    8.37    8.03
   6   4  -2   13.80   14.56
   5   4  -2  107.01   11.89
   5   4  -2  107.08   11.46
   5   4  -2  115.69   13.87
   5   4  -2  108.05   16.82
   5   4  -2  121.94   15.25
   5   4  -2  112.51   22.89
   4   4  -2  133.26   10.70
   4   4  -2  159.09   13.22
   4   4  -2  145.00   12.35
   4   4  -2  179.99   18.10
   4   4  -2  142.53   13.33
   4   4  -2  174.46   16.08
   3   4  -2   37.38    8.65
   3   4  -2   46.85    6.77
   3   4  -2   34.45    5.88
   3   4  -2   53.31    8.81
  -3  -4   2   43.48    6.14
   2   4  -2   -0.68    5.83
   2   4  -2   -6.16    4.52
   2   4  -2    3.04    2.62
   2   4  -2    0.76    4.46
  -2  -4   2    2.02    3.97
  -2  -4   2   -0.91    2.82
   1   4  -2  427.64    9.24
   1   4  -2  392.93   15.58
   1   4  -2  440.28   15.95
  -1  -4   2  404.40   15.61
  -1  -4   2  419.03    9.71
  -1  -4   2  418.33   14.99
   0   4  -2  108.22    9.69
   0   4  -2  111.89    5.49
   0   4  -2  109.14    9.58
   0  -4   2   95.33    8.84
   0  -4   2  110.88    4.64
   0  -4   2   95.61    8.58
  -1   4  -2  782.55   18.36
  -1   4  -2  823.40   24.78
  -1   4  -2  768.53   22.59
   1  -4   2  781.07   21.97
   1  -4   2  793.09   16.77
   1  -4   2  764.55   23.60
  -2   4  -2  311.11   14.10
  -2   4  -2  303.78   16.75
  -2   4  -2  321.73   15.95
   2  -4   2  299.68   12.14
   2  -4   2  307.57   17.11
   2  -4   2  307.41   14.06
  -3   4  -2   77.47   12.16
  -3   4  -2   67.65   10.85
   3  -4   2   46.74    8.59
   3  -4   2   70.56    9.23
   3  -4   2   55.65   11.64
   3  -4   2   65.22    9.79
  -4   4  -2   94.31   13.17
  -4   4  -2  112.77   16.10
   4  -4   2  114.55   14.52
   4  -4   2   89.97   13.51
   4  -4   2   88.39   14.11
   4  -4   2   96.87   11.18
  -5   4  -2   25.00   13.79
  -5   4  -2   21.35   13.23
   5  -4   2    2.66   13.36
   5  -4   2   16.27   13.82
   5  -4   2   25.83   10.65
   5  -4   2   32.38   12.59
  -6   4  -2    8.88   16.09
  -6   4  -2    2.37   18.26
   6  -4   2   16.59   12.91
   6  -4   2   -3.78   16.53
   6  -4   2    9.49   19.44
   6  -4   2   15.89   19.69
   6   3  -2   53.59    8.59
   6   3  -2   32.85   11.51
   6   3  -2   19.81   16.41
   6   3  -2   51.74   13.19
   6   3  -2   28.58   14.40
   6   3  -2   65.81   15.80
   5   3  -2  451.36   21.49
   5   3  -2  441.99   16.14
   5   3  -2  450.74   22.10
   5   3  -2  458.01   23.37
   5   3  -2  417.95   19.16
   4   3  -2  269.91   15.10
   4   3  -2  266.17   17.04
   4   3  -2  248.35   14.79
   4   3  -2  258.36   11.62
   4   3  -2  244.81   13.66
   4   3  -2  273.32   15.49
   3   3  -2  234.15   13.91
   3   3  -2  227.14   11.33
   3   3  -2  231.56   11.44
   3   3  -2  223.46   11.32
   3   3  -2  228.18   12.56
   3   3  -2  232.44   10.21
   2   3  -2  162.78   10.80
   2   3  -2  171.09    7.36
   2   3  -2  167.97   10.38
   2   3  -2  174.75    8.60
  -2  -3   2  164.03    7.40
  -2  -3   2  171.23    8.42
   1   3  -2   23.68    4.32
   1   3  -2   26.27    2.57
   1   3  -2   27.75    4.93
  -1  -3   2   20.86    2.48
  -1  -3   2   27.00    4.21
  -1  -3   2   26.30    4.51
   0   3  -2  959.59   15.66
   0   3  -2  967.83   23.18
   0  -3   2  926.14   14.78
   0  -3   2  936.56   22.04
   0  -3   2  983.40   22.54
  -1   3  -2 1727.08   29.62
  -1   3  -2 1660.68   33.57
  -1   3  -2 1710.71   35.58
   1  -3   2 1758.53   33.58
   1  -3   2 1704.60   34.75
   1  -3   2 1745.87   28.65
  -2   3  -2 1082.13   26.72
   2  -3   2 1092.89   28.16
   2  -3   2 1092.94   25.37
   2  -3   2 1096.71   24.05
  -3   3  -2  231.85   14.40
  -3   3  -2  207.15   14.70
   3  -3   2  220.99   12.55
   3  -3   2  233.07   14.85
   3  -3   2  219.95   13.92
   3  -3   2  221.65   12.23
  -4   3  -2  413.89   21.47
  -4   3  -2  380.71   19.56
   4  -3   2  363.85   16.81
   4  -3   2  385.76   20.98
   4  -3   2  298.64   30.85
   4  -3   2  353.08   18.71
  -5   3  -2  283.46   21.58
  -5   3  -2  263.77   21.90
   5  -3   2  254.52   22.81
   5  -3   2  283.05   22.18
   5  -3   2  231.43   19.88
   5  -3   2  259.12   17.55
  -6   3  -2   25.98   14.01
  -6   3  -2   37.27   15.63
   6  -3   2  -12.12   14.61
   6  -3   2    5.38   17.19
   6  -3   2   14.57   11.60
   6  -3   2   20.07   15.37
   6   2  -2  162.63   19.58
   6   2  -2  177.74   14.28
   6   2  -2  159.90   18.39
   6   2  -2  179.88   19.39
   6   2  -2  164.50   19.70
   6   2  -2  174.05   18.42
   5   2  -2  239.59   16.85
   5   2  -2  231.62   12.40
   5   2  -2  222.14   14.72
   5   2  -2  240.46   27.33
   5   2  -2  246.70   16.28
   5   2  -2  232.84   19.31
   4   2  -2  572.03   16.42
   4   2  -2  573.26   20.31
   4   2  -2  586.57   18.77
   4   2  -2  602.43   21.68
   4   2  -2  601.93   21.39
   4   2  -2  580.57   19.14
   3   2  -2  133.15    9.19
   3   2  -2  130.53    9.57
   3   2  -2  138.56    9.26
   3   2  -2  122.04    8.67
   3   2  -2  135.71    9.75
   3   2  -2  121.26    7.26
   2   2  -2  103.57    6.58
   2   2  -2  109.15    7.21
   2   2  -2   95.14    6.99
   2   2  -2   94.99    5.92
   2   2  -2   98.20    5.90
   2   2  -2  106.89    7.29
   1   2  -2  509.52   13.55
   1   2  -2  504.35   12.93
   1   2  -2  530.34    9.78
   1   2  -2  523.88    9.58
  -1  -2   2  516.91   13.02
  -1  -2   2  506.38   13.38
   0   2  -2  412.87   11.90
   0   2  -2  417.51   12.00
   0  -2   2  409.53    6.88
   0  -2   2  420.64   12.02
   0  -2   2  388.44   11.36
  -1   2  -2  171.34    8.46
  -1   2  -2  170.23    8.31
   1  -2   2  160.56    6.72
   1  -2   2  154.91    7.98
   1  -2   2  168.19    6.28
   1  -2   2  176.96    7.92
  -2   2  -2 2151.14   40.82
  -2   2  -2 2139.11   40.02
   2  -2   2 2129.53   38.21
   2  -2   2 2188.03   38.93
   2  -2   2 2157.39   40.19
   2  -2   2 2153.20   38.75
  -3   2  -2  444.98   17.22
  -3   2  -2  442.66   16.70
   3  -2   2  405.52   15.98
   3  -2   2  402.88   16.62
   3  -2   2  420.02   15.29
   3  -2   2  429.82   16.90
  -4   2  -2   29.89    7.74
  -4   2  -2   11.44    7.49
   4  -2   2   11.00    7.55
   4  -2   2   17.41    6.05
   4  -2   2   27.27    8.13
   4  -2   2   19.25    7.46
  -5   2  -2  282.73   19.25
  -5   2  -2  261.05   19.92
   5  -2   2  310.44   20.41
   5  -2   2  324.44   20.97
   5  -2   2  275.12   20.45
   5  -2   2  280.62   17.38
  -6   2  -2   24.56   15.04
  -6   2  -2   26.51   12.59
   6  -2   2   18.62   14.96
   6  -2   2    7.78   11.73
   6  -2   2   -4.83   12.89
   6  -2   2   36.24   14.93
   7   1  -2   70.06   17.71
   7   1  -2   76.78   14.74
   7   1  -2  110.91   21.84
   7   1  -2   77.60   15.02
   7   1  -2   75.36   22.73
   6   1  -2  160.41   16.04
   6   1  -2  128.76   15.71
   6   1  -2  130.75   17.35
   6   1  -2  113.38   16.00
  -6  -1   2  161.85   16.28
   5   1  -2  526.86   21.13
   5   1  -2  524.26   25.17
   5   1  -2  510.52   23.45
   5   1  -2  548.33   19.69
  -5  -1   2  533.93   19.60
   4   1  -2  229.64   11.84
   4   1  -2  245.70   13.59
   4   1  -2  230.14   13.75
   4   1  -2  224.59   14.88
  -4  -1   2  228.15   11.75
   3   1  -2 1897.61   32.72
   3   1  -2 1923.58   37.70
   3   1  -2 1867.19   34.43
   3   1  -2 1887.53   36.74
   3   1  -2 1858.87   35.62
  -3  -1   2 1903.66   34.84
   2   1  -2   13.59    2.84
   2   1  -2   12.53    2.87
   2   1  -2   12.67    2.96
   2   1  -2   19.46    4.02
   1   1  -2 2009.76   31.19
   1   1  -2 2037.93   29.89
   1   1  -2 2046.66   32.18
  -1  -1   2 1993.18   32.04
  -1  -1   2 2048.06   30.27
  -1  -1   2 1997.96   31.21
   0   1  -2 1053.67   19.09
   0   1  -2 1046.53   15.14
   0   1  -2 1030.78   19.16
   0  -1   2 1076.33   15.00
   0  -1   2 1072.33   19.08
   0  -1   2 1086.70   19.18
  -1   1  -2 2034.46   32.82
  -1   1  -2 2152.90   35.59
  -1   1  -2 2089.84   34.34
   1  -1   2 2084.82   33.91
   1  -1   2 2110.48   34.82
   1  -1   2 2122.67   32.89
  -2   1  -2  706.46   17.19
  -2   1  -2  690.63   18.16
   2  -1   2  684.99   17.72
   2  -1   2  713.13   17.12
   2  -1   2  685.64   17.47
  -3   1  -2  614.59   17.80
  -3   1  -2  645.16   20.03
   3  -1   2  609.50   17.78
   3  -1   2  641.71   19.87
   3  -1   2  640.44   19.76
   3  -1   2  631.95   18.93
  -4   1  -2  495.01   20.43
  -4   1  -2  491.22   17.69
   4  -1   2  503.77   19.22
   4  -1   2  500.90   20.34
   4  -1   2  488.58   17.99
   4  -1   2  518.88   21.57
  -5   1  -2   10.53    8.94
  -5   1  -2   17.11    7.44
   5  -1   2    9.64   10.15
   5  -1   2   10.50    7.96
   5  -1   2    7.72    9.25
   5  -1   2   19.43    7.82
  -6   1  -2    1.85   10.02
  -6   1  -2    7.29   15.80
   6  -1   2    5.57   10.80
   6  -1   2   -7.77   12.31
   6  -1   2    0.02   12.87
   6  -1   2  -10.40   10.19
  -7   1  -2   52.56   20.08
   7  -1   2   26.38   15.61
   7  -1   2    7.49   20.97
   7  -1   2   51.32   16.98
   7   0  -2  130.81   23.76
   7   0  -2  149.61   21.88
   7   0  -2  112.80   19.56
   7   0  -2  126.22   13.19
  -7   0   2  136.76   17.65
   6   0  -2  220.23   22.79
   6   0  -2  217.33   23.24
   6   0  -2  197.96   14.90
   6   0  -2  227.62   22.19
  -6   0   2  203.75   18.83
  -6   0   2  182.79   16.14
   5   0  -2  226.72   17.48
   5   0  -2  268.04   18.60
   5   0  -2  251.50   12.43
   5   0  -2  240.14   19.59
  -5   0   2  251.89   13.64
  -5   0   2  240.70   15.80
   4   0  -2  400.39   12.68
   4   0  -2  414.36   18.01
   4   0  -2  387.02   18.97
   4   0  -2  399.20   17.45
  -4   0   2  392.70   16.23
  -4   0   2  383.84   13.19
   3   0  -2 1052.87   20.08
   3   0  -2 1040.51   25.09
   3   0  -2 1031.03   25.48
  -3   0   2 1068.19   24.76
  -3   0   2 1062.81   26.38
  -3   0   2 1046.78   20.03
   2   0  -2 1684.81   24.73
   2   0  -2 1676.50   25.66
   2   0  -2 1713.11   31.49
   2   0  -2 1648.91   30.20
  -2   0   2 1660.14   30.80
  -2   0   2 1661.59   30.90
   1   0  -2   51.76    3.42
   1   0  -2   51.69    4.50
   1   0  -2   54.81    2.39
  -1   0   2   50.81    2.15
  -1   0   2   55.32    3.81
  -1   0   2   49.41    3.87
   0   0  -2  444.46    9.81
   0   0  -2  458.05    9.78
   0   0  -2  440.64    9.26
   0   0  -2  433.28    8.36
   0   0   2  475.11    9.74
  -1   0  -2 1037.80   17.26
  -1   0  -2 1057.30   20.78
  -1   0  -2 1065.49   19.17
   1   0   2 1051.56   18.90
   1   0   2 1020.71   17.04
   1   0   2 1071.09   20.51
  -2   0  -2  488.41   15.06
  -2   0  -2  469.91   13.79
   2   0   2  467.97   10.81
   2   0   2  465.85   13.68
   2   0   2  464.70   14.00
  -3   0  -2  365.00   15.22
  -3   0  -2  396.95   15.50
  -3   0  -2  387.59   11.56
   3   0   2  375.89   15.02
   3   0   2  374.73   11.63
   3   0   2  377.21   14.49
  -4   0  -2  430.84   14.31
  -4   0  -2  429.16   18.81
   4   0   2  399.47   17.18
   4   0   2  424.62   14.36
   4   0   2  407.33   18.64
   4   0   2  401.93   18.70
  -5   0  -2  159.23   11.88
  -5   0  -2  153.54   17.60
   5   0   2  172.27   12.75
   5   0   2  150.84   17.31
   5   0   2  194.02   17.35
   5   0   2  154.29   15.28
  -6   0  -2  131.87   17.68
  -6   0  -2  127.45   14.75
   6   0   2  135.29   18.98
   6   0   2  135.32   15.30
   6   0   2   69.58   15.40
  -7   0  -2    7.05   17.87
  -7   0  -2   14.44   12.16
   7   0   2    8.52   12.46
   7   0   2   20.70   17.74
   7   0   2    3.25   18.93
   7   0   2   -5.91   17.31
   6  -1  -2  160.22   11.84
   6  -1  -2  129.32   17.96
   6  -1  -2  119.13   17.54
   6  -1  -2  187.09   21.74
  -6   1   2  143.23   17.90
  -6   1   2  165.37   14.53
   5  -1  -2  206.67   18.88
   5  -1  -2  200.32    9.96
   5  -1  -2  195.29   18.57
   5  -1  -2  237.40   17.29
  -5   1   2  226.86   17.10
  -5   1   2  191.25   11.98
   4  -1  -2  497.47   21.03
   4  -1  -2  503.64   12.66
   4  -1  -2  567.77   20.42
  -4   1   2  481.47   13.70
  -4   1   2  523.48   22.10
  -4   1   2  534.60   20.01
   3  -1  -2  349.19    8.17
   3  -1  -2  364.51   15.63
  -3   1   2  357.94    9.24
  -3   1   2  349.33   15.20
  -3   1   2  360.57   14.42
   2  -1  -2   40.02    4.91
   2  -1  -2   31.24    5.80
  -2   1   2   34.95    5.01
  -2   1   2   31.83    5.13
   1  -1  -2 2370.74   39.30
   1  -1  -2 2395.32   36.94
  -1   1   2 2392.27   39.24
  -1   1   2 2402.43   32.02
  -1   1   2 2161.60   32.28
  -1   1   2 2443.61   37.41
   0  -1  -2 1429.74   23.44
   0  -1  -2 1383.37   23.51
   0   1   2 1369.43   23.19
   0   1   2 1399.35   23.39
   0   1   2 1394.86   22.42
  -1  -1  -2 1913.51   27.23
  -1  -1  -2 1878.50   31.03
  -1  -1  -2 1929.87   33.50
   1   1   2 1942.50   30.98
   1   1   2 1910.95   33.34
  -2  -1  -2  384.90   13.81
  -2  -1  -2  387.21   12.49
   2   1   2  399.43   13.72
   2   1   2  387.66   12.32
   2   1   2  381.03    6.16
  -3  -1  -2 1534.46   33.42
  -3  -1  -2 1522.70   23.65
  -3  -1  -2 1562.10   34.63
   3   1   2 1541.54   23.60
   3   1   2 1485.94   32.42
   3   1   2 1538.03   33.69
  -4  -1  -2   35.82    4.26
  -4  -1  -2   43.85    8.74
  -4  -1  -2   30.45    8.12
   4   1   2   41.26    4.90
   4   1   2   31.48    7.81
   4   1   2   26.05    7.42
  -5  -1  -2  110.60   14.82
  -5  -1  -2  119.34    8.23
   5   1   2  103.01   12.91
   5   1   2  119.80    9.41
   5   1   2  109.41   13.00
   5   1   2  108.97   13.79
  -6  -1  -2  421.97   27.51
  -6  -1  -2  409.21   14.90
   6   1   2  382.28   26.51
   6   1   2  405.76   16.19
   6   1   2  401.52   26.91
   6   1   2  410.54   25.80
  -7  -1  -2  124.71   21.51
   7   1   2  144.08   15.41
   7   1   2  176.36   25.49
   7   1   2   78.38   20.61
   7   1   2  129.44   20.11
   6  -2  -2    4.60   13.53
   6  -2  -2   13.07   12.41
   6  -2  -2   17.45    5.95
  -6   2   2   18.58   13.40
  -6   2   2   25.27    8.16
   5  -2  -2  137.99    8.26
   5  -2  -2  164.47   19.35
   5  -2  -2  159.97   16.83
  -5   2   2  153.05   11.36
  -5   2   2  111.42   16.20
   4  -2  -2  159.04   15.65
   4  -2  -2  160.59   13.41
   4  -2  -2  162.49    7.32
  -4   2   2  168.63    9.01
  -4   2   2  187.03   14.81
   3  -2  -2   31.68    3.69
   3  -2  -2   41.25    7.87
   3  -2  -2   34.31    6.16
  -3   2   2   29.47    6.86
  -3   2   2   27.42    3.97
  -3   2   2   17.38    5.79
   2  -2  -2  107.23    7.36
   2  -2  -2  100.37    4.31
   2  -2  -2  106.11    9.59
  -2   2   2   89.49    8.08
  -2   2   2   99.46    4.99
  -2   2   2  117.95    8.81
   1  -2  -2   34.55    4.07
   1  -2  -2   47.77    6.23
  -1   2   2   38.59    3.74
  -1   2   2   31.58    4.63
  -1   2   2   37.09    3.62
  -1   2   2   30.25    4.25
   0  -2  -2  452.40   12.41
   0  -2  -2  459.36   12.75
   0   2   2  458.64   12.45
   0   2   2  467.75   11.41
   0   2   2  478.79   12.73
  -1  -2  -2 1714.73   27.17
  -1  -2  -2 1732.95   29.74
  -1  -2  -2 1752.00   32.90
   1   2   2 1713.33   32.98
   1   2   2 1725.23   27.13
   1   2   2 1720.44   29.34
  -2  -2  -2  134.96    9.90
  -2  -2  -2  141.92    8.24
   2   2   2  135.90    7.86
   2   2   2  136.81    9.31
  -3  -2  -2  632.11   19.93
  -3  -2  -2  625.14   21.51
   3   2   2  604.17   20.91
   3   2   2  605.25   18.71
  -4  -2  -2  142.88   13.21
  -4  -2  -2  102.20   12.27
   4   2   2  149.92   13.94
   4   2   2  118.40   12.18
  -5  -2  -2   44.28   11.17
  -5  -2  -2   41.00   13.06
   5   2   2   56.27   11.93
   5   2   2   25.36    9.94
  -6  -2  -2  202.35   21.31
   6   2   2  199.65   20.92
   6   2   2  184.78   21.02
   6   2   2  193.53   20.65
  -7  -2  -2   30.28   20.57
   7   2   2   66.30   22.22
   7   2   2   61.51   19.31
   7   2   2   39.78   19.11
   6  -3  -2  125.90   18.86
   6  -3  -2  138.91   23.52
   6  -3  -2  121.01   10.24
  -6   3   2  106.99   11.12
  -6   3   2  112.37   19.80
   5  -3  -2  224.76   23.09
   5  -3  -2  267.45   10.66
   5  -3  -2  257.37   20.56
  -5   3   2  285.66   22.68
  -5   3   2  265.11   24.40
  -5   3   2  253.08   13.77
   4  -3  -2  424.57   19.81
   4  -3  -2  402.03   22.98
   4  -3  -2  416.04   12.22
  -4   3   2  397.96   22.00
  -4   3   2  402.42   21.68
  -4   3   2  403.32   14.36
   3  -3  -2   29.55    6.07
   3  -3  -2   37.68    9.55
   3  -3  -2   29.92    4.16
  -3   3   2   20.41    7.68
  -3   3   2   39.34    8.98
  -3   3   2   25.75    5.25
   2  -3  -2  892.15   26.33
   2  -3  -2  889.81   22.07
   2  -3  -2  899.06   18.33
  -2   3   2  880.16   23.03
  -2   3   2  889.73   18.78
  -2   3   2  884.30   25.57
   1  -3  -2  125.24    7.08
   1  -3  -2  121.86    9.46
  -1   3   2  124.67    7.85
  -1   3   2  122.80    7.11
  -1   3   2  120.31    8.64
  -1   3   2  115.30    7.20
   0  -3  -2 1221.26   26.21
   0   3   2 1225.17   23.78
   0   3   2 1226.72   25.00
   0   3   2 1279.89   27.03
   0   3   2 1241.22   26.49
  -1  -3  -2 3043.00   47.57
  -1  -3  -2 3036.63   48.23
  -1  -3  -2 3113.07   53.33
   1   3   2 2970.83   47.76
   1   3   2 3039.81   47.72
   1   3   2 3018.73   53.41
  -2  -3  -2 1085.83   18.26
  -2  -3  -2 1091.26   24.49
  -2  -3  -2 1112.71   28.69
   2   3   2 1072.12   18.79
   2   3   2 1056.16   28.25
   2   3   2 1099.02   23.72
  -3  -3  -2    8.58    6.50
  -3  -3  -2    5.75    4.91
   3   3   2   10.26    6.36
   3   3   2    4.69    4.72
  -4  -3  -2  413.25   19.83
  -4  -3  -2  456.82   22.48
   4   3   2  439.67   22.19
   4   3   2  483.46   19.73
  -5  -3  -2  386.61   24.55
  -5  -3  -2  423.15   23.10
   5   3   2  391.38   21.10
   5   3   2  404.00   25.10
  -6  -3  -2   16.24   14.53
   6   3   2    6.82   15.08
   6   3   2   23.96   12.28
   6   3   2   30.51   14.48
   6  -4  -2   28.91   19.11
   6  -4  -2    7.43   15.81
   6  -4  -2   37.04   23.09
   6  -4  -2    0.27    7.20
  -6   4   2   11.81   19.41
  -6   4   2   -1.31    9.79
   5  -4  -2   30.94   12.20
   5  -4  -2   23.86    6.48
  -5   4   2   19.14   14.87
  -5   4   2   22.43   14.22
  -5   4   2   19.85    8.29
   4  -4  -2  101.23    9.43
   4  -4  -2  128.75   17.26
   4  -4  -2  137.48   15.07
  -4   4   2  118.59   11.76
  -4   4   2  122.36   15.65
  -4   4   2  130.50   16.01
   3  -4  -2   78.47   15.02
   3  -4  -2   85.26    7.71
   3  -4  -2   97.88   10.91
  -3   4   2   94.70   12.40
  -3   4   2   76.18   12.31
  -3   4   2   86.57    8.68
   2  -4  -2  163.05   14.51
   2  -4  -2  138.89   10.01
   2  -4  -2  164.96    9.31
  -2   4   2  139.17   11.41
  -2   4   2  155.25   13.49
  -2   4   2  153.95    9.77
   1  -4  -2  310.68   15.32
   1  -4  -2  310.98   11.78
  -1   4   2  311.54   12.91
  -1   4   2  313.43   15.48
  -1   4   2  293.99   12.27
  -1   4   2  326.26   13.50
   0  -4  -2  128.54    7.62
   0  -4  -2  137.34   10.40
   0   4   2  132.92    8.13
   0   4   2  125.99    9.71
   0   4   2  128.15    9.81
   0   4   2  128.31    9.42
  -1  -4  -2 1451.13   29.62
  -1  -4  -2 1417.67   28.57
   1   4   2 1482.58   30.14
   1   4   2 1458.78   32.19
   1   4   2 1459.59   28.06
   1   4   2 1429.40   34.13
  -2  -4  -2  490.62   20.47
  -2  -4  -2  514.89   13.61
  -2  -4  -2  510.48   16.46
   2   4   2  514.60   15.99
   2   4   2  521.71   14.18
   2   4   2  493.75   20.81
  -3  -4  -2  838.37   14.68
  -3  -4  -2  902.29   29.65
  -3  -4  -2  873.34   25.11
   3   4   2  820.53   15.42
   3   4   2  839.80   29.01
   3   4   2  866.14   23.35
  -4  -4  -2   14.37    9.66
  -4  -4  -2   16.71    8.31
   4   4   2   23.58   10.93
   4   4   2   23.67    8.71
  -5  -4  -2  117.38   17.78
  -5  -4  -2  109.92   14.20
   5   4   2  110.17   14.33
   5   4   2  105.36   16.44
  -6  -4  -2   62.31   19.73
  -6  -4  -2   87.36   18.21
   6   4   2   52.34   14.49
   6   4   2   89.99   21.29
   5  -5  -2  179.12   26.47
   5  -5  -2  237.29   22.53
   5  -5  -2  211.22   14.89
  -5   5   2  275.32   29.92
  -5   5   2  212.16   19.36
  -5   5   2  213.57   25.55
   4  -5  -2   62.41   17.29
   4  -5  -2   52.51   11.46
   4  -5  -2   80.90    9.20
  -4   5   2   67.98   15.09
  -4   5   2   53.61   10.16
  -4   5   2   68.19   16.49
   3  -5  -2  131.09   17.13
   3  -5  -2  143.09   11.44
   3  -5  -2  164.28   14.06
  -3   5   2  156.19   13.54
  -3   5   2  135.41   16.05
  -3   5   2  162.47   17.27
   2  -5  -2  338.66   14.92
   2  -5  -2  335.84   22.08
  -2   5   2  341.60   20.16
  -2   5   2  316.94   15.40
  -2   5   2  297.68   16.55
   1  -5  -2  143.42   14.13
   1  -5  -2  132.78    9.76
  -1   5   2  118.31   10.87
  -1   5   2  109.89   11.51
  -1   5   2  128.47   13.68
  -1   5   2  144.65   10.88
   0  -5  -2  477.09   15.36
   0  -5  -2  466.79   19.01
   0   5   2  467.23   15.88
   0   5   2  457.21   17.89
   0   5   2  444.17   18.95
   0   5   2  470.84   19.77
  -1  -5  -2  214.77   10.79
  -1  -5  -2  240.33   13.12
   1   5   2  237.54   16.28
   1   5   2  235.64   11.29
   1   5   2  212.65   13.29
   1   5   2  208.78   13.76
  -2  -5  -2  463.16   15.16
  -2  -5  -2  441.61   16.59
   2   5   2  444.23   16.14
   2   5   2  440.41   15.96
   2   5   2  439.52   19.69
   2   5   2  468.60   22.73
  -3  -5  -2   22.99    4.39
  -3  -5  -2   10.91    6.89
   3   5   2   28.98    9.83
   3   5   2   29.03    7.18
   3   5   2   38.82    5.68
  -4  -5  -2  358.66   29.97
  -4  -5  -2  410.95   26.42
   4   5   2  407.16   26.53
   4   5   2  469.73   20.03
  -5  -5  -2   68.84   13.07
  -5  -5  -2   63.78   16.74
   5   5   2   80.26   13.63
   5   5   2   99.65   19.12
  -6  -5  -2   12.01   16.99
   6   5   2   37.41   23.48
   5  -6  -2   53.89   17.16
   5  -6  -2   44.47   25.52
  -5   6   2   45.39   21.12
  -5   6   2   11.21   21.30
   4  -6  -2  486.42   25.34
   4  -6  -2  521.54   56.35
  -4   6   2  496.42   31.21
  -4   6   2  548.88   26.12
  -4   6   2  450.25   32.59
   3  -6  -2   54.09   11.33
   3  -6  -2   85.25   17.50
  -3   6   2   46.05   13.32
  -3   6   2   63.59   11.57
  -3   6   2   47.34   15.35
   2  -6  -2  300.86   23.70
   2  -6  -2  241.28   19.20
  -2   6   2  307.70   18.97
  -2   6   2  285.40   17.79
  -2   6   2  285.75   21.50
  -2   6   2  277.45   18.11
   1  -6  -2   37.95   11.62
   1  -6  -2   39.80    7.39
  -1   6   2   25.18    8.90
  -1   6   2   29.45    8.76
  -1   6   2   43.31    8.85
  -1   6   2   10.01   11.13
   0  -6  -2  195.28   12.28
   0  -6  -2  221.22   17.31
   0   6   2  208.06   13.16
   0   6   2  217.39   17.28
   0   6   2  208.20   16.04
   0   6   2  184.05   16.35
  -1  -6  -2  357.04   18.73
  -1  -6  -2  385.87   15.80
   1   6   2  371.08   19.95
   1   6   2  388.66   19.60
   1   6   2  390.46   15.82
  -2  -6  -2    6.71    5.98
  -2  -6  -2   -3.60    6.22
   2   6   2   -4.82   10.18
   2   6   2    9.61    9.11
   2   6   2    2.56    7.01
   2   6   2    3.13    6.07
  -3  -6  -2  232.97   11.95
  -3  -6  -2  246.86   17.41
   3   6   2  220.65   13.57
   3   6   2  228.80   19.55
   3   6   2  216.43   22.11
   3   6   2  237.64   15.33
  -4  -6  -2   52.95   12.89
   4   6   2   20.17   15.71
   4   6   2   56.59    6.27
   4   6   2   41.17   10.48
   4   6   2   62.26   14.15
   4   6   2   63.78    6.19
  -5  -6  -2   17.58   13.42
   5   6   2   48.54   21.62
   5   6   2   23.25   12.43
   5   6   2   53.90   17.42
   4  -7  -2  102.04   29.88
   4  -7  -2   58.77   15.84
  -4   7   2   50.57   22.79
  -4   7   2   93.07   21.94
  -4   7   2   89.06   20.43
  -4   7   2  122.28   17.89
   3  -7  -2  321.87   21.65
   3  -7  -2  322.08   33.69
  -3   7   2  298.62   31.42
  -3   7   2  319.34   25.06
  -3   7   2  293.30   26.73
  -3   7   2  333.40   24.64
   2  -7  -2   36.39   16.04
   2  -7  -2   21.23    8.78
  -2   7   2   42.08   15.31
  -2   7   2   23.07   11.53
  -2   7   2   18.47   12.76
  -2   7   2   18.97   11.48
   1  -7  -2  335.32   25.52
  -1   7   2  321.68   19.85
  -1   7   2  371.39   25.09
  -1   7   2  318.85   21.94
  -1   7   2  316.71   25.02
   0  -7  -2   52.87    8.45
   0  -7  -2   25.27   12.78
   0   7   2   62.82   14.92
   0   7   2   36.89   12.90
   0   7   2   50.38   11.23
   0   7   2   55.84    9.88
  -1  -7  -2  315.51   16.40
  -1  -7  -2  330.19   21.26
   1   7   2  273.38   20.66
   1   7   2  326.51   22.03
   1   7   2  296.84   16.59
   1   7   2  322.57   24.65
  -2  -7  -2   86.49   11.08
  -2  -7  -2  107.96   12.26
   2   7   2   99.86   15.49
   2   7   2  116.27   13.75
   2   7   2   88.62   11.04
   2   7   2  103.05   18.18
  -3  -7  -2   49.85   11.79
  -3  -7  -2   47.58    8.91
   3   7   2   58.14   15.84
   3   7   2   60.84   10.60
   3   7   2   33.41   16.38
   3   7   2   34.95    9.75
  -4  -7  -2   70.00    8.20
  -4  -7  -2   72.48   14.68
   4   7   2   59.52   20.68
   4   7   2   66.23    9.19
   4   7   2   65.82   12.91
   4   7   2   82.22   17.05
   2  -8  -2  244.72   20.72
   2  -8  -2  212.44   27.37
  -2   8   2  205.48   23.20
  -2   8   2  241.98   24.27
  -2   8   2  226.84   25.08
  -2   8   2  187.92   20.36
   1  -8  -2   21.46   17.84
   1  -8  -2   46.41   10.45
  -1   8   2   49.19   18.67
  -1   8   2   44.35   13.02
  -1   8   2   64.56   17.44
  -1   8   2   42.46   15.02
   0  -8  -2   -4.04    8.97
   0  -8  -2   -8.40   14.01
   0   8   2    8.40   15.80
   0   8   2   14.85   14.92
   0   8   2   27.05   16.59
   0   8   2   18.26   11.29
  -1  -8  -2   70.15   11.10
  -1  -8  -2   57.68   15.21
   1   8   2   77.75   20.46
   1   8   2   79.69   12.82
   1   8   2   78.89   16.51
   1   8   2   72.71   16.68
  -2  -8  -2   -2.45   10.70
  -2  -8  -2   -1.85   11.77
   2   8   2    7.42   10.14
   2   8   2  -31.49   17.02
   2   8   2   15.80   15.56
   2   8   2  -21.47   14.50
  -3  -8  -2   60.56   11.94
  -3  -8  -2   54.12   13.24
   3   8   2   52.13   12.53
   3   8   2   37.81   14.06
   3   8   2   68.14   19.07
   3   8   2   33.30   21.54
   0  -9  -2  201.77   28.01
   0  -9  -2  177.62   19.68
   0   9   2  152.23   18.68
   0   9   2  168.95   27.82
   0   9   2  169.38   25.64
   0   9   2  183.05   25.30
  -1  -9  -2   95.95   14.70
  -1  -9  -2   98.10   21.44
   1   9   2   40.19   20.60
   1   9   2   78.00   20.99
   1   9   2   70.04   14.96
   1   9   2   88.43   24.27
   3   8  -3   41.99   18.67
   3   8  -3   78.51   24.46
   3   8  -3   60.71   17.82
   3   8  -3   58.43    8.87
   3   8  -3   63.82    8.15
  -3  -8   3   79.33   16.87
   2   8  -3   11.22   17.60
   2   8  -3   45.59   18.50
   2   8  -3   26.68   16.40
   2   8  -3    2.70    5.73
  -2  -8   3    8.46   13.50
   1   8  -3    9.69    6.05
   1   8  -3  -21.75   14.78
   1   8  -3   36.67   18.28
   1   8  -3    9.45   15.09
  -1  -8   3   11.86   14.18
  -1  -8   3    9.18    4.73
   0   8  -3   79.54    9.14
   0   8  -3   60.28   17.70
   0  -8   3   75.77    6.98
   0  -8   3  119.18   18.26
   0  -8   3   92.44   17.47
  -1   8  -3   53.98   19.14
  -1   8  -3   36.69   11.00
  -1   8  -3   41.53   20.29
   1  -8   3   20.54   13.90
   1  -8   3   46.95    7.64
   1  -8   3   63.97   19.37
  -2   8  -3   -6.94   20.01
  -2   8  -3   47.38   20.46
   2  -8   3   19.32   21.16
   2  -8   3   37.88    9.57
   2  -8   3   26.63   17.79
   2  -8   3   25.96   13.90
   4   7  -3   25.88   13.81
   4   7  -3   11.12    9.98
   4   7  -3   18.20    7.64
   4   7  -3   -4.07   19.25
   4   7  -3   -6.31   16.61
   3   7  -3   32.12    7.64
   3   7  -3   42.54    6.70
   3   7  -3   16.97   17.26
   3   7  -3   13.58   14.79
   3   7  -3   10.84   13.20
  -3  -7   3   31.07   11.95
   2   7  -3   70.24   16.66
   2   7  -3   57.30   13.87
   2   7  -3   93.58   16.36
   2   7  -3   68.67    6.34
  -2  -7   3   80.54   13.86
  -2  -7   3   74.33    7.64
   1   7  -3    3.98   11.31
   1   7  -3   16.83    4.75
   1   7  -3    0.85   11.43
  -1  -7   3   25.93   11.17
  -1  -7   3   14.91    3.90
  -1  -7   3   22.88   10.64
   0   7  -3   34.65   12.89
   0   7  -3   32.42    6.61
   0   7  -3   45.22   11.72
   0  -7   3   26.67   11.87
   0  -7   3   24.95    9.91
   0  -7   3   39.42    4.93
  -1   7  -3  263.47   23.35
  -1   7  -3  245.87   15.36
   1  -7   3  244.03   23.01
   1  -7   3  263.68   20.78
  -2   7  -3   13.47   13.70
  -2   7  -3   20.67   17.27
   2  -7   3   24.24   16.16
   2  -7   3   15.31    7.32
   2  -7   3   13.12   12.11
  -3   7  -3   75.14   19.42
  -3   7  -3   75.56   20.59
   3  -7   3   58.20   15.95
   3  -7   3   74.35   20.30
   3  -7   3   90.86   15.64
  -4   7  -3   52.76   25.03
  -4   7  -3   60.91   24.00
   4  -7   3   93.13   35.24
   4  -7   3   51.15   13.74
   4  -7   3   44.78   16.69
   5   6  -3  157.88   16.70
   5   6  -3  144.08   17.29
   5   6  -3  144.30   23.14
   5   6  -3  148.49   21.15
   5   6  -3  140.66   16.46
   4   6  -3   35.63    7.62
   4   6  -3   26.04   13.45
   4   6  -3   22.32   11.35
   4   6  -3   30.61   11.77
   4   6  -3   35.10   15.39
   4   6  -3   24.44    8.88
   3   6  -3   44.13   10.82
   3   6  -3   61.61    6.48
   3   6  -3   75.91   14.30
   3   6  -3   57.02   13.19
   3   6  -3   70.17    8.10
  -3  -6   3   52.44   10.06
   2   6  -3   79.59    6.42
   2   6  -3   72.92   10.93
   2   6  -3   87.06   13.15
   2   6  -3   77.36   13.76
  -2  -6   3   97.89   12.02
   1   6  -3   19.21    3.98
   1   6  -3   15.72    9.99
   1   6  -3    6.27    8.96
  -1  -6   3   20.99    9.65
  -1  -6   3   15.01    3.00
   0   6  -3  128.18   14.45
   0   6  -3  159.32   16.49
   0   6  -3  160.37    8.68
   0  -6   3  140.17    6.36
   0  -6   3  163.61   15.85
   0  -6   3  157.73   15.96
  -1   6  -3  124.32   16.59
  -1   6  -3  141.84   16.52
  -1   6  -3  104.97   10.53
   1  -6   3  131.86   15.48
   1  -6   3  119.49    7.96
   1  -6   3  131.38   16.22
  -2   6  -3   57.17   12.50
  -2   6  -3   30.62   11.66
   2  -6   3   71.05    8.09
   2  -6   3   44.67   12.49
   2  -6   3   46.95   11.28
  -3   6  -3   22.01   13.89
  -3   6  -3    1.83   11.97
   3  -6   3   10.94    9.54
   3  -6   3    4.65   10.05
   3  -6   3    9.78   14.49
   3  -6   3    9.53    8.11
  -4   6  -3   65.53   19.66
  -4   6  -3  107.67   19.31
   4  -6   3   63.60   12.32
   4  -6   3   91.16   17.25
   4  -6   3   88.46   15.63
   5   5  -3   94.72   13.93
   5   5  -3   85.79   13.54
   5   5  -3   88.62   17.24
   5   5  -3   81.96   15.98
   5   5  -3   93.87   12.84
   4   5  -3   62.80   10.84
   4   5  -3   81.35   15.06
   4   5  -3   57.53    9.44
   4   5  -3   73.45   13.75
   4   5  -3   69.90    8.92
   4   5  -3   60.60   10.21
   3   5  -3    6.35   10.92
   3   5  -3    9.52    4.33
   3   5  -3    6.42    8.57
   3   5  -3   19.91    7.55
   3   5  -3   11.63    5.55
  -3  -5   3   20.96    7.14
   2   5  -3  240.13   14.93
   2   5  -3  209.28   16.88
  -2  -5   3  215.51   13.61
   1   5  -3   28.88    7.64
   1   5  -3   46.01    8.95
   1   5  -3   28.90    3.03
  -1  -5   3   29.54    3.19
  -1  -5   3   22.07    7.74
  -1  -5   3   35.74    8.32
   0   5  -3  302.14   16.95
   0   5  -3  278.65    8.82
   0   5  -3  317.25   17.83
   0  -5   3  283.16   16.12
   0  -5   3  254.66   14.75
   0  -5   3  286.36    7.36
  -1   5  -3   85.10    8.31
  -1   5  -3   82.09   11.30
  -1   5  -3   80.73   11.30
   1  -5   3   75.04   11.10
   1  -5   3   65.64    9.23
   1  -5   3   75.72    5.97
  -2   5  -3   44.09   10.50
   2  -5   3   19.77    7.10
   2  -5   3   12.26    5.45
   2  -5   3   18.49    9.88
   2  -5   3   18.73    6.97
  -3   5  -3   51.90   11.59
  -3   5  -3   53.64   13.53
   3  -5   3   62.22   13.23
   3  -5   3   39.01    8.36
   3  -5   3   36.75   10.38
  -4   5  -3  -12.93   12.29
  -4   5  -3   -7.14   13.31
   4  -5   3  -10.94    9.14
   4  -5   3    1.05   11.99
   4  -5   3   20.98   14.07
   4  -5   3    0.15    9.65
  -5   5  -3   71.42   19.42
  -5   5  -3   64.62   17.86
   5  -5   3   43.91   17.54
   5  -5   3  100.91   16.78
   5  -5   3   68.49   13.96
   5  -5   3   55.92   20.27
   6   4  -3   42.81   15.02
   6   4  -3   20.20   10.49
   6   4  -3   36.32   15.84
   6   4  -3   26.26   16.82
   6   4  -3   19.60   13.38
   6   4  -3   10.79   14.32
   5   4  -3  203.17   22.34
   5   4  -3  194.27   15.09
   5   4  -3  209.90   18.05
   5   4  -3  245.35   21.19
   5   4  -3  181.29   18.40
   5   4  -3  169.87   19.09
   4   4  -3    5.13    8.25
   4   4  -3   -1.44    6.91
   4   4  -3    6.79    6.95
   4   4  -3    1.78    6.27
   4   4  -3   -0.52    5.65
   4   4  -3   13.77    9.30
   3   4  -3  228.10   10.66
   3   4  -3  216.84   12.49
   3   4  -3  219.52   15.24
   3   4  -3  256.29   16.65
   3   4  -3  208.98   10.90
   2   4  -3   27.44    6.99
   2   4  -3   19.70    5.33
   2   4  -3   23.21    3.77
   2   4  -3   20.11    3.31
  -2  -4   3   26.92    5.71
   1   4  -3  867.62   24.48
   1   4  -3  913.05   24.68
  -1  -4   3  923.90   24.81
  -1  -4   3  920.74   23.86
   0   4  -3   42.44    7.56
   0   4  -3   26.35    6.14
   0  -4   3   39.93    2.47
   0  -4   3   39.27    6.63
   0  -4   3   34.12    5.68
  -1   4  -3  152.31   11.90
  -1   4  -3  178.52   11.83
   1  -4   3  169.08    8.53
   1  -4   3  188.10   12.10
   1  -4   3  163.38    6.88
   1  -4   3  164.86   12.49
  -2   4  -3  153.76   13.66
  -2   4  -3  152.26   14.12
   2  -4   3  160.76   12.35
   2  -4   3  174.25    9.64
   2  -4   3  175.15   11.23
   2  -4   3  165.33   14.55
  -3   4  -3   28.07    9.52
  -3   4  -3   16.85    8.72
   3  -4   3   12.72    6.85
   3  -4   3   26.12    7.19
   3  -4   3   12.87    7.26
   3  -4   3   56.69   18.75
  -4   4  -3  163.45   18.59
   4  -4   3  185.85   19.82
   4  -4   3  153.21   15.94
   4  -4   3  148.61   15.68
  -5   4  -3   71.78   15.55
  -5   4  -3   69.21   16.57
   5  -4   3   75.16   16.62
   5  -4   3   71.32   13.21
   5  -4   3   72.43   13.93
   5  -4   3   81.10   16.64
  -6   4  -3  138.17   23.14
  -6   4  -3  152.70   22.89
   6  -4   3  144.22   20.06
   6  -4   3  125.83   22.27
   6  -4   3  122.87   22.68
   6  -4   3  147.84   18.44
   6   3  -3   25.31   13.65
   6   3  -3   12.73    9.32
   6   3  -3   54.04   14.60
   6   3  -3   60.03   15.61
   6   3  -3   20.80   13.20
   6   3  -3   29.32   13.22
   5   3  -3  152.72   14.27
   5   3  -3  144.60   16.30
   5   3  -3  148.03   17.50
   5   3  -3  155.95   17.86
   5   3  -3  150.51   12.83
   5   3  -3  153.85   16.81
   4   3  -3  214.60   13.85
   4   3  -3  228.30   14.46
   4   3  -3  247.40   12.48
   4   3  -3  209.89   16.07
   4   3  -3  252.82   15.11
   4   3  -3  235.18   14.46
   3   3  -3  132.39   10.82
   3   3  -3  147.38   10.96
   3   3  -3  140.75    9.46
   3   3  -3  140.58    9.59
   3   3  -3  135.86    9.29
   3   3  -3  150.37   12.09
   2   3  -3  797.30   16.36
   2   3  -3  762.92   19.88
   2   3  -3  817.81   16.69
   2   3  -3  778.32   21.02
  -2  -3   3  771.06   21.02
  -2  -3   3  773.89   19.81
   1   3  -3  784.83   20.42
   1   3  -3  804.51   20.93
  -1  -3   3  790.66   20.45
  -1  -3   3  790.76   20.04
   0   3  -3  393.85   14.48
   0   3  -3  370.34   13.77
   0  -3   3  380.33   13.93
   0  -3   3  365.13   13.36
  -1   3  -3  854.13   23.54
  -1   3  -3  835.10   22.47
   1  -3   3  841.05   16.64
   1  -3   3  873.99   22.72
   1  -3   3  833.03   17.51
  -2   3  -3   48.89    8.17
  -2   3  -3   44.96    7.72
   2  -3   3   64.82    6.94
   2  -3   3   42.81    7.65
   2  -3   3   43.78    6.28
   2  -3   3   49.46    6.55
  -3   3  -3   44.91    8.23
  -3   3  -3   44.20    8.97
   3  -3   3   37.59    6.85
   3  -3   3   47.63    7.47
   3  -3   3   34.87    7.80
   3  -3   3   49.53    8.26
  -4   3  -3   87.49   13.38
  -4   3  -3   87.05   12.72
   4  -3   3   85.65   19.32
   4  -3   3   98.73   13.40
   4  -3   3   81.26   10.49
   4  -3   3   90.11   12.48
  -5   3  -3  219.82   22.62
  -5   3  -3  193.64   21.44
   5  -3   3  208.83   22.76
   5  -3   3  242.81   21.07
   5  -3   3  227.22   21.60
   5  -3   3  222.70   20.49
  -6   3  -3   39.62   14.89
  -6   3  -3   44.09   18.09
   6  -3   3   57.16   17.65
   6  -3   3   47.15   16.37
   6  -3   3   85.54   15.01
   6  -3   3   85.00   18.27
   6   2  -3   39.22    9.43
   6   2  -3   47.67   13.45
   6   2  -3   40.32   13.87
   6   2  -3   26.85   11.21
   6   2  -3   26.30   13.58
   6   2  -3   34.06   10.89
   5   2  -3   21.75    9.87
   5   2  -3   40.29   10.00
   5   2  -3   31.70    7.66
   5   2  -3   39.69    9.42
   5   2  -3   37.72    8.49
   4   2  -3  136.66   12.27
   4   2  -3  136.49   11.62
   4   2  -3  143.94   12.72
   4   2  -3  107.65   10.39
   4   2  -3  120.25    9.53
   4   2  -3  123.26   11.92
   3   2  -3  528.64   15.66
   3   2  -3  518.58   16.11
   3   2  -3  523.96   16.97
   3   2  -3  496.04   15.75
   3   2  -3  532.09   17.56
   3   2  -3  525.69   17.14
   2   2  -3  628.70   16.27
   2   2  -3  648.52   15.43
   2   2  -3  618.87   16.34
   2   2  -3  625.72   14.42
   2   2  -3  636.05   17.39
  -2  -2   3  603.23   16.13
   1   2  -3 1056.85   22.40
   1   2  -3 1097.82   16.93
   1   2  -3 1096.82   16.34
   1   2  -3 1079.94   22.25
  -1  -2   3 1035.14   22.13
  -1  -2   3 1041.82   21.95
   0   2  -3  152.86    8.18
   0   2  -3  140.30    7.57
   0  -2   3  144.02    7.62
   0  -2   3  148.64    3.00
  -1   2  -3 1350.04   28.51
  -1   2  -3 1340.31   28.17
   1  -2   3 1360.61   23.75
   1  -2   3 1378.88   23.77
   1  -2   3 1364.04   27.80
   1  -2   3 1386.76   27.75
  -2   2  -3  177.54   10.22
  -2   2  -3  164.29   10.99
   2  -2   3  177.98    8.94
   2  -2   3  180.23    9.94
   2  -2   3  186.96    9.55
   2  -2   3  177.25   10.25
  -3   2  -3  440.25   18.27
  -3   2  -3  470.24   17.66
   3  -2   3  463.54   17.45
   3  -2   3  441.22   16.96
   3  -2   3  450.02   17.25
   3  -2   3  480.63   17.34
  -4   2  -3  224.47   17.07
  -4   2  -3  188.21   14.24
   4  -2   3  197.85   15.33
   4  -2   3  201.78   15.02
   4  -2   3  210.94   14.57
   4  -2   3  218.94   14.87
  -5   2  -3   28.54   11.43
  -5   2  -3   29.32    9.78
   5  -2   3   39.93   11.47
   5  -2   3   48.02   11.52
   5  -2   3   37.81    9.40
   5  -2   3   51.10   11.84
  -6   2  -3  193.23   21.23
  -6   2  -3  188.06   21.97
   6  -2   3  204.99   22.21
   6  -2   3  202.52   22.64
   6  -2   3  199.44   21.48
   6  -2   3  200.73   23.32
   6   1  -3   25.11   13.52
   6   1  -3   61.57    9.69
   6   1  -3   63.85   10.04
   6   1  -3   52.47   13.58
   5   1  -3  137.44   16.07
   5   1  -3  108.52   10.56
   5   1  -3  133.87   15.76
   5   1  -3  134.50   11.84
   5   1  -3  104.51   12.70
  -5  -1   3  124.13   13.33
   4   1  -3   22.18    6.51
   4   1  -3   33.36    8.24
   4   1  -3   24.00    5.08
   4   1  -3   23.17    7.53
   4   1  -3   24.27    5.43
  -4  -1   3   25.71    6.16
   3   1  -3   36.04    4.97
   3   1  -3   49.69    7.39
   3   1  -3   33.79    4.80
   3   1  -3   36.08    5.62
  -3  -1   3   30.08    5.56
   2   1  -3  238.25   10.63
   2   1  -3  222.73    9.18
   2   1  -3  249.17    8.17
   2   1  -3  242.62    8.84
   2   1  -3  245.88    8.54
  -2  -1   3  251.32    9.74
   1   1  -3  213.26    8.05
   1   1  -3  223.24    7.48
   1   1  -3  214.48    5.95
  -1  -1   3  207.73    6.53
  -1  -1   3  200.91    6.95
   0   1  -3 1005.68   15.72
   0   1  -3  979.62   19.56
   0   1  -3  972.97   19.92
   0  -1   3 1010.14   19.54
   0  -1   3  988.28   19.51
   0  -1   3 1026.89   15.65
  -1   1  -3 2284.70   37.97
  -1   1  -3 2260.44   36.18
  -1   1  -3 2285.34   39.98
   1  -1   3 2361.01   37.56
   1  -1   3 2324.26   35.69
   1  -1   3 2282.58   39.28
  -2   1  -3   33.13    4.95
  -2   1  -3   35.32    4.77
  -2   1  -3   36.53    6.13
   2  -1   3   39.50    5.35
   2  -1   3   19.99    4.73
   2  -1   3   24.64    4.22
  -3   1  -3  384.88   16.72
  -3   1  -3  379.28   13.83
   3  -1   3  383.49   15.50
   3  -1   3  362.63   15.62
   3  -1   3  382.56   13.54
  -4   1  -3  289.11   14.36
  -4   1  -3  274.21   17.66
   4  -1   3  288.19   16.30
   4  -1   3  290.15   16.62
   4  -1   3  288.74   14.16
   4  -1   3  292.20   17.08
  -5   1  -3   39.38   11.79
  -5   1  -3   45.43    9.09
   5  -1   3   50.93   11.41
   5  -1   3   42.99   10.88
   5  -1   3   58.21   12.41
   5  -1   3   31.20    8.48
  -6   1  -3   74.58   17.30
  -6   1  -3   53.00   11.55
   6  -1   3   66.63   12.32
   6  -1   3   41.55   15.40
   6  -1   3   62.04   14.73
   6  -1   3   49.76   16.78
   7  -1   3   49.97   18.17
   6   0  -3  137.48   11.73
   6   0  -3  110.44   17.42
   6   0  -3  111.41   11.56
   6   0  -3  145.48   17.86
   6   0  -3  135.97   20.05
  -6   0   3  105.14   14.64
   5   0  -3   98.25   13.64
   5   0  -3  112.54   13.63
   5   0  -3  105.47    8.88
   5   0  -3   88.74   12.03
  -5   0   3  118.54   14.03
   4   0  -3  254.89    9.22
   4   0  -3  266.19   16.71
   4   0  -3  247.68    8.86
  -4   0   3  247.48   14.23
   3   0  -3   54.55    7.47
   3   0  -3   47.79    6.51
   3   0  -3   49.77    4.00
   3   0  -3   51.39    4.15
  -3   0   3   43.78    6.16
  -3   0   3   66.60    8.29
   2   0  -3  248.86    9.40
   2   0  -3  260.09    5.93
   2   0  -3  251.57    6.24
   2   0  -3  258.09   11.27
  -2   0   3  261.22   10.33
  -2   0   3  244.15   10.37
   1   0  -3   35.09    3.20
   1   0  -3   42.10    5.33
   1   0  -3   34.03    3.10
  -1   0   3   31.23    2.34
  -1   0   3   33.18    3.77
  -1   0   3   33.42    4.36
   0   0  -3 1410.34   24.15
   0   0  -3 1457.37   24.89
   0   0  -3 1422.00   22.79
   0   0   3 1422.82   24.65
   0   0   3 1440.80   22.58
  -1   0  -3 2634.61   41.23
  -1   0  -3 2722.15   44.47
  -1   0  -3 2661.45   39.90
   1   0   3 2634.10   39.44
   1   0   3 2660.70   43.86
   1   0   3 2674.03   40.87
  -2   0  -3  126.47    7.80
  -2   0  -3  145.72    6.25
  -2   0  -3  151.24    9.72
   2   0   3  136.93    6.06
   2   0   3  131.76    7.93
   2   0   3  150.43    8.89
  -3   0  -3  203.33   12.96
  -3   0  -3  216.15    8.75
  -3   0  -3  205.41   11.60
   3   0   3  187.73   11.59
   3   0   3  193.67   11.67
   3   0   3  200.32    8.48
  -4   0  -3  179.84   15.17
  -4   0  -3  157.05   13.40
  -4   0  -3  161.80    9.44
   4   0   3  169.12    9.60
   4   0   3  181.30   14.25
   4   0   3  159.15   13.44
  -5   0  -3   54.66    7.95
  -5   0  -3   41.83   12.37
   5   0   3   49.99   11.43
   5   0   3   40.33   11.17
   5   0   3   33.43   10.10
   5   0   3   50.05    7.57
  -6   0  -3  112.58   18.39
  -6   0  -3   88.51   10.53
   6   0   3   90.35   17.00
   6   0   3   81.99   17.54
   6   0   3  106.93   16.29
   6   0   3   98.73   11.51
  -7   0  -3   19.87   20.67
  -7   0  -3   46.70   12.06
   7   0   3   11.06   19.86
   7   0   3   34.68   22.60
   7   0   3   24.45   12.11
   7   0   3   45.39   25.03
   6  -1  -3  106.52    7.43
   6  -1  -3  115.13   17.59
   6  -1  -3  167.83   21.74
   6  -1  -3  100.58    8.48
   6  -1  -3   91.65   17.48
  -6   1   3  108.81   15.60
   5  -1  -3    9.82    4.16
   5  -1  -3   18.07    3.46
   5  -1  -3   23.61    9.00
   5  -1  -3   11.35   12.75
  -5   1   3   27.08    9.69
   4  -1  -3   49.97   10.40
   4  -1  -3   50.98    8.62
  -4   1   3   61.23    9.11
  -4   1   3   46.73   10.41
   3  -1  -3  166.34   12.49
   3  -1  -3  153.15    9.84
  -3   1   3  152.77   11.05
  -3   1   3  145.98   11.44
   2  -1  -3  752.10   21.16
   2  -1  -3  775.51   18.73
  -2   1   3  807.19   20.07
  -2   1   3  770.42   20.80
   1  -1  -3  408.62   13.19
   1  -1  -3  397.70    8.27
   1  -1  -3  398.25   10.81
  -1   1   3  381.54    8.03
  -1   1   3  390.62   12.37
  -1   1   3  386.12   11.23
   0  -1  -3  836.30   17.35
   0  -1  -3  798.94   16.95
   0  -1  -3  800.38   16.05
   0   1   3  798.33   16.78
   0   1   3  825.09   15.96
   0   1   3  840.44   17.08
  -1  -1  -3  626.23   11.91
  -1  -1  -3  626.21   14.61
  -1  -1  -3  645.67   12.75
   1   1   3  622.87   16.54
   1   1   3  638.53   14.41
  -2  -1  -3   63.27    3.12
  -2  -1  -3   70.84    6.49
  -2  -1  -3   73.73    8.01
   2   1   3   68.88    6.33
   2   1   3   69.40    7.76
  -3  -1  -3   86.50   10.45
  -3  -1  -3   88.05    9.11
  -3  -1  -3   78.50    3.93
   3   1   3   67.38    8.47
   3   1   3   71.31    3.87
   3   1   3   61.58    7.55
  -4  -1  -3   21.70    3.63
  -4  -1  -3   32.03    6.97
  -4  -1  -3   24.80    8.66
   4   1   3   23.10    3.65
   4   1   3   31.21    8.11
   4   1   3   36.33    8.27
  -5  -1  -3  123.29    7.98
  -5  -1  -3  118.51   17.93
   5   1   3  121.58   14.13
   5   1   3  131.35    8.11
   5   1   3  136.35   15.58
  -6  -1  -3  143.78   10.01
  -6  -1  -3  155.99   19.31
   6   1   3  165.73   18.76
   6   1   3  158.33   10.64
   6   1   3  121.19   17.95
   6   1   3  159.96   19.26
  -7  -1  -3   66.51   21.72
   7   1   3   45.72    8.09
   7   1   3   87.72   24.41
   7   1   3   22.41   19.62
   7   1   3   49.20   22.95
   6  -2  -3  101.38   18.83
   6  -2  -3   92.31   17.92
   6  -2  -3  101.79   20.57
  -6   2   3  154.82   19.90
   5  -2  -3  345.66   24.84
   5  -2  -3  374.82   21.40
  -5   2   3  316.32   22.05
  -5   2   3  340.18   24.83
   4  -2  -3   67.75   13.28
   4  -2  -3   62.26   11.61
  -4   2   3   90.04   12.46
  -4   2   3   87.73   13.04
   3  -2  -3  685.41   21.07
   3  -2  -3  730.26   24.71
  -3   2   3  733.56   23.28
  -3   2   3  696.54   23.45
   2  -2  -3  243.91   10.83
   2  -2  -3  252.97   13.67
  -2   2   3  245.11   11.96
  -2   2   3  251.94    6.48
  -2   2   3  257.76    6.26
  -2   2   3  288.96   13.08
   1  -2  -3  475.18   13.04
   1  -2  -3  469.85   15.81
  -1   2   3  460.88   13.58
  -1   2   3  478.84   10.76
  -1   2   3  452.51   11.29
  -1   2   3  451.56   15.02
   0  -2  -3  261.25    9.88
   0  -2  -3  257.50   10.09
   0  -2  -3  252.29    8.80
   0   2   3  260.46    9.67
   0   2   3  257.33    8.83
   0   2   3  253.53    9.61
  -1  -2  -3  278.88   11.94
  -1  -2  -3  269.71    9.57
  -1  -2  -3  275.48    8.52
   1   2   3  274.87    9.61
   1   2   3  259.73   11.25
   1   2   3  258.12    8.02
  -2  -2  -3  189.05   11.90
  -2  -2  -3  191.99    9.70
   2   2   3  221.58   11.84
   2   2   3  200.21    9.56
  -3  -2  -3    5.66    6.07
  -3  -2  -3    8.84    4.73
   3   2   3    7.87    5.47
   3   2   3    8.28    4.68
  -4  -2  -3  337.06   18.51
  -4  -2  -3  316.30   19.78
   4   2   3  325.22   16.82
   4   2   3  355.74   19.49
  -5  -2  -3  221.23   19.37
  -5  -2  -3  203.96   20.92
   5   2   3  221.01   17.99
   5   2   3  203.22   21.98
  -6  -2  -3   79.10   17.38
   6   2   3   77.20   16.65
   6   2   3   74.30   16.41
   6   2   3   52.90   14.40
  -7  -2  -3   27.15   21.48
   7   2   3   34.75   22.40
   7   2   3   51.00   21.17
   7   2   3   79.75   30.39
   6  -3  -3   51.31   19.09
   6  -3  -3   57.09   15.55
  -6   3   3   75.35   19.18
   5  -3  -3  277.84   25.06
   5  -3  -3  215.59   19.56
  -5   3   3  235.36   24.30
  -5   3   3  221.80   21.90
   4  -3  -3  320.34   22.54
   4  -3  -3  342.03   18.91
  -4   3   3  353.89   10.92
  -4   3   3  354.74   21.22
  -4   3   3  311.89   21.14
   3  -3  -3  456.28   17.57
   3  -3  -3  425.51   21.61
  -3   3   3  435.40   19.11
  -3   3   3  415.05   11.75
  -3   3   3  464.68   20.95
  -3   3   3  447.04   11.65
   2  -3  -3  418.72   14.93
   2  -3  -3  415.74   18.27
  -2   3   3  441.13   16.37
  -2   3   3  449.64   12.36
  -2   3   3  432.14   18.02
  -2   3   3  439.05   11.63
   1  -3  -3  450.97   13.83
   1  -3  -3  446.24   17.20
  -1   3   3  467.73   15.07
  -1   3   3  461.34   16.73
  -1   3   3  439.51   13.65
  -1   3   3  455.56   12.88
   0  -3  -3  814.41   21.03
   0  -3  -3  845.57   19.46
   0  -3  -3  859.20   21.67
   0   3   3  818.35   20.87
   0   3   3  816.54   19.07
   0   3   3  836.03   21.23
  -1  -3  -3  820.10   22.92
  -1  -3  -3  818.71   19.43
  -1  -3  -3  817.36   18.76
   1   3   3  806.29   22.86
   1   3   3  822.48   18.35
   1   3   3  823.31   19.37
  -2  -3  -3  172.84    6.40
  -2  -3  -3  199.95   10.39
  -2  -3  -3  167.28   12.74
   2   3   3  205.77   12.88
   2   3   3  187.00    9.68
   2   3   3  178.21    5.94
  -3  -3  -3  121.64   10.75
  -3  -3  -3  133.89   13.33
   3   3   3  132.84   10.39
   3   3   3  122.89   12.54
  -4  -3  -3   11.13   10.55
  -4  -3  -3    9.44    7.33
   4   3   3   11.18    9.47
  -5  -3  -3  112.70   15.04
  -5  -3  -3  147.13   19.25
   5   3   3  121.11   14.38
   5   3   3  130.53   17.87
  -6  -3  -3   31.48   17.46
  -6  -3  -3   45.30   14.52
   6   3   3   33.65   16.36
   6   3   3   47.87   13.57
   6  -4  -3   60.58   18.81
  -6   4   3  120.24   21.99
   5  -4  -3   60.08   15.06
   5  -4  -3   57.81   16.63
  -5   4   3   71.62    8.06
  -5   4   3   57.35    6.31
  -5   4   3   56.51   16.58
  -5   4   3   76.27   16.72
   4  -4  -3  132.04   18.39
   4  -4  -3  124.33   14.60
  -4   4   3   87.89   14.13
  -4   4   3  108.60   10.51
  -4   4   3  128.48   16.53
   3  -4  -3   85.68   10.99
   3  -4  -3   93.64   14.41
  -3   4   3   94.94    8.76
  -3   4   3   73.67   11.92
  -3   4   3   87.99    8.53
   2  -4  -3  146.73   15.08
   2  -4  -3  140.25   10.55
  -2   4   3  128.08    9.05
  -2   4   3  149.92   12.22
  -2   4   3  136.70    9.55
  -2   4   3  141.12   13.80
   1  -4  -3  402.46   18.37
   1  -4  -3  430.11   14.54
  -1   4   3  401.91   17.72
  -1   4   3  426.72   15.77
  -1   4   3  410.63   15.41
  -1   4   3  419.18   14.44
   0  -4  -3   11.55    3.41
   0  -4  -3   13.11    5.36
   0   4   3    9.12    5.02
   0   4   3   19.67    5.20
   0   4   3   16.50    4.30
   0   4   3   18.73    5.64
  -1  -4  -3  699.06   18.73
  -1  -4  -3  730.53   23.25
  -1  -4  -3  708.17   19.42
   1   4   3  711.95   23.49
   1   4   3  696.81   18.51
   1   4   3  689.91   19.19
  -2  -4  -3   86.76   11.33
  -2  -4  -3   71.16    6.91
  -2  -4  -3   84.65    8.55
   2   4   3   74.66    6.24
   2   4   3   68.51    7.91
   2   4   3   96.33   11.66
  -3  -4  -3  199.19   13.64
  -3  -4  -3  229.96   17.40
   3   4   3  227.71   17.56
   3   4   3  224.45   12.99
  -4  -4  -3  357.90   23.67
  -4  -4  -3  246.17   25.28
   4   4   3  352.62   23.30
   4   4   3  338.14   18.13
  -5  -4  -3   53.40   14.90
  -5  -4  -3   62.89   12.52
   5   4   3   25.15   14.60
   5   4   3   43.82   11.31
  -6  -4  -3   91.20   18.28
  -6  -4  -3  106.49   21.94
   6   4   3   61.20   20.65
   5  -5  -3  196.19   20.96
   5  -5  -3  211.15   26.97
  -5   5   3  209.32   16.89
  -5   5   3  216.83   14.12
  -5   5   3  233.49   25.55
  -5   5   3  219.51   24.97
   4  -5  -3   56.95   12.09
  -4   5   3   50.92   15.01
  -4   5   3   64.48   14.93
  -4   5   3   52.52    9.56
  -4   5   3   50.17    8.58
   3  -5  -3    1.92    7.12
   3  -5  -3   18.46   11.13
  -3   5   3   14.03    6.73
  -3   5   3   26.84   10.87
  -3   5   3    6.76    6.45
  -3   5   3   -2.15    9.73
   2  -5  -3    4.44    9.07
   2  -5  -3   14.14    5.94
  -2   5   3   -0.84    7.64
  -2   5   3    6.30    5.95
  -2   5   3   14.39    6.58
  -2   5   3    6.49   14.49
   1  -5  -3  113.09    9.62
  -1   5   3  130.75   14.33
  -1   5   3  121.85   11.39
  -1   5   3  142.35   12.36
  -1   5   3  110.42   10.73
   0  -5  -3  168.17   10.78
   0  -5  -3  178.53   14.40
   0   5   3  164.05   13.67
   0   5   3  176.75   12.95
   0   5   3  170.88   13.78
   0   5   3  174.93   11.24
  -1  -5  -3   32.19    7.18
  -1  -5  -3   18.83    5.49
   1   5   3   22.14    7.20
   1   5   3   24.84    8.44
   1   5   3   40.63    7.15
   1   5   3   32.00    6.98
  -2  -5  -3   90.54   10.07
  -2  -5  -3   79.39    8.86
   2   5   3   63.68   11.48
   2   5   3   67.06    7.60
   2   5   3   91.64   10.29
  -3  -5  -3   94.60    6.70
  -3  -5  -3  100.74   11.50
  -3  -5  -3   81.08   14.05
   3   5   3   85.68   15.18
   3   5   3   93.45   10.75
   3   5   3   59.42    6.80
  -4  -5  -3   71.34   12.02
  -4  -5  -3   80.71   16.09
   4   5   3   91.92   16.64
   4   5   3   90.46   12.40
  -5  -5  -3   16.48   12.89
  -5  -5  -3    3.11   15.82
   5   5   3   -0.13   15.77
   5   5   3   31.74   12.14
  -6  -5  -3   55.64   22.88
  -6  -5  -3   40.56   20.16
   6   5   3   44.42   17.09
   6   5   3   44.00   21.60
   4  -6  -3   96.04   14.41
   4  -6  -3   46.81   20.40
  -4   6   3   82.64   12.63
  -4   6   3   95.99   13.40
  -4   6   3   78.66   17.86
  -4   6   3   44.11   19.05
   3  -6  -3   82.37   18.88
   3  -6  -3   56.75   10.12
  -3   6   3   53.57   11.40
  -3   6   3   63.14   10.87
  -3   6   3   45.34   13.97
  -3   6   3   72.58   15.31
   2  -6  -3   29.53   14.94
   2  -6  -3   38.41    9.18
  -2   6   3   48.31   12.10
  -2   6   3   45.25   10.37
  -2   6   3   36.03    9.45
  -2   6   3   29.98   10.96
   1  -6  -3  187.87   19.29
   1  -6  -3  186.90   12.86
  -1   6   3  147.66   22.45
  -1   6   3  163.38   14.54
  -1   6   3  207.14   17.48
  -1   6   3  179.17   18.43
   0  -6  -3  462.05   18.23
   0  -6  -3  514.87   23.91
   0   6   3  494.69   23.82
   0   6   3  486.25   23.06
   0   6   3  501.83   19.25
   0   6   3  501.82   21.75
  -1  -6  -3  139.69   12.04
  -1  -6  -3  174.18   14.84
   1   6   3  184.23   15.45
   1   6   3  178.58   12.93
   1   6   3  136.02   26.65
   1   6   3  156.11   15.97
  -2  -6  -3  305.54   16.81
  -2  -6  -3  330.93   16.40
   2   6   3  323.45   16.61
   2   6   3  340.86   23.34
   2   6   3  309.33   20.37
   2   6   3  326.04   16.04
  -3  -6  -3  140.80   10.23
  -3  -6  -3  133.55   14.50
   3   6   3  162.18   14.75
   3   6   3  146.14   11.34
   3   6   3  190.55   19.51
   3   6   3  210.57   22.22
  -4  -6  -3  119.18   15.30
   4   6   3  128.04   14.31
   4   6   3  141.86   21.47
   4   6   3  109.41   16.93
  -5  -6  -3   59.86   15.07
   5   6   3   57.21   15.23
   5   6   3   53.96   19.84
   4  -7  -3   -9.83   14.22
  -4   7   3   -8.11   19.74
   3  -7  -3   33.75   11.52
   3  -7  -3   30.46   19.00
  -3   7   3    9.81   14.35
  -3   7   3   27.18   17.69
  -3   7   3    5.14   12.64
  -3   7   3   22.51   14.81
   2  -7  -3    6.65    8.63
   2  -7  -3   18.43   16.77
  -2   7   3   10.35   14.03
  -2   7   3    5.74   11.53
  -2   7   3   10.40   10.01
  -2   7   3    0.25   19.48
   1  -7  -3   25.15   14.11
   1  -7  -3   41.64    9.34
  -1   7   3   65.07   13.58
  -1   7   3   39.95   13.19
  -1   7   3   30.15   10.22
  -1   7   3   48.39   12.12
   0  -7  -3  326.08   24.16
   0  -7  -3  257.52   16.94
   0   7   3  251.67   17.07
   0   7   3  235.68   22.20
   0   7   3  286.27   20.62
   0   7   3  297.76   22.67
  -1  -7  -3   57.75   12.74
   1   7   3   49.78   14.90
   1   7   3   47.63   12.16
   1   7   3   52.97   10.07
   1   7   3   61.15   12.58
  -2  -7  -3   21.23    9.22
  -2  -7  -3    1.97    7.95
   2   7   3    0.80   11.30
   2   7   3   -2.42    8.06
   2   7   3    7.22   13.93
   2   7   3    1.60    9.51
  -3  -7  -3  319.63   22.36
  -3  -7  -3  345.54   16.53
   3   7   3  335.88   18.41
   3   7   3  312.21   26.56
   3   7   3  362.57   31.09
   3   7   3  330.14   19.03
  -4  -7  -3   64.12   15.45
  -4  -7  -3   60.72    6.62
   4   7   3   52.87   20.35
   4   7   3   69.22    7.01
   4   7   3   88.47   14.20
   4   7   3   40.65   16.99
   2  -8  -3  -25.25   11.26
   2  -8  -3    2.33   20.08
  -2   8   3   21.95   15.65
  -2   8   3   30.24   19.66
  -2   8   3   29.61   15.75
  -2   8   3   12.48   16.79
   1  -8  -3  233.42   19.89
   1  -8  -3  238.57   25.17
  -1   8   3  293.21   28.96
  -1   8   3  243.40   25.52
  -1   8   3  243.50   23.20
  -1   8   3  262.96   30.84
   0  -8  -3  163.83   22.68
   0  -8  -3  177.19   17.23
   0   8   3  178.39   22.00
   0   8   3  171.64   19.51
   0   8   3  188.86   22.03
   0   8   3  155.98   20.58
  -1  -8  -3   25.10   14.81
  -1  -8  -3   17.95   10.29
   1   8   3   64.81   19.92
   1   8   3   39.21   14.74
   1   8   3   31.06   11.05
   1   8   3   22.88   14.79
  -2  -8  -3   17.12   12.32
  -2  -8  -3   10.38   11.34
   2   8   3    9.63   20.33
   2   8   3   20.78   11.21
   2   8   3   15.30   20.08
   2   8   3   11.10   17.12
  -3  -8  -3   -8.44   12.50
  -3  -8  -3   12.46   10.46
   3   8   3    7.41   12.19
   3   8   3   12.76   11.87
   3   8   3    0.89   19.05
   3   8   3    1.12   19.03
   2   8  -4   40.03   21.00
   2   8  -4  101.25   19.78
   2   8  -4   86.05   22.24
  -2  -8   4   88.14   16.27
   1   8  -4   -3.02   16.07
   1   8  -4   37.70   18.30
  -1  -8   4   20.90   15.50
  -1  -8   4   20.93   15.62
   0   8  -4   97.04   19.79
   0   8  -4   81.52   19.49
   0  -8   4   52.04   14.77
  -1   8  -4   78.37   18.96
  -1   8  -4   70.05   20.56
   1  -8   4   74.13    9.79
   1  -8   4   79.82   16.78
   1  -8   4   77.45    9.18
   1  -8   4   77.15   19.87
  -2   8  -4   42.51   22.99
  -2   8  -4   20.87   23.95
   2  -8   4    1.16   16.39
   2  -8   4    3.54   20.90
   2  -8   4   14.59   12.07
   2  -8   4   19.69    8.46
   4   7  -4   23.38    8.90
   4   7  -4   49.24   15.76
   4   7  -4   43.28   18.58
   4   7  -4   -1.32   19.86
   3   7  -4  -13.10   16.78
   3   7  -4   16.43   15.73
   3   7  -4   26.58   14.07
   3   7  -4   37.01    5.41
   3   7  -4   32.36    5.12
  -3  -7   4   31.99   12.72
   2   7  -4   55.78   16.04
   2   7  -4   77.05   14.48
   2   7  -4   54.68   16.62
  -2  -7   4   58.14   13.22
   1   7  -4   47.64   13.71
   1   7  -4   53.70   12.88
  -1  -7   4   50.93   13.19
  -1  -7   4   39.62   12.11
   0   7  -4  138.00   18.35
   0   7  -4  150.19   19.72
   0  -7   4  108.72   15.17
   0  -7   4  163.20   18.15
  -1   7  -4   28.41   14.10
  -1   7  -4   27.10   16.22
   1  -7   4   58.54   13.87
   1  -7   4   28.76    4.71
   1  -7   4   41.66   13.00
   1  -7   4   35.29    7.49
  -2   7  -4   97.31   20.14
  -2   7  -4   74.83   20.85
   2  -7   4   98.44   11.20
   2  -7   4   96.27   12.16
   2  -7   4   90.50   15.97
   2  -7   4   84.85   17.96
  -3   7  -4   41.16   19.55
  -3   7  -4   53.21   20.57
   3  -7   4   36.74   15.09
   3  -7   4   35.66   19.38
   3  -7   4   66.41   11.20
   5   6  -4   34.49   12.79
   5   6  -4    3.55   20.66
   5   6  -4   43.52   11.57
   5   6  -4   48.12   14.80
   5   6  -4   43.92   17.50
   5   6  -4   35.09   16.04
   4   6  -4   22.80   12.97
   4   6  -4   45.72    7.44
   4   6  -4   66.13   17.64
   4   6  -4   15.35   13.06
   4   6  -4   35.91    8.60
   4   6  -4   14.01   16.13
   3   6  -4  121.93    8.77
   3   6  -4   70.73   13.57
   3   6  -4  123.05   16.98
  -3  -6   4  128.86   13.93
   2   6  -4   64.11   12.84
   2   6  -4   78.00   17.25
  -2  -6   4   92.76   12.43
   1   6  -4   39.75   10.44
   1   6  -4   10.27   10.24
  -1  -6   4   31.71   11.12
  -1  -6   4   19.15    9.83
   0   6  -4  426.92   24.26
   0   6  -4  443.94   23.89
   0  -6   4  422.32   21.88
   0  -6   4  441.54   22.77
  -1   6  -4  127.02   16.90
  -1   6  -4  119.05   15.98
   1  -6   4  113.45    7.01
   1  -6   4  109.75    9.98
   1  -6   4  128.99   15.10
   1  -6   4  111.25   14.90
  -2   6  -4  104.85   16.09
   2  -6   4  100.22    9.96
   2  -6   4  131.05   15.44
   2  -6   4   95.17   10.80
   2  -6   4  100.91   15.86
  -3   6  -4  128.32   20.62
  -3   6  -4  139.83   19.22
   3  -6   4  134.41   14.40
   3  -6   4  139.71   16.57
   3  -6   4  146.03   15.17
   3  -6   4  137.49   20.05
  -4   6  -4  117.64   22.72
  -4   6  -4   97.59   22.23
   4  -6   4   92.84   16.42
   4  -6   4  136.98   15.62
   4  -6   4   99.55   23.10
   4  -6   4   73.36   16.17
   5   5  -4   -7.68    9.92
   5   5  -4   -1.67   13.48
   5   5  -4   11.55    9.45
   5   5  -4    1.40   10.74
   5   5  -4   -4.42   15.28
   4   5  -4   29.38    9.67
   4   5  -4   15.16   10.58
   4   5  -4   14.57    7.12
   4   5  -4   12.06   12.50
   4   5  -4    5.70    7.45
   4   5  -4   21.84   10.99
   3   5  -4  326.63   20.56
   3   5  -4  334.70   11.38
   3   5  -4  317.87   11.95
   3   5  -4  328.14   18.32
   3   5  -4  324.85   21.55
  -3  -5   4  346.41   17.59
   2   5  -4   70.04   11.99
   2   5  -4   85.02   11.43
   2   5  -4   61.25    3.74
  -2  -5   4   77.90   12.01
  -2  -5   4   72.71    9.97
   1   5  -4   77.27   12.40
   1   5  -4   96.57   11.78
  -1  -5   4   75.14   11.15
  -1  -5   4   69.29    9.41
   0   5  -4  385.28   20.76
   0   5  -4  359.65   18.83
   0  -5   4  352.35   17.88
   0  -5   4  353.38   17.98
  -1   5  -4  212.33   16.95
  -1   5  -4  170.12   22.70
   1  -5   4  244.34   17.33
   1  -5   4  229.04   10.58
   1  -5   4  237.64   15.00
   1  -5   4  215.86    7.86
  -2   5  -4  150.16   17.35
  -2   5  -4  133.24   15.08
   2  -5   4  153.15   12.14
   2  -5   4  132.84    9.35
   2  -5   4  105.75   13.25
   2  -5   4  160.30   16.55
  -3   5  -4   88.14   13.49
  -3   5  -4  129.63   17.43
   3  -5   4  102.52   11.04
   3  -5   4   84.47   14.13
   3  -5   4   91.33   12.29
   3  -5   4  106.99   12.69
  -4   5  -4  156.25   22.16
   4  -5   4  187.75   21.82
   4  -5   4  177.65   18.98
   4  -5   4  176.81   19.62
   4  -5   4  175.18   17.31
  -5   5  -4   76.54   21.91
  -5   5  -4   91.73   20.54
   5  -5   4   56.77   21.96
   5  -5   4   57.46   17.41
   5  -5   4   56.76   15.57
   5  -5   4   46.73   15.50
   6   4  -4   68.76   15.71
   6   4  -4   70.38   15.49
   6   4  -4   33.33   17.36
   6   4  -4   62.79   15.65
   6   4  -4   48.96   12.98
   6   4  -4   82.46   18.97
   5   4  -4   36.07   11.93
   5   4  -4   50.87   10.12
   5   4  -4   49.09   14.79
   5   4  -4   49.95   11.34
   5   4  -4   65.13   13.58
   4   4  -4  152.49   16.34
   4   4  -4  175.74   13.85
   4   4  -4  166.43   15.62
   4   4  -4  140.38   14.16
   4   4  -4  157.62   12.72
   4   4  -4  147.26   13.07
   3   4  -4  117.31    9.37
   3   4  -4  150.40   14.64
   3   4  -4  156.03   14.18
   3   4  -4  133.05    8.79
   3   4  -4  129.27   11.67
   2   4  -4   27.53    3.10
   2   4  -4   28.33    3.21
   2   4  -4   28.63    7.02
   2   4  -4   22.31    6.33
  -2  -4   4   40.14    8.10
  -2  -4   4   31.71    7.01
   1   4  -4   80.70    9.95
   1   4  -4   65.18    9.48
  -1  -4   4   78.55    9.80
  -1  -4   4   53.55    7.51
   0   4  -4  109.08   10.75
   0   4  -4   92.65   10.33
   0  -4   4   83.10    9.84
   0  -4   4   92.57   10.02
  -1   4  -4   47.78    8.85
  -1   4  -4   53.22    9.53
   1  -4   4   51.66    4.69
   1  -4   4   58.37    5.66
   1  -4   4   65.88    8.43
   1  -4   4   75.88    9.78
  -2   4  -4  390.63   19.99
  -2   4  -4  409.13   20.26
   2  -4   4  419.76   19.54
   2  -4   4  374.53   14.54
   2  -4   4  396.49   13.68
  -3   4  -4   70.00   14.07
   3  -4   4   80.33   10.56
   3  -4   4   88.46   12.98
   3  -4   4   92.19   11.84
   3  -4   4   86.18    9.97
  -4   4  -4  208.75   21.23
  -4   4  -4  196.36   21.40
   4  -4   4  218.98   20.49
   4  -4   4  209.82   18.47
   4  -4   4  197.38   19.63
  -5   4  -4  217.25   26.45
  -5   4  -4  224.11   23.02
   5  -4   4  206.60   20.21
   5  -4   4  206.36   21.70
   5  -4   4  221.31   21.83
   5  -4   4  193.78   21.27
   6  -4   4   66.83   20.42
   6  -4   4   80.21   19.67
   6  -4   4   88.62   18.68
   6   3  -4   69.88   15.35
   6   3  -4   92.14   15.37
   6   3  -4   87.26   14.15
   6   3  -4   83.04   16.59
   6   3  -4   71.61   16.04
   6   3  -4   65.85   13.03
   5   3  -4   21.82   10.30
   5   3  -4    3.81    9.93
   5   3  -4   17.10    9.09
   5   3  -4   15.92   10.26
   5   3  -4   13.20   10.80
   5   3  -4   18.15    8.17
   4   3  -4  152.46   13.89
   4   3  -4  167.08   14.90
   4   3  -4  141.66   13.23
   4   3  -4  157.11   12.13
   4   3  -4  177.66   15.17
   4   3  -4  158.22   12.62
   3   3  -4  218.02   11.58
   3   3  -4  208.24   11.80
   3   3  -4  219.31   13.84
   3   3  -4  193.23   12.11
   3   3  -4  195.31   10.16
   3   3  -4  203.09   13.59
   2   3  -4  210.56    7.29
   2   3  -4  242.97   12.65
   2   3  -4  225.44    8.18
   2   3  -4  221.24   11.32
  -2  -3   4  236.84   11.59
  -2  -3   4  228.03   11.63
   1   3  -4  124.82    9.57
   1   3  -4  114.17    8.81
  -1  -3   4  129.85    9.05
  -1  -3   4  110.40    8.70
   0   3  -4  161.12   10.63
   0   3  -4  164.97   10.45
   0  -3   4  166.11    9.80
   0  -3   4  162.76   10.26
  -1   3  -4   54.61    8.15
  -1   3  -4   38.60    6.51
   1  -3   4   42.05    4.45
   1  -3   4   40.60    5.87
   1  -3   4   42.22    4.27
   1  -3   4   40.76    6.55
  -2   3  -4  288.34   15.44
  -2   3  -4  288.76   15.84
   2  -3   4  298.00   14.45
   2  -3   4  302.53   12.51
   2  -3   4  307.72   12.18
   2  -3   4  291.47   14.39
  -3   3  -4  136.13   13.62
   3  -3   4  133.09   12.65
   3  -3   4  138.26   12.49
   3  -3   4  147.97   13.66
   3  -3   4  148.60   11.76
  -4   3  -4   33.86   10.67
   4  -3   4   48.42   10.71
   4  -3   4   24.43    8.65
   4  -3   4   34.16   10.12
  -5   3  -4  119.18   18.70
  -5   3  -4  109.35   16.77
   5  -3   4  155.41   18.70
   5  -3   4  121.72   16.72
   5  -3   4  120.60   15.48
   5  -3   4  114.33   14.63
  -6   3  -4   70.11   20.59
  -6   3  -4  127.70   18.63
   6  -3   4  128.75   22.22
   6  -3   4  136.38   23.10
   6  -3   4  123.86   19.74
   6  -3   4   70.79   15.86
   6   2  -4   13.19   12.28
   6   2  -4   36.99   14.50
   6   2  -4   30.99   11.25
   6   2  -4   19.33   14.25
   6   2  -4   10.88   17.17
   6   2  -4   37.50   10.29
   5   2  -4   83.16   11.15
   5   2  -4   58.96   12.10
   5   2  -4   81.96   12.71
   5   2  -4   69.17    9.65
   5   2  -4   71.22    9.86
   5   2  -4   72.55   12.95
   4   2  -4   36.63    6.87
   4   2  -4   37.19    8.82
   4   2  -4   42.13    8.51
   4   2  -4   34.23    7.72
   4   2  -4   46.67    7.51
   4   2  -4   49.89    8.16
   3   2  -4   -8.36    5.32
   3   2  -4   -1.36    4.83
   3   2  -4    5.86    3.88
   3   2  -4    0.51    4.16
   3   2  -4   -0.67    4.12
   3   2  -4    2.62    4.18
   2   2  -4  102.52    8.95
   2   2  -4   90.19    7.52
   2   2  -4   91.89    7.36
   2   2  -4   91.16    5.45
  -2  -2   4   85.15    7.13
   1   2  -4   75.48    2.97
   1   2  -4   63.28    6.18
   1   2  -4   65.68    6.63
  -1  -2   4   78.71    4.16
  -1  -2   4   81.86    6.49
  -1  -2   4   69.80    6.76
   0   2  -4  405.80    8.05
   0   2  -4  409.45   13.86
   0   2  -4  414.86   13.82
   0  -2   4  405.17   13.47
   0  -2   4  450.76   13.77
   0  -2   4  418.10    7.54
  -1   2  -4  166.93   10.44
  -1   2  -4  185.78    9.82
  -1   2  -4  187.61    7.39
   1  -2   4  181.22    9.68
   1  -2   4  195.89    7.28
   1  -2   4  185.58    9.63
  -2   2  -4  111.64   10.69
  -2   2  -4   89.41    8.48
   2  -2   4   89.66    8.42
   2  -2   4   93.00    8.65
   2  -2   4   83.28    7.57
  -3   2  -4  146.88   13.32
  -3   2  -4  139.25   11.71
   3  -2   4  172.13   12.28
   3  -2   4  164.88   11.63
   3  -2   4  177.47   12.32
   3  -2   4  159.30   11.54
  -4   2  -4  209.19   18.23
  -4   2  -4  211.43   16.13
   4  -2   4  211.44   15.04
   4  -2   4  197.91   14.50
   4  -2   4  204.94   15.77
   4  -2   4  209.30   15.99
  -5   2  -4  183.86   18.79
  -5   2  -4  215.45   21.95
   5  -2   4  189.05   18.51
   5  -2   4  159.57   17.25
   5  -2   4  175.44   19.27
   5  -2   4  161.63   17.04
  -6   2  -4  106.12   19.01
  -6   2  -4  114.19   19.77
   6  -2   4  133.10   30.52
   6  -2   4   84.67   15.24
   6  -2   4  119.77   16.25
   6  -2   4   89.85   18.01
   6   1  -4   99.46   19.57
   6   1  -4   81.61   10.13
   6   1  -4   90.05   16.56
   6   1  -4   89.08    9.52
   6   1  -4   89.57   16.17
   5   1  -4  130.75   14.61
   5   1  -4  114.60   10.12
   5   1  -4  111.65   15.20
   5   1  -4  110.04   13.90
   5   1  -4  106.08   10.53
   4   1  -4  134.54   14.42
   4   1  -4  134.17    9.23
   4   1  -4  121.18   13.98
   4   1  -4  132.54   11.68
   4   1  -4  137.95    8.59
  -4  -1   4  116.64   12.35
   3   1  -4  368.47   16.42
   3   1  -4  384.24   13.64
   3   1  -4  377.20   11.19
   3   1  -4  371.60   11.95
  -3  -1   4  351.51   15.23
   2   1  -4  356.76   10.88
   2   1  -4  361.38   12.62
   2   1  -4  356.16   10.60
   2   1  -4  368.06   14.24
  -2  -1   4  359.61   10.21
  -2  -1   4  356.64   11.97
   1   1  -4  170.00    5.66
   1   1  -4  176.59    7.66
   1   1  -4  164.34    7.99
   1   1  -4  170.13    8.96
  -1  -1   4  150.85    6.73
  -1  -1   4  167.12    6.23
   0   1  -4  195.34    5.79
   0   1  -4  192.03    8.10
   0   1  -4  219.91    9.32
   0  -1   4  193.13    8.23
   0  -1   4  180.74    8.05
   0  -1   4  195.38    5.71
  -1   1  -4  153.31    6.59
  -1   1  -4  152.95    7.66
   1  -1   4  142.80    8.47
   1  -1   4  149.93    7.57
   1  -1   4  152.84    6.63
  -2   1  -4   45.68    7.07
  -2   1  -4   38.78    5.25
  -2   1  -4   32.60    5.08
   2  -1   4   39.68    5.44
   2  -1   4   42.96    5.33
   2  -1   4   38.78    6.23
  -3   1  -4  287.15   15.95
  -3   1  -4  293.98   12.84
  -3   1  -4  274.75   13.97
   3  -1   4  285.56   14.98
   3  -1   4  287.32   12.29
   3  -1   4  293.83   14.08
  -4   1  -4   10.32    8.91
  -4   1  -4   17.36    5.94
   4  -1   4   17.57    6.12
   4  -1   4    6.37    7.23
   4  -1   4   12.41    7.86
   4  -1   4   16.11    7.96
  -5   1  -4  212.46   15.61
  -5   1  -4  190.80   20.96
   5  -1   4  237.77   19.71
   5  -1   4  150.33   27.04
   5  -1   4  226.50   19.16
   5  -1   4  221.41   15.22
  -6   1  -4   84.88   13.32
  -6   1  -4   69.49   17.98
   6  -1   4   59.61   17.57
   6  -1   4   85.74   13.11
   6  -1   4   81.41   17.77
   6  -1   4   60.67   15.42
   6   0  -4   24.39   12.80
   6   0  -4   38.93   14.47
   6   0  -4   29.16    5.26
   6   0  -4   11.52   13.25
   6   0  -4   25.08    5.33
  -6   0   4   19.30   12.17
   5   0  -4   73.57    6.81
   5   0  -4  110.61   15.75
   5   0  -4   97.93   23.49
   5   0  -4   87.98    6.83
   5   0  -4  100.18   12.92
  -5   0   4  101.24   13.16
   4   0  -4   54.19    4.62
   4   0  -4   52.87    4.76
   4   0  -4   64.42   11.03
   4   0  -4   52.44    7.99
  -4   0   4   45.60    9.27
  -4   0   4   62.90   10.81
   3   0  -4   76.17    4.16
   3   0  -4   76.98    4.09
   3   0  -4  100.70   10.85
   3   0  -4   80.99    8.13
  -3   0   4   82.70    9.30
  -3   0   4   81.41    9.49
   2   0  -4   96.71    4.65
   2   0  -4   91.25    6.42
   2   0  -4  102.60    9.28
  -2   0   4   97.30    7.79
  -2   0   4   96.55    7.68
  -2   0   4   99.20    3.86
   1   0  -4  382.89   13.10
   1   0  -4  373.99   10.07
  -1   0   4  385.66    9.36
  -1   0   4  374.90   12.49
  -1   0   4  387.81   10.83
   0   0  -4 3767.28   56.90
   0   0  -4 3641.93   55.50
   0   0  -4 3612.49   53.38
   0   0  -4 3744.80   56.51
   0   0   4 3643.10   53.03
   0   0   4 3705.33   56.27
  -1   0  -4   13.80    2.61
  -1   0  -4   18.46    3.11
  -1   0  -4   15.70    4.13
   1   0   4   16.24    2.86
   1   0   4   15.26    3.83
   1   0   4   18.12    2.87
  -2   0  -4  927.46   22.29
  -2   0  -4  974.55   25.26
  -2   0  -4  957.97   19.59
   2   0   4  945.19   18.82
   2   0   4  945.33   21.74
  -3   0  -4   97.26    9.38
  -3   0  -4   83.42    6.84
  -3   0  -4   99.75   11.43
   3   0   4   90.48    6.61
   3   0   4   97.81   10.32
   3   0   4   91.45    9.35
  -4   0  -4  253.75   16.35
  -4   0  -4  282.15   12.26
  -4   0  -4  248.66   17.91
   4   0   4  261.78   16.34
   4   0   4  269.83   16.75
   4   0   4  274.70   11.07
  -5   0  -4   -0.53   10.84
  -5   0  -4   10.85    5.79
   5   0   4   -0.56   10.04
   5   0   4    6.49    5.82
   5   0   4   10.91    8.74
  -6   0  -4   42.66    8.92
  -6   0  -4    6.36   15.78
   6   0   4   22.12    8.26
   6   0   4   28.58   15.09
   6   0   4   48.14   14.79
   6   0   4   13.86   13.37
   6  -1  -4   56.37   21.04
   6  -1  -4    7.27   12.75
   6  -1  -4   23.18   15.66
  -6   1   4   38.39   13.39
   5  -1  -4   54.39   13.39
   5  -1  -4   49.30   10.23
  -5   1   4   27.92   12.38
  -5   1   4   53.37   11.53
   4  -1  -4  211.54   17.78
   4  -1  -4  237.80   15.04
  -4   1   4  250.35   16.46
  -4   1   4  200.17   25.75
   3  -1  -4   -1.31    6.88
   3  -1  -4   17.96    5.43
  -3   1   4   16.10    6.66
  -3   1   4   10.67    6.42
   2  -1  -4  167.89    8.79
   2  -1  -4  160.63   11.48
  -2   1   4  150.95   10.29
  -2   1   4  169.25    9.81
   1  -1  -4  582.30   17.30
   1  -1  -4  591.80   12.70
   1  -1  -4  591.30   14.52
  -1   1   4  587.74   15.10
  -1   1   4  582.74   12.04
  -1   1   4  595.17   16.88
   0  -1  -4 1239.70   23.13
   0  -1  -4 1241.75   24.48
   0  -1  -4 1257.10   25.10
   0   1   4 1258.39   22.98
   0   1   4 1228.09   24.35
   0   1   4 1208.68   23.99
  -1  -1  -4   41.33    4.42
  -1  -1  -4   47.99    6.35
  -1  -1  -4   40.44    3.62
  -1  -1  -4   49.30    4.78
   1   1   4   47.30    4.82
   1   1   4   48.06    6.04
  -2  -1  -4  165.14    5.95
  -2  -1  -4  168.26   10.85
  -2  -1  -4  163.13    6.34
  -2  -1  -4  164.35    9.15
   2   1   4  163.72    9.13
   2   1   4  171.36   10.97
  -3  -1  -4  897.02   24.89
  -3  -1  -4  839.02   26.34
   3   1   4  855.58   23.46
   3   1   4  811.49   25.54
   3   1   4  857.08   15.23
  -4  -1  -4   73.61   12.53
  -4  -1  -4   67.23   10.65
  -4  -1  -4   64.15    5.45
   4   1   4   60.12    5.07
   4   1   4   62.42   10.30
   4   1   4   61.80    9.21
  -5  -1  -4  172.77   18.32
  -5  -1  -4  182.45    8.33
  -5  -1  -4  199.36   21.76
   5   1   4  188.89    8.07
   5   1   4  171.72   18.89
   5   1   4  149.70   17.22
  -6  -1  -4   42.12    5.44
  -6  -1  -4   11.62   15.90
   6   1   4   25.28   14.95
   6   1   4   35.62   13.94
   6   1   4   35.15    5.65
   6   1   4   31.17   14.32
   6  -2  -4   22.84   16.83
   6  -2  -4   37.05   15.68
  -6   2   4    3.87   15.69
   5  -2  -4  127.60   17.82
   5  -2  -4  171.86   17.93
  -5   2   4  203.44   21.12
  -5   2   4  199.81   20.39
   4  -2  -4  393.91   23.11
   4  -2  -4  413.46   19.15
  -4   2   4  381.45   21.43
  -4   2   4  434.59   22.53
   3  -2  -4  559.04   22.69
   3  -2  -4  562.04   19.29
  -3   2   4  513.96   20.26
  -3   2   4  543.96   21.26
   2  -2  -4    8.33    3.63
   2  -2  -4   15.29    6.36
  -2   2   4    8.92    4.67
  -2   2   4   13.05    5.29
  -2   2   4   16.10    1.97
   1  -2  -4 1171.78   27.84
   1  -2  -4 1178.90   24.39
   1  -2  -4 1167.77   21.96
  -1   2   4 1217.42   25.43
  -1   2   4 1177.47   27.13
  -1   2   4 1208.60   22.31
   0  -2  -4  578.28   16.21
   0  -2  -4  560.22   14.70
   0  -2  -4  565.33   16.25
   0   2   4  565.09   14.87
   0   2   4  568.24   15.84
   0   2   4  562.91   15.67
  -1  -2  -4   34.23    4.47
  -1  -2  -4   38.51    4.79
  -1  -2  -4   43.12    6.63
   1   2   4   28.79    5.22
   1   2   4   46.09    4.41
   1   2   4   35.47    4.57
  -2  -2  -4   90.28    8.06
  -2  -2  -4   73.42    8.94
  -2  -2  -4   96.40    3.93
  -2  -2  -4   90.28    5.13
   2   2   4   75.16    8.74
   2   2   4   94.75    7.28
  -3  -2  -4    7.47    5.04
  -3  -2  -4   -6.94    6.45
   3   2   4    4.08    4.20
   3   2   4    9.02    6.72
  -4  -2  -4  172.85   17.78
  -4  -2  -4  182.98   15.27
   4   2   4  186.87   16.07
  -5  -2  -4  229.78   18.63
  -5  -2  -4  241.13   23.64
   5   2   4  269.04   21.87
   5   2   4  231.67   19.19
  -6  -2  -4  130.03   18.29
  -6  -2  -4  155.18   22.33
   6   2   4  150.56   19.16
   6   2   4  223.34   24.95
   6  -3  -4   15.05   15.05
   6  -3  -4   26.16   19.69
  -6   3   4   34.29   18.31
  -6   3   4    6.08   22.20
   5  -3  -4   -2.96   10.90
   5  -3  -4   29.57   15.38
  -5   3   4   12.34   12.52
  -5   3   4   -4.58   13.26
   4  -3  -4  194.80   20.59
   4  -3  -4  190.37   15.62
  -4   3   4  200.84   18.14
  -4   3   4  199.58   18.84
   3  -3  -4  165.21   12.11
   3  -3  -4  149.41   16.50
  -3   3   4  158.49    5.51
  -3   3   4  186.83   15.45
  -3   3   4  140.34   13.33
   2  -3  -4  188.23   10.95
   2  -3  -4  152.54   13.38
  -2   3   4  159.08    7.12
  -2   3   4  180.43    7.83
  -2   3   4  149.96   11.15
  -2   3   4  157.75   13.34
   1  -3  -4  282.75   14.82
   1  -3  -4  285.95   11.57
  -1   3   4  279.66   11.15
  -1   3   4  261.72   13.68
  -1   3   4  276.88   12.23
  -1   3   4  288.98   10.46
   0  -3  -4  550.33   17.44
   0  -3  -4  586.31   18.27
   0  -3  -4  580.49   16.16
   0   3   4  564.82   16.20
   0   3   4  576.52   17.81
   0   3   4  555.31   17.36
  -1  -3  -4   19.40    4.83
  -1  -3  -4   22.89    4.52
  -1  -3  -4   24.23    5.74
   1   3   4   22.05    5.40
   1   3   4   20.63    3.87
   1   3   4   25.93    5.22
  -2  -3  -4   14.15    6.45
  -2  -3  -4   16.75    3.60
  -2  -3  -4   14.39    4.56
   2   3   4   16.57    2.87
   2   3   4   17.61    5.28
   2   3   4   22.05    6.39
  -3  -3  -4  312.09   19.10
  -3  -3  -4  326.33   15.97
   3   3   4  299.07   18.10
   3   3   4  285.77   14.16
  -4  -3  -4   40.46   12.05
  -4  -3  -4   22.82   10.72
   4   3   4   35.77    8.32
   4   3   4   28.11   17.65
  -5  -3  -4  167.51   19.14
  -5  -3  -4  187.76   21.23
   5   3   4  160.12   17.94
   5   3   4  183.29   21.46
  -6  -3  -4   41.26   18.73
  -6  -3  -4   34.04   15.22
   6   3   4  110.95   25.53
   6   3   4   86.64   19.32
   5  -4  -4  105.83   20.98
   5  -4  -4  119.58   17.23
  -5   4   4  136.69   20.26
   4  -4  -4   93.00   12.41
   4  -4  -4  139.48   19.66
  -4   4   4  107.94    6.69
  -4   4   4  110.40    7.81
  -4   4   4  100.54   15.71
  -4   4   4  122.27   17.09
   3  -4  -4   28.37    7.96
   3  -4  -4   18.50   11.37
  -3   4   4   31.24    5.51
  -3   4   4   31.86    5.46
  -3   4   4   16.83    9.50
  -3   4   4   39.58   11.05
   2  -4  -4   -5.18    4.38
   2  -4  -4   16.34    8.75
  -2   4   4    7.14    6.58
  -2   4   4    6.59    7.37
  -2   4   4    3.02    4.47
  -2   4   4    3.62    4.76
   1  -4  -4  153.95   10.09
   1  -4  -4  147.12   13.77
  -1   4   4  145.05    9.89
  -1   4   4  146.65   11.05
  -1   4   4  165.16   13.11
  -1   4   4  145.11   10.58
   0  -4  -4   56.50    8.39
   0  -4  -4   63.76    7.55
   0   4   4   70.04    7.81
   0   4   4   71.71    8.88
   0   4   4   64.09    8.70
  -1  -4  -4  219.57   10.93
  -1  -4  -4  219.53   11.61
  -1  -4  -4  208.27   14.09
   1   4   4  230.05   14.53
   1   4   4  207.31   11.15
   1   4   4  220.96   11.16
  -2  -4  -4  168.98   14.89
  -2  -4  -4  163.25   11.24
  -2  -4  -4  166.78    9.11
   2   4   4  169.91    8.30
   2   4   4  190.89   15.43
   2   4   4  190.22   11.28
  -3  -4  -4    1.91    6.01
  -3  -4  -4   -1.28    9.55
   3   4   4   10.73    6.53
   3   4   4   21.83    9.43
  -4  -4  -4  344.82   24.44
  -4  -4  -4  320.75   20.57
   4   4   4  373.51   23.92
   4   4   4  389.13   19.66
  -5  -4  -4  235.94   22.12
  -5  -4  -4  230.25   26.82
   5   4   4  267.57   21.16
   5   4   4  268.94   26.46
  -6  -4  -4  144.88   21.29
  -6  -4  -4  110.99   27.82
   6   4   4  144.19   23.77
   6   4   4  158.11   20.25
   5  -5  -4  141.94   25.49
   5  -5  -4  135.46   16.80
  -5   5   4  114.95   24.70
  -5   5   4  130.86   20.53
   4  -5  -4   69.35   17.31
   4  -5  -4   59.83   11.98
  -4   5   4   73.02    8.63
  -4   5   4   72.93   17.12
  -4   5   4   86.56   16.65
   3  -5  -4   91.67   11.71
   3  -5  -4   63.10   14.21
  -3   5   4   87.83   13.94
  -3   5   4   76.30    8.71
  -3   5   4   76.94    9.59
  -3   5   4   85.02   15.10
   2  -5  -4   26.94    7.96
   2  -5  -4   11.91   10.75
  -2   5   4   26.35    7.00
  -2   5   4   16.19    6.80
  -2   5   4   16.69    8.99
  -2   5   4   31.57   10.15
   1  -5  -4    0.11    5.17
   1  -5  -4    5.34    8.61
  -1   5   4   -3.38    6.06
  -1   5   4   -5.08    5.57
  -1   5   4   10.30    6.60
  -1   5   4    3.04    8.05
   0  -5  -4  117.41    9.85
   0  -5  -4  115.09   13.49
   0   5   4  122.20   12.12
   0   5   4  124.01   13.19
   0   5   4  131.78   14.21
   0   5   4  108.74   10.81
  -1  -5  -4    3.76    6.69
  -1  -5  -4   14.57    5.73
   1   5   4   23.33    6.93
   1   5   4   22.98    8.75
   1   5   4   25.89    6.70
  -2  -5  -4   61.57   11.75
  -2  -5  -4   50.57    7.57
  -2  -5  -4   68.32    9.46
   2   5   4   46.10   10.33
   2   5   4   51.95    8.43
   2   5   4   50.54    6.83
  -3  -5  -4  107.12    7.15
  -3  -5  -4  108.53   15.91
   3   5   4  109.59    7.04
   3   5   4  119.75   12.85
   3   5   4  108.02   15.14
  -4  -5  -4   26.45    9.36
  -4  -5  -4   17.78   12.72
   4   5   4    3.68   12.83
   4   5   4   19.24    9.31
  -5  -5  -4  186.44   24.72
  -5  -5  -4  131.38   19.25
   5   5   4  176.21   20.00
   5   5   4  193.86   23.35
  -6  -5  -4   37.85   18.92
  -6  -5  -4   -9.87   22.74
   6   5   4   18.53   24.11
   6   5   4   15.72   16.68
   4  -6  -4   25.53   13.13
  -4   6   4   15.35    9.79
  -4   6   4   17.45   17.56
  -4   6   4   21.68   10.88
  -4   6   4    0.97   16.78
   3  -6  -4   24.24   10.90
  -3   6   4  -19.86   13.63
  -3   6   4    4.68    8.66
  -3   6   4    5.57    9.31
  -3   6   4    9.29   12.26
   2  -6  -4    9.25    7.74
  -2   6   4   11.70    9.14
  -2   6   4   25.80    8.88
  -2   6   4   -0.18   10.82
  -2   6   4   12.41   10.68
   1  -6  -4   52.53   14.12
  -1   6   4   59.85   10.68
  -1   6   4   48.12   11.06
  -1   6   4   45.90   12.27
  -1   6   4   55.74    9.83
   0  -6  -4  183.99   17.81
   0  -6  -4  149.31   12.88
   0   6   4  201.14   16.51
   0   6   4  159.11   15.39
   0   6   4  212.77   17.67
   0   6   4  191.16   17.70
  -1  -6  -4   88.30   12.02
  -1  -6  -4   99.71   11.11
   1   6   4  103.15   12.98
   1   6   4   84.34   11.72
   1   6   4  101.95   14.84
  -2  -6  -4  240.79   15.47
  -2  -6  -4  237.68   24.81
   2   6   4  229.43   15.02
   2   6   4  221.27   20.03
   2   6   4  263.90   22.24
   2   6   4  258.63   15.93
  -3  -6  -4   87.25    9.58
  -3  -6  -4   77.83   12.10
   3   6   4   99.69   18.12
   3   6   4  104.07   12.59
   3   6   4   84.54    8.15
  -4  -6  -4  117.50   16.90
  -4  -6  -4  163.87   22.06
   4   6   4  113.52   13.89
   4   6   4  129.73   21.89
  -5  -6  -4    3.60   21.90
  -5  -6  -4  -13.11   14.83
   5   6   4   -9.55   14.00
   5   6   4   19.48   21.08
   3  -7  -4   24.60   19.93
   3  -7  -4   26.01   12.87
  -3   7   4   32.83   19.51
  -3   7   4    5.93   17.39
  -3   7   4   52.86   13.99
  -3   7   4   36.36   12.85
   2  -7  -4  -11.47   16.53
   2  -7  -4    6.50   10.16
  -2   7   4  -22.69   12.79
  -2   7   4   18.82   12.57
  -2   7   4   -5.49   10.78
  -2   7   4   18.00   14.86
   1  -7  -4  177.13   16.15
   1  -7  -4  142.19   19.54
  -1   7   4  180.31   19.18
  -1   7   4  160.83   18.49
  -1   7   4  159.69   16.56
  -1   7   4  176.16   20.14
   0  -7  -4   18.12   13.59
   0  -7  -4   20.32    9.02
   0   7   4   11.17   10.35
   0   7   4   39.54   10.27
   0   7   4   14.40   12.10
   0   7   4   20.01   12.75
  -1  -7  -4    4.68    8.22
   1   7   4   -0.70   10.26
   1   7   4   -3.39   12.03
   1   7   4   -3.26    7.89
   1   7   4   16.19   13.44
  -2  -7  -4  122.16   13.96
  -2  -7  -4  108.45   13.49
   2   7   4  105.96   12.75
   2   7   4  121.18   19.78
   2   7   4   97.08   12.82
   2   7   4  116.48   16.99
  -3  -7  -4   81.45   13.62
  -3  -7  -4   73.52   10.19
   3   7   4   87.76   13.10
   3   7   4   71.48   10.32
   3   7   4   72.50   18.90
   3   7   4   70.96   18.04
  -4  -7  -4   10.12   14.18
   4   7   4   10.77   17.25
   4   7   4   -5.11   19.35
   4   7   4   12.56   12.48
   2  -8  -4   80.69   27.38
  -2   8   4   24.10   28.98
  -2   8   4   35.58   14.77
  -2   8   4   34.33   16.66
  -2   8   4   22.67   20.43
   1  -8  -4  255.20   21.34
   1  -8  -4  302.64   32.03
  -1   8   4  255.76   25.51
  -1   8   4  226.86   24.74
  -1   8   4  253.95   28.67
  -1   8   4  208.45   23.27
   0  -8  -4   -2.02   10.21
   0  -8  -4    9.37   16.15
   0   8   4    3.73   11.82
   0   8   4    4.13   16.26
   0   8   4  -43.49   14.96
   0   8   4    6.29   13.05
  -1  -8  -4   27.95   16.69
  -1  -8  -4    6.55   10.56
   1   8   4   19.17   15.91
   1   8   4   13.21   17.24
   1   8   4    3.02   14.59
   1   8   4   20.80   11.61
  -2  -8  -4   56.00   14.87
  -2  -8  -4   55.88   13.48
   2   8   4  104.78   23.45
   2   8   4   75.60   14.16
   2   8   4   57.29   16.79
   2   8   4   71.49   18.14
  -3  -8  -4   16.74   11.72
  -3  -8  -4   58.84   15.70
   3   8   4   33.22   24.30
   3   8   4   41.80   13.38
   3   8   4   50.88   20.40
   3   8   4   23.68   13.52
   2   8  -5   45.73   22.16
   2   8  -5    3.90   20.58
   2   8  -5    2.56   17.84
  -2  -8   5   29.60   18.01
   1   8  -5   16.10   19.96
   1   8  -5   74.36   20.10
  -1  -8   5   35.93   17.38
  -1  -8   5   70.11   18.05
   0   8  -5   37.68   19.89
   0   8  -5   32.79   22.23
   0  -8   5   44.08   18.10
   0  -8   5   79.74   18.92
  -1   8  -5   69.87   20.91
  -1   8  -5   29.07   22.13
   1  -8   5   30.86   16.86
   1  -8   5   33.45   20.33
   3   7  -5   24.50   20.51
   3   7  -5   14.26   17.94
   3   7  -5   11.07   15.35
  -3  -7   5   26.99   13.08
   2   7  -5   22.42   13.58
   2   7  -5   17.50   13.19
  -2  -7   5    1.50   11.80
   1   7  -5   55.17   15.70
   1   7  -5   57.74   15.64
  -1  -7   5   55.15   13.48
  -1  -7   5   46.90   13.62
   0   7  -5  113.44   18.53
   0   7  -5  138.67   20.00
   0  -7   5  110.23   16.82
   0  -7   5  112.73   16.01
  -1   7  -5    1.56   14.58
  -1   7  -5   14.77   15.85
   1  -7   5   10.00    3.50
   1  -7   5   -3.72   12.81
   1  -7   5   18.20   14.36
   1  -7   5   -5.43    4.92
  -2   7  -5  178.53   24.29
   2  -7   5  192.23   16.31
   2  -7   5  209.46   22.27
   2  -7   5  193.62   11.85
   2  -7   5  170.45   20.85
  -3   7  -5   32.49   21.42
  -3   7  -5   -8.00   20.12
   3  -7   5   25.64   20.82
   3  -7   5   36.50   16.65
   3  -7   5   33.03    9.90
   3  -7   5   17.43   13.50
   4   6  -5   27.42    7.26
   4   6  -5   16.76   17.57
   4   6  -5   23.78   15.26
   4   6  -5   19.84   13.10
   4   6  -5   10.34   13.78
   4   6  -5   15.02    6.73
   3   6  -5  120.80   15.59
   3   6  -5  156.15   19.35
   3   6  -5  138.07   18.51
  -3  -6   5  175.80   19.00
   2   6  -5   -0.63    9.90
   2   6  -5   16.27   10.68
  -2  -6   5    1.88    9.29
  -2  -6   5    2.49    9.55
   1   6  -5  153.22   17.97
   1   6  -5  143.26   16.62
  -1  -6   5  133.81   15.18
  -1  -6   5  151.07   16.52
   0   6  -5  182.18   19.35
   0   6  -5  171.23   18.65
   0  -6   5  212.92   18.15
   0  -6   5  245.09   19.39
  -1   6  -5  203.56   20.11
  -1   6  -5  266.39   22.50
   1  -6   5  252.19    9.92
   1  -6   5  252.84    7.94
   1  -6   5  270.03   21.52
   1  -6   5  308.11   21.55
  -2   6  -5   62.80   14.38
  -2   6  -5   43.53   14.07
   2  -6   5   51.64   13.72
   2  -6   5   58.94    9.07
   2  -6   5   60.16    7.05
   2  -6   5   34.97   13.85
  -3   6  -5  256.95   27.55
  -3   6  -5  305.20   29.63
   3  -6   5  230.81   24.01
   3  -6   5  181.85   18.85
   3  -6   5  202.27   15.87
   3  -6   5  222.78   24.19
  -4   6  -5   73.27   22.99
  -4   6  -5   90.84   21.80
   4  -6   5   98.93   19.47
   4  -6   5  105.28   17.56
   4  -6   5   84.21   13.45
   4  -6   5   93.03   17.04
   5   5  -5   74.36   13.95
   5   5  -5   52.03   14.73
   5   5  -5   35.23   11.00
   5   5  -5   31.81   17.34
   5   5  -5   41.88   15.91
   5   5  -5   41.45   11.77
   4   5  -5  188.91   12.86
   4   5  -5  213.60   24.58
   4   5  -5  175.37   18.28
   4   5  -5  179.59   13.14
   4   5  -5  198.19   21.37
   4   5  -5  215.72   20.82
   3   5  -5   44.13    4.94
   3   5  -5   34.06   11.84
   3   5  -5   36.91   10.55
   3   5  -5   34.74    4.88
   3   5  -5   19.22   12.17
  -3  -5   5   36.80    9.75
   2   5  -5  -10.22    7.40
   2   5  -5    9.33    7.97
  -2  -5   5   -4.02    7.82
   1   5  -5  157.45   14.56
   1   5  -5  158.00   14.75
   0   5  -5    5.83    8.49
   0   5  -5   13.05    9.14
   0  -5   5    9.46    7.19
  -1   5  -5  234.96   18.91
  -1   5  -5  222.42   18.55
   1  -5   5  250.93   16.47
   1  -5   5  252.48    7.79
   1  -5   5  253.81    9.19
   1  -5   5  247.29   16.89
  -2   5  -5  327.75   22.87
  -2   5  -5  281.12   21.39
   2  -5   5  297.81   19.84
   2  -5   5  298.48   19.15
   2  -5   5  289.61   14.13
   2  -5   5  263.97   11.92
  -3   5  -5   74.05   16.02
   3  -5   5   87.93   11.72
   3  -5   5   76.68   13.71
   3  -5   5  101.78   13.81
   3  -5   5   93.07   10.76
  -4   5  -5  163.91   21.06
  -4   5  -5  182.95   22.93
   4  -5   5  160.22   17.58
   4  -5   5  156.89   18.00
   4  -5   5  197.42   22.21
   4  -5   5  170.94   16.60
  -5   5  -5   84.74   22.76
  -5   5  -5   99.29   23.71
   5  -5   5   63.68   18.40
   5  -5   5  100.58   17.87
   5  -5   5  101.43   22.28
   5  -5   5   35.89   16.08
   5   4  -5   -5.10   10.26
   5   4  -5   12.22   13.02
   5   4  -5   12.12   10.94
   5   4  -5   12.09   13.22
   5   4  -5    9.36   11.38
   5   4  -5   -2.32    9.47
   4   4  -5  577.57   31.17
   4   4  -5  600.16   27.22
   4   4  -5  590.25   20.82
   4   4  -5  625.08   25.00
   4   4  -5  578.83   19.63
   4   4  -5  613.48   23.63
   3   4  -5    8.50    7.73
   3   4  -5    6.18    4.10
   3   4  -5    1.96    8.59
   3   4  -5    7.29    4.74
   3   4  -5   -5.74    6.29
   3   4  -5    4.54    7.79
   2   4  -5  237.21    5.51
   2   4  -5  244.78    5.86
   2   4  -5  242.19   14.51
  -2  -4   5  223.95   14.87
  -2  -4   5  240.71   14.27
   1   4  -5  167.98   13.97
   1   4  -5  185.54   13.25
  -1  -4   5  174.26   12.85
  -1  -4   5  163.04   11.79
   0   4  -5   89.48   10.65
   0   4  -5   71.89    9.70
   0  -4   5   80.57   10.01
   0  -4   5   99.39   10.78
  -1   4  -5   29.19    8.25
  -1   4  -5   33.73    8.78
   1  -4   5   29.92    7.69
   1  -4   5   25.58    4.02
   1  -4   5   35.38    8.00
   1  -4   5   31.73    3.79
  -2   4  -5   12.92    9.83
  -2   4  -5   32.63    9.48
   2  -4   5   19.79    9.53
   2  -4   5   24.65    7.83
   2  -4   5   13.32    5.06
   2  -4   5    9.39    5.57
  -3   4  -5  162.47   17.87
  -3   4  -5  191.01   20.52
   3  -4   5  171.99   14.64
   3  -4   5  191.49   14.12
   3  -4   5  176.05   16.79
   3  -4   5  153.20   17.49
  -4   4  -5   58.29   13.88
  -4   4  -5   79.40   15.29
   4  -4   5   62.42   12.23
   4  -4   5   61.36   12.98
   4  -4   5   53.20   15.06
   4  -4   5   63.94   13.20
  -5   4  -5   61.46   16.44
  -5   4  -5   46.20   18.19
   5  -4   5   57.14   14.44
   5  -4   5   31.51   15.57
   5  -4   5   32.96   15.20
   5  -4   5   75.21   15.35
   6   3  -5    7.56   14.24
   6   3  -5    0.82   15.42
   6   3  -5   -4.85   11.48
   6   3  -5   11.75   13.22
   6   3  -5   10.22   11.66
   6   3  -5   15.96   15.60
   5   3  -5   52.36   12.39
   5   3  -5   31.53   11.93
   5   3  -5   50.72   11.01
   5   3  -5   61.29   11.58
   5   3  -5   30.03   11.17
   5   3  -5   47.76   13.51
   4   3  -5  160.10   15.63
   4   3  -5  158.86   16.67
   4   3  -5  136.41   12.22
   4   3  -5  178.74   13.84
   4   3  -5  154.77   13.53
   4   3  -5  177.64   14.79
   3   3  -5  380.85   16.35
   3   3  -5  338.99   13.97
   3   3  -5  343.60   17.78
   3   3  -5  342.25   15.89
   3   3  -5  349.28   12.35
   3   3  -5  353.90   17.03
   2   3  -5   60.08    7.92
   2   3  -5   57.54    6.01
   2   3  -5   57.59    7.80
   2   3  -5   61.66    4.51
  -2  -3   5   57.10    8.15
  -2  -3   5   55.21    7.36
   1   3  -5  678.62   20.84
   1   3  -5  704.36   21.28
  -1  -3   5  721.68   21.19
  -1  -3   5  660.38   19.92
   0   3  -5  300.07   14.62
   0   3  -5  327.37   14.41
   0  -3   5  310.44   14.02
   0  -3   5  305.49   13.90
  -1   3  -5  689.23   22.21
  -1   3  -5  644.25   22.42
   1  -3   5  692.25   15.12
   1  -3   5  664.93   21.10
   1  -3   5  678.15   14.73
   1  -3   5  713.93   21.71
  -2   3  -5  259.43   17.47
  -2   3  -5  247.58   14.94
   2  -3   5  281.46   12.19
   2  -3   5  279.15   15.27
   2  -3   5  283.26   11.99
   2  -3   5  266.78   14.68
  -3   3  -5   91.62   12.71
  -3   3  -5   94.02   12.42
   3  -3   5   98.92   11.20
   3  -3   5  111.08   11.62
   3  -3   5   91.59   11.08
   3  -3   5   99.25   10.58
  -4   3  -5  121.89   14.58
  -4   3  -5  146.86   16.93
   4  -3   5   90.93   12.86
   4  -3   5  135.97   15.28
   4  -3   5  106.79   14.00
   4  -3   5  115.64   16.88
  -5   3  -5  318.32   27.83
  -5   3  -5  289.34   23.84
   5  -3   5  282.57   23.22
   5  -3   5  277.90   24.53
   5  -3   5  305.07   22.93
   5  -3   5  288.93   23.01
  -6   3  -5  -12.52   16.28
  -6   3  -5   -7.08   20.80
   6  -3   5    5.24   19.13
   6  -3   5   18.35   16.08
   6  -3   5  -18.67   16.69
   6  -3   5   15.48   15.46
   6   2  -5   26.68   10.80
   6   2  -5   -9.87   15.67
   6   2  -5    3.90   10.93
   6   2  -5   15.46   15.36
   6   2  -5   -1.82   12.81
   6   2  -5    6.64    8.88
   5   2  -5   57.87   11.97
   5   2  -5   67.41   10.21
   5   2  -5   42.89   10.73
   5   2  -5   59.12    8.82
   5   2  -5   60.79   13.38
   5   2  -5   36.77   12.35
   4   2  -5   87.27    9.95
   4   2  -5  100.10   11.15
   4   2  -5   88.93   10.96
   4   2  -5  106.73   13.76
   4   2  -5  100.26   11.64
   4   2  -5  107.71   10.84
   3   2  -5   61.56    7.27
   3   2  -5   53.90    7.67
   3   2  -5   54.96    6.42
   3   2  -5   51.47    8.92
   3   2  -5   60.81    7.84
   3   2  -5   67.92    7.76
   2   2  -5   90.31    8.40
   2   2  -5  115.17    8.74
   2   2  -5   83.01    9.48
   2   2  -5   95.99    5.78
  -2  -2   5   92.33    7.31
  -2  -2   5  111.15    8.27
   1   2  -5    2.16    3.82
   1   2  -5    8.34    4.14
  -1  -2   5    4.77    2.45
  -1  -2   5    5.30    3.21
  -1  -2   5    9.44    4.53
   0   2  -5   48.44    6.82
   0   2  -5   44.40    3.40
   0   2  -5   38.02    5.49
   0  -2   5   50.65    6.91
   0  -2   5   35.57    3.23
   0  -2   5   36.66    5.52
  -1   2  -5  325.84   10.24
  -1   2  -5  331.06   15.50
  -1   2  -5  313.83   13.42
   1  -2   5  333.56   13.22
   1  -2   5  319.58    9.68
   1  -2   5  329.62   14.00
  -2   2  -5  491.69   17.79
  -2   2  -5  437.02   15.04
   2  -2   5  463.70   14.77
   2  -2   5  465.47   17.72
   2  -2   5  440.11   15.98
  -3   2  -5   71.14    9.77
  -3   2  -5   48.66    9.69
   3  -2   5   47.23    8.36
   3  -2   5   56.63    7.89
   3  -2   5   46.43    7.86
   3  -2   5   45.30    8.90
  -4   2  -5  156.03   18.34
  -4   2  -5  153.38   14.80
   4  -2   5  161.36   13.92
   4  -2   5  142.15   15.72
   4  -2   5  169.46   16.38
  -5   2  -5  257.00   20.30
  -5   2  -5  306.67   25.28
   5  -2   5  209.27   20.88
   5  -2   5  278.08   22.04
   5  -2   5  281.70   21.57
   5  -2   5  270.05   19.37
  -6   2  -5   53.17   20.10
  -6   2  -5   33.33   14.57
   6  -2   5   65.17   14.82
   6  -2   5   40.99   17.87
   6  -2   5   40.53   16.38
   6  -2   5   26.97   17.17
   6   1  -5   51.20   16.24
   6   1  -5   35.48    7.22
   6   1  -5   44.30    7.88
   6   1  -5   52.40   12.75
   6   1  -5   36.40   17.07
   6   1  -5   71.51   14.00
   5   1  -5  113.32   15.34
   5   1  -5  117.59   13.87
   5   1  -5  109.68   10.35
   5   1  -5  112.21    9.72
   5   1  -5  128.96   16.29
   5   1  -5   85.25   14.27
   4   1  -5   48.59    8.25
   4   1  -5   63.76    6.52
   4   1  -5   78.79   11.92
   4   1  -5   50.15    8.43
   4   1  -5   60.96    6.83
   3   1  -5   84.49   10.59
   3   1  -5   68.59    7.89
   3   1  -5   76.92    6.62
   3   1  -5   78.48    6.87
   3   1  -5   81.06    9.16
  -3  -1   5   72.99    8.87
   2   1  -5   86.19    6.76
   2   1  -5   97.66    9.74
   2   1  -5  100.44    6.27
   2   1  -5   84.29    8.03
  -2  -1   5   96.10    6.11
  -2  -1   5   99.41    7.60
   1   1  -5  229.97   10.51
   1   1  -5  225.75    7.23
   1   1  -5  233.86   10.03
   1   1  -5  232.70   11.65
  -1  -1   5  229.20    8.28
   0   1  -5 1889.92   30.53
   0   1  -5 1931.50   36.84
   0   1  -5 1957.17   35.89
   0  -1   5 1985.32   30.43
   0  -1   5 1895.93   35.26
   0  -1   5 1948.41   35.55
  -1   1  -5  749.32   19.02
  -1   1  -5  730.59   16.91
  -1   1  -5  730.98   21.16
   1  -1   5  732.30   20.40
   1  -1   5  746.26   18.44
   1  -1   5  718.00   16.02
  -2   1  -5  803.16   20.85
  -2   1  -5  783.68   20.60
  -2   1  -5  801.80   24.47
   2  -1   5  786.92   19.82
   2  -1   5  809.35   23.61
   2  -1   5  824.01   20.17
  -3   1  -5   46.20    9.53
  -3   1  -5   29.59    7.13
  -3   1  -5   33.05    6.51
   3  -1   5   42.29    6.42
   3  -1   5   23.47    7.05
   3  -1   5   53.45    8.12
  -4   1  -5  372.70   16.54
  -4   1  -5  365.85   21.23
  -4   1  -5  350.57   19.30
   4  -1   5  315.38   27.12
   4  -1   5  352.52   20.01
   4  -1   5  369.21   15.47
  -5   1  -5  126.78   14.99
  -5   1  -5  162.02   19.03
   5  -1   5  149.17   16.69
   5  -1   5  150.42   17.51
   5  -1   5  154.56   17.59
   5  -1   5  130.75   13.29
  -6   1  -5   10.19   10.22
  -6   1  -5    9.99   17.45
   6  -1   5  -21.11   15.22
   6  -1   5   -7.97   14.23
   6  -1   5   -5.10    9.56
   6   0  -5   28.14   16.67
   6   0  -5   15.24   14.79
   6   0  -5   11.08   15.18
  -6   0   5    7.62   13.51
   5   0  -5   10.46    8.76
   5   0  -5    5.14   11.48
  -5   0   5   10.65    9.93
   4   0  -5   25.45    7.14
   4   0  -5   29.85   10.89
  -4   0   5   27.18    8.72
  -4   0   5   40.91    9.59
   3   0  -5  509.40   10.27
   3   0  -5  495.31   16.75
   3   0  -5  511.44   21.00
   3   0  -5  503.10   10.14
  -3   0   5  507.89   19.69
  -3   0   5  521.70   18.88
   2   0  -5   22.15    6.12
   2   0  -5   19.30    3.83
  -2   0   5   10.82    4.37
  -2   0   5   16.05    5.08
  -2   0   5   23.02    2.77
   1   0  -5  389.75   11.60
   1   0  -5  370.89   10.83
   1   0  -5  358.72   14.29
  -1   0   5  394.47   11.68
  -1   0   5  389.21   10.59
   0   0  -5 1913.47   34.51
   0   0  -5 1918.99   32.36
   0   0  -5 1949.80   35.95
   0   0  -5 1929.60   35.53
   0   0   5 1967.26   32.00
   0   0   5 1970.03   35.33
  -1   0  -5 3343.93   57.29
  -1   0  -5 3264.39   52.22
  -1   0  -5 3328.87   52.15
   1   0   5 3288.02   56.40
   1   0   5 3354.30   52.00
   1   0   5 3329.31   51.48
  -2   0  -5  490.24   15.91
  -2   0  -5  498.22   19.12
  -2   0  -5  496.95   13.95
   2   0   5  510.09   13.68
   2   0   5  508.75   18.19
   2   0   5  507.16   15.56
  -3   0  -5  207.07   13.37
  -3   0  -5  210.64    9.93
  -3   0  -5  205.76   15.50
   3   0   5  217.36    9.26
   3   0   5  206.32   12.30
   3   0   5  216.35   14.73
  -4   0  -5  321.93   18.41
  -4   0  -5  328.20   20.87
  -4   0  -5  329.01   13.51
   4   0   5  335.73   12.43
   4   0   5  301.23   18.40
  -5   0  -5  123.73   11.99
  -5   0  -5  125.89   17.56
  -5   0  -5  147.45   17.68
   5   0   5  137.33   15.81
   5   0   5  125.24   10.75
  -6   0  -5   32.17    9.08
  -6   0  -5   55.19   19.00
   6   0   5   48.71    8.83
   6   0   5   62.31   21.96
   6   0   5   21.71   15.57
   6   0   5   65.87   18.79
   6  -1  -5   25.52   17.86
   6  -1  -5   35.57   18.33
   6  -1  -5   -7.97   13.00
  -6   1   5   57.49   16.45
   5  -1  -5  164.55   19.75
   5  -1  -5  149.57   16.95
  -5   1   5  216.60   22.32
  -5   1   5  186.18   19.98
   4  -1  -5   67.05   14.25
  -4   1   5   71.55   12.17
  -4   1   5   78.86   11.20
   3  -1  -5    7.67    7.37
   3  -1  -5    6.19    4.88
  -3   1   5    5.58    6.23
  -3   1   5    2.19    5.78
   2  -1  -5   75.10    9.26
   2  -1  -5   77.36    7.14
  -2   1   5   75.89    8.82
  -2   1   5   65.18    7.68
   1  -1  -5  334.95   11.19
   1  -1  -5  344.01   10.64
   1  -1  -5  358.49   14.48
  -1   1   5  328.77   11.89
  -1   1   5  326.74   13.48
  -1   1   5  333.65    9.93
   0  -1  -5 1129.96   25.07
   0  -1  -5 1096.12   22.46
   0  -1  -5 1092.75   24.25
   0   1   5 1128.49   24.33
   0   1   5 1103.40   22.33
   0   1   5 1096.76   23.64
  -1  -1  -5  242.26    8.76
  -1  -1  -5  246.03   12.49
  -1  -1  -5  244.56    9.88
  -1  -1  -5  239.52    9.81
   1   1   5  250.52   11.82
   1   1   5  241.33    9.71
  -2  -1  -5  502.34   16.36
  -2  -1  -5  495.06   12.94
  -2  -1  -5  479.50   12.12
  -2  -1  -5  497.03   19.43
   2   1   5  485.68   15.71
   2   1   5  493.85   18.50
  -3  -1  -5    0.43    6.78
  -3  -1  -5    2.72    2.75
  -3  -1  -5    1.02    4.71
   3   1   5    2.71    5.20
   3   1   5   11.12    2.96
   3   1   5    0.28    6.32
  -4  -1  -5  496.21   29.67
  -4  -1  -5  554.67   24.82
  -4  -1  -5  531.62   13.44
   4   1   5  532.93   21.61
   4   1   5  517.56   23.26
   4   1   5  546.92   12.35
  -5  -1  -5   60.90   13.24
  -5  -1  -5   31.77   14.31
  -5  -1  -5   60.96    5.92
   5   1   5   73.47    6.39
   5   1   5   82.85   13.16
   5   1   5   49.65   13.56
  -6  -1  -5   56.06   20.01
   6   1   5   78.12   18.10
   6  -2  -5  -10.50   17.76
   6  -2  -5   28.72   14.25
  -6   2   5  -33.46   15.37
  -6   2   5   15.97   21.62
   5  -2  -5   63.31   14.89
   5  -2  -5   68.51   13.70
  -5   2   5   57.50   14.08
  -5   2   5   71.41   16.20
   4  -2  -5  501.62   21.20
   4  -2  -5  493.24   25.79
  -4   2   5  496.26   24.04
  -4   2   5  493.50   24.58
   3  -2  -5  104.26   10.56
   3  -2  -5   91.99   13.09
  -3   2   5   84.61   10.72
  -3   2   5  128.59   14.00
   2  -2  -5  417.90   15.15
   2  -2  -5  441.78   19.40
  -2   2   5  429.87   16.57
  -2   2   5  399.71   17.79
  -2   2   5  416.03    8.19
   1  -2  -5  135.25    7.74
   1  -2  -5  139.38   11.35
   1  -2  -5  154.12    8.51
  -1   2   5  151.75   10.39
  -1   2   5  153.15    9.50
  -1   2   5  146.59    7.38
   0  -2  -5   54.90    6.06
   0  -2  -5   48.67    6.52
   0  -2  -5   48.86    6.52
   0   2   5   57.45    6.66
   0   2   5   54.42    6.59
   0   2   5   55.73    6.19
  -1  -2  -5   44.72    7.32
  -1  -2  -5   51.01    5.65
  -1  -2  -5   53.79    6.48
   1   2   5   47.98    7.10
   1   2   5   57.42    6.55
   1   2   5   55.05    5.57
  -2  -2  -5   97.95    6.53
  -2  -2  -5  100.74   11.30
  -2  -2  -5   88.33    5.02
  -2  -2  -5   90.96    8.48
   2   2   5   78.75    9.77
   2   2   5   71.79    7.72
  -3  -2  -5   21.08    2.55
  -3  -2  -5   29.89    9.54
  -3  -2  -5   17.00    6.28
  -3  -2  -5   22.32    3.09
   3   2   5   29.66    7.07
   3   2   5   23.26    7.67
  -4  -2  -5   32.87    9.35
  -4  -2  -5   40.16   11.82
   4   2   5   43.29    9.26
  -5  -2  -5   59.22   12.07
  -5  -2  -5   66.15   16.02
   5   2   5   38.78   11.58
   5   2   5   44.34   13.56
  -6  -2  -5    2.85   18.06
  -6  -2  -5   -8.30   14.16
   6   2   5   40.29   15.90
   6   2   5   -4.77   13.93
   6  -3  -5   40.40   23.16
   6  -3  -5    9.56   16.17
  -6   3   5   34.38   19.39
  -6   3   5  -15.90   25.02
   5  -3  -5  102.41   19.27
   5  -3  -5  104.71   15.90
  -5   3   5  121.17   18.80
  -5   3   5  135.28   19.38
   4  -3  -5    8.24    7.53
   4  -3  -5    9.12   12.31
  -4   3   5   19.01   11.55
  -4   3   5   26.99   10.84
   3  -3  -5  152.25   16.80
  -3   3   5  136.79   15.15
   2  -3  -5  163.92   14.80
   2  -3  -5  180.26   11.42
  -2   3   5  168.18   13.12
  -2   3   5  184.90    7.50
  -2   3   5  175.91   12.90
  -2   3   5  190.14    8.05
   1  -3  -5  584.86   17.40
   1  -3  -5  547.00   20.89
   1  -3  -5  530.31   15.98
  -1   3   5  563.52   16.23
  -1   3   5  567.93   18.41
  -1   3   5  560.65   19.83
   0  -3  -5   16.20    5.44
   0  -3  -5   12.14    4.34
   0  -3  -5    8.64    5.22
   0   3   5   10.13    4.43
   0   3   5   10.30    4.48
   0   3   5   10.09    4.40
  -1  -3  -5   90.54   10.48
  -1  -3  -5   90.09    8.56
  -1  -3  -5   85.50    7.48
   1   3   5   80.95    7.24
   1   3   5   92.83    9.79
  -2  -3  -5   32.21    6.49
  -2  -3  -5   28.43    5.03
  -2  -3  -5   22.63    8.68
   2   3   5   26.96    3.88
   2   3   5   29.34    5.95
   2   3   5   31.23    8.42
  -3  -3  -5   95.22   12.79
  -3  -3  -5   76.42    9.61
   3   3   5  109.88   10.98
   3   3   5  108.16   13.80
  -4  -3  -5  421.68   22.06
  -4  -3  -5  410.47   25.53
   4   3   5  411.25   24.66
   4   3   5  408.43   20.19
  -5  -3  -5  169.52   20.41
  -5  -3  -5  175.22   20.61
   5   3   5  153.46   19.68
   5   3   5  205.58   18.90
  -6  -3  -5   11.38   15.15
  -6  -3  -5   71.30   21.49
   6   3   5   89.33   21.54
   6   3   5   28.70   14.14
   5  -4  -5   93.00   22.02
   5  -4  -5   66.54   14.85
  -5   4   5   83.64   19.10
  -5   4   5  112.11   19.97
   4  -4  -5  129.30   20.02
   4  -4  -5  139.12   15.60
  -4   4   5  126.10   17.10
  -4   4   5  139.34   18.87
   3  -4  -5   19.19    7.92
   3  -4  -5   18.89   10.56
  -3   4   5    7.41    4.18
  -3   4   5   11.12    9.43
  -3   4   5   10.83    4.43
  -3   4   5    5.35    9.10
   2  -4  -5  147.48   12.01
  -2   4   5  153.73   10.35
  -2   4   5  182.67   23.58
  -2   4   5  155.49   15.42
  -2   4   5  177.49    9.54
   1  -4  -5  132.05   14.54
   1  -4  -5  138.39   10.29
  -1   4   5   89.54   10.88
  -1   4   5  121.92    9.79
  -1   4   5  134.38   11.79
  -1   4   5  112.45   10.45
   0  -4  -5  234.95   14.09
   0  -4  -5  219.88   15.10
   0  -4  -5  218.12   11.71
   0   4   5  225.30   12.46
   0   4   5  193.40   13.66
   0   4   5  212.98   13.44
  -1  -4  -5  143.80   11.48
  -1  -4  -5  156.23   10.32
  -1  -4  -5  141.90   13.01
   1   4   5  140.13   10.59
   1   4   5  126.95    9.62
   1   4   5  133.16   13.22
  -2  -4  -5   17.84    6.52
  -2  -4  -5   12.74    5.06
  -2  -4  -5   14.58    7.93
   2   4   5    9.44    4.28
   2   4   5   19.98    8.48
   2   4   5   21.58    6.06
  -3  -4  -5   -3.21    9.96
  -3  -4  -5   10.57   10.33
   3   4   5   -5.91    9.08
   3   4   5   -3.51    6.11
  -4  -4  -5   79.29   13.37
  -4  -4  -5   74.99   15.75
   4   4   5   94.30   12.08
   4   4   5   70.00   13.35
  -5  -4  -5  122.98   21.14
  -5  -4  -5   93.61   16.57
   5   4   5  124.32   20.09
   5   4   5  103.23   14.27
  -6  -4  -5   -7.77   17.57
  -6  -4  -5   26.49   22.33
   6   4   5   26.85   15.27
   6   4   5   -2.89   19.38
   5  -5  -5   94.27   17.92
   5  -5  -5  133.84   24.61
  -5   5   5  106.40   23.30
  -5   5   5   75.65   22.09
   4  -5  -5   30.80   11.61
   4  -5  -5   32.13   18.27
  -4   5   5   -0.80   14.49
  -4   5   5   25.74    5.30
  -4   5   5   17.76   14.88
  -4   5   5   18.23    5.94
   3  -5  -5   82.95   17.17
   3  -5  -5   65.30   11.49
  -3   5   5   62.96   13.69
  -3   5   5   70.99    8.40
  -3   5   5   68.23   14.64
  -3   5   5   73.48    8.31
   2  -5  -5   14.19    7.97
   2  -5  -5   33.81   13.18
  -2   5   5    6.44    9.58
  -2   5   5   12.18    7.21
  -2   5   5   17.14    6.20
  -2   5   5   16.49   10.24
   1  -5  -5  147.41   26.62
   1  -5  -5  129.22   12.90
  -1   5   5  138.07   15.77
  -1   5   5  154.81   13.88
  -1   5   5  134.23   13.34
  -1   5   5  160.09   12.19
   0  -5  -5  321.72   15.40
   0  -5  -5  341.77   19.70
   0   5   5  314.10   18.31
   0   5   5  316.98   16.44
   0   5   5  351.89   16.65
   0   5   5  353.36   18.09
  -1  -5  -5  188.84   12.58
  -1  -5  -5  173.40   16.48
  -1  -5  -5  172.04   14.02
   1   5   5  198.04   17.27
   1   5   5  171.94   13.39
   1   5   5  166.73   12.54
  -2  -5  -5   36.41    8.35
  -2  -5  -5   33.88    7.29
  -2  -5  -5   32.15    9.96
   2   5   5   47.50    7.03
   2   5   5   32.10   10.33
  -3  -5  -5  218.40    9.13
  -3  -5  -5  217.01   17.24
  -3  -5  -5  216.29   21.22
   3   5   5  211.78    8.40
   3   5   5  196.07   15.98
   3   5   5  206.19   21.44
  -4  -5  -5  412.06   24.24
  -4  -5  -5  378.77   28.78
   4   5   5  415.97   29.33
   4   5   5  378.82   21.46
  -5  -5  -5   54.95   15.11
  -5  -5  -5   48.38   19.09
   5   5   5   57.60   20.07
   5   5   5   41.59   13.29
   4  -6  -5   24.51   23.03
   4  -6  -5  123.05   18.07
  -4   6   5   62.44   19.97
  -4   6   5   90.81   10.80
  -4   6   5   76.41   11.73
  -4   6   5   66.79   20.04
   3  -6  -5   34.92   17.23
   3  -6  -5   -6.55   10.02
  -3   6   5   21.73    9.28
  -3   6   5    3.45    8.68
  -3   6   5   -3.94   13.99
  -3   6   5   29.34   15.04
   2  -6  -5    9.24   13.53
   2  -6  -5    1.99    8.35
  -2   6   5   12.52   10.69
  -2   6   5  -16.33   12.43
  -2   6   5   -3.64    9.15
  -2   6   5    6.47    8.16
   1  -6  -5    3.91   11.30
  -1   6   5    3.28    9.75
  -1   6   5   -8.47    7.72
  -1   6   5  -10.14    9.50
  -1   6   5   -2.09    7.76
   0  -6  -5  141.33   13.97
   0   6   5  129.04   14.74
   0   6   5  149.48   15.10
   0   6   5  125.88   14.92
  -1  -6  -5   80.06   10.83
  -1  -6  -5   79.31   12.33
   1   6   5  114.04   13.83
   1   6   5   90.52   11.35
   1   6   5  103.20   12.54
   1   6   5   70.72   13.09
  -2  -6  -5  112.11   12.47
  -2  -6  -5  159.18   14.43
   2   6   5  117.55   13.14
   2   6   5  169.55   15.05
   2   6   5  110.48   16.73
  -3  -6  -5   94.50   13.88
  -3  -6  -5   70.66    7.66
  -3  -6  -5   85.71   18.15
   3   6   5   93.31   17.80
   3   6   5   75.56   12.72
   3   6   5   86.55    9.85
  -4  -6  -5  426.33   27.33
   4   6   5  368.48   32.40
   4   6   5  386.19   23.98
  -5  -6  -5   92.21   26.30
  -5  -6  -5   58.74   17.69
   5   6   5   68.81   15.55
   5   6   5   60.73   23.52
   3  -7  -5   28.93   13.71
   3  -7  -5   34.01   23.29
  -3   7   5   -2.36   17.35
  -3   7   5   24.84   20.28
  -3   7   5   42.29   13.39
  -3   7   5   19.68   13.62
   2  -7  -5   19.30   11.10
   2  -7  -5   16.92   19.39
  -2   7   5    1.62   15.92
  -2   7   5   37.50   13.74
  -2   7   5   30.91   14.48
  -2   7   5   16.14   14.67
   1  -7  -5  164.14   16.83
   1  -7  -5  190.76   23.87
  -1   7   5  165.17   19.54
  -1   7   5  179.32   19.86
  -1   7   5  150.67   17.03
  -1   7   5  157.78   20.46
   0  -7  -5   10.02   13.92
   0  -7  -5   12.56    7.95
   0   7   5   32.03   10.82
   0   7   5    8.46   13.35
   0   7   5   14.56   11.10
   0   7   5  -15.38   11.65
  -1  -7  -5   83.59   12.04
  -1  -7  -5   61.46   14.18
   1   7   5   86.77   12.30
   1   7   5   71.85   14.06
   1   7   5   77.86   15.69
   1   7   5   60.79   16.66
  -2  -7  -5  133.68   16.18
  -2  -7  -5  128.44   15.02
   2   7   5  130.87   14.09
   2   7   5  101.53   14.03
   2   7   5  108.13   20.70
   2   7   5  151.71   19.15
  -3  -7  -5  115.61   16.63
  -3  -7  -5   86.53   10.45
   3   7   5   76.15   14.26
   3   7   5   84.36   10.60
   3   7   5   99.40   20.35
   3   7   5  126.19   22.82
  -4  -7  -5  189.67   20.94
   4   7   5  144.32   22.50
   4   7   5  194.06   29.45
   2  -8  -5   33.29   22.88
  -2   8   5   18.59   19.47
  -2   8   5   15.93   21.32
   1  -8  -5   38.56   12.80
   1  -8  -5   27.97   37.67
  -1   8   5   59.37   19.71
  -1   8   5   45.55   17.43
  -1   8   5   91.35   19.71
  -1   8   5   98.36   18.78
   0  -8  -5   37.10   12.66
   0  -8  -5   -9.36   18.68
   0   8   5   28.58   17.15
   0   8   5    9.65   12.26
   0   8   5    5.41   18.25
   0   8   5   34.40   16.50
  -1  -8  -5   19.16   16.20
  -1  -8  -5   12.11   11.53
   1   8   5   21.91   15.77
   1   8   5  -12.97   17.49
   1   8   5   32.87   13.47
   1   8   5    6.62   14.62
  -2  -8  -5   45.04   14.52
  -2  -8  -5    5.66   12.70
   2   8   5   15.57   19.91
   2   8   5   46.23   20.33
   2   8   5   45.80   13.60
   2   8   5   42.94   18.57
  -3  -8  -5   36.95   15.41
   3   8   5   59.61   25.60
   3   8   5   35.16   25.10
   3   8   5   42.30   12.80
   1   8  -6  137.13   24.67
   1   8  -6  119.83   22.02
  -1  -8   6   74.89   22.04
  -1  -8   6   96.17   21.88
   0   8  -6   67.99   21.67
   0   8  -6   41.87   22.56
   0  -8   6   25.85   17.73
   0  -8   6   73.20   20.03
  -1   8  -6   82.56   25.01
   1  -8   6   25.30   20.42
   3   7  -6   25.36   17.73
   3   7  -6   64.48   21.39
   3   7  -6   24.87   20.48
  -3  -7   6   61.97   16.69
   2   7  -6  312.04   28.35
   2   7  -6  337.24   34.99
  -2  -7   6  387.01   26.81
  -2  -7   6  446.33   28.66
   1   7  -6    9.13   15.11
   1   7  -6   38.69   17.05
  -1  -7   6   25.47   13.67
  -1  -7   6  -11.26   13.25
   0   7  -6  456.23   31.35
   0   7  -6  454.35   34.27
   0  -7   6  448.13   27.65
   0  -7   6  365.63   27.52
  -1   7  -6   18.94   15.14
  -1   7  -6   24.80   21.09
   1  -7   6   44.04   19.64
   1  -7   6   31.99   17.24
  -2   7  -6   65.84   20.50
  -2   7  -6   58.45   19.77
   2  -7   6   43.76   17.16
   2  -7   6   50.32   17.34
   2  -7   6   49.16    6.94
   2  -7   6   42.53    8.70
  -3   7  -6   57.86   25.76
  -3   7  -6   77.54   24.09
   3  -7   6   70.37   11.54
   3  -7   6   33.60   13.26
   3  -7   6   11.42   24.69
   3  -7   6   57.70   18.93
   4   6  -6  103.55   21.99
   4   6  -6   86.43    7.75
   4   6  -6   95.98   18.90
   4   6  -6   91.80   18.33
   4   6  -6   82.92    7.29
   4   6  -6   65.80   17.06
   3   6  -6    8.79   15.06
   3   6  -6    4.69   12.40
   3   6  -6    8.64   12.47
  -3  -6   6   12.14   11.34
   2   6  -6   54.97   13.53
   2   6  -6   56.54   13.44
  -2  -6   6   31.01   12.80
  -2  -6   6   54.51   12.53
   1   6  -6  193.61   19.51
   1   6  -6  211.37   20.95
  -1  -6   6  180.84   19.51
  -1  -6   6  176.47   18.77
   0   6  -6   17.80   11.75
   0   6  -6   16.39   12.52
   0  -6   6   30.06   11.14
   0  -6   6   34.02   12.09
  -1   6  -6 1087.80   39.94
  -1   6  -6 1067.89   39.35
   1  -6   6 1109.52   36.16
   1  -6   6 1032.17   35.42
  -2   6  -6   10.24   14.20
  -2   6  -6   -3.06   13.06
   2  -6   6    6.01    6.91
   2  -6   6   16.51   11.59
   2  -6   6    0.15   12.07
   2  -6   6   -0.95    5.20
  -3   6  -6   97.08   21.55
   3  -6   6   92.96   32.92
   3  -6   6   57.44   14.51
   3  -6   6   66.75   11.79
   3  -6   6   78.59   10.55
  -4   6  -6  107.11   23.86
   4  -6   6  115.60   18.99
   4  -6   6  131.07   24.60
   4  -6   6  107.54   15.75
   4  -6   6   84.22   17.02
   5   5  -6  274.17   24.95
   5   5  -6  337.54   28.19
   5   5  -6  314.97   20.02
   5   5  -6  274.55   28.41
   5   5  -6  345.13   21.25
   5   5  -6  336.32   31.91
   4   5  -6   27.11    7.39
   4   5  -6   27.91    6.71
   4   5  -6   34.18   12.81
   4   5  -6   34.05   14.74
   4   5  -6    7.97   12.06
   4   5  -6   30.63   13.81
   3   5  -6  124.71   14.84
   3   5  -6  111.75    5.74
   3   5  -6  113.59    6.28
   3   5  -6  105.69   15.61
   3   5  -6  105.12   14.80
   2   5  -6  200.94   18.10
   2   5  -6  172.97   17.17
  -2  -5   6  208.28   17.03
  -2  -5   6  169.00   17.48
   1   5  -6  115.38   13.67
   1   5  -6  119.69   14.01
  -1  -5   6  154.92   15.60
  -1  -5   6  134.09   15.13
   0   5  -6  207.99   18.18
   0   5  -6  187.37   18.16
   0  -5   6  224.35   16.60
   0  -5   6  194.09   16.60
  -1   5  -6   30.96   11.90
  -1   5  -6   33.40   10.99
   1  -5   6   24.38    3.67
   1  -5   6   32.70   10.27
   1  -5   6   23.88    3.15
   1  -5   6   26.82   10.01
  -2   5  -6   96.34   15.76
  -2   5  -6   91.25   15.09
   2  -5   6   89.90    9.27
   2  -5   6  104.92   10.72
   2  -5   6  123.06   14.99
   2  -5   6   85.07   13.74
  -3   5  -6   45.24   15.12
  -3   5  -6    4.74   13.43
   3  -5   6   -3.89   10.83
   3  -5   6   25.04   12.74
   3  -5   6   25.08    9.38
   3  -5   6   22.92    9.05
  -4   5  -6   69.22   19.40
  -4   5  -6   44.52   17.75
   4  -5   6   31.85   14.62
   4  -5   6   73.60   14.14
   4  -5   6   83.53   13.67
   4  -5   6   38.68   15.67
  -5   5  -6   66.31   22.92
   5  -5   6  102.11   23.32
   5  -5   6   56.90   19.91
   5  -5   6   91.84   17.20
   5   4  -6   78.06   13.16
   5   4  -6   55.63   16.62
   5   4  -6   74.10   11.94
   5   4  -6   60.24   13.95
   5   4  -6   81.90   13.76
   5   4  -6   51.15   16.04
   4   4  -6  962.46   33.80
   4   4  -6  891.95   23.32
   4   4  -6  860.90   32.26
   4   4  -6  919.52   30.72
   4   4  -6  895.09   25.12
   3   4  -6   -1.83    7.62
   3   4  -6    7.63    9.15
   3   4  -6    1.69    3.69
   3   4  -6   16.44   10.70
   3   4  -6   11.96    5.21
   2   4  -6  262.76   17.10
   2   4  -6  257.27   16.16
  -2  -4   6  223.19   15.22
  -2  -4   6  234.69   17.82
   1   4  -6  209.78   15.27
   1   4  -6  158.22   13.90
  -1  -4   6  213.44   14.38
  -1  -4   6  178.86   14.05
   0   4  -6  385.51   19.09
   0   4  -6  388.65   18.85
   0  -4   6  389.68   18.41
   0  -4   6  359.45   17.75
  -1   4  -6  109.85   13.10
   1  -4   6  106.48    6.07
   1  -4   6  100.17    5.97
   1  -4   6  130.90   13.13
  -2   4  -6   87.67   14.37
  -2   4  -6  125.72   15.72
   2  -4   6  130.01   14.05
   2  -4   6  122.32    9.70
   2  -4   6  111.78    9.93
   2  -4   6  132.61   14.04
  -3   4  -6   18.83   10.38
  -3   4  -6   24.96   11.28
   3  -4   6   15.01   10.77
   3  -4   6   19.55    8.38
   3  -4   6   10.11    8.51
   3  -4   6   22.79    7.85
  -4   4  -6  205.32   24.64
  -4   4  -6  216.61   22.53
   4  -4   6  194.85   20.69
   4  -4   6  235.18   21.09
   4  -4   6  230.02   19.63
   4  -4   6  224.86   20.51
  -5   4  -6  146.97   21.80
  -5   4  -6  117.43   24.37
   5  -4   6  161.69   20.04
   5  -4   6  163.06   20.40
   5  -4   6  136.28   18.85
   5  -4   6  109.01   18.89
   6   3  -6   30.17   14.68
   6   3  -6   31.35   18.18
   6   3  -6   36.12   17.09
   6   3  -6    5.08   13.10
   6   3  -6   37.14   15.13
   6   3  -6   29.75   14.44
   5   3  -6  207.04   17.92
   5   3  -6  180.43   18.34
   5   3  -6  199.47   26.36
   5   3  -6  170.63   19.78
   5   3  -6  227.40   21.04
   5   3  -6  197.98   19.62
   4   3  -6   31.18    7.66
   4   3  -6   45.54   10.86
   4   3  -6   51.95   12.18
   4   3  -6   46.17    9.42
   4   3  -6   45.88    9.15
   3   3  -6  440.78   18.47
   3   3  -6  404.59   18.38
   3   3  -6  427.86   15.72
   3   3  -6  405.97   20.91
   3   3  -6  435.12   13.58
   2   3  -6   23.81    3.10
   2   3  -6   11.85    6.49
   2   3  -6   18.91    6.63
   2   3  -6   18.51    4.11
  -2  -3   6   20.30    5.94
   1   3  -6  164.41   11.72
   1   3  -6  167.28   12.42
  -1  -3   6  176.65   11.81
  -1  -3   6  175.14   11.74
   0   3  -6  263.29   14.80
   0   3  -6  236.66   14.00
   0  -3   6  245.16   13.62
   0  -3   6  249.42    5.69
   0  -3   6  253.17   13.76
  -1   3  -6    2.36    5.77
  -1   3  -6   10.55    6.56
   1  -3   6   24.07    7.18
   1  -3   6   17.12    3.38
   1  -3   6   13.04    5.37
   1  -3   6   25.57    3.91
  -2   3  -6   48.20    9.90
  -2   3  -6   37.94    9.22
   2  -3   6   46.24    8.34
   2  -3   6   43.08    5.97
   2  -3   6   43.70    7.94
   2  -3   6   36.05    6.29
  -3   3  -6  104.51   13.83
  -3   3  -6  113.60   15.56
   3  -3   6   82.04   10.04
   3  -3   6   64.41   10.37
   3  -3   6   91.08   10.24
   3  -3   6   73.84   11.42
  -4   3  -6  214.75   22.13
   4  -3   6  221.39   19.29
   4  -3   6  222.72   18.98
   4  -3   6  258.22   19.06
  -5   3  -6  628.95   35.89
  -5   3  -6  616.63   31.97
   5  -3   6  621.50   28.52
   5  -3   6  592.29   30.24
   5  -3   6  661.13   31.45
   5  -3   6  608.23   31.54
  -6   3  -6   95.68   28.50
  -6   3  -6   91.53   20.01
   6  -3   6  108.84   19.31
   6  -3   6  102.33   19.79
   6  -3   6   72.00   19.16
   6   2  -6   35.04   10.14
   6   2  -6   33.42   11.04
   6   2  -6   45.32   17.76
   6   2  -6   34.54   18.08
   6   2  -6   36.69   14.32
   6   2  -6   21.01   12.85
   5   2  -6   54.90   10.23
   5   2  -6   37.29   10.59
   5   2  -6   38.92   14.51
   5   2  -6   50.39    8.40
   5   2  -6   44.28   13.03
   5   2  -6   59.44   11.10
   4   2  -6  148.66   11.90
   4   2  -6  174.39   18.15
   4   2  -6  149.27   12.55
   4   2  -6  130.67   15.28
   4   2  -6  116.71   13.90
   4   2  -6  168.18   12.69
   3   2  -6   59.85   10.53
   3   2  -6   43.66    7.89
   3   2  -6   63.05    6.88
   3   2  -6   60.79    7.93
  -3  -2   6   64.41    8.63
   2   2  -6   41.92    6.98
   2   2  -6   40.37    6.98
   2   2  -6   41.42    8.79
   2   2  -6   38.98    4.49
  -2  -2   6   39.61    5.99
  -2  -2   6   41.35    5.54
   1   2  -6  428.21   15.97
   1   2  -6  406.53   15.56
   1   2  -6  430.27    9.90
  -1  -2   6  428.97   10.91
  -1  -2   6  425.13   14.99
  -1  -2   6  427.65   16.44
   0   2  -6  177.75    6.65
   0   2  -6  185.78   12.17
   0   2  -6  210.75   11.48
   0  -2   6  199.67   11.40
   0  -2   6  188.83    6.65
   0  -2   6  190.35   11.13
  -1   2  -6  339.17   16.57
  -1   2  -6  332.25   11.12
  -1   2  -6  333.61   14.85
   1  -2   6  315.44    9.93
   1  -2   6  333.46   15.15
   1  -2   6  324.27   13.80
  -2   2  -6  126.34    9.56
  -2   2  -6  129.21   13.92
  -2   2  -6  111.02   10.83
   2  -2   6  124.66    9.06
   2  -2   6  116.53   10.24
   2  -2   6  113.83   11.47
  -3   2  -6   -3.82    6.65
  -3   2  -6    3.53    8.99
  -3   2  -6   -1.43    6.05
   3  -2   6   -0.52    5.43
   3  -2   6   -4.87    5.62
   3  -2   6    2.71    6.66
  -4   2  -6  362.04   20.57
  -4   2  -6  398.60   25.33
   4  -2   6  411.55   18.87
   4  -2   6  361.17   20.60
   4  -2   6  422.01   26.14
   4  -2   6  378.17   22.22
  -5   2  -6  326.06   22.85
  -5   2  -6  312.83   27.09
   5  -2   6  233.98   22.85
   5  -2   6  369.02   24.92
   5  -2   6  324.20   25.04
   5  -2   6  324.67   24.11
  -6   2  -6  306.44   28.37
  -6   2  -6  254.84   29.00
   6  -2   6  257.36   30.09
   6  -2   6  290.11   27.56
   6  -2   6  275.63   23.59
   6  -2   6  347.05   31.84
   6   1  -6   30.14   17.13
   6   1  -6   61.24   19.21
   6   1  -6    6.14   12.66
   6   1  -6   -2.67   13.49
   5   1  -6  136.49   18.05
   5   1  -6  116.53   13.14
   5   1  -6  108.45    9.53
   5   1  -6  135.20   15.73
   5   1  -6  118.59    9.69
   5   1  -6  126.81   17.25
   4   1  -6   56.96    6.19
   4   1  -6   53.77   10.03
   4   1  -6   77.19   13.48
   4   1  -6   61.47    9.14
   4   1  -6   57.84    6.81
  -4  -1   6   61.58   11.39
   3   1  -6  161.75   12.31
   3   1  -6  145.51    9.08
   3   1  -6  153.72   14.73
   3   1  -6  146.15    8.89
   3   1  -6  156.78   10.07
  -3  -1   6  156.99   12.21
   2   1  -6   71.51    8.64
   2   1  -6   87.09   10.54
   2   1  -6   70.53    7.26
   2   1  -6   53.05    5.81
  -2  -1   6   72.34    7.70
  -2  -1   6   63.06    6.20
   1   1  -6  335.87   13.75
   1   1  -6  345.06   13.51
   1   1  -6  370.29   15.64
   1   1  -6  347.23    9.92
  -1  -1   6  361.16   12.44
  -1  -1   6  349.90   11.04
   0   1  -6 2253.82   36.64
   0   1  -6 2258.99   43.48
   0   1  -6 2319.58   42.52
   0  -1   6 2237.85   41.62
   0  -1   6 2276.82   36.14
   0  -1   6 2330.44   42.23
  -1   1  -6  270.78   11.84
  -1   1  -6  255.56   14.03
  -1   1  -6  273.21   10.31
   1  -1   6  274.35    9.83
   1  -1   6  252.83   12.75
   1  -1   6  248.29   11.45
  -2   1  -6   15.27    6.61
  -2   1  -6    2.29    3.91
  -2   1  -6    2.45    4.33
   2  -1   6    2.93    3.76
   2  -1   6    4.93    5.67
   2  -1   6    7.61    4.25
  -3   1  -6  139.76   15.54
  -3   1  -6  129.21   11.80
  -3   1  -6  143.39   10.93
   3  -1   6  128.30   11.79
   3  -1   6  129.76   10.45
   3  -1   6  140.05   13.72
  -4   1  -6  368.62   17.66
  -4   1  -6  354.34   23.61
   4  -1   6  389.04   19.29
   4  -1   6  363.07   22.01
   4  -1   6  355.78   15.87
  -5   1  -6  109.53   19.06
  -5   1  -6  102.86   12.97
   5  -1   6   69.52   12.97
   5  -1   6  112.13   14.88
   5  -1   6   81.03   15.46
   5  -1   6  103.99   11.64
  -6   1  -6   29.85   19.64
  -6   1  -6   45.50   12.60
   6  -1   6   36.31   10.92
   6  -1   6   29.67   16.55
   6  -1   6   23.32   17.81
   6  -1   6   80.73   18.08
   6   0  -6  105.31   16.83
   6   0  -6  101.47   21.34
  -6   0   6  144.10   19.07
   5   0  -6   44.34   14.72
   5   0  -6   57.23   11.16
  -5   0   6   48.60   14.54
  -5   0   6   44.28   12.33
   4   0  -6  275.78   21.46
   4   0  -6  279.97   15.89
  -4   0   6  240.46   22.76
   3   0  -6  179.14    6.05
   3   0  -6  172.63    6.58
   3   0  -6  159.66   15.50
   3   0  -6  191.22   11.73
  -3   0   6  169.09   13.45
  -3   0   6  161.70   13.12
   2   0  -6   63.56    9.92
   2   0  -6   58.62    6.18
   2   0  -6   57.88    6.42
  -2   0   6   60.33    4.89
  -2   0   6   61.43    7.43
  -2   0   6   67.25    8.92
   1   0  -6  632.06   16.90
   1   0  -6  643.36   20.66
   1   0  -6  599.04   15.28
  -1   0   6  630.38   15.62
  -1   0   6  651.09   16.56
   0   0  -6  328.36   10.79
   0   0  -6  340.00   13.86
   0   0  -6  349.56   12.83
   0   0  -6  340.51   13.56
   0   0   6  340.85   13.02
   0   0   6  355.53   11.07
  -1   0  -6 2177.18   38.62
  -1   0  -6 2176.13   38.97
  -1   0  -6 2156.95   43.72
   1   0   6 2223.68   37.90
   1   0   6 2116.86   42.71
  -2   0  -6   47.86    6.45
  -2   0  -6   64.53    9.24
  -2   0  -6   68.51    6.88
   2   0   6   46.83    6.01
   2   0   6   51.90    6.00
  -3   0  -6  480.88   23.06
  -3   0  -6  475.08   19.30
  -3   0  -6  453.76   15.59
   3   0   6  499.02   18.53
   3   0   6  470.46   14.46
  -4   0  -6  334.08   22.83
  -4   0  -6  246.76   21.77
   4   0   6  340.03   13.06
   4   0   6  313.63   18.20
  -5   0  -6   33.35    8.17
  -5   0  -6   25.65   14.16
  -5   0  -6   45.65   12.58
   5   0   6   34.56   13.79
   5   0   6   38.85    7.24
   5   0   6   36.59   10.64
  -6   0  -6   49.87    9.95
  -6   0  -6   49.86   21.08
   6   0   6   61.84   17.47
   6   0   6   92.88   20.52
   6   0   6   55.82    9.06
   6   0   6   27.00   16.12
   6  -1  -6  -10.17   13.62
   6  -1  -6   42.84   19.41
  -6   1   6  -19.72   15.33
   5  -1  -6  260.62   19.89
   5  -1  -6  251.75   26.12
  -5   1   6  254.48   24.05
  -5   1   6  249.52   23.06
   4  -1  -6  177.40   14.50
   4  -1  -6  173.75   19.20
  -4   1   6  160.10   17.63
  -4   1   6  199.78   18.60
   3  -1  -6   83.89   11.74
   3  -1  -6  112.21   10.28
  -3   1   6  112.03   12.17
  -3   1   6   93.56   11.35
   2  -1  -6  144.07   13.47
   2  -1  -6  142.97    6.36
   2  -1  -6  130.57    8.67
  -2   1   6  138.99   12.52
  -2   1   6  126.91    4.82
  -2   1   6  137.01   10.26
   1  -1  -6  361.57   12.43
   1  -1  -6  362.35   12.42
   1  -1  -6  370.24   16.28
  -1   1   6  368.85   11.53
  -1   1   6  364.89   14.87
  -1   1   6  361.61   13.22
   0  -1  -6 3681.69   58.70
   0  -1  -6 3641.89   61.09
   0  -1  -6 3757.05   62.44
   0   1   6 3739.44   60.60
   0   1   6 3718.44   58.37
  -1  -1  -6  171.96    9.28
  -1  -1  -6  145.78    9.26
  -1  -1  -6  163.98   11.86
  -1  -1  -6  163.05    8.14
   1   1   6  164.32    8.83
   1   1   6  146.08   10.68
  -2  -1  -6  120.52    9.11
  -2  -1  -6  132.28    8.24
  -2  -1  -6  134.93   12.87
  -2  -1  -6  115.50    6.99
   2   1   6  124.49   11.35
   2   1   6  118.93    8.95
  -3  -1  -6  111.37   11.65
  -3  -1  -6  120.95   14.42
  -3  -1  -6  104.07    7.21
  -3  -1  -6  105.01    7.92
   3   1   6  100.08   10.53
   3   1   6   90.77   11.21
  -4  -1  -6  163.49    8.72
  -4  -1  -6  164.08   16.52
  -4  -1  -6  172.04   19.83
   4   1   6  167.00   17.86
   4   1   6  165.64   14.72
  -5  -1  -6   -6.67   13.76
  -5  -1  -6    3.82   10.59
  -5  -1  -6    3.98    4.81
   5   1   6   -0.77    8.87
   5   1   6    9.74   11.82
   5   1   6    1.85    3.95
  -6  -1  -6   -0.02   19.42
  -6  -1  -6   10.21   16.38
   6   1   6   25.67   15.45
   6   1   6    3.16   17.26
   6  -2  -6   87.89   25.59
   6  -2  -6   82.45   17.57
  -6   2   6   65.75   20.79
  -6   2   6   64.29   23.15
   5  -2  -6   41.83   12.24
   5  -2  -6   49.93   15.76
  -5   2   6   57.33   15.10
  -5   2   6   26.87   14.54
   4  -2  -6  343.24   25.12
   4  -2  -6  317.50   18.06
  -4   2   6  342.54   21.49
  -4   2   6  321.53   21.93
   3  -2  -6   22.99   10.75
   3  -2  -6   18.19    6.44
  -3   2   6   24.82    9.48
   2  -2  -6  656.04   20.00
   2  -2  -6  696.01   25.84
  -2   2   6  683.38   24.03
  -2   2   6  668.22   12.85
  -2   2   6  689.11   22.20
   1  -2  -6  466.40   15.22
   1  -2  -6  478.95   14.81
   1  -2  -6  469.46   19.16
  -1   2   6  486.40   18.22
  -1   2   6  470.32   13.74
  -1   2   6  494.05   16.53
   0  -2  -6  807.25   20.59
   0  -2  -6  790.16   22.97
   0  -2  -6  807.62   22.24
   0   2   6  798.06   22.02
   0   2   6  805.07   20.66
   0   2   6  797.64   21.60
  -1  -2  -6  807.88   21.47
  -1  -2  -6  833.13   24.99
  -1  -2  -6  862.81   21.48
   1   2   6  796.37   21.33
   1   2   6  831.55   24.53
   1   2   6  820.23   20.37
  -2  -2  -6  109.91    6.55
  -2  -2  -6  115.81    8.53
  -2  -2  -6  113.83   13.43
  -2  -2  -6  118.16    9.90
   2   2   6  121.91   13.49
   2   2   6  113.16    9.62
  -3  -2  -6  243.44   18.03
  -3  -2  -6  281.12    8.87
  -3  -2  -6  274.31    9.77
  -3  -2  -6  277.44   15.93
   3   2   6  287.03   18.84
   3   2   6  288.46   15.32
  -4  -2  -6   80.82   12.82
  -4  -2  -6   91.48   15.34
   4   2   6   78.48   11.32
   4   2   6   81.33   14.51
  -5  -2  -6   86.35   16.04
  -5  -2  -6   81.79   18.80
   5   2   6   67.79   12.19
   5   2   6   46.63   15.17
  -6  -2  -6   16.95   16.54
  -6  -2  -6   -5.75   24.15
   6   2   6   25.74   15.54
   6   2   6   35.90   19.11
   5  -3  -6  341.71   33.02
   5  -3  -6  334.30   23.72
  -5   3   6  337.41   29.61
  -5   3   6  409.26   40.82
   4  -3  -6  125.72   18.71
   4  -3  -6  158.70   15.94
  -4   3   6  164.75   19.04
  -4   3   6  126.80   17.96
   3  -3  -6  207.65   14.91
   3  -3  -6  205.79   19.88
  -3   3   6  193.26   18.67
  -3   3   6  193.76   16.54
   2  -3  -6   91.22    9.91
   2  -3  -6   83.84   12.28
  -2   3   6   84.91   11.30
  -2   3   6  109.45   12.50
  -2   3   6   89.11    6.46
  -2   3   6   88.20    6.63
   1  -3  -6  864.61   27.63
   1  -3  -6  848.16   21.72
   1  -3  -6  858.26   22.85
  -1   3   6  825.10   21.52
  -1   3   6  903.07   27.06
  -1   3   6  887.29   24.44
   0  -3  -6  571.85   20.71
   0  -3  -6  566.45   18.02
   0  -3  -6  589.86   19.89
   0   3   6  543.36   19.13
   0   3   6  582.01   19.54
   0   3   6  574.65   18.40
  -1  -3  -6   47.73    7.80
  -1  -3  -6   57.00    7.12
  -1  -3  -6   70.16    9.72
   1   3   6   63.39    7.03
   1   3   6   59.19    8.84
   1   3   6   65.26    7.98
  -2  -3  -6   22.74    5.43
  -2  -3  -6   25.88    4.09
  -2  -3  -6   15.94    8.35
  -2  -3  -6   24.82    6.07
   2   3   6   19.35    6.51
   2   3   6   13.54    7.72
  -3  -3  -6   89.72    4.69
  -3  -3  -6   82.35   13.34
  -3  -3  -6   99.21    6.72
  -3  -3  -6   89.90   13.63
   3   3   6   73.94    9.79
   3   3   6   71.23   14.24
  -4  -3  -6   49.69   12.99
  -4  -3  -6   38.74   10.81
   4   3   6   36.96   11.64
   4   3   6   42.78    9.71
  -5  -3  -6  167.17   23.76
  -5  -3  -6  168.84   19.36
   5   3   6  179.23   18.93
   5   3   6  194.39   22.42
  -6  -3  -6   68.68   18.80
  -6  -3  -6   59.11   22.43
   6   3   6   39.80   17.54
   6   3   6   12.16   21.28
   5  -4  -6   16.47   22.47
   5  -4  -6    8.97   11.91
  -5   4   6   43.46   17.66
  -5   4   6    7.10   18.95
   4  -4  -6   72.82   19.22
   4  -4  -6   35.04   11.19
  -4   4   6   44.47   16.47
  -4   4   6   46.80   14.77
   3  -4  -6   36.63   14.60
   3  -4  -6   40.25    9.14
  -3   4   6   41.07    4.44
  -3   4   6   32.74   12.51
  -3   4   6   49.10   12.15
   2  -4  -6  165.34   13.15
   2  -4  -6  159.35   17.93
  -2   4   6  137.35   10.03
  -2   4   6  157.50    9.67
  -2   4   6  171.81   16.86
  -2   4   6  151.42   15.40
   1  -4  -6  332.74   15.01
   1  -4  -6  314.94   19.69
  -1   4   6  283.35   18.94
  -1   4   6  308.00   14.78
  -1   4   6  368.99   14.52
  -1   4   6  328.22   18.60
   0  -4  -6  437.31   20.12
   0  -4  -6  426.16   18.65
   0  -4  -6  418.49   16.83
   0   4   6  428.30   18.64
   0   4   6  437.50   17.24
   0   4   6  423.25   18.44
  -1  -4  -6  204.61   12.32
  -1  -4  -6  205.27   16.13
  -1  -4  -6  212.60   14.14
   1   4   6  204.11   12.23
   1   4   6  211.14   15.48
   1   4   6  201.73   12.48
  -2  -4  -6   17.05   10.86
  -2  -4  -6   36.56    7.28
  -2  -4  -6   32.65    7.59
   2   4   6   26.22    5.44
   2   4   6   36.52   10.28
   2   4   6   57.32   14.00
  -3  -4  -6   86.56   12.48
  -3  -4  -6   76.74    4.82
  -3  -4  -6   70.01    6.72
  -3  -4  -6   90.91   14.89
   3   4   6   99.96   15.68
   3   4   6   82.76   10.78
  -4  -4  -6  126.82   16.46
  -4  -4  -6   81.89   16.70
   4   4   6  100.63   12.79
   4   4   6   96.82   17.56
  -5  -4  -6   50.19   19.31
  -5  -4  -6   82.75   16.70
   5   4   6   62.78   13.31
   5   4   6   32.04   16.37
  -6  -4  -6  102.80   24.82
  -6  -4  -6  150.51   26.32
   6   4   6  125.12   20.05
   6   4   6  146.83   25.83
   4  -5  -6   18.16   18.95
   4  -5  -6  -17.34   11.04
  -4   5   6   13.15   15.63
  -4   5   6   -2.13   17.55
   3  -5  -6   14.61    9.90
   3  -5  -6   48.60   17.24
  -3   5   6   47.23    6.85
  -3   5   6   21.57   13.25
  -3   5   6   15.90   12.73
  -3   5   6   31.44    6.71
   2  -5  -6   73.78   11.05
   2  -5  -6   40.84   15.12
  -2   5   6   46.39    8.27
  -2   5   6   65.04   11.98
  -2   5   6   54.74    8.95
  -2   5   6   63.21   13.14
   1  -5  -6   41.06   12.45
  -1   5   6   35.50    8.56
  -1   5   6   37.76    8.71
  -1   5   6   25.91   11.94
  -1   5   6   39.23   10.13
   0  -5  -6  248.44   19.01
   0  -5  -6  239.99   14.79
   0   5   6  263.24   17.33
   0   5   6  252.62   17.98
   0   5   6  231.92   15.48
  -1  -5  -6  212.35   16.05
  -1  -5  -6  206.74   14.02
  -1  -5  -6  167.49   20.33
   1   5   6  235.07   14.72
   1   5   6  192.10   18.32
   1   5   6  217.32   14.88
  -2  -5  -6  102.77   14.82
  -2  -5  -6   82.52   11.35
   2   5   6  110.18   12.35
   2   5   6   92.02    9.30
   2   5   6   56.76   12.87
  -3  -5  -6  188.42   22.02
  -3  -5  -6  168.08   16.45
  -3  -5  -6  138.54    9.76
   3   5   6  137.52   15.36
   3   5   6  166.36   19.64
  -4  -5  -6   73.11   18.00
  -4  -5  -6  157.66   18.39
   4   5   6   99.36   19.09
   4   5   6   91.68   13.92
  -5  -5  -6   -1.57   16.42
  -5  -5  -6   -0.10   19.09
   5   5   6    8.67   14.28
   5   5   6    4.65   19.61
   4  -6  -6  119.55   18.51
   4  -6  -6  154.87   33.46
  -4   6   6  222.85   28.82
  -4   6   6  157.10   11.65
  -4   6   6  194.59   26.01
   3  -6  -6    1.96   11.39
   3  -6  -6   41.83   19.11
  -3   6   6   28.00   25.35
  -3   6   6    8.64    9.01
  -3   6   6    8.82    9.06
  -3   6   6   15.79   16.07
   2  -6  -6   16.91   10.27
   2  -6  -6   23.52   14.73
  -2   6   6   14.02   12.28
  -2   6   6   -0.71   10.17
  -2   6   6    7.19    8.67
  -2   6   6   33.21   14.22
   1  -6  -6  259.12   23.99
   1  -6  -6  229.76   17.49
  -1   6   6  204.50   21.10
  -1   6   6  253.03   20.27
  -1   6   6  212.70   17.59
  -1   6   6  222.64   19.07
   0  -6  -6   67.80   10.57
   0  -6  -6   70.87   12.77
   0   6   6   56.31   14.02
   0   6   6   87.74   12.47
   0   6   6   76.76   12.83
  -1  -6  -6  192.52   15.29
   1   6   6  178.34   20.89
   1   6   6  240.32   19.91
   1   6   6  242.81   17.95
   1   6   6  234.24   17.19
  -2  -6  -6   33.58    9.71
  -2  -6  -6   25.49   13.62
  -2  -6  -6   27.98    9.31
   2   6   6    8.98    8.24
   2   6   6    3.70   12.57
   2   6   6   27.26    9.00
  -3  -6  -6  314.31   23.10
  -3  -6  -6  343.47   29.12
  -3  -6  -6  334.04   14.56
   3   6   6  317.28   22.00
   3   6   6  317.01   13.68
   3   6   6  399.65   29.88
  -4  -6  -6   86.96   20.50
  -4  -6  -6  119.67   17.72
   4   6   6   93.07   15.34
   4   6   6  186.01   25.77
   3  -7  -6   36.07   14.37
  -3   7   6   26.72   13.91
  -3   7   6   28.44   20.75
  -3   7   6   25.85   22.03
  -3   7   6   29.72   13.25
   2  -7  -6   32.63   11.79
  -2   7   6   49.56   13.99
  -2   7   6   33.38   21.04
  -2   7   6   45.44   18.18
   1  -7  -6    1.29   10.63
  -1   7   6   34.96   12.62
  -1   7   6   21.36   13.14
  -1   7   6   36.85   14.56
  -1   7   6   -0.15   14.93
   0  -7  -6  188.79   18.58
   0  -7  -6  155.94   21.00
   0   7   6  177.89   19.47
   0   7   6  197.39   20.37
   0   7   6  148.28   18.02
   0   7   6  203.12   24.72
  -1  -7  -6   66.44   12.04
  -1  -7  -6   79.14   15.73
   1   7   6   50.70   17.56
   1   7   6   65.93   12.46
   1   7   6   75.03   16.55
   1   7   6   76.49   17.56
  -2  -7  -6  141.34   15.71
  -2  -7  -6  133.49   15.84
   2   7   6  134.81   20.21
   2   7   6  160.56   23.75
   2   7   6  122.94   15.08
   2   7   6  174.62   18.68
  -3  -7  -6  114.13   12.12
  -3  -7  -6  126.18   16.66
   3   7   6  135.44   25.64
   3   7   6  157.08   23.38
   3   7   6  132.44   17.24
   3   7   6  144.61   14.36
  -4  -7  -6   87.92   19.03
   4   7   6  137.30   26.68
   4   7   6   87.65   18.57
   1  -8  -6   25.49   22.73
   1  -8  -6   58.03   15.26
  -1   8   6   24.94   17.31
  -1   8   6   37.58   16.39
  -1   8   6   18.95   17.94
  -1   8   6   34.41   21.38
   0  -8  -6   13.71   19.42
   0  -8  -6   53.43   14.35
   0   8   6   55.72   19.75
   0   8   6   65.92   17.48
   0   8   6   96.05   20.14
   0   8   6   37.25   17.38
  -1  -8  -6  140.85   20.61
  -1  -8  -6   86.31   15.11
   1   8   6  111.58   26.79
   1   8   6  136.15   23.71
   1   8   6  102.00   18.87
  -2  -8  -6   47.75   16.20
  -2  -8  -6   76.10   15.48
   2   8   6   15.67   14.56
   2   8   6   24.91   25.01
   2   8   6   55.34   19.53
   2   8   6   27.65   21.88
   2   7  -7  162.14   22.80
   2   7  -7  162.06   22.47
  -2  -7   7  181.34   21.86
   1   7  -7  199.94   22.56
   1   7  -7  133.74   21.61
  -1  -7   7  135.61   26.34
  -1  -7   7  100.40   18.91
   0   7  -7  407.72   33.44
   0   7  -7  375.97   33.24
   0  -7   7  381.44   29.50
   0  -7   7  411.32   30.22
  -1   7  -7  299.88   34.16
  -1   7  -7  298.93   28.45
   1  -7   7  354.75   27.79
   1  -7   7  298.16   29.69
  -2   7  -7  111.99   22.56
  -2   7  -7  113.90   25.01
   2  -7   7   94.46   20.71
   2  -7   7  136.83   20.58
   2  -7   7  100.50   11.37
   2  -7   7  136.73    9.44
   4   6  -7   77.24   22.07
   4   6  -7  162.00   22.72
   4   6  -7  106.34   22.23
   4   6  -7  166.43   24.08
   3   6  -7  145.75   20.17
   3   6  -7  156.96   20.95
  -3  -6   7  165.16   18.15
   2   6  -7   78.34   15.78
   2   6  -7   75.66   15.91
  -2  -6   7   58.00   13.72
  -2  -6   7   52.35   13.98
   1   6  -7  151.19   18.80
   1   6  -7  162.00   19.29
  -1  -6   7  159.42   18.25
  -1  -6   7  151.10   17.55
   0   6  -7   70.07   15.95
   0   6  -7   90.67   17.01
   0  -6   7   71.86   14.49
   0  -6   7  109.72   16.07
  -1   6  -7  549.42   31.58
  -1   6  -7  477.88   31.24
   1  -6   7  505.74   28.14
   1  -6   7  473.85   26.78
  -2   6  -7   77.79   17.67
  -2   6  -7  100.46   20.14
   2  -6   7  127.94   19.44
   2  -6   7  115.56   18.70
   2  -6   7   72.46    7.91
   2  -6   7   89.39    8.93
  -3   6  -7  174.49   26.63
  -3   6  -7  133.66   23.17
   3  -6   7  178.63   15.72
   3  -6   7  190.55   24.09
   3  -6   7  214.47   23.85
   3  -6   7  185.43   18.14
   4   5  -7   12.05    7.16
   4   5  -7   29.78   15.61
   4   5  -7   15.07    6.17
   4   5  -7   30.57   14.75
   4   5  -7   16.16   13.48
   4   5  -7   25.08   14.69
   3   5  -7  222.03   20.06
   3   5  -7  198.42   21.54
   3   5  -7  204.14   20.80
  -3  -5   7  221.88   20.50
   2   5  -7    4.86    9.98
   2   5  -7   19.42    8.97
  -2  -5   7   10.86   10.11
  -2  -5   7   -0.04    9.85
   1   5  -7    5.39   10.26
   1   5  -7   11.18    9.90
  -1  -5   7   -3.72    9.02
  -1  -5   7   -7.38    9.57
   0   5  -7  563.22   26.19
   0   5  -7  557.68   26.75
   0  -5   7  569.17   24.83
   0  -5   7  548.66   24.97
  -1   5  -7  189.49   19.94
  -1   5  -7  225.00   20.37
   1  -5   7  200.19   17.88
   1  -5   7  186.25   17.77
  -2   5  -7   50.71   14.74
  -2   5  -7   48.53   12.90
   2  -5   7   69.86   14.27
   2  -5   7   66.38   13.63
   2  -5   7   65.51    7.72
   2  -5   7   90.92    9.64
  -3   5  -7   23.26   15.88
  -3   5  -7   39.02   16.52
   3  -5   7   23.71    9.26
   3  -5   7   14.18    8.63
   3  -5   7   22.06   12.69
   3  -5   7   26.49   13.84
  -4   5  -7   82.22   22.18
   4  -5   7   31.66   19.89
   4  -5   7   41.70   17.60
   4  -5   7   55.18   14.19
   4  -5   7   35.23   13.85
   5   4  -7   20.32   15.30
   5   4  -7   -1.69   11.67
   5   4  -7    4.55   13.54
   5   4  -7   12.33   13.94
   5   4  -7   37.88   18.39
   5   4  -7    1.63    9.73
   4   4  -7   96.96   15.10
   4   4  -7  111.67   17.07
   4   4  -7   95.59   11.09
   4   4  -7   91.07   13.63
   4   4  -7  102.73    9.46
   3   4  -7  174.09   20.57
   3   4  -7  210.85   10.92
   3   4  -7  170.11    8.09
   3   4  -7  197.66   17.51
  -3  -4   7  150.55   16.62
   2   4  -7  134.04   14.78
  -2  -4   7  119.00   13.93
  -2  -4   7  125.75   13.26
   1   4  -7   48.44   10.51
  -1  -4   7   53.41    9.54
  -1  -4   7   44.88    8.65
   0   4  -7  281.26   18.68
   0   4  -7  298.47   18.65
   0  -4   7  270.63   17.37
   0  -4   7  323.33   23.63
  -1   4  -7   95.21   13.43
  -1   4  -7   86.84   13.43
   1  -4   7   84.23    6.16
   1  -4   7   67.86   11.05
   1  -4   7   88.23   12.18
   1  -4   7   80.53    5.88
  -2   4  -7  171.43   17.81
  -2   4  -7  201.43   22.00
   2  -4   7  221.50   11.79
   2  -4   7  203.40   11.71
   2  -4   7  222.14   18.34
   2  -4   7  216.37   17.28
  -3   4  -7   20.50   11.04
   3  -4   7   10.48   11.92
   3  -4   7    1.89    7.46
   3  -4   7    0.65    8.09
   3  -4   7   -5.06    8.93
  -4   4  -7  105.89   20.12
  -4   4  -7   68.62   15.52
   4  -4   7  102.67   16.73
   4  -4   7   95.14   15.66
   4  -4   7   96.12   14.61
   4  -4   7   87.88   14.93
  -5   4  -7   72.97   19.56
  -5   4  -7   31.86   22.08
   5  -4   7  105.99   20.44
   5  -4   7   86.82   18.04
   5  -4   7   36.17   17.40
   5  -4   7   71.95   18.09
   5   3  -7  201.64   21.29
   5   3  -7  240.84   27.46
   5   3  -7  233.87   22.30
   5   3  -7  223.35   20.46
   5   3  -7  194.11   18.79
   5   3  -7  254.55   23.26
   4   3  -7   72.97   15.24
   4   3  -7   62.27    8.69
   4   3  -7   64.87   10.57
   4   3  -7   34.84   10.85
   4   3  -7   55.40   10.97
   4   3  -7   55.31   11.08
   3   3  -7  212.96   15.59
   3   3  -7  224.81   10.44
   3   3  -7  230.79   13.32
   3   3  -7  248.23   20.20
   3   3  -7  205.20   15.62
  -3  -3   7  235.87   15.38
   2   3  -7  205.29   14.47
   2   3  -7  178.30    6.77
   2   3  -7  203.76   21.49
   2   3  -7  175.88   14.62
  -2  -3   7  187.64   13.78
   1   3  -7  257.09   16.46
   1   3  -7  250.45    6.33
   1   3  -7  258.10   15.24
  -1  -3   7  233.01   14.09
  -1  -3   7  241.20    7.27
  -1  -3   7  254.89   15.49
   0   3  -7   41.80    9.70
   0   3  -7   36.68    3.66
   0   3  -7   38.04    8.06
   0  -3   7   31.90    7.59
   0  -3   7   35.88    3.56
   0  -3   7   39.31    8.03
  -1   3  -7   43.63   10.37
  -1   3  -7   54.38    5.68
  -1   3  -7   52.59    9.66
   1  -3   7   60.85    9.66
   1  -3   7   49.33    5.91
   1  -3   7   45.72    8.27
  -2   3  -7  259.86   19.51
  -2   3  -7  228.94   16.12
   2  -3   7  218.24   11.21
   2  -3   7  228.04   28.09
   2  -3   7  226.40   15.88
  -3   3  -7  197.06   21.02
   3  -3   7  234.20   14.71
   3  -3   7  213.89   17.01
   3  -3   7  242.33   19.29
   3  -3   7  212.47   16.13
  -4   3  -7   11.59   14.95
  -4   3  -7   32.50   12.18
   4  -3   7   34.14   11.30
   4  -3   7    5.89   10.08
   4  -3   7   17.04   10.42
   4  -3   7    4.51   10.43
  -5   3  -7   31.29   20.50
  -5   3  -7   26.96   15.83
   5  -3   7   33.22   14.69
   5  -3   7   32.56   13.07
   5  -3   7   34.57   15.41
   5  -3   7   44.62   14.96
   5   2  -7  263.63   19.32
   5   2  -7  236.13   15.63
   5   2  -7  285.91   27.15
   5   2  -7  256.66   21.16
   5   2  -7  258.12   16.76
   5   2  -7  242.93   24.34
   4   2  -7  105.71   12.19
   4   2  -7  142.60   18.24
   4   2  -7  142.71   13.17
   4   2  -7  120.20   13.73
   4   2  -7  117.97   13.90
   4   2  -7  119.68   13.24
   3   2  -7  650.77   20.21
   3   2  -7  638.83   17.99
   3   2  -7  657.86   26.45
   3   2  -7  573.76   26.71
  -3  -2   7  638.22   20.83
  -3  -2   7  620.39   19.12
   2   2  -7  156.05   11.92
   2   2  -7  199.65   13.51
   2   2  -7  183.51    8.17
   2   2  -7  178.68   15.15
  -2  -2   7  161.14    9.96
  -2  -2   7  172.00   11.26
   1   2  -7  351.87    9.93
   1   2  -7  363.42   16.22
   1   2  -7  381.25   16.49
  -1  -2   7  354.25   10.90
  -1  -2   7  359.60   14.87
   0   2  -7  294.50   14.87
   0   2  -7  297.32   16.50
   0   2  -7  287.46    9.37
   0  -2   7  296.07    9.24
   0  -2   7  305.73   14.80
   0  -2   7  295.43   14.21
  -1   2  -7  265.31   16.62
  -1   2  -7  265.93   10.85
  -1   2  -7  280.05   14.68
   1  -2   7  289.36   14.47
   1  -2   7  276.12   14.96
   1  -2   7  291.65   10.22
  -2   2  -7   57.40   11.44
  -2   2  -7   61.23    7.61
  -2   2  -7   76.43   10.27
   2  -2   7   45.41    8.57
   2  -2   7   59.79    6.84
   2  -2   7   55.27    8.12
  -3   2  -7   12.73    6.49
  -3   2  -7   14.06   10.48
  -3   2  -7    7.95    7.01
   3  -2   7   21.54    6.99
   3  -2   7    7.67    7.18
   3  -2   7    2.45    7.41
  -4   2  -7  671.08   26.96
  -4   2  -7  688.99   32.66
   4  -2   7  678.16   24.40
   4  -2   7  722.04   26.67
   4  -2   7  689.43   29.05
  -5   2  -7   11.66   16.41
   5  -2   7   -6.69   13.95
   5  -2   7   15.67   12.38
   5  -2   7  -11.44   12.27
   5  -2   7   13.15   10.97
  -6   2  -7   96.06   17.99
  -6   2  -7   59.19   23.82
   6  -2   7   81.74   20.39
   6  -2   7   86.93   16.50
   6  -2   7   69.47   19.14
   6  -2   7   94.57   21.40
   6   1  -7   49.20   21.22
   6   1  -7   -4.03   13.44
   6   1  -7   41.95   22.99
   6   1  -7   25.67   15.45
   5   1  -7   78.47   17.50
   5   1  -7   66.28    7.75
   5   1  -7   62.79   11.44
   5   1  -7   65.63   13.06
   4   1  -7  329.29   12.81
   4   1  -7  330.00   16.86
   4   1  -7  329.27   23.37
   4   1  -7  303.07   12.41
   4   1  -7  321.23   19.09
  -4  -1   7  342.36   19.94
   3   1  -7  264.41   12.13
   3   1  -7  254.31   12.62
   3   1  -7  300.80   16.92
   3   1  -7  283.35   20.95
  -3  -1   7  282.50   10.91
  -3  -1   7  272.03   15.60
   2   1  -7  629.42   23.75
   2   1  -7  616.76   18.64
   2   1  -7  619.79   21.16
   2   1  -7  615.87   16.32
  -2  -1   7  615.62   16.80
  -2  -1   7  622.02   18.33
   1   1  -7  151.19    7.40
   1   1  -7  152.42   10.99
   1   1  -7  151.63   12.74
   1   1  -7  149.27   11.41
  -1  -1   7  138.45    8.39
  -1  -1   7  138.15    9.39
   0   1  -7  164.72   10.78
   0   1  -7  182.02    8.20
   0   1  -7  197.99   12.49
   0  -1   7  198.25   11.45
   0  -1   7  180.49    8.43
  -1   1  -7  339.14   14.32
  -1   1  -7  340.02   16.63
  -1   1  -7  319.17   12.10
   1  -1   7  326.12   13.89
   1  -1   7  341.05   15.97
   1  -1   7  341.72   11.80
  -2   1  -7  238.19   16.90
  -2   1  -7  221.66   12.74
  -2   1  -7  252.65   13.12
   2  -1   7  253.47   11.95
   2  -1   7  250.42   15.53
   2  -1   7  236.18   12.81
  -3   1  -7  505.93   19.45
  -3   1  -7  511.99   25.31
  -3   1  -7  490.57   20.76
   3  -1   7  489.16   17.82
   3  -1   7  498.77   24.06
   3  -1   7  552.99   20.03
  -4   1  -7  223.53   15.99
  -4   1  -7  265.66   19.80
  -4   1  -7  220.27   22.15
   4  -1   7  244.61   14.54
   4  -1   7  256.67   18.38
   4  -1   7  256.83   20.35
  -5   1  -7  544.35   24.14
  -5   1  -7  461.13   31.85
   5  -1   7  445.43   20.20
   5  -1   7  426.84   25.56
   5  -1   7  449.83   29.18
  -6   1  -7   35.64   14.40
  -6   1  -7   -3.16   23.15
   6  -1   7   38.90   17.93
   6  -1   7   14.74   15.76
   6  -1   7   33.86   18.68
   6  -1   7   -3.66   10.77
   6   0  -7   96.95   17.19
   6   0  -7   62.60   22.21
   6   0  -7   70.24   34.84
   5   0  -7  198.73   22.09
   5   0  -7  143.01   15.23
  -5   0   7  233.80   23.12
  -5   0   7  250.85   25.78
   4   0  -7  190.57   14.93
   4   0  -7  204.20   21.70
  -4   0   7  232.34   18.83
  -4   0   7  218.73   18.78
   3   0  -7  206.28    7.79
   3   0  -7  179.40   11.88
   3   0  -7  202.09   17.58
   3   0  -7  199.53    8.31
  -3   0   7  203.70   14.87
  -3   0   7  195.43   16.53
   2   0  -7  234.07   10.34
   2   0  -7  229.89   16.58
   2   0  -7  246.12   11.24
   2   0  -7  228.56   13.40
  -2   0   7  212.17    8.75
  -2   0   7  218.93   12.40
   1   0  -7  943.69   23.22
   1   0  -7  956.25   25.30
   1   0  -7  963.37   27.57
  -1   0   7 1010.05   22.30
  -1   0   7  956.37   22.55
   0   0  -7   19.97    5.90
   0   0  -7   22.00    6.40
   0   0  -7   26.10    4.42
   0   0  -7   28.94    6.22
   0   0   7   30.71    5.79
   0   0   7   46.28    5.89
  -1   0  -7  603.94   21.92
  -1   0  -7  619.48   17.60
  -1   0  -7  601.40   19.19
  -1   0  -7  618.28   18.35
   1   0   7  640.85   17.24
   1   0   7  626.98   21.63
  -2   0  -7   -5.36    6.96
  -2   0  -7    2.63    3.77
  -2   0  -7    6.48    4.34
   2   0   7   -0.80    3.92
   2   0   7    6.36    6.52
   2   0   7    3.78    4.12
  -3   0  -7  953.68   28.82
  -3   0  -7 1003.09   24.79
   3   0   7 1015.30   27.36
   3   0   7  968.26   23.25
   3   0   7  953.83   31.52
  -4   0  -7  354.44   25.24
  -4   0  -7  370.90   21.71
  -4   0  -7  368.00   16.41
   4   0   7  372.99   19.81
   4   0   7  386.46   14.91
   4   0   7  362.33   22.68
  -5   0  -7  192.45   22.52
  -5   0  -7  199.18   23.71
  -5   0  -7  178.06   14.81
   5   0   7  154.74   12.61
   5   0   7  177.94   20.64
   5   0   7  175.56   19.70
  -6   0  -7   26.61   10.26
  -6   0  -7   32.36   22.64
   6   0   7    5.14    8.28
   6   0   7   33.44   19.88
   6   0   7   18.08   15.34
   6  -1  -7   53.31   16.67
   6  -1  -7   19.20   22.19
  -6   1   7   61.02   19.81
  -6   1   7   18.67   23.91
   5  -1  -7   52.82   17.61
   5  -1  -7   48.90   12.45
  -5   1   7   65.90   15.95
  -5   1   7   58.29   15.45
   4  -1  -7   33.89   12.99
   4  -1  -7   27.31    8.26
  -4   1   7   33.27    9.95
  -4   1   7   40.05   11.80
   3  -1  -7   86.21    9.57
   3  -1  -7  116.92   15.27
  -3   1   7   99.77   13.69
  -3   1   7   87.07   12.02
   2  -1  -7  165.75    8.46
   2  -1  -7  176.74   15.39
   2  -1  -7  170.09   10.73
  -2   1   7  167.02   14.11
  -2   1   7  179.23    7.08
  -2   1   7  161.92   12.20
   1  -1  -7   99.16   11.29
   1  -1  -7   97.77    7.74
   1  -1  -7  108.15    9.00
  -1   1   7  108.39   10.71
  -1   1   7   87.85    7.57
  -1   1   7   98.85    8.76
   0  -1  -7  711.62   21.74
   0  -1  -7  688.68   19.82
   0  -1  -7  677.37   21.95
   0  -1  -7  707.33   18.99
   0   1   7  706.08   19.03
  -1  -1  -7  183.65   13.66
  -1  -1  -7  175.22    9.84
  -1  -1  -7  183.16   10.34
  -1  -1  -7  182.24   11.44
   1   1   7  195.88   10.55
   1   1   7  193.95   12.87
  -2  -1  -7  466.33   22.08
  -2  -1  -7  493.48   15.05
  -2  -1  -7  484.47   16.36
  -2  -1  -7  488.71   18.28
   2   1   7  492.81   21.05
   2   1   7  478.98   17.05
  -3  -1  -7  298.87   34.28
  -3  -1  -7  363.13   13.51
  -3  -1  -7  382.48   18.37
  -3  -1  -7  353.35   13.01
   3   1   7  338.24   20.58
   3   1   7  361.47   16.82
  -4  -1  -7  475.04   15.24
  -4  -1  -7  473.74   27.50
  -4  -1  -7  446.82   23.21
  -4  -1  -7  469.91   14.79
   4   1   7  453.21   21.70
   4   1   7  487.90   25.77
  -5  -1  -7  147.07   20.69
  -5  -1  -7  125.74    9.99
  -5  -1  -7  128.49   17.85
  -5  -1  -7  107.00   10.17
   5   1   7   79.57   17.17
   5   1   7  102.67   15.31
  -6  -1  -7   22.27   22.82
  -6  -1  -7   29.57   17.09
   6   1   7   19.04   16.97
   5  -2  -7    1.30   16.92
   5  -2  -7   34.86   11.87
  -5   2   7   27.75   15.78
  -5   2   7   -3.53   16.36
   4  -2  -7   65.86   10.68
   4  -2  -7   73.69   17.15
  -4   2   7   33.95   11.53
  -4   2   7   44.78   12.98
   3  -2  -7   64.34    9.35
   3  -2  -7   56.58   12.90
  -3   2   7   66.37   12.16
  -3   2   7   55.22   11.34
   2  -2  -7   81.57    9.34
   2  -2  -7   67.30   11.54
   2  -2  -7   57.56    5.40
  -2   2   7   75.69   10.66
  -2   2   7   63.94    9.72
  -2   2   7   59.14    5.53
   1  -2  -7  261.45   12.21
   1  -2  -7  218.17   16.03
   1  -2  -7  231.05   11.99
  -1   2   7  232.22   10.97
  -1   2   7  267.48   15.27
  -1   2   7  225.97   13.02
   0  -2  -7  410.29   17.03
   0  -2  -7  389.77   14.88
   0  -2  -7  419.41   17.59
   0   2   7  422.63   16.00
   0   2   7  402.43   16.13
   0   2   7  395.75   15.13
  -1  -2  -7  165.12   10.98
  -1  -2  -7  165.53    9.49
  -1  -2  -7  174.82   11.71
  -1  -2  -7  157.06   13.62
   1   2   7  182.11   13.20
  -2  -2  -7  198.03   11.47
  -2  -2  -7  196.84   16.02
  -2  -2  -7  205.61    9.49
  -2  -2  -7  179.89   12.70
   2   2   7  195.15   15.60
   2   2   7  211.04   12.98
  -3  -2  -7  384.85   23.69
  -3  -2  -7  391.50   12.24
  -3  -2  -7  421.62   14.01
   3   2   7  399.72   17.81
  -4  -2  -7  237.67    9.40
  -4  -2  -7  227.25   23.82
  -4  -2  -7  260.15   19.39
   4   2   7  239.12   20.77
   4   2   7  224.44   17.66
  -5  -2  -7  253.91   22.87
  -5  -2  -7  231.88   26.71
   5   2   7  224.31   25.87
   5   2   7  212.66   20.69
  -6  -2  -7   15.90   22.04
  -6  -2  -7   54.42   17.94
   6   2   7   23.32   17.07
   6   2   7   46.92   20.01
   5  -3  -7  101.54   17.02
   5  -3  -7  124.89   25.37
  -5   3   7  164.78   23.31
  -5   3   7  150.83   21.88
   4  -3  -7   -0.28   13.93
   4  -3  -7   -2.45    9.31
  -4   3   7    0.75   13.73
  -4   3   7   -2.84   11.56
   3  -3  -7  308.68   17.50
   3  -3  -7  320.34   24.00
  -3   3   7  306.73   20.57
  -3   3   7  327.94   22.26
   2  -3  -7   84.61   14.72
   2  -3  -7   69.85   13.25
  -2   3   7   79.07   11.32
  -2   3   7   70.06    7.18
  -2   3   7   67.81   14.86
  -2   3   7   71.96    6.90
   1  -3  -7  689.98   26.23
   1  -3  -7  642.39   20.13
   1  -3  -7  617.55   19.26
  -1   3   7  621.93   21.48
  -1   3   7  623.18   23.65
  -1   3   7  595.98   18.94
   0  -3  -7  242.72   13.24
   0  -3  -7  226.71   16.10
   0  -3  -7  255.37   14.99
   0   3   7  237.24   14.18
   0   3   7  261.64   13.76
   0   3   7  235.16   14.50
  -1  -3  -7  384.66   17.12
  -1  -3  -7  368.89   19.23
  -1  -3  -7  383.31   16.37
   1   3   7  365.60   15.99
   1   3   7  377.46   18.68
   1   3   7  390.17   15.48
  -2  -3  -7  288.37   20.00
  -2  -3  -7  310.25   16.16
  -2  -3  -7  314.31   11.61
  -2  -3  -7  327.07   14.58
   2   3   7  311.54   19.71
  -3  -3  -7  274.11   11.87
  -3  -3  -7  270.69   22.33
  -3  -3  -7  294.58   18.53
  -3  -3  -7  273.33    9.36
   3   3   7  307.69   16.84
   3   3   7  306.81   22.40
  -4  -3  -7    8.01    8.91
  -4  -3  -7   -5.47   13.71
   4   3   7   -4.82   12.25
   4   3   7   15.60    9.03
  -5  -3  -7   30.27   18.49
  -5  -3  -7   59.64   14.58
   5   3   7   37.18   17.71
   5   3   7   49.74   13.54
  -6  -3  -7  125.87   29.51
  -6  -3  -7   64.02   19.23
   6   3   7  149.05   25.12
   6   3   7   75.33   22.75
   5  -4  -7   80.15   16.64
   5  -4  -7   39.73   24.23
  -5   4   7   74.62   22.48
  -5   4   7   44.06   22.19
   4  -4  -7    7.94   19.62
   4  -4  -7   10.81   11.77
  -4   4   7   13.60   15.49
  -4   4   7   -4.89   16.77
   3  -4  -7  136.20   18.85
   3  -4  -7  169.33   16.33
  -3   4   7  129.63   16.47
  -3   4   7  159.47   19.12
   2  -4  -7  272.18   22.67
   2  -4  -7  269.42   16.31
  -2   4   7  241.06   11.56
  -2   4   7  226.29   12.03
  -2   4   7  246.75   20.15
  -2   4   7  230.98   17.25
   1  -4  -7  282.13   15.08
  -1   4   7  257.00   14.55
  -1   4   7  276.09   17.16
  -1   4   7  296.37   18.63
   0  -4  -7  159.96   14.55
   0  -4  -7  208.52   16.76
   0  -4  -7  181.78   19.06
   0   4   7  177.57   13.40
   0   4   7  169.30   14.14
   0   4   7  188.43   14.97
  -1  -4  -7   54.91    9.52
  -1  -4  -7   62.66   11.83
   1   4   7   64.21    8.47
   1   4   7   61.50   11.42
   1   4   7   41.86    7.82
  -2  -4  -7  299.26   15.52
  -2  -4  -7  286.25   20.81
  -2  -4  -7  299.62   17.55
   2   4   7  293.36   13.13
   2   4   7  283.64   31.56
  -3  -4  -7  109.03    9.92
  -3  -4  -7  147.94   19.35
  -3  -4  -7  136.88   14.96
  -3  -4  -7  118.26    6.89
   3   4   7  129.51   15.11
   3   4   7  107.16   16.21
  -4  -4  -7  304.77   23.77
  -4  -4  -7  280.88   28.61
   4   4   7  319.68   28.21
   4   4   7  324.64   21.60
  -5  -4  -7   75.07   21.58
  -5  -4  -7   62.56   17.48
   5   4   7   76.26   21.63
   5   4   7   50.51   13.73
   4  -5  -7  243.50   31.25
   4  -5  -7  293.22   24.22
  -4   5   7  300.35   32.04
  -4   5   7  285.74   28.58
   3  -5  -7   99.45   14.38
   3  -5  -7  112.98   19.79
  -3   5   7   84.94   18.32
  -3   5   7   92.47    9.52
  -3   5   7  118.62   10.33
  -3   5   7   84.00   16.73
   2  -5  -7  363.10   28.51
   2  -5  -7  384.26   20.39
  -2   5   7  375.51   16.20
  -2   5   7  364.21   25.55
  -2   5   7  387.83   23.17
  -2   5   7  385.53   17.83
   1  -5  -7  115.69   17.43
   1  -5  -7  110.22   13.28
  -1   5   7  127.03   15.08
  -1   5   7  110.91   11.86
  -1   5   7  128.52   14.99
  -1   5   7   96.57   13.66
   0  -5  -7   22.03    9.64
   0  -5  -7    8.08    7.26
   0  -5  -7   49.91   12.43
   0   5   7   37.32   10.43
   0   5   7   24.82    8.47
   0   5   7   20.13    9.00
  -1  -5  -7  123.60   13.81
  -1  -5  -7  122.31   15.53
  -1  -5  -7  126.78   14.18
   1   5   7  125.26   14.07
   1   5   7  109.67   19.77
   1   5   7  132.85   14.32
  -2  -5  -7   11.47    8.05
  -2  -5  -7    4.05    8.00
  -2  -5  -7    7.20   11.38
   2   5   7  -16.71   10.79
   2   5   7    6.74    6.62
   2   5   7    3.46    7.78
  -3  -5  -7  192.75   19.64
  -3  -5  -7  149.66   19.37
  -3  -5  -7  185.44   12.04
  -3  -5  -7  182.92    8.82
   3   5   7  157.10   16.10
   3   5   7  208.79   25.13
  -4  -5  -7   46.39   18.16
  -4  -5  -7   73.79   15.86
   4   5   7   57.53   13.47
   4   5   7   19.45   18.33
  -5  -5  -7  181.44   22.48
  -5  -5  -7  115.22   26.84
   5   5   7  177.31   24.26
   5   5   7  110.51   18.75
   3  -6  -7  392.99   25.66
   3  -6  -7  407.95   37.67
  -3   6   7  402.96   19.25
  -3   6   7  396.72   18.75
  -3   6   7  417.46   33.59
  -3   6   7  366.57   31.41
   2  -6  -7   -6.22   10.56
   2  -6  -7  -36.06   16.34
  -2   6   7   -3.36    8.61
  -2   6   7  -18.99    9.35
  -2   6   7  -16.19   12.57
  -2   6   7   -8.73   14.41
   1  -6  -7  507.62   31.39
   1  -6  -7  541.47   23.99
  -1   6   7  492.91   25.96
  -1   6   7  482.25   28.01
  -1   6   7  476.06   25.76
  -1   6   7  526.59   23.58
   0  -6  -7   10.81   13.23
   0  -6  -7   10.61    8.93
   0   6   7    8.47    9.00
   0   6   7  -27.21   10.82
   0   6   7   20.24   11.14
   0   6   7   24.05   12.05
  -1  -6  -7  105.95   16.08
  -1  -6  -7   84.71   12.62
  -1  -6  -7   94.28   15.30
   1   6   7  117.31   14.36
   1   6   7  113.53   14.41
   1   6   7   94.10   16.24
  -2  -6  -7  122.52   13.90
  -2  -6  -7  119.01   18.63
  -2  -6  -7  147.07   17.68
   2   6   7  130.13   15.51
   2   6   7  131.69   19.90
   2   6   7   96.04   11.32
  -3  -6  -7   88.38    9.68
  -3  -6  -7   81.08   17.49
  -3  -6  -7   42.19   13.59
   3   6   7   86.90   20.08
   3   6   7   83.74    8.43
  -4  -6  -7    7.58   15.87
  -4  -6  -7   26.04   21.95
   4   6   7   50.80   15.35
   4   6   7   33.52   20.74
   2  -7  -7  136.77   24.90
  -2   7   7  223.91   25.05
  -2   7   7  173.92   22.65
  -2   7   7  152.31   22.95
   1  -7  -7   -1.37   10.78
   1  -7  -7    3.11   18.23
  -1   7   7   -7.38   12.16
  -1   7   7    5.45   16.46
  -1   7   7   13.41   15.04
  -1   7   7   25.57   21.41
   0  -7  -7  244.15   20.80
   0   7   7  252.76   26.46
   0   7   7  232.91   23.27
   0   7   7  240.20   23.21
   0   7   7  257.39   26.56
  -1  -7  -7   82.46   14.50
  -1  -7  -7   79.96   17.36
   1   7   7   88.22   17.21
   1   7   7  109.60   20.51
   1   7   7   76.82   16.44
   1   7   7   92.08   14.51
  -2  -7  -7  162.13   18.86
  -2  -7  -7  145.47   17.64
   2   7   7  164.49   21.98
   2   7   7  121.26   22.07
   2   7   7  160.20   19.31
   2   7   7  152.01   15.69
  -3  -7  -7   92.96   12.25
  -3  -7  -7   67.36   17.18
  -3  -7  -7   80.65   25.09
   3   7   7  140.93   22.68
   3   7   7   67.64   16.06
   3   7   7   78.97   10.82
   0  -8  -7   56.81   14.73
   0  -8  -7   79.47   23.56
   0   8   7   56.47   20.71
   0   8   7   62.38   17.52
   0   8   7  100.21   23.50
  -1  -8  -7  -10.14   13.81
  -1  -8  -7   18.44   18.82
   1   8   7   12.83   18.51
   1   8   7    7.02   21.16
   1   8   7   30.85   18.12
   1   8   7    2.88   16.88
   2   7  -8   56.04   19.45
   2   7  -8   51.36   23.20
  -2  -7   8   52.80   21.39
  -2  -7   8   34.03   18.45
   1   7  -8   22.99   18.39
   1   7  -8   24.64   21.42
  -1  -7   8   79.36   17.82
  -1  -7   8   33.17   18.23
   0   7  -8   -3.45   21.25
   0   7  -8  -25.01   18.07
   0  -7   8   18.54   18.57
   0  -7   8   31.85   16.29
  -1   7  -8   38.41   22.17
  -1   7  -8   50.39   21.39
   1  -7   8   63.51   18.76
   1  -7   8   30.21   19.16
   3   6  -8  189.77   23.47
   3   6  -8  179.21   24.57
   2   6  -8  247.03   25.65
   2   6  -8  219.76   24.58
  -2  -6   8  262.90   24.89
   1   6  -8  198.85   21.79
   1   6  -8  255.64   26.59
  -1  -6   8  241.55   23.74
  -1  -6   8  252.80   25.13
   0   6  -8  201.64   22.66
   0   6  -8  210.32   24.35
   0  -6   8  195.81   22.12
   0  -6   8  148.62   18.07
  -1   6  -8   17.27   14.70
  -1   6  -8   15.39   29.62
   1  -6   8    8.61   20.68
   1  -6   8   47.19   15.55
  -2   6  -8   51.78   18.24
  -2   6  -8   12.66   18.49
   2  -6   8   21.16   15.96
   2  -6   8   41.78   15.86
   2  -6   8   30.25    6.55
   2  -6   8   37.34    5.94
  -3   6  -8   27.56   20.21
  -3   6  -8   38.97   24.36
   3  -6   8   45.02   11.05
   3  -6   8   62.88   21.54
   3  -6   8   86.22   19.11
   3  -6   8   56.93   11.01
   4   5  -8   63.77    8.11
   4   5  -8   44.96   17.67
   4   5  -8   54.35    6.43
   4   5  -8   34.01   18.76
   4   5  -8   38.89   16.59
   4   5  -8   28.68   14.30
   3   5  -8   75.28   15.82
   3   5  -8   64.57   14.65
   3   5  -8   28.80   16.19
  -3  -5   8   63.22   14.25
   2   5  -8   -4.30   11.38
   2   5  -8    2.17   11.35
  -2  -5   8   10.21   10.91
  -2  -5   8   -4.66   10.43
   1   5  -8  264.98   23.66
   1   5  -8  248.04   22.47
  -1  -5   8  247.87   19.78
  -1  -5   8  282.12   21.45
   0   5  -8  212.75   22.43
   0   5  -8  194.61   20.02
   0  -5   8  220.29   19.28
   0  -5   8  187.68   19.61
  -1   5  -8  420.23   28.23
  -1   5  -8  471.87   27.77
   1  -5   8  410.66   24.50
   1  -5   8  475.32   25.48
  -2   5  -8   47.19   14.99
  -2   5  -8   22.90   15.90
   2  -5   8   15.63   11.90
   2  -5   8   29.01    6.64
   2  -5   8   17.02   11.69
   2  -5   8   18.59    6.34
  -3   5  -8  134.54   21.74
   3  -5   8   87.85   11.39
   3  -5   8   88.50   16.76
   3  -5   8   76.43   16.91
   3  -5   8   94.88   11.91
  -4   5  -8  158.33   25.05
  -4   5  -8  190.31   30.61
   4  -5   8  142.14   16.72
   4  -5   8  131.43   19.39
   4  -5   8  140.10   21.89
   4  -5   8  151.20   17.79
   4   4  -8   33.02   16.83
   4   4  -8   24.69   13.50
   4   4  -8  -11.91   12.94
   4   4  -8   17.63    9.63
   4   4  -8   23.90    7.11
   4   4  -8    0.29   11.89
   3   4  -8   85.03   14.00
   3   4  -8   68.34   16.08
   3   4  -8   69.29    6.73
   3   4  -8   83.35   13.74
   3   4  -8   73.82    7.46
  -3  -4   8   81.40   14.31
   2   4  -8   35.03   10.42
   2   4  -8   40.55   11.84
  -2  -4   8   57.19   11.06
   1   4  -8  200.99   16.89
   1   4  -8  198.39   18.84
  -1  -4   8  207.54   17.17
  -1  -4   8  171.16   15.98
   0   4  -8 1219.51   38.33
   0   4  -8 1181.18   36.18
   0  -4   8 1144.63   34.00
   0  -4   8 1187.34   35.13
  -1   4  -8  260.92   21.96
  -1   4  -8  212.04   19.03
   1  -4   8  179.86   18.19
   1  -4   8  219.62    8.48
   1  -4   8  258.76   18.80
   1  -4   8  220.24    8.94
  -2   4  -8  346.39   27.15
  -2   4  -8  291.95   21.28
   2  -4   8  328.83   14.68
   2  -4   8  338.03   21.01
   2  -4   8  297.44   20.47
   2  -4   8  313.68   13.40
  -3   4  -8   24.37   14.79
  -3   4  -8   -1.19   11.72
   3  -4   8   23.63   11.08
   3  -4   8    1.22   12.18
   3  -4   8   34.54    9.08
   3  -4   8   18.55    9.03
  -4   4  -8   43.09   17.61
   4  -4   8   56.15   13.36
   4  -4   8   44.84   15.92
   4  -4   8   59.03   15.56
   4  -4   8   83.68   15.44
   5   3  -8  -14.90   10.92
   5   3  -8    2.20   14.88
   5   3  -8  -19.54    9.95
   5   3  -8   19.42   18.57
   5   3  -8   -9.82   12.21
   5   3  -8   13.90   14.55
   4   3  -8  212.61   14.34
   4   3  -8  210.51   22.71
   4   3  -8  214.49   19.40
   4   3  -8  204.22   19.34
   4   3  -8  201.19   18.69
   4   3  -8  207.17   18.67
   3   3  -8  135.86   17.31
   3   3  -8  113.96    8.85
   3   3  -8  102.68   12.33
   3   3  -8  104.04   12.83
   3   3  -8   97.54   10.23
  -3  -3   8  107.10   11.56
   2   3  -8  179.43    7.72
   2   3  -8  199.66   15.79
   2   3  -8  193.36   16.62
   2   3  -8  189.39   18.91
  -2  -3   8  189.03   14.59
  -2  -3   8  191.79   10.41
   1   3  -8  866.54   28.47
   1   3  -8  817.39   15.59
   1   3  -8  820.15   27.54
  -1  -3   8  847.34   27.89
  -1  -3   8  820.47   25.72
  -1  -3   8  789.27   16.15
   0   3  -8  262.47    9.05
   0   3  -8  235.07   18.96
   0  -3   8  257.79   16.42
   0  -3   8  257.18   16.67
   0  -3   8  260.71    8.37
  -1   3  -8 1504.39   28.95
  -1   3  -8 1455.00   40.94
   1  -3   8 1529.22   37.36
   1  -3   8 1279.56   44.82
   1  -3   8 1504.89   26.81
  -2   3  -8  809.27   29.34
  -2   3  -8  852.64   24.05
   2  -3   8  842.18   29.87
   2  -3   8  882.12   21.86
   2  -3   8  844.53   28.26
  -3   3  -8  401.30   27.28
  -3   3  -8  407.51   23.79
   3  -3   8  410.11   20.51
   3  -3   8  383.86   22.04
   3  -3   8  387.71   24.06
   3  -3   8  402.29   18.85
  -4   3  -8    4.12   12.06
  -4   3  -8   16.36   15.96
   4  -3   8   10.81   10.96
   4  -3   8   30.42   13.61
   4  -3   8    2.78   10.07
   4  -3   8   26.80   11.86
  -5   3  -8   51.39   23.34
  -5   3  -8  104.31   18.98
   5  -3   8   34.17   17.71
   5  -3   8   68.86   15.99
   5  -3   8   60.02   15.95
   5  -3   8   53.56   16.91
   5   2  -8  168.21   15.67
   5   2  -8  183.59   17.09
   5   2  -8  166.24   19.47
   5   2  -8  166.22   15.71
   5   2  -8  157.70   22.46
   5   2  -8  153.20   19.00
   4   2  -8  112.56   18.32
   4   2  -8  125.83   12.11
   4   2  -8  149.92   17.09
   4   2  -8  115.96   12.01
   4   2  -8  127.38   13.36
   3   2  -8  139.53   17.01
   3   2  -8  136.93   10.46
   3   2  -8  175.38   15.23
   3   2  -8  135.31   13.58
  -3  -2   8  156.92   12.38
  -3  -2   8  144.49   13.42
   2   2  -8  133.90   15.07
   2   2  -8  112.37   12.47
   2   2  -8  116.29   13.24
   2   2  -8  114.48    7.69
  -2  -2   8  119.62   10.09
  -2  -2   8  127.30   11.20
   1   2  -8  467.27   12.76
   1   2  -8  497.27   20.45
   1   2  -8  432.47   20.00
  -1  -2   8  462.63   18.03
  -1  -2   8  454.22   13.63
   0   2  -8  311.53   10.90
   0   2  -8  341.42   19.12
   0   2  -8  323.10   16.89
   0  -2   8  334.29   16.71
   0  -2   8  320.64   10.80
   0  -2   8  329.56   16.27
  -1   2  -8  125.59   14.61
  -1   2  -8  115.68   12.02
  -1   2  -8  130.45    8.89
   1  -2   8  109.16   11.80
   1  -2   8  116.76    7.99
   1  -2   8  120.65   12.90
  -2   2  -8  756.32   25.97
  -2   2  -8  762.28   29.51
  -2   2  -8  706.27   21.99
   2  -2   8  737.64   20.28
   2  -2   8  756.81   24.20
   2  -2   8  657.76   29.99
  -3   2  -8  288.47   18.90
  -3   2  -8  270.86   23.01
  -3   2  -8  319.38   17.53
   3  -2   8  305.90   17.20
   3  -2   8  268.26   15.99
   3  -2   8  269.62   19.31
  -4   2  -8  109.79   16.25
  -4   2  -8  152.74   21.37
  -4   2  -8  126.93   15.26
   4  -2   8  148.89   17.72
   4  -2   8  124.33   14.20
   4  -2   8   90.47   16.85
  -5   2  -8   41.23   14.67
  -5   2  -8   20.80   22.15
   5  -2   8   14.43   11.72
   5  -2   8   43.65   16.53
   5  -2   8   31.12   13.73
   5  -2   8   28.70   16.55
   5   1  -8   46.44   17.02
   5   1  -8   41.18   11.44
   5   1  -8   46.93   13.64
   4   1  -8  859.63   20.55
   4   1  -8  921.36   30.88
   4   1  -8  824.27   35.07
   4   1  -8  869.43   32.17
  -4  -1   8  900.91   31.03
   3   1  -8  566.77   27.51
   3   1  -8  562.16   23.25
   3   1  -8  594.08   18.93
   3   1  -8  637.54   19.28
  -3  -1   8  596.64   16.89
  -3  -1   8  620.60   22.49
   2   1  -8  396.71   16.54
   2   1  -8  362.01   20.87
   2   1  -8  398.03   13.48
   2   1  -8  361.07   18.50
  -2  -1   8  370.53   15.41
  -2  -1   8  377.46   14.31
   1   1  -8   92.01   10.62
   1   1  -8   77.01   11.33
   1   1  -8  102.32    7.47
  -1  -1   8   83.56    9.16
  -1  -1   8   90.36    8.71
   0   1  -8  165.51    8.92
   0   1  -8  183.38   14.25
   0   1  -8  166.60   12.28
   0   1  -8  162.02   13.90
   0  -1   8  163.83   12.10
   0  -1   8  157.97    8.98
  -1   1  -8  117.28    8.92
  -1   1  -8  124.82   13.65
  -1   1  -8  134.28   10.71
   1  -1   8  151.24   12.74
   1  -1   8  133.32   11.25
   1  -1   8  118.63    8.49
  -2   1  -8   34.39    6.77
  -2   1  -8   28.47    7.30
  -2   1  -8   28.77   16.48
   2  -1   8   18.78    6.53
   2  -1   8   28.37    6.33
   2  -1   8   33.13    9.02
  -3   1  -8  219.74   14.83
  -3   1  -8  195.15   15.58
  -3   1  -8  204.20   21.58
   3  -1   8  212.37   14.12
   3  -1   8  229.69   18.68
   3  -1   8  217.11   14.69
  -4   1  -8   13.09    8.06
  -4   1  -8    0.11   12.23
  -4   1  -8   24.87    9.77
   4  -1   8    5.93    9.48
   4  -1   8   34.40   11.69
   4  -1   8    5.99    7.41
  -5   1  -8   81.82   18.63
  -5   1  -8  104.40   14.71
  -5   1  -8  113.65   21.34
   5  -1   8  112.88   12.68
   5  -1   8  110.68   16.94
   5  -1   8   97.16   18.00
   6  -1   8  -32.76   19.20
   6  -1   8   28.42   11.56
   5   0  -8  194.26   23.89
   5   0  -8  207.61   19.67
  -5   0   8  232.07   24.10
   4   0  -8   -1.38    7.67
   4   0  -8   21.54   13.65
  -4   0   8   -1.82   11.24
   3   0  -8  941.91   33.56
   3   0  -8  918.08   19.72
   3   0  -8  899.66   25.17
  -3   0   8  955.52   28.97
  -3   0   8  924.50   17.99
   2   0  -8  413.86   18.60
   2   0  -8  404.64   15.13
   2   0  -8  394.70   14.94
   2   0  -8  392.48   24.00
  -2   0   8  393.75   12.90
  -2   0   8  407.43   16.95
   1   0  -8 1017.87   30.24
   1   0  -8 1038.62   24.01
   1   0  -8 1012.77   27.47
   1   0  -8 1056.05   26.71
  -1   0   8 1027.22   24.47
  -1   0   8 1020.00   24.79
   0   0  -8   15.78    6.73
   0   0  -8   17.07    7.74
   0   0  -8    5.56    3.67
   0   0  -8   12.73    5.51
   0   0   8   13.35    6.12
   0   0   8    9.89    4.75
  -1   0  -8   16.58    6.55
  -1   0  -8   27.27    9.08
  -1   0  -8   19.94    5.45
  -1   0  -8   29.23    5.58
   1   0   8   27.85    5.67
   1   0   8   31.17    7.86
  -2   0  -8  364.47   15.38
  -2   0  -8  383.52   16.74
  -2   0  -8  360.11   21.72
   2   0   8  380.52   15.68
   2   0   8  368.54   19.65
  -3   0  -8  159.47   12.21
  -3   0  -8  149.10   17.89
  -3   0  -8  161.76   14.76
   3   0   8  129.81   14.75
   3   0   8  163.38   11.70
   3   0   8  115.46   16.58
  -4   0  -8   56.38    9.20
  -4   0  -8   43.33   12.31
  -4   0  -8   81.90   16.88
   4   0   8    6.41   10.81
   4   0   8   54.97    8.55
   4   0   8   40.73   10.14
  -5   0  -8   72.11   10.96
  -5   0  -8   99.80   21.46
  -5   0  -8   73.18   15.34
   5   0   8   77.62    9.69
   5   0   8   64.38   17.98
   5   0   8   81.07   15.34
  -6   0  -8   65.31   19.29
  -6   0  -8   45.10   12.15
  -6   0  -8   29.62   25.11
   6   0   8   67.86   19.20
   6   0   8   48.98   10.12
   6   0   8   40.43   20.53
   5  -1  -8  205.64   42.48
   5  -1  -8  172.59   18.80
  -5   1   8  158.78   21.52
  -5   1   8  206.16   23.51
   4  -1  -8  111.61   13.36
   4  -1  -8   71.92   17.87
  -4   1   8  100.56   15.66
  -4   1   8   78.19   14.85
   3  -1  -8   34.63   12.65
  -3   1   8   36.10   10.42
  -3   1   8   29.43    9.88
   2  -1  -8  289.48   13.80
   2  -1  -8  264.60   11.64
   2  -1  -8  280.97   19.79
  -2   1   8  252.50   19.45
  -2   1   8  275.33   15.82
  -2   1   8  259.72    9.61
   1  -1  -8   68.87    8.65
   1  -1  -8   86.12   12.59
   1  -1  -8   61.56    7.79
  -1   1   8   70.44    8.70
  -1   1   8   60.49    7.07
   0  -1  -8  397.43   17.93
   0  -1  -8  369.55   15.59
   0  -1  -8  363.03   14.35
   0  -1  -8  356.55   17.83
   0   1   8  371.98   14.77
   0   1   8  362.33   16.16
  -1  -1  -8   33.89    5.90
  -1  -1  -8   33.69    7.80
  -1  -1  -8   26.52    5.76
  -1  -1  -8   41.67    9.71
  -2  -1  -8  358.83   14.53
  -2  -1  -8  342.91   21.04
  -2  -1  -8  358.55   17.02
  -2  -1  -8  349.32   15.75
   2   1   8  355.06   19.78
   2   1   8  366.41   16.06
  -3  -1  -8  348.22   25.63
  -3  -1  -8  414.21   25.08
  -3  -1  -8  441.60   16.53
  -3  -1  -8  425.39   15.29
   3   1   8  395.90   22.99
   3   1   8  423.03   18.65
  -4  -1  -8  131.51   11.95
  -4  -1  -8  130.75   18.54
  -4  -1  -8  106.52   13.52
  -4  -1  -8  116.83   11.06
   4   1   8  161.20   18.56
   4   1   8  131.95   15.82
  -5  -1  -8  136.21   12.10
  -5  -1  -8  119.43   17.71
  -5  -1  -8  123.08   12.20
  -5  -1  -8  126.17   23.02
   5   1   8  127.63   20.69
   5   1   8  106.05   15.32
  -6  -1  -8  456.35   48.30
  -6  -1  -8  443.75   35.70
   6   1   8  389.86   31.89
   6   1   8  344.95   36.19
   5  -2  -8   47.87   14.12
   5  -2  -8   41.24   21.44
  -5   2   8    9.22   17.55
  -5   2   8   45.74   19.63
   4  -2  -8  160.49   21.94
   4  -2  -8  184.60   18.43
  -4   2   8  187.07   20.34
  -4   2   8  174.93   19.66
   3  -2  -8  345.03   24.47
   3  -2  -8  353.97   17.66
  -3   2   8  345.00   22.19
   2  -2  -8   34.37    7.08
   2  -2  -8   29.82    5.67
   2  -2  -8   19.94   11.25
  -2   2   8   13.71    8.91
  -2   2   8   29.43    4.46
  -2   2   8   19.55    9.28
   1  -2  -8  327.58   15.09
   1  -2  -8  351.28   20.33
   1  -2  -8  341.96   15.66
  -1   2   8  355.09   16.51
  -1   2   8  327.90   17.78
   0  -2  -8  322.68   14.61
   0  -2  -8  337.49   17.30
   0  -2  -8  354.38   18.32
   0   2   8  330.50   16.18
   0   2   8  347.41   16.34
   0   2   8  345.05   15.53
  -1  -2  -8   41.32    8.19
  -1  -2  -8   48.47    6.93
  -1  -2  -8   36.46    9.80
  -1  -2  -8   39.73    6.97
   1   2   8   32.67    8.43
   1   2   8   42.14    7.46
  -2  -2  -8  346.34   15.98
  -2  -2  -8  321.01   17.14
  -2  -2  -8  326.72   21.84
  -2  -2  -8  339.13   13.42
   2   2   8  331.99   19.33
  -3  -2  -8  284.11   12.06
  -3  -2  -8  267.57   17.92
  -3  -2  -8  287.95   23.15
  -3  -2  -8  285.11   14.23
   3   2   8  295.38   17.32
   3   2   8  316.65   21.42
  -4  -2  -8   27.51    5.35
  -4  -2  -8   23.25   15.09
  -4  -2  -8   22.39    6.43
  -4  -2  -8   16.34   11.29
   4   2   8   34.94   13.61
   4   2   8   19.27    9.95
  -5  -2  -8   52.24   20.35
  -5  -2  -8   46.50   16.03
   5   2   8   77.14   18.93
   5   2   8   67.60   17.66
  -6  -2  -8  128.12   29.77
  -6  -2  -8  102.22   23.18
   6   2   8  102.84   25.00
   5  -3  -8   13.26   14.51
   5  -3  -8  -32.38   23.11
  -5   3   8   10.45   19.94
  -5   3   8   13.45   17.53
   4  -3  -8   57.64   18.48
   4  -3  -8   26.09   11.14
  -4   3   8   35.46   16.12
  -4   3   8   25.80   15.42
   3  -3  -8  213.47   24.93
   3  -3  -8  235.61   17.08
  -3   3   8  198.59   21.73
  -3   3   8  228.16   20.49
   2  -3  -8  266.25   22.91
   2  -3  -8  278.04   15.62
  -2   3   8  281.77   20.00
  -2   3   8  294.60   19.22
  -2   3   8  250.83   11.12
   1  -3  -8  273.12   14.89
   1  -3  -8  228.64   21.24
   1  -3  -8  188.44   24.12
  -1   3   8  294.56   14.11
  -1   3   8  288.99   16.28
  -1   3   8  300.00   18.23
   0  -3  -8  149.69   12.26
   0  -3  -8  147.82   13.95
   0  -3  -8  138.61   14.25
   0   3   8  154.60   13.22
   0   3   8  148.20   13.74
   0   3   8  150.51   14.93
  -1  -3  -8 1783.88   40.41
  -1  -3  -8 1855.25   44.73
  -1  -3  -8 1875.14   43.63
   1   3   8 1767.29   43.57
   1   3   8 1745.25   38.15
   1   3   8 1790.54   39.47
  -2  -3  -8  145.48   13.55
  -2  -3  -8  165.35   14.10
  -2  -3  -8  164.26   19.04
  -2  -3  -8  168.13   10.38
   2   3   8  154.22   14.00
  -3  -3  -8  808.66   34.43
  -3  -3  -8  809.56   28.80
  -3  -3  -8  798.98   21.34
  -3  -3  -8  814.09   18.95
   3   3   8  776.62   32.22
   3   3   8  774.85   27.40
  -4  -3  -8    5.25   11.01
  -4  -3  -8    3.61   15.12
   4   3   8   13.95   14.16
   4   3   8   15.69   10.00
  -5  -3  -8   15.39   15.84
  -5  -3  -8   16.69   19.33
   5   3   8    9.69   18.42
   5   3   8   11.40   13.18
   4  -4  -8   -2.29   19.21
   4  -4  -8    8.43   11.94
  -4   4   8   23.79   17.91
  -4   4   8    7.97   17.20
   3  -4  -8   24.55   16.25
   3  -4  -8   11.99    9.75
  -3   4   8    9.04   14.25
  -3   4   8   36.95   14.60
   2  -4  -8   22.98    8.12
   2  -4  -8    0.73   12.08
  -2   4   8    6.73    5.96
  -2   4   8   10.79    5.94
  -2   4   8   -1.50   10.18
  -2   4   8   18.78   11.13
   1  -4  -8  159.30   14.25
   1  -4  -8  189.22   20.30
   1  -4  -8  160.85   14.42
  -1   4   8  147.44   15.87
  -1   4   8  163.08   17.69
  -1   4   8  174.42   14.11
   0  -4  -8   91.81   12.40
   0  -4  -8   84.27   13.52
   0  -4  -8  105.01   12.63
   0   4   8  114.28   13.00
   0   4   8  126.50   13.94
   0   4   8   92.58   11.43
  -1  -4  -8  317.66   19.44
  -1  -4  -8  272.58   17.23
  -1  -4  -8  277.05   20.54
   1   4   8  289.39   17.19
   1   4   8  318.90   20.76
   1   4   8  321.08   16.77
  -2  -4  -8 1130.44   30.19
  -2  -4  -8 1123.81   38.74
  -2  -4  -8 1142.99   33.45
   2   4   8 1150.66   37.75
  -3  -4  -8   52.35    8.30
  -3  -4  -8   55.18   15.95
  -3  -4  -8   32.26    5.41
  -3  -4  -8   43.34   10.84
   3   4   8   43.83   14.48
   3   4   8   30.18    9.90
  -4  -4  -8  250.79   29.74
  -4  -4  -8  225.06   23.09
   4   4   8  210.19   23.93
   4   4   8  279.54   22.33
  -5  -4  -8   44.03   18.97
  -5  -4  -8   79.95   25.87
   5   4   8   36.28   16.42
   5   4   8   47.69   21.08
   4  -5  -8  496.74   54.77
   4  -5  -8  377.67   29.39
  -4   5   8  429.54   41.65
  -4   5   8  404.48   39.14
   3  -5  -8   92.26   22.92
   3  -5  -8   74.35   14.93
  -3   5   8   61.00   18.18
  -3   5   8   69.30    6.75
  -3   5   8   94.16   19.17
  -3   5   8   59.49    6.40
   2  -5  -8  159.47   21.34
   2  -5  -8  140.96   14.86
  -2   5   8  156.78   13.37
  -2   5   8  167.79   19.45
  -2   5   8  136.16   14.21
  -2   5   8  172.00   20.50
   1  -5  -8   17.75   13.27
   1  -5  -8   23.00    8.38
  -1   5   8   41.67   12.37
  -1   5   8   23.58    9.43
  -1   5   8   46.20   10.98
  -1   5   8   25.88   10.06
   0  -5  -8  150.61   15.54
   0  -5  -8  169.50   18.43
   0  -5  -8  157.92   17.59
   0   5   8  122.09   15.23
   0   5   8  157.68   18.41
   0   5   8  161.22   16.47
  -1  -5  -8  231.07   17.47
  -1  -5  -8  232.74   20.78
  -1  -5  -8  213.89   21.57
   1   5   8  227.02   21.38
   1   5   8  200.98   17.22
   1   5   8  213.34   16.64
  -2  -5  -8  102.57   17.34
  -2  -5  -8  152.70   16.27
  -2  -5  -8  124.26   13.65
   2   5   8  167.49   17.23
   2   5   8  157.53   20.50
   2   5   8  137.57   13.69
  -3  -5  -8  228.57   10.88
  -3  -5  -8  287.78   28.09
  -3  -5  -8  194.41   21.27
   3   5   8  218.33   20.35
   3   5   8  235.04   27.72
  -4  -5  -8   20.81   14.65
  -4  -5  -8   29.50   20.67
   4   5   8   28.88   12.76
   4   5   8   42.76   19.04
   3  -6  -8  278.49   25.83
   3  -6  -8  268.19   32.35
  -3   6   8  274.27   16.22
  -3   6   8  263.45   16.52
  -3   6   8  258.62   27.85
  -3   6   8  246.45   27.91
  -2   6   8  150.39   20.96
  -2   6   8  161.59   17.40
  -2   6   8  176.69   22.54
  -2   6   8  158.96   19.38
   1  -6  -8  193.54   21.09
   1  -6  -8  196.79   24.02
  -1   6   8  187.63   21.72
  -1   6   8  176.15   19.24
  -1   6   8  180.38   20.82
  -1   6   8  218.17   19.53
   0  -6  -8   72.45   17.62
   0  -6  -8   84.77   13.24
   0   6   8   70.50   14.43
   0   6   8   90.02   16.43
   0   6   8  103.10   16.28
   0   6   8  100.39   15.55
  -1  -6  -8  119.95   17.47
  -1  -6  -8  165.70   18.68
  -1  -6  -8  141.88   18.59
   1   6   8  141.21   19.31
   1   6   8  121.78   16.80
   1   6   8   87.57   13.78
  -2  -6  -8  233.01   26.77
  -2  -6  -8  241.57   21.91
   2   6   8  235.52   28.12
   2   6   8  260.38   19.14
   2   6   8  249.53   21.62
  -3  -6  -8   28.78   19.36
  -3  -6  -8   34.53   13.91
  -3  -6  -8   34.28   10.11
  -3  -6  -8   45.55    7.40
   3   6   8   43.10   15.01
   3   6   8   87.33   22.64
  -4  -6  -8  141.52   27.29
  -4  -6  -8   71.01   19.16
   4   6   8   73.02   27.55
   4   6   8   61.32   17.82
  -2   7   8  129.14   30.22
   1  -7  -8   -1.04   13.59
  -1   7   8  -41.02   17.01
  -1   7   8   -4.75   14.41
  -1   7   8   -2.07   14.88
  -1   7   8   36.06   15.76
   0  -7  -8  220.47   21.07
   0  -7  -8  194.38   24.49
   0   7   8  197.43   23.19
   0   7   8  181.83   22.22
   0   7   8  218.50   21.27
   0   7   8  219.28   24.93
  -1  -7  -8   40.70   16.44
  -1  -7  -8    4.20   12.18
   1   7   8   15.29   14.81
   1   7   8   -9.43   17.06
   1   7   8   34.72   14.79
   1   7   8    9.42   13.68
  -2  -7  -8  153.64   19.20
  -2  -7  -8  172.48   19.05
   2   7   8  160.41   19.95
   2   7   8  150.40   16.85
   2   7   8  133.25   25.02
  -3  -7  -8   27.67   23.67
   2   6  -9   57.80   19.32
   2   6  -9   29.72   17.61
  -2  -6   9   37.46   16.14
  -2  -6   9   26.18   15.87
   1   6  -9   -4.32   18.24
   1   6  -9   18.86   16.95
  -1  -6   9   38.03   14.89
  -1  -6   9   28.09   15.34
   0   6  -9   40.13   18.56
   0   6  -9   13.34   17.83
   0  -6   9   45.06   15.79
   0  -6   9   22.32   16.25
  -1   6  -9   46.61   18.90
  -1   6  -9  110.42   21.73
   1  -6   9   57.57   17.95
   1  -6   9   96.48   17.65
  -2   6  -9  119.64   27.23
  -2   6  -9  168.64   23.86
   2  -6   9  176.13   25.07
   2  -6   9  100.97   19.66
   2  -6   9  122.52    8.25
   2  -6   9  126.13    9.04
   3   5  -9   20.94   15.21
   3   5  -9   16.53   14.51
   3   5  -9   21.93   33.28
  -3  -5   9   10.32   13.60
   2   5  -9   30.24   13.86
   2   5  -9   41.78   15.70
  -2  -5   9   13.61   13.34
  -2  -5   9   20.91   13.57
   1   5  -9   23.98   14.32
   1   5  -9   22.17   14.18
  -1  -5   9   29.15   12.19
  -1  -5   9   11.74   11.89
   0   5  -9   63.47   15.74
   0   5  -9   55.28   13.77
   0  -5   9   77.57   14.43
   0  -5   9   88.96   14.50
  -1   5  -9    7.55   13.74
  -1   5  -9   16.84   16.21
   1  -5   9   14.06   12.14
   1  -5   9   26.33   13.72
  -2   5  -9  152.45   20.66
   2  -5   9  141.68   11.12
   2  -5   9  134.64   17.84
   2  -5   9  143.96   10.87
   2  -5   9  168.31   20.69
  -3   5  -9  127.40   24.81
  -3   5  -9  154.84   24.83
   3  -5   9  119.00   12.81
   3  -5   9  135.30   13.81
   3  -5   9  138.91   20.43
   3  -5   9  101.09   17.90
   4   4  -9  153.66   17.54
   4   4  -9  149.17   18.61
   4   4  -9  160.12   20.22
   4   4  -9  117.18   18.31
   4   4  -9  107.89   12.25
   3   4  -9   56.80    5.42
   3   4  -9   62.14    7.86
   3   4  -9   60.21   15.23
   3   4  -9   54.51   14.58
   3   4  -9   64.80   17.95
  -3  -4   9   60.21   12.30
   2   4  -9  255.66   23.08
   2   4  -9  311.95   23.12
   2   4  -9  310.04   26.09
  -2  -4   9  342.80   21.66
   1   4  -9  158.67   17.65
   1   4  -9  155.22   18.09
  -1  -4   9  144.37   16.54
  -1  -4   9  167.55   18.01
   0   4  -9  213.88   19.50
   0   4  -9  210.56   21.02
   0  -4   9  161.96   17.72
   0  -4   9  195.41   18.03
  -1   4  -9   41.41   13.21
  -1   4  -9   27.10   15.53
   1  -4   9   47.77   11.74
   1  -4   9   40.67   11.51
   1  -4   9   56.43    5.80
   1  -4   9   40.82    5.55
  -2   4  -9    7.51   11.93
   2  -4   9   39.21   12.79
   2  -4   9   35.17   11.23
   2  -4   9   34.89    7.03
   2  -4   9   26.24    7.72
  -3   4  -9   -3.96   12.36
  -3   4  -9   27.60   18.59
   3  -4   9   20.14    9.35
   3  -4   9   25.85   15.09
   3  -4   9   45.45   10.96
   3  -4   9   -3.03   12.59
  -4   4  -9   26.98   23.75
  -4   4  -9   25.69   17.87
   4  -4   9   30.58   16.46
   4  -4   9   51.21   15.18
   4  -4   9   30.92   17.33
   4  -4   9   36.24   13.89
   4   3  -9   36.09    8.25
   4   3  -9   11.15   11.80
   4   3  -9   41.46   11.48
   4   3  -9   76.52   15.55
   4   3  -9   44.14   17.76
   4   3  -9   51.99   12.78
   3   3  -9  100.96   13.90
   3   3  -9   85.51   14.87
   3   3  -9   95.85   18.02
   3   3  -9   93.64    9.22
  -3  -3   9   88.89   12.05
   2   3  -9  143.90   14.97
   2   3  -9  113.80   14.33
   2   3  -9  128.51    7.88
   2   3  -9  137.43   16.61
  -2  -3   9  115.47   12.93
  -2  -3   9  116.52   10.06
   1   3  -9  553.93   13.15
   1   3  -9  568.81   28.30
   1   3  -9  561.62   23.71
  -1  -3   9  530.13   22.58
  -1  -3   9  554.57   14.18
   0   3  -9   93.43    7.60
   0   3  -9   65.87   11.54
   0   3  -9   97.35   15.37
   0  -3   9  103.03   14.02
   0  -3   9   93.28   12.26
   0  -3   9   85.81    7.14
  -1   3  -9  664.31   30.10
  -1   3  -9  638.67   18.41
  -1   3  -9  637.68   26.51
   1  -3   9  656.26   26.91
   1  -3   9  639.93   25.36
  -2   3  -9   23.69    7.42
  -2   3  -9    9.13   12.56
  -2   3  -9   -7.76    9.29
   2  -3   9    2.50    8.63
   2  -3   9   13.36    9.77
   2  -3   9    5.14    5.92
  -3   3  -9   94.14   16.48
  -3   3  -9  106.15   19.55
   3  -3   9  119.86   17.03
   3  -3   9   75.53   12.96
   3  -3   9   65.87   10.77
  -4   3  -9   12.37   22.37
  -4   3  -9    7.80   13.51
   4  -3   9   19.43   11.45
   4  -3   9   16.78   14.99
   4  -3   9   25.02   13.99
   4  -3   9   23.31   12.14
  -5   3  -9   29.23   24.90
   5  -3   9   32.86   16.61
   5  -3   9   40.82   19.91
   5  -3   9   48.79   18.58
   5   2  -9  139.56   13.15
   5   2  -9  116.94   24.56
   5   2  -9  140.44   13.87
   5   2  -9  138.04   21.59
   5   2  -9  148.84   19.56
   5   2  -9  154.97   16.02
   4   2  -9   22.00    9.82
   4   2  -9   14.23    9.53
   4   2  -9    2.32   15.15
   4   2  -9   20.98   11.94
   4   2  -9   25.47    8.52
  -4  -2   9   10.24   11.37
   3   2  -9   37.34    6.91
   3   2  -9   30.76   13.05
   3   2  -9   33.82   10.01
   3   2  -9   24.91   10.99
  -3  -2   9   33.80    9.68
  -3  -2   9   43.82    9.13
   2   2  -9  148.92    9.46
   2   2  -9  140.07   16.88
   2   2  -9  178.40   15.96
   2   2  -9  152.76   16.23
  -2  -2   9  147.85   11.91
  -2  -2   9  147.20   13.33
   1   2  -9  496.85   24.64
   1   2  -9  533.01   23.28
   1   2  -9  547.87   23.28
   1   2  -9  513.49   14.57
  -1  -2   9  532.35   15.86
  -1  -2   9  565.62   21.49
   0   2  -9   85.05    8.11
   0   2  -9   81.96   11.27
   0  -2   9   72.81    7.20
   0  -2   9   64.68   10.69
   0  -2   9   81.16   10.74
  -1   2  -9  172.09   18.08
  -1   2  -9  174.92   11.23
   1  -2   9  184.59   15.27
  -2   2  -9  370.11   17.88
  -2   2  -9  366.06   24.37
   2  -2   9  322.10   20.20
   2  -2   9  364.71   19.10
   2  -2   9  351.37   15.08
  -3   2  -9   12.89   10.41
  -3   2  -9   12.36    9.00
  -3   2  -9  -11.86   12.67
   3  -2   9    0.42    7.97
   3  -2   9  -14.67   11.91
   3  -2   9    0.15    7.71
  -4   2  -9  155.34   18.41
  -4   2  -9  154.78   24.59
  -4   2  -9  159.96   18.26
   4  -2   9  143.96   15.68
   4  -2   9  118.03   17.63
   4  -2   9  170.15   19.72
  -5   2  -9  106.68   26.19
   5  -2   9  139.70   22.50
   5  -2   9  112.55   16.15
   5  -2   9   87.63   17.69
   5  -2   9   94.05   19.39
   5   1  -9   -4.39   19.65
   5   1  -9   28.02   12.62
   5   1  -9   39.89   16.94
  -5  -1   9   40.90   17.44
   4   1  -9  454.61   31.48
   4   1  -9  394.66   14.89
   4   1  -9  435.44   15.73
   4   1  -9  391.43   20.02
   4   1  -9  434.88   24.74
  -4  -1   9  478.48   25.91
   3   1  -9  240.56   18.01
   3   1  -9  252.49   23.52
   3   1  -9  236.22   14.48
   3   1  -9  228.08   14.06
  -3  -1   9  208.15   17.09
  -3  -1   9  232.16   12.44
   2   1  -9  382.05   14.22
   2   1  -9  374.63   22.99
   2   1  -9  382.59   19.85
   2   1  -9  366.50   17.57
  -2  -1   9  371.48   15.32
  -2  -1   9  393.17   17.02
   1   1  -9  245.19   16.07
   1   1  -9  247.30   19.20
   1   1  -9  237.95   19.24
   1   1  -9  248.90   11.47
  -1  -1   9  244.63   14.00
  -1  -1   9  241.40   12.86
   0   1  -9  201.82   27.55
   0   1  -9  147.12    9.88
   0   1  -9  158.05   15.97
   0   1  -9  165.80   13.75
   0  -1   9  158.71   10.57
   0  -1   9  159.67   13.15
  -1   1  -9  167.40   11.40
  -1   1  -9  176.58   17.29
  -1   1  -9  168.56   13.67
   1  -1   9  192.63   15.24
  -2   1  -9  173.73   13.30
  -2   1  -9  148.94   13.50
  -2   1  -9  190.20   20.41
   2  -1   9  176.51   13.98
   2  -1   9  196.06   17.57
   2  -1   9  176.02   12.35
  -3   1  -9   52.66   14.79
  -3   1  -9   43.62   10.21
  -3   1  -9   32.69   10.04
   3  -1   9   15.51   11.24
   3  -1   9   32.89    9.17
   3  -1   9   35.05    8.94
  -4   1  -9  155.54   16.87
  -4   1  -9  165.54   17.63
  -4   1  -9  207.05   24.71
   4  -1   9  172.71   21.22
   4  -1   9  178.19   18.28
   4  -1   9  195.60   16.21
  -5   1  -9   57.19   22.72
  -5   1  -9  103.84   17.95
   5  -1   9   68.25   15.97
   5  -1   9   76.18   20.47
   5   0  -9   41.46   20.75
   5   0  -9   69.69   14.09
   5   0  -9   64.69   17.39
  -5   0   9   50.02   18.99
   4   0  -9   17.06   15.40
   4   0  -9   13.94    8.94
   4   0  -9   -1.10   12.06
  -4   0   9   -9.95   11.97
   3   0  -9  219.03   11.51
   3   0  -9  187.71   17.09
   3   0  -9  221.72   22.63
   3   0  -9  216.78   14.72
  -3   0   9  211.33   19.70
  -3   0   9  215.71    9.54
   2   0  -9  340.11   18.11
   2   0  -9  307.01   15.21
   2   0  -9  341.85   14.82
   2   0  -9  340.71   23.05
  -2   0   9  330.68   13.26
  -2   0   9  352.41   16.96
   1   0  -9   93.29    9.11
   1   0  -9  102.14   11.26
   1   0  -9   84.26   12.40
   1   0  -9   81.87   11.93
  -1   0   9   97.43   10.17
  -1   0   9   88.93    9.37
   0   0  -9  103.16   11.18
   0   0  -9  120.66   14.05
   0   0  -9  113.14   12.98
   0   0  -9  108.84    9.07
   0   0   9  112.55   12.01
   0   0   9  106.42   10.10
  -1   0  -9  307.78   14.63
  -1   0  -9  292.55   17.74
  -1   0  -9  289.36   15.35
  -1   0  -9  277.48   19.49
   1   0   9  282.23   17.45
  -2   0  -9   54.43   13.63
  -2   0  -9   65.21   10.50
  -2   0  -9   67.08    9.53
  -2   0  -9   50.38    8.56
   2   0   9   63.07   12.88
   2   0   9   59.48    8.53
  -3   0  -9  335.78   19.74
  -3   0  -9  294.52   16.78
  -3   0  -9  334.06   25.93
   3   0   9  280.88   17.22
   3   0   9  315.89   23.87
  -4   0  -9  106.84   13.27
  -4   0  -9  122.42   20.63
  -4   0  -9  152.63   17.29
   4   0   9  132.18   20.95
   4   0   9  113.54   13.59
   4   0   9  137.78   13.49
  -5   0  -9  234.94   29.87
  -5   0  -9  209.82   24.17
   5   0   9  205.51   25.74
   5   0   9  226.15   16.36
   5   0   9  251.64   24.61
   5  -1  -9   70.74   24.69
   5  -1  -9   71.52   15.25
  -5   1   9   65.68   17.39
  -5   1   9  100.22   23.15
   4  -1  -9  150.83   16.64
   4  -1  -9  145.53   21.87
  -4   1   9  121.45   17.56
  -4   1   9  150.88   18.33
   3  -1  -9  207.28   21.69
   3  -1  -9  221.83   15.79
  -3   1   9  262.82   20.90
  -3   1   9  240.35   19.62
   2  -1  -9  271.83   22.03
   2  -1  -9  293.15   13.87
   2  -1  -9  280.36   15.09
  -2   1   9  276.65   11.37
   1  -1  -9  165.47   17.50
   1  -1  -9  166.10   13.56
   1  -1  -9  198.99   16.73
   1  -1  -9  172.90   11.97
  -1   1   9  167.82   13.05
  -1   1   9  167.64   11.62
   0  -1  -9   36.69    6.83
   0  -1  -9   44.98    8.25
   0  -1  -9   26.81    8.86
   0  -1  -9   30.56    9.57
   0   1   9   29.69    8.06
   0   1   9   36.17    7.56
  -1  -1  -9  248.05   13.81
  -1  -1  -9  224.08   18.40
  -1  -1  -9  221.29   15.84
  -1  -1  -9  244.44   14.21
   1   1   9  250.08   17.77
   1   1   9  253.01   14.09
  -2  -1  -9  173.06   19.58
  -2  -1  -9  151.33   13.79
  -2  -1  -9  169.31   12.23
  -2  -1  -9  146.25   13.36
  -3  -1  -9    7.46    6.59
  -3  -1  -9   13.90    7.78
  -3  -1  -9   28.39   13.02
  -3  -1  -9   27.84   10.03
   3   1   9   21.45    9.26
  -4  -1  -9  467.17   18.48
  -4  -1  -9  442.64   26.45
  -4  -1  -9  464.14   32.74
  -4  -1  -9  476.40   19.69
   4   1   9  462.38   23.74
  -5  -1  -9  197.23   29.39
  -5  -1  -9  195.85   22.06
  -5  -1  -9  222.34   15.61
  -5  -1  -9  196.40   16.02
   5   1   9  214.22   24.16
   5  -2  -9   33.48   14.85
   5  -2  -9   13.19   23.16
  -5   2   9  -19.70   20.34
  -5   2   9   13.44   19.41
   4  -2  -9  109.84   13.95
   4  -2  -9  173.18   37.63
  -4   2   9  108.38   19.85
  -4   2   9  133.54   18.97
   3  -2  -9    2.85    7.49
   3  -2  -9    1.90   14.05
  -3   2   9   -5.79   10.14
  -3   2   9   13.56   11.19
   2  -2  -9 1090.29   29.58
   2  -2  -9 1132.79   38.54
   2  -2  -9 1058.40   24.30
  -2   2   9 1111.63   32.69
  -2   2   9 1062.48   33.90
  -2   2   9 1077.25   22.70
   1  -2  -9   68.53    9.61
   1  -2  -9   55.82   12.80
   1  -2  -9   48.59    8.75
  -1   2   9   75.46   10.79
  -1   2   9   60.18   11.81
  -1   2   9   67.69    9.30
   0  -2  -9  412.54   17.74
   0  -2  -9  410.83   19.99
   0  -2  -9  385.72   21.13
   0  -2  -9  399.44   17.35
   0   2   9  409.82   18.51
  -1  -2  -9  120.99   14.80
  -1  -2  -9  110.20   12.33
  -1  -2  -9  156.08   14.62
  -1  -2  -9  137.92   11.82
   1   2   9  124.76   15.10
   1   2   9  135.73   12.79
  -2  -2  -9   81.13   10.61
  -2  -2  -9   75.03   14.20
  -2  -2  -9   95.31   11.85
  -2  -2  -9   91.65   10.17
   2   2   9   63.72   13.26
   2   2   9   77.08    9.95
  -3  -2  -9   53.62    9.34
  -3  -2  -9   15.93    9.14
  -3  -2  -9   31.20   12.97
  -3  -2  -9   48.16    7.42
   3   2   9   15.98   12.52
   3   2   9   60.80   10.64
  -4  -2  -9   -8.02    5.61
  -4  -2  -9    1.05   11.14
  -4  -2  -9   -0.12   16.54
  -4  -2  -9    5.25    7.46
   4   2   9   17.93   10.50
   4   2   9   -9.88   14.32
  -5  -2  -9  131.57   21.73
  -5  -2  -9  108.86   26.64
   5   2   9  113.25   22.64
   5   2   9   83.03   16.47
   4  -3  -9  120.17   23.12
   4  -3  -9  120.10   16.29
  -4   3   9  119.75   21.52
  -4   3   9  144.32   22.59
   3  -3  -9   26.15   10.84
   3  -3  -9   23.12   16.53
  -3   3   9   19.69   12.81
  -3   3   9   44.28   14.32
   2  -3  -9   13.00   12.90
   2  -3  -9   25.16    8.64
   2  -3  -9   15.51    6.11
  -2   3   9   21.04   11.00
  -2   3   9   15.02   10.05
  -2   3   9   18.83    5.86
   1  -3  -9  837.27   25.80
   1  -3  -9  898.63   33.82
   1  -3  -9  835.93   26.35
  -1   3   9  843.71   24.75
  -1   3   9  885.67   28.47
  -1   3   9  893.74   30.71
   0  -3  -9  206.31   18.80
   0  -3  -9  222.21   17.23
   0  -3  -9  167.15   14.58
   0   3   9  192.70   16.14
   0   3   9  215.04   16.00
   0   3   9  199.33   15.22
  -1  -3  -9  486.35   21.00
  -1  -3  -9  489.84   25.30
  -1  -3  -9  478.44   22.47
  -1  -3  -9  503.86   18.57
   1   3   9  471.85   20.29
   1   3   9  491.46   23.91
  -2  -3  -9  220.15   16.41
  -2  -3  -9  299.51   23.78
  -2  -3  -9  266.66   16.89
  -2  -3  -9  235.15   13.61
   2   3   9  248.76   21.61
   2   3   9  249.61   17.76
  -3  -3  -9   17.63    5.89
  -3  -3  -9    1.85   13.51
  -3  -3  -9    7.00    9.76
  -3  -3  -9    9.44    8.40
   3   3   9   -2.43   12.09
   3   3   9    7.80    9.16
  -4  -3  -9  248.84   12.63
  -4  -3  -9  216.52   23.21
  -4  -3  -9  211.84    9.73
  -4  -3  -9  244.46   28.32
   4   3   9  283.00   28.35
   4   3   9  201.48   20.62
  -5  -3  -9    6.86   22.80
  -5  -3  -9   20.76   15.96
   5   3   9   10.93   19.96
   5   3   9   26.19   16.45
   4  -4  -9   48.11   22.81
   4  -4  -9  100.16   16.44
  -4   4   9   69.86   22.30
  -4   4   9  126.15   23.02
   3  -4  -9   77.99   13.42
  -3   4   9   91.85   18.19
  -3   4   9   37.93   18.23
   2  -4  -9   83.22   18.91
   2  -4  -9   71.76   11.80
  -2   4   9  104.08   16.65
  -2   4   9   93.90   15.70
  -2   4   9   83.51    9.01
  -2   4   9   71.13    8.51
   1  -4  -9   23.32   13.46
   1  -4  -9   26.93    8.83
   1  -4  -9   22.19    8.61
  -1   4   9   14.85   10.58
  -1   4   9   24.29    9.88
  -1   4   9   16.17    8.17
   0  -4  -9  472.24   26.78
   0  -4  -9  442.68   23.52
   0  -4  -9  453.80   21.06
   0   4   9  434.58   21.79
   0   4   9  457.52   23.30
  -1  -4  -9  223.84   19.97
  -1  -4  -9  197.67   21.16
  -1  -4  -9  217.25   16.64
   1   4   9  225.60   16.58
   1   4   9  205.29   17.23
   1   4   9  206.13   22.40
  -2  -4  -9  160.55   19.42
  -2  -4  -9  182.94   12.82
  -2  -4  -9  154.89   17.10
  -2  -4  -9  168.01   17.25
   2   4   9  184.93   21.92
   2   4   9  148.18   16.66
  -3  -4  -9   96.70    9.96
  -3  -4  -9  108.53   11.76
  -3  -4  -9  117.51   16.32
  -3  -4  -9  115.09   21.60
   3   4   9   97.78   12.52
   3   4   9   70.66   16.44
  -4  -4  -9   70.28   16.02
  -4  -4  -9   88.18   23.33
   4   4   9   38.51   20.28
   4   4   9   63.58   14.34
  -5  -4  -9   88.62   21.02
   5   4   9   41.94   24.14
   3  -5  -9   27.85   13.60
   3  -5  -9   38.90   23.42
  -3   5   9   45.15   19.42
  -3   5   9   -1.00   18.61
   2  -5  -9   95.18   20.08
  -2   5   9   63.10   17.06
  -2   5   9   93.44   10.80
  -2   5   9   47.62   27.63
  -2   5   9   71.00   10.40
   1  -5  -9  203.03   19.51
   1  -5  -9  236.66   24.92
  -1   5   9  189.78   18.93
  -1   5   9  248.84   21.88
  -1   5   9  261.25   24.10
  -1   5   9  216.05   17.41
   0  -5  -9   16.63   11.52
   0  -5  -9   20.77    9.57
   0  -5  -9   19.83   14.97
   0   5   9   35.04   11.98
   0   5   9    6.06   11.03
   0   5   9    9.07   10.76
  -1  -5  -9  127.44   28.89
  -1  -5  -9  117.16   15.13
  -1  -5  -9  136.04   17.79
   1   5   9   91.95   13.40
   1   5   9   99.19   15.84
   1   5   9  105.84   14.79
  -2  -5  -9   55.08   12.17
  -2  -5  -9   50.37   17.17
  -2  -5  -9   40.74   12.87
   2   5   9   20.77   14.72
   2   5   9   54.08   13.02
  -3  -5  -9   70.52   11.35
  -3  -5  -9   47.40   12.79
  -3  -5  -9   69.16   20.43
  -3  -5  -9   66.52    7.81
   3   5   9   18.13   16.88
  -4  -5  -9  165.84   23.60
  -4  -5  -9  132.78   27.16
   4   5   9  112.43   18.79
   4   5   9  128.50   25.13
   2  -6  -9   65.73   15.75
   2  -6  -9   66.39   24.83
  -2   6   9   55.13   13.35
  -2   6   9   51.35   11.85
  -2   6   9   65.73   19.77
  -2   6   9   47.74   19.84
   1  -6  -9  120.33   23.02
   1  -6  -9   75.82   14.92
  -1   6   9   87.68   18.60
  -1   6   9  101.05   19.63
  -1   6   9   97.39   16.08
  -1   6   9   84.34   17.82
   0  -6  -9   66.15   18.27
   0  -6  -9   56.39   13.53
   0   6   9   67.59   21.27
   0   6   9   45.84   15.16
   0   6   9   56.54   15.41
   0   6   9   64.14   13.79
  -1  -6  -9   82.94   18.57
  -1  -6  -9  107.65   19.17
  -1  -6  -9   73.43   14.00
   1   6   9  108.91   18.89
   1   6   9   38.00   20.71
   1   6   9   70.67   15.49
  -2  -6  -9   22.69   14.55
  -2  -6  -9   20.64   12.97
  -2  -6  -9   -5.39   16.81
   2   6   9   18.98   19.48
   2   6   9   24.13   10.84
   2   6   9   39.81   13.27
  -3  -6  -9  166.46   25.96
  -3  -6  -9  178.74   19.25
  -3  -6  -9  191.92   13.73
  -3  -6  -9  161.35   19.55
   3   6   9  166.69   21.03
   3   6   9  198.99   28.97
   0  -7  -9  116.73   18.12
   0  -7  -9  150.13   24.81
   0   7   9  127.68   20.68
   0   7   9  125.72   22.38
   0   7   9   89.65   18.33
   0   7   9  156.50   23.03
  -1  -7  -9   47.42   16.15
  -1  -7  -9   24.33   18.31
   1   7   9   58.17   18.73
   1   7   9   96.18   17.69
   1   7   9   63.08   21.09
   1   7   9  102.25   19.28
   1   6 -10  -25.26   20.27
   1   6 -10  -11.01   19.26
  -1  -6  10  -10.72   16.87
  -1  -6  10   -0.78   17.66
   0   6 -10   43.65   22.51
   0   6 -10   68.66   20.16
   0  -6  10   40.66   16.54
   0  -6  10   32.33   17.57
  -1   6 -10   97.80   23.48
  -1   6 -10   55.11   25.33
   1  -6  10  102.02   20.45
   1  -6  10   72.81   22.14
   3   5 -10  129.49   19.96
   3   5 -10  108.32   21.20
   3   5 -10   77.03   24.35
  -3  -5  10  152.46   20.58
   2   5 -10    9.25   14.40
   2   5 -10   -9.54   16.37
   2   5 -10   -4.44   18.84
  -2  -5  10   15.11   14.62
   1   5 -10   45.20   17.20
   1   5 -10   45.27   15.98
  -1  -5  10   36.39   16.14
  -1  -5  10    2.28   14.41
   0   5 -10  -11.34   14.33
   0   5 -10   18.90   16.92
   0  -5  10   39.76   15.74
   0  -5  10   47.18   13.87
  -1   5 -10   76.14   24.10
  -1   5 -10   65.95   18.39
   1  -5  10   65.90   16.84
   1  -5  10  138.53   20.60
  -2   5 -10   10.09   19.60
  -2   5 -10  -14.28   17.09
   2  -5  10   18.39   16.14
   2  -5  10   -2.35   15.88
   2  -5  10   -2.27    7.21
   2  -5  10  -12.09    6.40
  -3   5 -10   29.26   20.01
   3  -5  10   52.72   19.78
   3  -5  10   12.75   11.70
   3  -5  10   39.53   20.31
   3   4 -10   12.41   14.37
   3   4 -10   11.67   14.21
   3   4 -10   32.31   20.23
   3   4 -10   33.38    7.68
   3   4 -10   28.86    4.94
  -3  -4  10    8.24   13.54
   2   4 -10  534.77   32.92
   2   4 -10  483.65   28.72
   2   4 -10  536.17   29.94
  -2  -4  10  486.69   26.75
   1   4 -10   12.52   13.74
   1   4 -10   17.65   11.41
  -1  -4  10   14.61   12.78
  -1  -4  10   35.53   11.15
   0   4 -10  460.56   30.03
   0   4 -10  464.28   26.53
   0  -4  10  426.84   24.16
   0  -4  10  511.85   27.12
  -1   4 -10  111.71   17.59
  -1   4 -10  104.33   20.20
   1  -4  10   62.49   14.93
   1  -4  10   89.20    9.22
   1  -4  10   90.51    8.86
   1  -4  10  106.01   16.31
  -2   4 -10   73.49   19.17
  -2   4 -10   84.63   16.28
   2  -4  10   56.45   15.40
   2  -4  10   75.25    8.78
   2  -4  10   76.36   15.50
   2  -4  10   76.47    9.99
  -3   4 -10    1.66   18.73
  -3   4 -10    7.02   16.17
   3  -4  10    8.79   14.29
   3  -4  10   33.02    9.85
   3  -4  10   -1.64   16.28
   3  -4  10   24.63   12.09
   4   3 -10   26.19   14.49
   4   3 -10   44.79    9.69
   4   3 -10   31.20   13.71
   4   3 -10    0.47   14.49
   4   3 -10   -4.74   18.45
   4   3 -10   46.71   14.17
   3   3 -10   34.64    6.79
   3   3 -10   34.53   17.94
   3   3 -10   35.40   13.98
   3   3 -10   39.79   13.47
  -3  -3  10   23.91   11.47
   2   3 -10  133.86    8.59
   2   3 -10  105.25   18.83
   2   3 -10  105.22   15.52
   2   3 -10  136.69   16.53
  -2  -3  10  125.13   11.65
  -2  -3  10  103.07   17.75
   1   3 -10  343.19   25.27
   1   3 -10  349.41   22.70
   1   3 -10  350.05   11.67
   1   3 -10  376.13   25.21
  -1  -3  10  359.77   21.08
  -1  -3  10  341.66   12.87
   0   3 -10   30.38   13.35
   0   3 -10   24.86   11.75
   0   3 -10   40.97    5.93
   0  -3  10   43.75   10.83
   0  -3  10   37.32    5.94
   0  -3  10   55.81   11.32
  -1   3 -10  215.49   22.81
  -1   3 -10  242.81   20.45
  -1   3 -10  212.01   13.12
   1  -3  10  217.81   11.64
   1  -3  10  224.62   19.10
   1  -3  10  211.04   20.18
  -2   3 -10   98.59   18.23
  -2   3 -10  100.38   11.80
  -2   3 -10  110.46   15.88
   2  -3  10   87.99    9.43
   2  -3  10   97.29   15.19
   2  -3  10   71.02   13.53
  -3   3 -10   18.11   13.79
  -3   3 -10   40.09   19.38
   3  -3  10   49.08   14.39
   3  -3  10   41.30   12.90
  -4   3 -10  117.81   19.29
  -4   3 -10  115.30   26.11
   4  -3  10   89.59   17.92
   4  -3  10  132.44   16.35
   4  -3  10  124.86   20.02
   4  -3  10  144.03   19.11
   4   2 -10   46.27   19.58
   4   2 -10   47.86   12.21
   4   2 -10   30.12   11.11
   4   2 -10   55.24   15.12
  -4  -2  10   35.74   14.57
   3   2 -10   67.45    8.63
   3   2 -10   36.66   13.62
   3   2 -10   62.67   13.60
   3   2 -10   59.46   16.23
  -3  -2  10   55.03   11.27
  -3  -2  10   64.59   10.87
   2   2 -10   14.47    5.61
   2   2 -10   18.04   10.45
   2   2 -10  -10.87   12.26
   2   2 -10   20.99   10.18
  -2  -2  10   19.20    8.83
  -2  -2  10    5.27    7.34
   1   2 -10   -0.60   11.48
   1   2 -10    0.75    4.66
   1   2 -10    3.03    8.78
  -1  -2  10    7.16    6.00
  -1  -2  10    3.82    8.43
   0   2 -10  292.62   21.69
   0   2 -10  310.44   13.31
   0   2 -10  288.39   21.58
   0   2 -10  279.26   19.30
   0  -2  10  289.04   21.01
   0  -2  10  300.25   13.11
  -1   2 -10   28.55   10.21
  -1   2 -10   35.21   11.61
  -1   2 -10   20.22    6.50
   1  -2  10   23.30    9.94
   1  -2  10   25.68    6.52
   1  -2  10   27.88    9.52
  -2   2 -10   52.60    9.59
  -2   2 -10   42.15   11.64
  -2   2 -10   41.74   14.31
   2  -2  10   41.19    8.27
   2  -2  10   42.64   11.71
   2  -2  10   32.10    9.65
  -3   2 -10   44.33   12.61
  -3   2 -10   40.76   15.47
  -3   2 -10  103.79   20.30
   3  -2  10   75.59   13.10
   3  -2  10   62.08   14.27
   3  -2  10   53.78   10.87
  -4   2 -10   22.29   13.59
  -4   2 -10   22.65   13.63
  -4   2 -10   51.20   20.22
   4  -2  10    8.13   18.76
   4  -2  10   23.64   11.74
   4  -2  10   27.22   12.55
   4   1 -10  106.67   24.55
   4   1 -10  100.13   12.97
   4   1 -10  118.80   13.20
   4   1 -10  101.48   16.88
   4   1 -10  104.13   12.10
  -4  -1  10  129.68   18.06
   3   1 -10   27.21   12.48
   3   1 -10   27.66    9.32
   3   1 -10   35.12   14.55
   3   1 -10   40.37    8.40
  -3  -1  10   22.02   10.64
  -3  -1  10   21.66    7.50
   2   1 -10   80.26   12.08
   2   1 -10   57.90   15.59
   2   1 -10   73.01    8.59
   2   1 -10   60.50   10.95
  -2  -1  10   72.34    9.50
  -2  -1  10   57.59    9.80
   1   1 -10   91.78    9.72
   1   1 -10   73.48   12.54
   1   1 -10   85.82   14.60
   1   1 -10   84.01   12.59
  -1  -1  10   74.66    9.36
  -1  -1  10  116.40   13.02
   0   1 -10   29.60    9.96
   0   1 -10   30.36    6.48
   0   1 -10   28.97   11.19
   0   1 -10   40.16   10.98
   0  -1  10   16.55    6.36
   0  -1  10   22.99    8.39
  -1   1 -10   69.91   11.06
  -1   1 -10   73.64    9.20
  -1   1 -10   83.63   14.59
  -1   1 -10   88.97   13.32
   1  -1  10   81.93    9.13
   1  -1  10   49.83   11.88
  -2   1 -10  164.45   14.91
  -2   1 -10  177.83   21.57
   2  -1  10  162.18   17.40
   2  -1  10  170.45   13.81
   2  -1  10  171.70   15.79
  -3   1 -10   48.71   16.69
  -3   1 -10   38.20   11.03
   3  -1  10   30.37    9.71
   3  -1  10   39.42   10.52
   3  -1  10   46.31   15.30
  -4   1 -10  170.01   19.92
  -4   1 -10  143.52   17.96
   4  -1  10  159.77   16.04
   4  -1  10  162.60   16.82
   4  -1  10  151.30   20.42
  -5   1 -10   15.68   14.33
  -5   1 -10   50.22   18.13
  -5   1 -10  -36.93   22.27
   5  -1  10   -8.29   12.21
   5  -1  10  -14.35   14.92
   5  -1  10   32.31   20.86
   4   0 -10  103.00   13.89
   4   0 -10   91.41   22.72
   4   0 -10  102.22   15.77
  -4   0  10   78.27   16.96
   3   0 -10   52.11    8.51
   3   0 -10   60.14   13.16
   3   0 -10   71.38   15.87
   3   0 -10   42.38    8.86
  -3   0  10   51.31   12.69
  -3   0  10   47.70    6.70
   2   0 -10  228.05   15.96
   2   0 -10  222.50   23.44
   2   0 -10  251.05   18.64
  -2   0  10  249.90   17.41
  -2   0  10  243.01   13.52
   1   0 -10   62.55   11.22
   1   0 -10   54.31   10.10
   1   0 -10   58.85   13.77
   1   0 -10   70.43    9.13
  -1   0  10   51.86    9.35
  -1   0  10   54.54    8.40
   0   0 -10   75.55    9.26
   0   0 -10   71.75   12.81
   0   0 -10   73.66   11.20
   0   0 -10   74.67   12.98
   0   0  10   62.81   10.62
   0   0  10   85.38   10.22
  -1   0 -10   45.92   11.80
  -1   0 -10   45.17    8.10
  -1   0 -10   49.34    9.49
   1   0  10   45.14    8.38
   1   0  10   54.62   11.87
  -2   0 -10  300.39   19.12
  -2   0 -10  307.62   18.18
  -2   0 -10  320.52   17.67
  -2   0 -10  320.24   24.01
   2   0  10  299.16   17.52
   2   0  10  306.95   21.49
  -3   0 -10  851.21   37.89
  -3   0 -10  879.62   28.71
  -3   0 -10  865.22   28.60
  -3   0 -10  895.98   31.16
   3   0  10  834.75   35.67
   3   0  10  906.57   28.65
  -4   0 -10  217.54   25.89
  -4   0 -10  248.59   19.98
  -4   0 -10  251.53   19.65
  -4   0 -10  229.63   25.53
   4   0  10  281.20   21.23
   4   0  10  226.72   24.38
  -5   0 -10  303.84   29.72
  -5   0 -10  238.71   22.61
  -5   0 -10  285.47   22.74
  -5   0 -10  338.38   40.74
   5   0  10  278.69   29.54
   5   0  10  283.92   26.61
   4  -1 -10   19.05   11.24
   4  -1 -10   52.52   20.19
  -4   1  10   11.48   15.73
   3  -1 -10  210.75   16.42
   3  -1 -10  257.03   25.32
  -3   1  10  242.14   21.42
   2  -1 -10   31.97   13.45
   2  -1 -10   21.14    9.70
   2  -1 -10   14.69    8.01
  -2   1  10   18.19    6.00
  -2   1  10   33.32   10.00
   1  -1 -10   24.56   12.03
   1  -1 -10   12.81    6.92
   1  -1 -10    9.95    8.15
   1  -1 -10   11.43    7.96
  -1   1  10   -3.21   11.69
  -1   1  10   18.47    6.77
   0  -1 -10  161.10   12.42
   0  -1 -10  139.68   15.81
   0  -1 -10  176.68   17.88
   0   1  10  141.07   13.69
   0   1  10  191.16   15.97
  -1  -1 -10   69.98   16.58
  -1  -1 -10   65.65    9.27
  -1  -1 -10   72.49   10.22
  -1  -1 -10   68.16   12.25
   1   1  10   76.81   11.18
   1   1  10   68.45   12.11
  -2  -1 -10   85.45   11.61
  -2  -1 -10  102.38   11.29
  -2  -1 -10  111.68   17.28
  -2  -1 -10   95.75   12.89
   2   1  10   77.97   13.56
   2   1  10   94.93   11.71
  -3  -1 -10  223.22   19.98
  -3  -1 -10  227.28   26.14
  -3  -1 -10  236.53   16.13
  -3  -1 -10  219.61   17.43
   3   1  10  214.25   17.93
   3   1  10  218.04   22.74
  -4  -1 -10  259.95   24.32
  -4  -1 -10  194.48   16.79
  -4  -1 -10  207.88   25.46
  -4  -1 -10  252.37   18.34
   4   1  10  245.86   20.63
   4   1  10  205.59   22.20
  -5  -1 -10  134.24   21.30
  -5  -1 -10  104.92   26.81
  -5  -1 -10  118.97   13.68
   5   1  10   54.21   23.46
   5   1  10  138.79   19.90
   4  -2 -10   86.33   14.66
   4  -2 -10   84.05   23.99
  -4   2  10   51.31   18.83
   3  -2 -10   72.53   19.05
   3  -2 -10   55.85   11.25
  -3   2  10   51.41   15.52
  -3   2  10   56.03   14.19
   2  -2 -10  335.11   27.00
   2  -2 -10  308.91   15.07
  -2   2  10  273.28   21.02
  -2   2  10  303.56   22.55
  -2   2  10  295.13   13.08
   1  -2 -10    4.23    6.80
   1  -2 -10   -6.08    7.50
   1  -2 -10   -6.19    9.90
  -1   2  10    0.56    7.18
  -1   2  10   -3.35    8.79
   0  -2 -10  645.14   27.01
   0  -2 -10  672.11   23.83
   0  -2 -10  665.31   28.02
   0  -2 -10  718.52   27.60
   0   2  10  701.47   24.38
   0   2  10  713.94   26.19
  -1  -2 -10   66.54   14.82
  -1  -2 -10   63.28   10.34
  -1  -2 -10   71.84   12.46
  -1  -2 -10   74.34   10.10
   1   2  10   78.18   12.72
   1   2  10   74.32   11.00
  -2  -2 -10   75.28   12.55
  -2  -2 -10   87.84   10.76
  -2  -2 -10   83.31   11.63
  -2  -2 -10   44.37   14.69
   2   2  10   89.48   14.47
   2   2  10   96.54   12.82
  -3  -2 -10  384.23   17.24
  -3  -2 -10  336.33   29.89
  -3  -2 -10  411.30   23.90
  -3  -2 -10  370.90   20.54
   3   2  10  387.14   27.35
   3   2  10  403.88   22.61
  -4  -2 -10  130.19   13.24
  -4  -2 -10  136.21   18.70
  -4  -2 -10  109.35   39.27
  -4  -2 -10  127.41   12.91
   4   2  10  139.39   15.95
   4   2  10  147.47   21.84
  -5  -2 -10  116.82   20.33
  -5  -2 -10   75.61    8.21
  -5  -2 -10   61.63    9.85
  -5  -2 -10   42.63   26.23
   5   2  10   19.76   21.58
   5   2  10   72.86   17.68
   4  -3 -10   36.33   22.52
   4  -3 -10   37.29   14.25
  -4   3  10   85.43   23.12
  -4   3  10   60.92   19.81
   3  -3 -10  205.98   20.63
   3  -3 -10  224.37   30.67
  -3   3  10  217.08   25.18
  -3   3  10  247.63   25.18
   2  -3 -10  183.27   23.47
   2  -3 -10  166.06   12.88
  -2   3  10  184.41   20.43
  -2   3  10  166.38   11.68
  -2   3  10  179.07   20.24
   1  -3 -10  472.29   28.59
   1  -3 -10  451.79   20.55
   1  -3 -10  435.35   20.77
  -1   3  10  431.43   24.30
  -1   3  10  437.97   22.12
   0  -3 -10    3.52   11.14
   0  -3 -10   -1.76    9.38
   0  -3 -10    8.38    7.72
   0   3  10    3.82    9.09
   0   3  10   -0.22    7.93
   0   3  10   25.95    9.66
  -1  -3 -10  173.92   14.88
  -1  -3 -10  214.32   20.31
  -1  -3 -10  234.94   16.60
  -1  -3 -10  212.70   21.76
   1   3  10  196.45   16.61
   1   3  10  221.37   20.20
  -2  -3 -10   12.47    9.02
  -2  -3 -10   13.95   10.91
  -2  -3 -10   -9.22   13.03
  -2  -3 -10   10.99    6.99
   2   3  10   15.51   12.38
   2   3  10   -1.36    8.36
  -3  -3 -10   -4.66    6.76
  -3  -3 -10    7.18    9.42
  -3  -3 -10   -0.78   11.25
  -3  -3 -10   -4.86   15.57
   3   3  10    8.10   10.78
   3   3  10   28.22   14.96
  -4  -3 -10   40.61   15.06
  -4  -3 -10    6.82   21.79
  -4  -3 -10   31.35    7.26
  -4  -3 -10   39.01    9.94
   4   3  10   47.45   15.06
   4   3  10   45.33   19.92
   3  -4 -10  124.27   25.76
   3  -4 -10  143.96   17.59
  -3   4  10  184.00   23.46
  -3   4  10  116.28   20.20
   2  -4 -10  213.13   25.52
  -2   4  10  235.11   14.75
  -2   4  10  252.57   24.98
  -2   4  10  276.52   15.71
  -2   4  10  247.32   25.52
   1  -4 -10  156.88   20.74
   1  -4 -10  161.91   16.40
   1  -4 -10  169.22   17.16
  -1   4  10  187.43   17.79
  -1   4  10  157.90   17.36
  -1   4  10  127.06   17.22
   0  -4 -10  395.41   28.91
   0  -4 -10  398.10   21.59
   0  -4 -10  487.79   29.62
   0   4  10  398.86   23.13
   0   4  10  411.46   23.40
   0   4  10  375.37   22.99
  -1  -4 -10  -10.67   11.92
  -1  -4 -10  -12.48   12.65
  -1  -4 -10   13.44    9.81
   1   4  10   -6.32   10.12
   1   4  10    5.50   11.77
  -2  -4 -10  143.23   21.04
  -2  -4 -10  166.24   14.55
  -2  -4 -10  207.16   21.02
  -2  -4 -10  143.94   17.27
   2   4  10  148.95   16.07
   2   4  10  160.11   21.75
  -3  -4 -10   79.30   13.42
  -3  -4 -10   84.74   14.98
  -3  -4 -10   91.71    9.92
  -3  -4 -10   39.55   18.64
   3   4  10   94.80   19.13
  -4  -4 -10  -27.55   23.17
  -4  -4 -10   -8.28    7.26
  -4  -4 -10    1.27    5.29
  -4  -4 -10    8.57   15.87
   4   4  10   28.91   15.15
   4   4  10  -11.68   19.93
   2  -5 -10   10.65   13.24
   2  -5 -10   49.27   22.42
  -2   5  10    8.31    9.17
  -2   5  10   -3.39   16.05
  -2   5  10   -7.79   15.79
  -2   5  10    2.67    9.50
   1  -5 -10   81.57   15.36
   1  -5 -10   62.45   19.04
  -1   5  10  108.65   14.15
  -1   5  10   51.83   16.26
  -1   5  10   44.30   16.63
   0  -5 -10   51.61   11.63
   0  -5 -10   47.57   14.40
   0  -5 -10   69.62   17.95
   0   5  10   68.97   15.89
   0   5  10   68.03   15.09
   0   5  10   77.88   15.74
  -1  -5 -10   71.12   16.50
  -1  -5 -10   89.30   17.73
  -1  -5 -10   39.97   12.42
   1   5  10   63.08   13.74
   1   5  10   80.35   15.50
   1   5  10   75.40   16.12
  -2  -5 -10   37.44   14.89
  -2  -5 -10   20.77   16.96
  -2  -5 -10   34.52    9.44
  -2  -5 -10   48.85   14.44
   2   5  10   24.41   16.86
   2   5  10   16.82   13.84
  -3  -5 -10   55.19   15.56
  -3  -5 -10   38.15   13.33
  -3  -5 -10   37.18   20.17
  -3  -5 -10   52.21    9.01
   3   5  10   29.40   15.86
   3   5  10   40.41   20.21
   1  -6 -10   26.95   22.58
   1  -6 -10   18.85   14.20
  -1   6  10   22.52   18.78
  -1   6  10   -3.22   20.65
  -1   6  10    5.70   13.61
  -1   6  10   31.59   16.15
   0  -6 -10   -6.06   12.43
   0  -6 -10   26.59   21.42
   0   6  10   10.47   15.48
   0   6  10    3.95   15.70
   0   6  10   33.65   16.38
  -1  -6 -10   18.88   17.47
  -1  -6 -10   22.14   13.74
  -1  -6 -10   13.68   18.33
   1   6  10   36.08   15.71
   1   6  10   12.93   16.74
   1   6  10    6.07   13.21
  -2  -6 -10   57.72   21.24
  -2  -6 -10  129.95   18.88
  -2  -6 -10  168.35   26.64
   2   6  10  166.57   25.27
   2   6  10  104.44   18.85
   2   5 -11  -19.73   35.51
   2   5 -11   22.81   18.80
  -2  -5  11   23.31   16.66
   1   5 -11   79.72   20.90
   1   5 -11   63.93   21.31
  -1  -5  11   76.60   17.54
  -1  -5  11   60.99   17.40
   0   5 -11   97.17   20.74
   0   5 -11  118.57   25.15
   0  -5  11  131.60   19.97
   0  -5  11  114.14   21.05
  -1   5 -11   12.29   24.21
  -1   5 -11    1.43   18.15
   1  -5  11   14.54   17.41
   1  -5  11   61.92   18.75
  -2   5 -11   15.20   21.07
   2  -5  11   44.72   20.85
   2  -5  11   70.69   22.41
   3   4 -11   -9.82   21.43
   3   4 -11   18.22    5.45
   3   4 -11   21.47   16.90
   3   4 -11  -11.53   16.25
   3   4 -11   28.30    8.08
  -3  -4  11   14.23   14.56
   2   4 -11  -16.54   18.90
   2   4 -11   43.80   16.84
   2   4 -11   56.31   16.18
  -2  -4  11   43.75   15.66
   1   4 -11   39.51   15.14
   1   4 -11   49.15   18.65
  -1  -4  11   49.80   14.99
   0   4 -11  135.04   22.71
   0   4 -11  123.99   18.71
   0  -4  11  123.08   23.24
   0  -4  11  137.36   18.11
  -1   4 -11  119.40   18.99
   1  -4  11   87.28   16.85
   1  -4  11  134.23   29.01
   1  -4  11  106.27    9.16
   1  -4  11  115.91   10.45
  -2   4 -11   55.96   20.88
  -2   4 -11   50.88   17.49
   2  -4  11   55.74   10.57
   2  -4  11   32.49   15.52
   2  -4  11   40.51   15.99
  -3   4 -11   39.80   18.77
  -3   4 -11   42.78   36.30
   3  -4  11   58.64   17.29
   3  -4  11   47.97   19.71
   3  -4  11   49.42   14.39
   3   3 -11  100.16   22.88
   3   3 -11   91.92    9.52
   3   3 -11   92.31   17.84
   3   3 -11   85.65   16.81
  -3  -3  11   76.23   14.29
   2   3 -11   32.39   30.28
   2   3 -11    4.52   13.44
   2   3 -11    2.42    5.42
   2   3 -11   -5.80   11.57
  -2  -3  11   20.18   11.92
  -2  -3  11   11.38    8.32
   1   3 -11  119.74   17.57
   1   3 -11  129.47   10.07
   1   3 -11  118.11   18.21
   1   3 -11  114.95   19.63
  -1  -3  11  123.58   11.37
  -1  -3  11  160.68   16.91
   0   3 -11   40.91    7.18
   0   3 -11   48.01   14.38
   0  -3  11   43.53   12.88
   0  -3  11   49.14    7.65
  -1   3 -11   11.86   14.16
  -1   3 -11   43.01   13.06
  -1   3 -11   27.42    8.03
   1  -3  11   29.42    7.61
   1  -3  11   59.98   14.74
   1  -3  11   17.22   11.94
  -2   3 -11   35.54   15.21
  -2   3 -11   21.20   16.15
  -2   3 -11   -6.90    8.66
   2  -3  11   12.60    8.09
   2  -3  11   20.78   11.94
   2  -3  11   16.43   14.31
  -3   3 -11   20.27   12.47
  -3   3 -11   19.85   15.82
  -3   3 -11   20.30   19.97
   3  -3  11   54.08   16.15
   3  -3  11   16.41   14.54
   3  -3  11   24.78   10.46
   4   2 -11   71.21   13.59
   4   2 -11   64.45   12.65
   4   2 -11   40.49   17.59
   4   2 -11   57.79   14.38
   4   2 -11   38.33   24.46
  -4  -2  11   62.54   17.38
   3   2 -11   87.25   21.73
   3   2 -11   75.21   16.32
   3   2 -11  116.83   15.66
   3   2 -11  132.58   13.94
  -3  -2  11  143.47   14.78
  -3  -2  11   87.17   14.45
   2   2 -11  121.21   17.65
   2   2 -11  100.15   11.44
   2   2 -11   97.14   19.61
  -2  -2  11  123.46   12.60
  -2  -2  11  114.21   14.03
   1   2 -11   60.48   13.36
   1   2 -11   61.58    8.22
   1   2 -11   64.62   14.24
   1   2 -11   75.84   16.82
  -1  -2  11   59.64   11.96
  -1  -2  11   66.63    8.90
   0   2 -11   81.52   13.52
   0   2 -11   81.22   15.22
   0   2 -11   74.55    8.60
   0   2 -11   74.33   15.13
   0  -2  11   77.64   15.60
   0  -2  11   78.50    9.42
  -1   2 -11   23.81   14.60
  -1   2 -11   68.48    9.64
  -1   2 -11   44.80   12.82
   1  -2  11   72.95   12.80
   1  -2  11   51.16    8.58
  -2   2 -11   33.18   10.90
  -2   2 -11   16.04   14.95
  -2   2 -11   51.11   14.03
   2  -2  11   21.29    8.00
   2  -2  11   34.21   12.75
   2  -2  11   46.98   12.32
  -3   2 -11    8.16   19.09
  -3   2 -11   37.59   12.90
  -3   2 -11   11.36   12.98
   3  -2  11   54.12   14.84
   3  -2  11   48.12   13.69
   3  -2  11   39.73   11.37
  -4   2 -11   -5.62   14.76
  -4   2 -11   12.56   16.11
  -4   2 -11   36.48   24.12
   4  -2  11   11.11   17.55
   4  -2  11    4.93   12.92
   4  -2  11   14.76   13.84
   4   1 -11  113.57   19.29
   4   1 -11  141.89   13.62
   4   1 -11  142.84   14.67
   4   1 -11  123.75   12.39
   4   1 -11  123.91   26.30
  -4  -1  11  136.49   19.45
   3   1 -11   -2.97    7.70
   3   1 -11   17.85   10.31
   3   1 -11  -14.20   21.06
   3   1 -11    3.57   12.65
  -3  -1  11   16.13    7.94
  -3  -1  11   -3.21   11.45
   2   1 -11   47.82   15.85
   2   1 -11   81.30    9.66
   2   1 -11   70.13   14.29
   2   1 -11   72.43   12.82
  -2  -1  11   61.50   10.03
  -2  -1  11   72.43   11.74
   1   1 -11   33.74   13.94
   1   1 -11   17.31   10.84
   1   1 -11   17.28   10.00
   1   1 -11   21.57    6.54
  -1  -1  11   19.46    8.47
  -1  -1  11   33.49   10.64
   0   1 -11   29.11   10.66
   0   1 -11   34.95   12.76
   0   1 -11   55.33   13.99
   0   1 -11   51.64    8.20
   0  -1  11   50.87    8.85
   0  -1  11   30.22    9.81
  -1   1 -11   19.29   11.76
  -1   1 -11    3.24   12.55
  -1   1 -11    3.95    7.61
  -1   1 -11   22.96    9.18
   1  -1  11   20.39    8.13
   1  -1  11   -3.57   10.27
  -2   1 -11   13.17   11.73
  -2   1 -11   23.75   14.96
  -2   1 -11   17.14   12.72
  -2   1 -11   20.24   10.58
   2  -1  11   46.32   12.87
   2  -1  11   25.20    8.62
  -3   1 -11   36.48   19.51
  -3   1 -11   50.16   12.94
  -3   1 -11   45.03   13.09
   3  -1  11   64.94   12.58
   3  -1  11   52.54   12.30
   3  -1  11   36.83   17.68
  -4   1 -11   99.40   27.95
  -4   1 -11  117.02   18.48
  -4   1 -11  116.58   17.94
   4  -1  11  118.98   15.67
   4  -1  11  126.78   17.12
   4  -1  11  178.21   23.49
   4   0 -11  134.16   26.30
   4   0 -11  160.27   16.67
   4   0 -11  168.26   20.96
  -4   0  11  165.90   21.93
   3   0 -11   96.22   15.88
   3   0 -11   95.56   11.23
   3   0 -11   93.58   11.96
  -3   0  11  105.57   16.93
  -3   0  11   92.76   10.71
   2   0 -11   29.84   11.94
   2   0 -11   16.97    8.05
   2   0 -11   15.12    9.34
   2   0 -11   38.15   15.90
  -2   0  11    6.87    9.92
  -2   0  11   21.94    7.81
   1   0 -11   97.63   10.70
   1   0 -11   79.69   13.68
   1   0 -11  119.69   17.70
   1   0 -11   76.21   12.67
  -1   0  11   92.70   11.99
  -1   0  11   76.68   13.15
   0   0 -11   18.06   13.04
   0   0 -11   24.32    7.78
   0   0 -11   12.51   11.53
   0   0 -11   36.98   10.35
   0   0  11    2.89    8.28
   0   0  11   19.74    9.85
  -1   0 -11   -6.26    7.21
  -1   0 -11    8.09   11.15
  -1   0 -11   -0.43   12.12
  -1   0 -11  -14.14    8.09
   1   0  11    1.08    7.90
   1   0  11    2.67    9.52
  -2   0 -11   30.50   11.01
  -2   0 -11   26.38   12.32
  -2   0 -11   42.84   10.94
  -2   0 -11   42.54   15.82
   2   0  11   30.75   11.91
   2   0  11   38.07    9.66
  -3   0 -11  243.35   21.19
  -3   0 -11  262.08   22.01
  -3   0 -11  197.53   25.08
   3   0  11  221.94   18.88
   3   0  11  226.79   26.66
  -4   0 -11   38.68   16.00
  -4   0 -11   20.22   14.02
  -4   0 -11   46.56   22.86
  -4   0 -11   38.42   12.64
   4   0  11   55.81   14.88
   4   0  11   49.50   17.47
   4  -1 -11    9.98   17.10
   4  -1 -11   44.49   13.51
   4  -1 -11   54.93   23.77
  -4   1  11   22.87   20.34
   3  -1 -11   57.68   15.84
   3  -1 -11  109.17   13.70
   3  -1 -11   85.07   21.14
   3  -1 -11   87.55   10.39
  -3   1  11   88.58    8.13
  -3   1  11   89.91   15.62
   2  -1 -11   15.36   11.35
   2  -1 -11   13.68    8.11
   2  -1 -11   33.39   15.24
   2  -1 -11   17.39    9.39
  -2   1  11   15.95    7.38
  -2   1  11   12.03    9.39
   1  -1 -11  124.96   14.87
   1  -1 -11  174.48   17.88
   1  -1 -11  125.29   13.43
   1  -1 -11  105.27   17.26
  -1   1  11   94.22   13.09
  -1   1  11  116.55   12.87
   0  -1 -11  166.34   14.53
   0  -1 -11  164.25   18.20
   0  -1 -11  175.73   19.37
   0  -1 -11  169.95   16.64
   0   1  11  180.93   16.66
   0   1  11  156.21   15.03
  -1  -1 -11    5.00    8.30
  -1  -1 -11   12.51   13.62
  -1  -1 -11   11.63    8.29
  -1  -1 -11   18.63   12.21
   1   1  11   -2.37   11.53
   1   1  11   -1.89    8.27
  -2  -1 -11  185.87   16.62
  -2  -1 -11  194.05   20.24
  -2  -1 -11  203.10   18.06
  -2  -1 -11  213.20   23.25
   2   1  11  236.23   23.42
  -3  -1 -11  136.56   16.94
  -3  -1 -11  117.40   23.26
  -3  -1 -11  130.94   14.81
  -3  -1 -11  149.04   16.22
   3   1  11  140.60   20.43
   3   1  11  168.44   17.91
  -4  -1 -11  222.97   26.44
  -4  -1 -11  245.49   22.23
  -4  -1 -11  252.70   19.64
  -4  -1 -11  281.33   32.19
   4   1  11  279.85   27.50
   4  -2 -11    7.52   13.70
   3  -2 -11  104.45   22.95
   3  -2 -11   74.19   13.39
  -3   2  11   77.69   17.09
  -3   2  11   88.11   19.86
   2  -2 -11  121.08   14.65
   2  -2 -11   79.50   12.63
   2  -2 -11   90.38   18.36
  -2   2  11  103.86   11.45
  -2   2  11  107.11   15.66
   1  -2 -11   78.63   13.04
   1  -2 -11   74.67   16.35
   1  -2 -11   84.92   13.85
   1  -2 -11   92.56   12.05
  -1   2  11   74.11   10.91
  -1   2  11   96.72   14.72
   0  -2 -11  124.65   16.14
   0  -2 -11  154.97   16.57
   0  -2 -11  146.06   18.38
   0  -2 -11  124.19   13.91
   0   2  11  156.82   16.23
   0   2  11  167.21   17.34
  -1  -2 -11   46.72   13.20
  -1  -2 -11   46.48   10.39
  -1  -2 -11   39.52   15.77
  -1  -2 -11   40.22   10.65
   1   2  11   73.14   11.85
   1   2  11   72.87   12.76
  -2  -2 -11   26.35    9.17
  -2  -2 -11   42.73   12.95
  -2  -2 -11   42.68   17.50
  -2  -2 -11   50.42   11.25
   2   2  11   49.74   11.18
  -3  -2 -11   83.31   13.98
  -3  -2 -11   92.33   20.94
  -3  -2 -11   87.02   14.88
  -3  -2 -11   89.95   12.41
   3   2  11   86.87   14.58
   3   2  11   70.23   18.11
  -4  -2 -11  136.66   13.44
  -4  -2 -11   72.26   17.81
  -4  -2 -11  111.88   14.32
  -4  -2 -11  108.35   25.07
   4   2  11  164.61   24.80
   4   2  11  132.09   18.74
   3  -3 -11   54.92   14.34
   3  -3 -11   55.26   24.68
  -3   3  11   51.14   17.55
  -3   3  11   42.47   18.23
   2  -3 -11   11.00   16.42
   2  -3 -11   -0.21    7.96
   2  -3 -11   37.26   11.58
  -2   3  11    2.49    7.18
  -2   3  11    9.42   14.36
  -2   3  11   27.25   15.12
   1  -3 -11  182.04   18.34
   1  -3 -11  212.72   22.76
   1  -3 -11  213.59   19.19
  -1   3  11  190.04   18.91
  -1   3  11  192.91   20.38
  -1   3  11  289.26   24.87
   0  -3 -11  105.83   13.50
   0  -3 -11   92.21   12.79
   0  -3 -11   55.01   15.27
   0  -3 -11   76.34   22.07
   0   3  11   77.76   13.73
  -1  -3 -11  123.27   17.98
  -1  -3 -11  113.04   13.51
  -1  -3 -11  168.35   19.99
  -1  -3 -11  116.91   13.93
   1   3  11  134.25   17.50
   1   3  11  138.61   16.40
  -2  -3 -11   24.79   11.71
  -2  -3 -11   41.06   10.22
  -2  -3 -11   55.15   13.97
  -2  -3 -11   15.87   16.76
   2   3  11   38.85   13.29
   2   3  11   11.03   13.98
  -3  -3 -11   84.37   11.85
  -3  -3 -11  102.04   25.94
  -3  -3 -11  106.56   16.82
  -3  -3 -11  101.38   14.81
   3   3  11   91.79   28.04
   3   3  11  105.26   19.44
  -4  -3 -11   15.08    8.67
  -4  -3 -11  -24.39   23.32
  -4  -3 -11   13.47   11.77
  -4  -3 -11   40.10   17.80
   4   3  11  -22.18   19.51
   4   3  11  -12.96   14.39
   3  -4 -11   14.39   14.62
  -3   4  11   40.55   22.42
   2  -4 -11   17.34   20.03
   2  -4 -11   -8.10   11.41
  -2   4  11    5.53    8.99
  -2   4  11   40.32   16.97
  -2   4  11   25.04   16.25
  -2   4  11   24.50    9.54
   1  -4 -11  101.08   14.57
   1  -4 -11   95.72   21.39
   1  -4 -11  124.91   16.16
  -1   4  11  130.93   19.67
  -1   4  11  114.49   13.89
  -1   4  11  118.62   22.28
   0  -4 -11   96.10   16.49
   0  -4 -11  124.10   20.68
   0  -4 -11  118.46   15.39
   0   4  11  140.18   17.38
   0   4  11  112.32   16.80
   0   4  11  134.19   16.88
  -1  -4 -11   55.85   11.91
  -1  -4 -11   88.05   14.93
  -1  -4 -11   64.30   17.36
  -1  -4 -11   98.65   17.89
   1   4  11   49.10   15.08
   1   4  11   67.57   14.48
  -2  -4 -11   36.52   10.61
  -2  -4 -11    1.07   15.98
  -2  -4 -11   63.83   23.11
  -2  -4 -11   34.19   12.44
   2   4  11   21.01   13.47
   2   4  11   12.35   17.05
  -3  -4 -11   84.72   15.46
  -3  -4 -11   45.66   15.51
  -3  -4 -11   71.77   10.89
  -3  -4 -11   65.81   21.90
   3   4  11   45.92   20.10
   2  -5 -11   85.68   17.53
  -2   5  11   91.11   22.58
   1  -5 -11   31.02   14.43
   1  -5 -11   -2.14   27.99
  -1   5  11   20.80   13.03
  -1   5  11   27.74   18.69
  -1   5  11   19.43   16.21
   0  -5 -11  106.78   21.77
   0  -5 -11  100.69   14.91
   0  -5 -11   94.33   17.82
   0   5  11  113.15   18.55
   0   5  11   94.11   16.91
   0   5  11   93.51   17.21
  -1  -5 -11    7.78   16.78
  -1  -5 -11   13.84   12.24
  -1  -5 -11  -11.41   17.02
   1   5  11    4.23   16.31
   1   5  11   -2.36   14.28
  -2  -5 -11  102.29   18.42
  -2  -5 -11   62.10   38.36
  -2  -5 -11   86.95   18.14
   2   5  11  106.79   21.22
   2   5  11  126.01   20.85
  -3  -5 -11   -3.07   18.98
  -3  -5 -11   95.66   25.90
   3   5  11   33.43   22.69
   1   4 -12   67.97   22.12
   1   4 -12  119.64   23.59
   1   4 -12   85.19   20.02
  -1  -4  12   92.99   18.05
   0   4 -12   57.96   17.66
   0  -4  12   28.23   16.76
   0  -4  12   92.36   19.15
  -1   4 -12   21.09   23.42
  -1   4 -12   16.96   17.61
   1  -4  12    8.21    8.11
   1  -4  12   20.40    7.88
   1  -4  12   27.44   17.35
   1  -4  12   21.19   18.33
  -2   4 -12   95.99   21.03
  -2   4 -12   46.90   42.60
   2  -4  12   15.30   18.89
   2  -4  12   28.89   20.45
   2   3 -12   34.87    7.61
   2   3 -12    4.03   15.15
   2   3 -12   28.79   23.59
  -2  -3  12   41.45   13.96
  -2  -3  12   35.84   10.17
   1   3 -12  167.46   25.04
   1   3 -12  148.33   12.05
   1   3 -12  168.79   20.51
   1   3 -12  164.35   20.72
  -1  -3  12  143.17   14.15
  -1  -3  12  152.60   17.41
   0   3 -12  213.55   24.24
   0   3 -12  178.74   13.75
   0   3 -12  198.40   24.94
   0   3 -12  170.17   23.71
   0  -3  12  289.56   25.27
   0  -3  12  207.94   14.43
  -1   3 -12  143.59   18.81
  -1   3 -12  155.09   16.12
  -1   3 -12  141.23   27.90
   1  -3  12  139.15   22.86
   1  -3  12  127.27   14.07
   1  -3  12  112.36   19.44
  -2   3 -12   37.18   11.72
  -2   3 -12   10.58   22.18
  -2   3 -12   55.14   17.67
   2  -3  12   23.62    9.81
   2  -3  12   42.65   17.07
   2  -3  12   20.08   15.30
  -3   3 -12  101.47   24.13
   3  -3  12   92.49   19.12
   3  -3  12  110.36   23.82
   3   2 -12    5.73   16.59
   3   2 -12   50.39   22.95
   3   2 -12   29.23    9.27
  -3  -2  12   -7.66   12.50
   2   2 -12   45.31   15.18
   2   2 -12   43.25   19.75
   2   2 -12   47.65    8.27
   2   2 -12   57.19   15.54
  -2  -2  12   44.21   11.79
  -2  -2  12   69.87   13.18
   1   2 -12  142.22   19.02
   1   2 -12  124.99   19.08
   1   2 -12  136.78   14.27
  -1  -2  12  166.66   17.41
   0   2 -12   76.08   17.12
   0   2 -12  102.56   17.99
   0   2 -12   61.94   15.41
   0   2 -12   88.12   11.04
   0  -2  12  120.55   16.34
   0  -2  12   82.50   11.11
  -1   2 -12  104.86   12.41
  -1   2 -12  118.55   20.03
  -1   2 -12  135.85   19.01
  -1   2 -12   83.27   16.29
   1  -2  12  119.08   12.17
   1  -2  12   76.11   16.22
  -2   2 -12   65.92   15.52
   2  -2  12   60.26   14.95
  -3   2 -12   52.86   24.95
  -3   2 -12   74.67   17.53
  -3   2 -12   53.01   15.03
   3  -2  12   43.56   18.66
   3  -2  12   48.86   12.88
   3  -2  12   44.00   15.59
   3   1 -12   37.78   10.99
   3   1 -12    6.22   14.64
   3   1 -12   26.09   22.44
   3   1 -12   44.11   13.01
  -3  -1  12   35.42   14.80
  -3  -1  12   37.07   10.18
   2   1 -12   36.77   15.36
   2   1 -12   22.95   10.53
   2   1 -12   52.77   19.22
   2   1 -12   36.28   13.88
  -2  -1  12   22.78   11.89
  -2  -1  12   24.97   10.90
   1   1 -12   69.86   17.84
   1   1 -12   62.26   15.89
   1   1 -12   48.64   15.46
   1   1 -12   43.66    9.41
  -1  -1  12   72.52   11.42
  -1  -1  12   59.93   13.06
   0   1 -12   88.82   15.29
   0   1 -12   94.45   17.45
   0   1 -12   75.88   10.58
   0   1 -12   72.65   17.13
   0  -1  12   80.81   11.84
   0  -1  12   73.64   14.17
  -1   1 -12   72.46   14.35
  -1   1 -12   69.86   11.53
  -1   1 -12   73.26   16.93
  -1   1 -12   64.61   17.73
   1  -1  12   67.54   13.67
   1  -1  12   81.86   15.06
  -2   1 -12  172.95   17.65
  -2   1 -12  215.41   21.84
  -2   1 -12  191.24   24.52
  -2   1 -12  171.36   20.24
   2  -1  12  168.63   21.42
  -3   1 -12   76.55   22.09
  -3   1 -12   55.01   15.81
  -3   1 -12   57.16   16.67
  -3   1 -12   36.43   14.82
   3  -1  12   50.75   12.53
   3  -1  12   85.32   17.39
   3   0 -12   69.76   22.37
   3   0 -12   74.92   12.14
   3   0 -12   90.11   17.07
  -3   0  12   61.82   16.61
  -3   0  12   77.87    9.54
   2   0 -12   33.19   10.55
   2   0 -12   37.03   23.91
   2   0 -12   37.67   14.16
   2   0 -12   19.95   12.55
  -2   0  12   31.25   12.24
  -2   0  12   28.65    9.72
   1   0 -12   87.27   18.96
   1   0 -12  100.28   19.98
   1   0 -12   80.82   14.77
   1   0 -12   82.02   10.72
  -1   0  12   85.49   13.35
  -1   0  12   84.60   12.71
   0   0 -12   32.44   12.19
   0   0 -12   45.20    9.80
   0   0 -12   38.20   14.13
   0   0 -12   31.15   14.49
   0   0  12   50.23   11.43
   0   0  12   26.12   12.23
  -1   0 -12   31.44   14.95
  -1   0 -12    9.24   10.22
  -1   0 -12   -2.24    8.47
  -1   0 -12   18.66   13.76
   1   0  12   17.02   10.14
   1   0  12    4.58   11.48
  -2   0 -12   48.82   12.48
  -2   0 -12    7.59   16.71
  -2   0 -12   47.30   12.92
  -2   0 -12   43.33   15.41
   2   0  12   41.89   15.11
  -3   0 -12   31.59   22.01
  -3   0 -12    9.24   14.74
  -3   0 -12   21.00   13.07
  -3   0 -12   57.05   14.94
   3   0  12    8.40   16.94
   3   0  12   24.08   11.94
  -4   0 -12   79.03   39.42
  -4   0 -12  123.92   17.00
  -4   0 -12   90.10   21.44
  -4   0 -12   89.90   18.25
   4   0  12   99.90   23.86
   4   0  12   78.16   18.19
   3  -1 -12   13.50    8.11
   3  -1 -12    8.35   16.30
   3  -1 -12   40.62   22.11
  -3   1  12   21.61    6.08
  -3   1  12    1.11   14.72
   2  -1 -12   29.15   11.63
   2  -1 -12   13.15   19.25
   2  -1 -12   33.12   10.58
   2  -1 -12   35.44   13.51
  -2   1  12   22.89    9.20
  -2   1  12   27.49    9.25
   1  -1 -12   70.50   12.84
   1  -1 -12   35.49   17.04
   1  -1 -12   61.89   11.27
   1  -1 -12   55.12   14.49
  -1   1  12   65.52   11.68
  -1   1  12   35.81   12.50
   0  -1 -12   18.91   11.32
   0  -1 -12    9.28    8.47
   0  -1 -12   53.62   14.94
   0  -1 -12   41.83   15.44
   0   1  12   28.06   10.75
   0   1  12   17.95   11.24
  -1  -1 -12   44.52   10.98
  -1  -1 -12   60.08   14.83
  -1  -1 -12   60.48   12.65
  -1  -1 -12   54.69   16.45
   1   1  12   68.34   12.66
   1   1  12   53.74   14.35
  -2  -1 -12  212.60   24.14
  -2  -1 -12  150.17   16.08
  -2  -1 -12  190.37   19.66
  -2  -1 -12  176.81   24.58
   2   1  12  198.12   19.46
   2   1  12  205.73   23.75
  -3  -1 -12   16.93   14.56
  -3  -1 -12   10.01   11.62
  -3  -1 -12    6.33   13.88
  -3  -1 -12   -8.80   18.88
   3   1  12   32.35   12.92
   3   1  12   22.43   19.42
  -4  -1 -12  126.68   16.79
  -4  -1 -12   82.87   22.23
  -4  -1 -12  119.15   33.28
  -4  -1 -12  173.06   22.04
   4   1  12   87.26   26.15
   4   1  12  111.52   18.41
   3  -2 -12   34.73   26.52
   3  -2 -12   13.12   17.09
  -3   2  12   29.53   18.38
   2  -2 -12   51.10   21.67
   2  -2 -12   44.68   13.26
   2  -2 -12   92.76   17.25
   2  -2 -12   24.47   11.18
  -2   2  12   11.48   14.16
  -2   2  12   52.70    9.01
   1  -2 -12   57.85   14.77
   1  -2 -12   58.84   14.30
   1  -2 -12   69.10   18.45
   1  -2 -12   61.27   11.66
  -1   2  12   62.28   11.93
  -1   2  12   47.30   13.74
   0  -2 -12   23.13    9.96
   0  -2 -12   -7.93   13.69
   0  -2 -12   11.05   11.77
   0  -2 -12    7.52   14.02
   0   2  12   26.88   12.26
   0   2  12    4.42   11.32
  -1  -2 -12   37.06   10.30
  -1  -2 -12   38.91   16.55
  -1  -2 -12   17.03   11.10
  -1  -2 -12   55.47   16.08
   1   2  12   29.57   12.43
   1   2  12   41.63   14.39
  -2  -2 -12   30.71   12.49
  -2  -2 -12   -3.32   11.43
  -2  -2 -12    0.38   17.88
  -2  -2 -12    3.75   14.27
   2   2  12   19.60   12.85
   2   2  12   -0.69   16.15
  -3  -2 -12   53.73   15.96
  -3  -2 -12   27.24   19.37
  -3  -2 -12   35.73   11.94
  -3  -2 -12   59.35   24.31
   3   2  12   40.76   15.67
   3   2  12    8.68   18.59
   2  -3 -12   61.74   11.39
   2  -3 -12   55.39   14.61
   2  -3 -12   19.08   21.98
  -2   3  12   75.40   18.58
  -2   3  12   21.60   16.92
  -2   3  12   38.79    9.67
   1  -3 -12  119.70   16.04
   1  -3 -12  104.45   15.41
   1  -3 -12   98.23   21.85
   1  -3 -12  141.43   16.78
  -1   3  12  104.93   14.15
  -1   3  12  148.87   19.13
   0  -3 -12  108.62   14.69
   0  -3 -12  130.90   20.29
   0  -3 -12  122.16   15.82
   0  -3 -12  129.01   18.34
   0   3  12   99.95   17.07
   0   3  12  166.03   18.51
  -1  -3 -12   94.51   17.98
  -1  -3 -12   83.43   19.51
  -1  -3 -12  102.78   14.10
  -1  -3 -12   92.55   14.09
   1   3  12   79.07   15.24
  -2  -3 -12  186.72   19.76
  -2  -3 -12  192.20   19.96
  -2  -3 -12  162.82   23.90
  -2  -3 -12  159.35   20.63
   2   3  12  164.95   19.79
   2   3  12  191.71   23.45
  -3  -3 -12  156.75   18.42
  -3  -3 -12  118.63   18.59
  -3  -3 -12  138.06   14.53
  -3  -3 -12  167.38   28.61
   3   3  12  138.49   23.63
   2  -4 -12   20.23   15.41
   1  -4 -12   20.03   13.35
   1  -4 -12   -9.37   12.88
   1  -4 -12    1.76   21.44
  -1   4  12   13.26   17.50
  -1   4  12   36.76   16.95
  -1   4  12   18.79   14.31
   0  -4 -12   -3.01   18.76
   0  -4 -12   -1.18   14.73
   0  -4 -12    3.36   11.63
   0  -4 -12   15.83   12.68
   0   4  12   11.97   13.59
   0   4  12   25.10   15.34
  -1  -4 -12  109.55   17.66
  -1  -4 -12   87.50   20.93
  -1  -4 -12   75.93   18.69
  -1  -4 -12   92.72   15.34
   1   4  12   70.48   16.19
   1   4  12   72.23   18.38
  -2  -4 -12   84.88   14.15
  -2  -4 -12   62.35   18.74
  -2  -4 -12   83.47   17.07
   2   4  12   38.42   18.91
   2   4  12   77.19   19.43
   0  -5 -12   25.66   17.42
   0  -5 -12   63.28   16.86
   0   5  12   20.21   17.57
   0   5  12   34.14   16.48
   0   5  12   51.47   32.78
  -1  -5 -12   34.38   15.96
  -1  -5 -12    7.32   13.40
  -1  -5 -12   -7.78   18.69
   1   5  12  -17.43   18.23
   1   3 -13   26.14   20.04
   1   3 -13   15.40    8.85
   1   3 -13   28.29   19.01
  -1  -3  13   39.23   16.69
  -1  -3  13    9.20   10.04
   0   3 -13  112.59   12.26
   0   3 -13  121.15   24.47
   0   3 -13  111.53   27.08
   0   3 -13   69.10   18.73
   0  -3  13   97.28   12.26
   0  -3  13  101.01   19.49
  -1   3 -13   92.33   24.62
  -1   3 -13  159.27   14.92
  -1   3 -13  115.81   27.57
  -1   3 -13  110.18   19.07
   1  -3  13  134.81   14.18
   1  -3  13  143.34   20.14
   2   2 -13   27.44    9.95
   2   2 -13   -9.68   18.42
   2   2 -13   47.90   17.97
  -2  -2  13   -9.09   13.57
  -2  -2  13    8.85   13.11
   1   2 -13    7.43   16.89
   1   2 -13   20.90    9.59
   1   2 -13   35.10   22.76
   1   2 -13    3.25   15.76
  -1  -2  13   54.12   15.11
  -1  -2  13   28.61   10.96
   0   2 -13   66.04   19.67
   0   2 -13   64.51   15.79
   0   2 -13   27.30   18.72
   0   2 -13   48.19   10.70
   0  -2  13   52.57   16.64
   0  -2  13   43.75   11.57
  -1   2 -13   43.19   16.39
  -1   2 -13   62.52   12.59
  -1   2 -13   29.10   25.46
  -1   2 -13   33.07   20.53
   1  -2  13   24.68   18.34
   1  -2  13   67.54   17.25
  -2   2 -13   32.93   19.33
  -2   2 -13   12.49   17.24
  -2   2 -13   34.08   26.73
  -2   2 -13   73.64   16.12
   2  -2  13   34.51   16.64
   2  -2  13   40.81   13.05
   2   1 -13   40.11   22.66
   2   1 -13   55.65   11.45
   2   1 -13   95.64   18.99
   2   1 -13   69.17   17.86
  -2  -1  13   52.58   15.29
  -2  -1  13   53.68   16.81
   1   1 -13  103.98   17.52
   1   1 -13  101.79   13.37
   1   1 -13   96.46   21.44
   1   1 -13  135.62   21.02
  -1  -1  13  122.21   16.08
  -1  -1  13  118.62   14.42
   0   1 -13   33.00   23.49
   0   1 -13   17.88   10.29
   0   1 -13   39.31   17.27
   0   1 -13   14.66   14.59
   0  -1  13   14.11   11.35
   0  -1  13   22.63   13.61
  -1   1 -13   54.56   12.82
  -1   1 -13   60.70   19.15
  -1   1 -13   -2.39   18.74
  -1   1 -13   56.16   14.94
   1  -1  13   37.98   15.89
   1  -1  13   37.16   12.13
  -2   1 -13    6.28   15.79
  -2   1 -13    0.15   16.83
  -2   1 -13    6.39   12.48
  -2   1 -13  -26.96   20.00
   2  -1  13   32.40   12.65
   2  -1  13   26.20   17.58
  -3   1 -13   15.21   37.53
   2   0 -13  279.75   26.82
   2   0 -13  190.40   20.39
   2   0 -13  241.43   26.01
   2   0 -13  209.03   28.84
  -2   0  13  257.54   24.97
  -2   0  13  262.07   21.00
   1   0 -13   25.70   10.28
   1   0 -13   28.17   15.79
   1   0 -13   37.89   19.76
   1   0 -13   25.41   13.64
  -1   0  13   10.12   11.90
  -1   0  13   21.43   12.37
   0   0 -13  122.56   20.69
   0   0 -13  153.41   21.96
   0   0 -13  143.24   14.81
   0   0 -13  145.05   17.67
   0   0  13  145.84   18.19
   0   0  13  144.72   16.56
  -1   0 -13   30.18   18.38
  -1   0 -13   31.57   11.77
  -1   0 -13   11.84   12.74
  -1   0 -13   47.53   17.09
   1   0  13   19.35   14.40
   1   0  13   14.46   11.92
  -2   0 -13   14.54   21.66
  -2   0 -13   29.33   13.80
  -2   0 -13   29.97   17.62
  -2   0 -13   21.41   13.45
   2   0  13   19.51   12.80
   2   0  13   16.14   17.47
  -3   0 -13   46.26   26.02
  -3   0 -13  124.92   19.05
  -3   0 -13  120.94   21.25
  -3   0 -13  115.25   18.46
   3   0  13   66.21   16.66
   3   0  13   44.70   21.71
   2  -1 -13   44.45   17.34
   2  -1 -13   18.77   12.79
   2  -1 -13   29.30   13.93
   2  -1 -13   43.11   21.85
  -2   1  13   35.45   11.58
  -2   1  13   14.80   10.25
   1  -1 -13   76.04   20.95
   1  -1 -13   53.70   16.01
   1  -1 -13   85.93   18.88
   1  -1 -13   84.34   13.01
  -1   1  13   82.61   15.58
   0  -1 -13   16.66   18.52
   0  -1 -13   22.33   14.72
   0  -1 -13   19.81   11.26
   0  -1 -13    7.59   16.38
   0   1  13   17.17   13.26
   0   1  13   11.85   13.40
  -1  -1 -13   82.40   19.56
  -1  -1 -13   98.80   15.44
  -1  -1 -13   90.37   20.82
  -1  -1 -13   89.04   16.19
   1   1  13  120.52   16.63
   1   1  13   98.95   17.72
  -2  -1 -13   44.89   14.84
  -2  -1 -13   49.22   14.12
  -2  -1 -13   28.83   16.82
   2   1  13   41.90   15.14
   2   1  13   27.97   18.47
  -3  -1 -13  134.49   20.97
  -3  -1 -13  191.51   19.61
  -3  -1 -13  153.11   29.01
  -3  -1 -13  143.69   21.10
   3   1  13  142.51   24.58
   3   1  13  143.33   19.80
   2  -2 -13   53.62   19.14
   2  -2 -13  114.85   15.64
   2  -2 -13  120.57   18.76
   2  -2 -13  103.38   26.10
  -2   2  13  101.49   17.05
  -2   2  13  119.21   13.40
   1  -2 -13   19.08   15.43
   1  -2 -13   33.69   17.83
   1  -2 -13   51.28   20.56
   1  -2 -13    7.18   12.10
  -1   2  13   66.66   16.84
  -1   2  13   15.87   13.91
   0  -2 -13  190.37   20.95
   0  -2 -13  175.17   22.17
   0  -2 -13  144.43   15.88
   0  -2 -13  134.95   21.70
   0   2  13  233.07   23.74
   0   2  13  161.03   19.27
  -1  -2 -13  126.89   22.25
  -1  -2 -13   97.89   15.68
  -1  -2 -13  118.16   15.78
  -1  -2 -13  111.84   20.94
   1   2  13  120.37   17.80
   1   2  13  146.49   21.49
  -2  -2 -13   77.34   19.38
  -2  -2 -13   63.81   28.33
  -2  -2 -13   38.99   13.17
  -2  -2 -13   45.95   16.18
   2   2  13   43.65   16.24
   2   2  13   73.96   20.93
   1  -3 -13   73.35   23.15
   1  -3 -13   63.69   15.27
   1  -3 -13   76.09   17.56
   1  -3 -13   68.23   16.75
  -1   3  13   57.88   15.01
  -1   3  13   50.97   18.58
   0  -3 -13   51.96   14.96
   0  -3 -13   76.08   15.93
   0  -3 -13   62.59   21.86
   0  -3 -13   51.63   18.01
   0   3  13   86.39   17.84
   0   3  13  106.95   18.43
  -1  -3 -13  213.22   25.45
  -1  -3 -13  199.46   23.32
  -1  -3 -13  205.70   26.23
  -1  -3 -13  187.14   20.19
   1   3  13  192.05   21.93
   1   3  13  217.30   23.99
  -2  -3 -13   89.31   24.38
  -2  -3 -13   95.17   17.62
  -2  -3 -13  108.67   15.84
  -2  -3 -13   95.97   20.59
   2   3  13   91.40   19.90
   0   1 -14   75.21   23.51
   0   1 -14   30.70   22.31
   0   1 -14   88.66   13.67
   0   1 -14   41.99   18.44
   0  -1  14  142.39   20.43
   0  -1  14   35.68   14.22
  -1   1 -14   13.06   23.60
  -1   1 -14   26.55   17.76
   1  -1  14   47.71   19.50
   0   0 -14   97.94   25.10
   0   0 -14  135.28   15.96
   0   0 -14  128.76   20.70
   0   0 -14  108.60   23.01
   0   0  14   99.58   20.43
   0   0  14  101.55   17.13
  -1   0 -14    1.63   13.25
  -1   0 -14   13.59   20.14
  -1   0 -14   44.77   17.39
  -1   0 -14   14.14   36.68
   1   0  14   43.16   17.59
   1   0  14   16.78   14.84
   0  -1 -14   27.37   16.63
   0  -1 -14   28.26   22.73
   0  -1 -14   39.69   19.79
   0  -1 -14   19.06   13.72
   0   1  14   30.56   16.55
   0   1  14   15.33   16.02
  -1  -1 -14   -2.67   15.28
  -1  -1 -14   -5.03   26.93
  -1  -1 -14    5.54   14.37
  -1  -1 -14  -18.27   21.04
   1   1  14    1.07   15.87
   1   1  14    2.80   18.61
   0   0   0    0.00    0.00
;
_shelx_hkl_checksum              17161
loop_
_space_group_symop_operation_xyz
'x, y, z'
loop_
_atom_site_label
_atom_site_type_symbol
_atom_site_fract_x
_atom_site_fract_y
_atom_site_fract_z
_atom_site_U_iso_or_equiv
_atom_site_adp_type
_atom_site_occupancy
_atom_site_site_symmetry_order
_atom_site_calc_flag
_atom_site_refinement_flags_posn
_atom_site_refinement_flags_adp
S14 S 1.08480(18) 0.15723(15) 0.71254(11) 0.0117(3) Uani 1 1 d . .
O8 O 1.0076(5) 0.5248(4) 0.9526(3) 0.0166(8) Uani 1 1 d . .
O7 O 0.6508(6) 0.6520(4) 0.9327(3) 0.0131(8) Uani 1 1 d . .
C4 C 0.5923(9) 0.4932(7) 0.7649(4) 0.0143(12) Uani 1 1 d . .
H4 H 0.4346 0.4811 0.7910 0.017 Uiso 1 1 calc R U
C3 C 0.7279(8) 0.3332(6) 0.8054(4) 0.0130(11) Uani 1 1 d . .
H3 H 0.6609 0.2259 0.7798 0.016 Uiso 1 1 calc R U
C2 C 0.7186(8) 0.3328(7) 0.9352(4) 0.0149(11) Uani 1 1 d . .
H2 H 0.8199 0.2364 0.9653 0.018 Uiso 1 1 calc R U
C1 C 0.7792(8) 0.5104(7) 0.9788(4) 0.0131(11) Uani 1 1 d . .
H1 H 0.7548 0.5097 1.0622 0.016 Uiso 1 1 calc R U
C9 C 1.0936(9) 0.6711(7) 1.0059(4) 0.0213(12) Uani 1 1 d . .
H9C H 1.0361 0.7803 0.9702 0.032 Uiso 1 1 calc R U
H9B H 1.2557 0.6630 0.9981 0.032 Uiso 1 1 calc R U
H9A H 1.0475 0.6696 1.0856 0.032 Uiso 1 1 calc R U
C5 C 0.6694(9) 0.6596(7) 0.8124(4) 0.0133(11) Uani 1 1 d . .
H5 H 0.8266 0.6756 0.7869 0.016 Uiso 1 1 calc R U
C6 C 0.5222(9) 0.8119(7) 0.7711(4) 0.0141(12) Uani 1 1 d . .
H6B H 0.3677 0.8003 0.7999 0.017 Uiso 1 1 calc R U
H6A H 0.5737 0.9232 0.7975 0.017 Uiso 1 1 calc R U
C32 C 0.5165(12) 0.7201(8) 0.2514(5) 0.0328(15) Uani 1 1 d . .
H32 H 0.5292 0.7397 0.1725 0.039 Uiso 1 1 calc R U
C31 C 0.6919(11) 0.6380(8) 0.3078(5) 0.0320(14) Uani 1 1 d . .
H31 H 0.8241 0.5995 0.2675 0.038 Uiso 1 1 calc R U
C30 C 0.6727(10) 0.6127(8) 0.4232(5) 0.0238(13) Uani 1 1 d . .
H30 H 0.7927 0.5565 0.4615 0.029 Uiso 1 1 calc R U
C29 C 0.4826(9) 0.6676(7) 0.4833(5) 0.0180(13) Uani 1 1 d . .
C27 C 0.4630(9) 0.6517(7) 0.6089(4) 0.0136(12) Uani 1 1 d . .
H27 H 0.3055 0.6358 0.6340 0.016 Uiso 1 1 calc R U
C17 C 1.0345(9) 0.1704(6) 0.5666(4) 0.0150(11) Uani 1 1 d . .
C18 C 1.1813(9) 0.2531(7) 0.4955(4) 0.0179(12) Uani 1 1 d . .
H18 H 1.3068 0.3023 0.5243 0.022 Uiso 1 1 calc R U
C19 C 1.1458(10) 0.2644(7) 0.3824(5) 0.0239(13) Uani 1 1 d . .
H19 H 1.2438 0.3237 0.3323 0.029 Uiso 1 1 calc R U
C20 C 0.9650(10) 0.1878(7) 0.3433(4) 0.0223(13) Uani 1 1 d . .
C33 C 0.3249(12) 0.7727(8) 0.3101(5) 0.0345(16) Uani 1 1 d . .
H33 H 0.2039 0.8267 0.2715 0.041 Uiso 1 1 calc R U
C34 C 0.3067(10) 0.7475(8) 0.4259(5) 0.0258(14) Uani 1 1 d . .
H34 H 0.1738 0.7850 0.4659 0.031 Uiso 1 1 calc R U
C22 C 0.8500(9) 0.0944(7) 0.5280(4) 0.0181(12) Uani 1 1 d . .
H22 H 0.7502 0.0380 0.5787 0.022 Uiso 1 1 calc R U
C21 C 0.8154(10) 0.1029(8) 0.4144(5) 0.0249(14) Uani 1 1 d . .
H21 H 0.6916 0.0517 0.3852 0.030 Uiso 1 1 calc R U
O28 O 0.6009(6) 0.5068(5) 0.6459(3) 0.0144(8) Uani 1 1 d . .
O25 O 1.0442(10) 0.2866(8) 0.1624(4) 0.0603(12) Uani 1 1 d . .
O16 O 1.3158(6) 0.1774(4) 0.7244(3) 0.0165(8) Uani 1 1 d . .
O26 O 0.5330(6) 0.8102(5) 0.6504(3) 0.0166(9) Uani 1 1 d . .
O15 O 0.9837(6) 0.0039(4) 0.7574(3) 0.0163(8) Uani 1 1 d . .
O24 O 0.7799(10) 0.1176(8) 0.1882(4) 0.0603(12) Uani 1 1 d . .
N13 N 0.9586(6) 0.3324(5) 0.7638(3) 0.0126(9) Uani 1 1 d . .
H13 H 1.0304 0.4285 0.7667 0.015 Uiso 1 1 calc R U
N23 N 0.9271(10) 0.1990(7) 0.2228(5) 0.0379(14) Uani 1 1 d . .
N10 N 0.4902(7) 0.3145(6) 0.9800(4) 0.0196(10) Uani 1 1 d . .
N11 N 0.4379(8) 0.1628(6) 0.9993(4) 0.0193(10) Uani 1 1 d . .
N12 N 0.3665(9) 0.0332(7) 1.0210(5) 0.0372(14) Uani 1 1 d . .
loop_
_atom_site_aniso_label
_atom_site_aniso_U_11
_atom_site_aniso_U_22
_atom_site_aniso_U_33
_atom_site_aniso_U_23
_atom_site_aniso_U_13
_atom_site_aniso_U_12
S14 0.0098(6) 0.0113(6) 0.0140(6) -0.0014(5) -0.0013(5) 0.0013(5)
O8 0.0116(18) 0.019(2) 0.0190(19) -0.0026(16) -0.0012(15) -0.0004(15)
O7 0.0129(18) 0.0127(18) 0.0135(19) -0.0007(15) -0.0004(15) 0.0019(15)
C4 0.014(3) 0.013(3) 0.016(3) -0.001(2) -0.002(2) -0.002(2)
C3 0.008(3) 0.013(3) 0.018(3) -0.002(2) -0.001(2) -0.003(2)
C2 0.013(3) 0.015(3) 0.016(3) 0.004(2) 0.000(2) 0.001(2)
C1 0.013(3) 0.018(3) 0.008(2) -0.001(2) 0.002(2) 0.000(2)
C9 0.016(3) 0.026(3) 0.023(3) -0.011(2) -0.003(2) -0.003(2)
C5 0.013(3) 0.013(3) 0.013(3) 0.003(2) 0.001(2) -0.001(2)
C6 0.016(3) 0.012(3) 0.014(3) 0.001(2) 0.001(2) 0.000(2)
C32 0.052(4) 0.028(3) 0.017(3) -0.002(3) -0.003(3) 0.008(3)
C31 0.036(4) 0.036(4) 0.023(3) 0.001(3) 0.004(3) 0.005(3)
C30 0.024(3) 0.030(3) 0.017(3) 0.002(2) -0.003(2) 0.006(3)
C29 0.025(3) 0.010(3) 0.019(3) -0.003(2) -0.003(2) 0.001(2)
C27 0.014(3) 0.010(3) 0.016(3) 0.002(2) -0.004(2) 0.003(2)
C17 0.021(3) 0.010(3) 0.014(3) -0.002(2) -0.001(2) 0.000(2)
C18 0.020(3) 0.019(3) 0.015(3) -0.002(2) 0.000(2) -0.002(2)
C19 0.026(3) 0.018(3) 0.027(3) 0.001(2) 0.003(3) 0.001(2)
C20 0.033(4) 0.020(3) 0.013(3) -0.002(2) -0.003(2) 0.005(3)
C33 0.049(4) 0.030(3) 0.024(3) -0.003(3) -0.016(3) 0.016(3)
C34 0.026(3) 0.030(3) 0.021(3) -0.007(3) -0.006(3) 0.010(3)
C22 0.018(3) 0.019(3) 0.018(3) 0.001(2) -0.004(2) -0.002(2)
C21 0.028(3) 0.026(3) 0.023(3) -0.001(3) -0.009(3) -0.007(3)
O28 0.018(2) 0.0147(19) 0.0106(18) -0.0009(15) -0.0034(15) 0.0024(15)
O25 0.083(3) 0.076(3) 0.0251(18) 0.0143(19) -0.0157(19) -0.031(2)
O16 0.0125(18) 0.0156(19) 0.021(2) -0.0044(15) -0.0043(15) 0.0036(15)
O26 0.022(2) 0.0133(19) 0.0149(19) 0.0008(16) -0.0028(16) -0.0005(16)
O15 0.0198(19) 0.0116(18) 0.0176(19) 0.0020(15) -0.0013(15) -0.0013(15)
O24 0.083(3) 0.076(3) 0.0251(18) 0.0143(19) -0.0157(19) -0.031(2)
N13 0.013(2) 0.004(2) 0.020(2) -0.0038(17) 0.0005(18) -0.0020(17)
N23 0.051(4) 0.036(3) 0.029(3) -0.002(2) -0.015(3) -0.007(3)
N10 0.017(2) 0.016(2) 0.025(2) 0.0054(19) 0.0047(19) -0.0019(19)
N11 0.016(2) 0.024(3) 0.018(2) -0.003(2) 0.0035(19) -0.002(2)
N12 0.040(3) 0.025(3) 0.048(3) -0.002(3) 0.009(3) -0.015(3)
loop_
_atom_type_symbol
_atom_type_description
_atom_type_scat_dispersion_real
_atom_type_scat_dispersion_imag
_atom_type_scat_source
C C 0.0033 0.0016 'International Tables Vol C Tables 4.2.6.8 and 6.1.1.4'
H H 0.0000 0.0000 'International Tables Vol C Tables 4.2.6.8 and 6.1.1.4'
N N 0.0061 0.0033 'International Tables Vol C Tables 4.2.6.8 and 6.1.1.4'
O O 0.0106 0.0060 'International Tables Vol C Tables 4.2.6.8 and 6.1.1.4'
S S 0.1246 0.1234 'International Tables Vol C Tables 4.2.6.8 and 6.1.1.4'
loop_
_geom_angle_atom_site_label_1
_geom_angle_atom_site_label_2
_geom_angle_atom_site_label_3
_geom_angle
O16 S14 O15 120.4(2)
O16 S14 N13 105.6(2)
O15 S14 N13 110.3(2)
O16 S14 C17 107.5(2)
O15 S14 C17 107.1(2)
N13 S14 C17 104.8(2)
C1 O8 C9 112.2(4)
C1 O7 C5 112.5(4)
O28 C4 C5 109.4(4)
O28 C4 C3 111.1(4)
C5 C4 C3 111.7(4)
O28 C4 H4 108.2
C5 C4 H4 108.2
C3 C4 H4 108.2
N13 C3 C4 112.2(4)
N13 C3 C2 109.4(4)
C4 C3 C2 107.8(4)
N13 C3 H3 109.1
C4 C3 H3 109.1
C2 C3 H3 109.1
N10 C2 C1 103.9(4)
N10 C2 C3 110.7(4)
C1 C2 C3 111.0(4)
N10 C2 H2 110.3
C1 C2 H2 110.3
C3 C2 H2 110.3
O7 C1 O8 111.5(4)
O7 C1 C2 112.6(4)
O8 C1 C2 106.8(4)
O7 C1 H1 108.6
O8 C1 H1 108.6
C2 C1 H1 108.6
O8 C9 H9C 109.5
O8 C9 H9B 109.5
H9C C9 H9B 109.5
O8 C9 H9A 109.5
H9C C9 H9A 109.5
H9B C9 H9A 109.5
O7 C5 C6 108.6(4)
O7 C5 C4 110.2(4)
C6 C5 C4 108.4(4)
O7 C5 H5 109.9
C6 C5 H5 109.9
C4 C5 H5 109.9
O26 C6 C5 107.5(4)
O26 C6 H6B 110.2
C5 C6 H6B 110.2
O26 C6 H6A 110.2
C5 C6 H6A 110.2
H6B C6 H6A 108.5
C33 C32 C31 119.8(6)
C33 C32 H32 120.1
C31 C32 H32 120.1
C30 C31 C32 119.6(6)
C30 C31 H31 120.2
C32 C31 H31 120.2
C29 C30 C31 121.2(5)
C29 C30 H30 119.4
C31 C30 H30 119.4
C30 C29 C34 118.8(5)
C30 C29 C27 122.1(5)
C34 C29 C27 119.0(5)
O26 C27 O28 110.8(4)
O26 C27 C29 106.5(4)
O28 C27 C29 109.4(4)
O26 C27 H27 110.0
O28 C27 H27 110.0
C29 C27 H27 110.0
C18 C17 C22 122.1(5)
C18 C17 S14 118.8(4)
C22 C17 S14 119.1(4)
C17 C18 C19 119.7(5)
C17 C18 H18 120.1
C19 C18 H18 120.1
C20 C19 C18 118.5(5)
C20 C19 H19 120.7
C18 C19 H19 120.7
C19 C20 C21 122.4(5)
C19 C20 N23 118.7(5)
C21 C20 N23 119.0(5)
C32 C33 C34 120.4(6)
C32 C33 H33 119.8
C34 C33 H33 119.8
C33 C34 C29 120.2(6)
C33 C34 H34 119.9
C29 C34 H34 119.9
C21 C22 C17 118.4(5)
C21 C22 H22 120.8
C17 C22 H22 120.8
C22 C21 C20 118.8(5)
C22 C21 H21 120.6
C20 C21 H21 120.6
C4 O28 C27 110.5(4)
C27 O26 C6 112.1(4)
C3 N13 S14 121.1(3)
C3 N13 H13 119.4
S14 N13 H13 119.4
O25 N23 O24 123.0(6)
O25 N23 C20 119.1(5)
O24 N23 C20 117.9(5)
N11 N10 C2 115.6(4)
N12 N11 N10 171.8(6)
loop_
_geom_bond_atom_site_label_1
_geom_bond_atom_site_label_2
_geom_bond_distance
S14 O16 1.429(4)
S14 O15 1.438(4)
S14 N13 1.623(4)
S14 C17 1.780(5)
O8 C1 1.414(6)
O8 C9 1.439(6)
O7 C1 1.409(6)
O7 C5 1.435(6)
C4 O28 1.421(6)
C4 C5 1.517(7)
C4 C3 1.513(7)
C4 H4 1.0000
C3 N13 1.461(6)
C3 C2 1.547(7)
C3 H3 1.0000
C2 N10 1.474(7)
C2 C1 1.540(7)
C2 H2 1.0000
C1 H1 1.0000
C9 H9C 0.9800
C9 H9B 0.9800
C9 H9A 0.9800
C5 C6 1.509(7)
C5 H5 1.0000
C6 O26 1.439(6)
C6 H6B 0.9900
C6 H6A 0.9900
C32 C33 1.372(9)
C32 C31 1.391(9)
C32 H32 0.9500
C31 C30 1.388(8)
C31 H31 0.9500
C30 C29 1.378(8)
C30 H30 0.9500
C29 C34 1.392(8)
C29 C27 1.501(8)
C27 O26 1.419(6)
C27 O28 1.420(6)
C27 H27 1.0000
C17 C18 1.373(7)
C17 C22 1.392(7)
C18 C19 1.377(8)
C18 H18 0.9500
C19 C20 1.377(8)
C19 H19 0.9500
C20 C21 1.393(8)
C20 N23 1.466(7)
C33 C34 1.390(8)
C33 H33 0.9500
C34 H34 0.9500
C22 C21 1.381(7)
C22 H22 0.9500
C21 H21 0.9500
O25 N23 1.208(7)
O24 N23 1.212(7)
N13 H13 0.8800
N10 N11 1.236(7)
N11 N12 1.126(6)
loop_
_geom_hbond_atom_site_label_D
_geom_hbond_atom_site_label_H
_geom_hbond_atom_site_label_A
_geom_hbond_distance_DH
_geom_hbond_distance_HA
_geom_hbond_distance_DA
_geom_hbond_angle_DHA
_geom_hbond_site_symmetry_A
C3 H3 O16 1.00 2.27 3.037(6) 132.2 1_455
C9 H9B O7 0.98 2.48 3.441(6) 167.0 1_655
C6 H6A O15 0.99 2.61 3.233(7) 120.6 1_565
C22 H22 O26 0.95 2.37 3.264(6) 156.9 1_545
C3 H3 O16 1.00 2.27 3.037(6) 132.2 1_455
C9 H9B O7 0.98 2.48 3.441(6) 167.0 1_655
C6 H6A O15 0.99 2.61 3.233(7) 120.6 1_565
C22 H22 O26 0.95 2.37 3.264(6) 156.9 1_545
