#------------------------------------------------------------------------------
#$Date: 2017-11-07 02:54:16 +0200 (Tue, 07 Nov 2017) $
#$Revision: 202735 $
#$URL: file:///home/coder/svn-repositories/cod/cif/4/03/29/4032922.cif $
#------------------------------------------------------------------------------
#
# This file is available in the Crystallography Open Database (COD),
# http://www.crystallography.net/
#
# All data on this site have been placed in the public domain by the
# contributors.
#
data_4032922
loop_
_publ_author_name
'Chen, Daoliang'
'Yuan, Dafei'
'Zhang, Cheng'
'Wu, Hao'
'Zhang, Jianyun'
'Li, Baolin'
'Zhu, Xiaozhang'
_publ_section_title
;
 Ullmann-Type Intramolecular C-O Reaction Toward Thieno[3,2-b]furan
 Derivatives with up to Six Fused Rings.
;
_journal_issue                   20
_journal_name_full               'The Journal of organic chemistry'
_journal_page_first              10920
_journal_page_last               10927
_journal_paper_doi               10.1021/acs.joc.7b01745
_journal_volume                  82
_journal_year                    2017
_chemical_formula_moiety         'C30 H38 O2 S2'
_chemical_formula_sum            'C30 H38 O2 S2'
_chemical_formula_weight         494.72
_space_group_crystal_system      triclinic
_space_group_IT_number           2
_space_group_name_Hall           '-P 1'
_space_group_name_H-M_alt        'P -1'
_symmetry_space_group_name_Hall  '-P 1'
_symmetry_space_group_name_H-M   'P -1'
_atom_sites_solution_hydrogens   geom
_atom_sites_solution_primary     dual
_audit_creation_date             2016-10-17
_audit_creation_method
;
Olex2 1.2
(compiled 2016.09.09 svn.r3337 for OlexSys, GUI svn.r5227)
;
_cell_angle_alpha                94.123(7)
_cell_angle_beta                 92.155(4)
_cell_angle_gamma                108.359(8)
_cell_formula_units_Z            1
_cell_length_a                   6.657(3)
_cell_length_b                   8.177(4)
_cell_length_c                   12.851(5)
_cell_measurement_reflns_used    2013
_cell_measurement_temperature    173.1500
_cell_measurement_theta_max      27.4841
_cell_measurement_theta_min      2.6350
_cell_volume                     660.9(5)
_computing_cell_refinement       'CrystalClear (Rigaku Inc., 2007)'
_computing_data_collection       'CrystalClear (Rigaku Inc., 2007)'
_computing_data_reduction        'CrystalClear (Rigaku Inc., 2007)'
_computing_molecular_graphics    'Olex2 (Dolomanov et al., 2009)'
_computing_publication_material  'CIFTAB (Sheldrick, 2013)'
_computing_structure_refinement  'SHELXL (Sheldrick, 2014)'
_computing_structure_solution
;
'SHELXT (Sheldrick, 2014)'
;
_diffrn_ambient_temperature      173.1500
_diffrn_detector_area_resol_mean 28.5714
_diffrn_measured_fraction_theta_full 0.993
_diffrn_measured_fraction_theta_max 0.991
_diffrn_measurement_details
;
scan:
    Number of images: 360
               Slice: -110.0000 - 70.0000
         Image width: 0.5000
            Exp time: 6.0000
       Rotation axis: Omega
               Omega: 0.0000
                 Chi: 45.0000
                 Phi: 90.0000
                 XTD: 44.9537
              2theta: -20.0675
scan:
    Number of images: 336
               Slice: -110.0000 - 58.0000
         Image width: 0.5000
            Exp time: 6.0000
       Rotation axis: Omega
               Omega: 0.0000
                 Chi: 45.0000
                 Phi: 270.0000
                 XTD: 44.9537
              2theta: -20.0675
scan:
    Number of images: 318
               Slice: -100.2500 - 58.7500
         Image width: 0.5000
            Exp time: 6.0000
       Rotation axis: Omega
               Omega: 0.0000
                 Chi: 45.0000
                 Phi: 0.0000
                 XTD: 44.9537
              2theta: -20.0675
scan:
    Number of images: 240
               Slice: -110.0000 - 10.0000
         Image width: 0.5000
            Exp time: 6.0000
       Rotation axis: Omega
               Omega: 0.0000
                 Chi: 45.0000
                 Phi: 180.0000
                 XTD: 44.9537
              2theta: -20.0675
;
_diffrn_measurement_device
;
Saturn724+ (2x2 bin mode)
;
_diffrn_measurement_device_details
;
AFC10: Fixed Chi 2 circle
;
_diffrn_measurement_device_type  'MM007-HF CCD(Saturn 724+)'
_diffrn_measurement_method       '\w scans at fixed \c = 45\%'
_diffrn_orient_matrix_type       d*Trek
_diffrn_orient_matrix_UB_11      -0.1419
_diffrn_orient_matrix_UB_12      -0.0708
_diffrn_orient_matrix_UB_13      0.0022
_diffrn_orient_matrix_UB_21      0.0131
_diffrn_orient_matrix_UB_22      -0.1170
_diffrn_orient_matrix_UB_23      0.0537
_diffrn_orient_matrix_UB_31      -0.0163
_diffrn_orient_matrix_UB_32      0.0239
_diffrn_orient_matrix_UB_33      0.0726
_diffrn_radiation_detector       CCD
_diffrn_radiation_monochromator  Confocal
_diffrn_radiation_type           MoK\a
_diffrn_radiation_wavelength     0.71073
_diffrn_reflns_av_R_equivalents  0.0418
_diffrn_reflns_av_unetI/netI     0.0363
_diffrn_reflns_Laue_measured_fraction_full 0.993
_diffrn_reflns_Laue_measured_fraction_max 0.991
_diffrn_reflns_limit_h_max       8
_diffrn_reflns_limit_h_min       -8
_diffrn_reflns_limit_k_max       10
_diffrn_reflns_limit_k_min       -10
_diffrn_reflns_limit_l_max       16
_diffrn_reflns_limit_l_min       -16
_diffrn_reflns_number            9042
_diffrn_reflns_point_group_measured_fraction_full 0.993
_diffrn_reflns_point_group_measured_fraction_max 0.991
_diffrn_reflns_theta_full        26.000
_diffrn_reflns_theta_max         27.483
_diffrn_reflns_theta_min         2.635
_diffrn_source                   'Rotating Anode'
_diffrn_source_current           24.0000
_diffrn_source_power             1.2000
_diffrn_source_voltage           50.0000
_exptl_absorpt_coefficient_mu    0.227
_exptl_absorpt_correction_T_max  1.00000
_exptl_absorpt_correction_T_min  0.78568
_exptl_absorpt_correction_type   multi-scan
_exptl_absorpt_process_details   'CrystalClear (Rigaku Inc., 2007)'
_exptl_crystal_colour            Colorless
_exptl_crystal_density_diffrn    1.243
_exptl_crystal_description       Plate
_exptl_crystal_F_000             266
_exptl_crystal_size_max          0.283
_exptl_crystal_size_mid          0.08
_exptl_crystal_size_min          0.03
_refine_diff_density_max         0.298
_refine_diff_density_min         -0.248
_refine_diff_density_rms         0.046
_refine_ls_extinction_method     none
_refine_ls_goodness_of_fit_ref   1.104
_refine_ls_hydrogen_treatment    constr
_refine_ls_matrix_type           full
_refine_ls_number_parameters     155
_refine_ls_number_reflns         3013
_refine_ls_number_restraints     0
_refine_ls_restrained_S_all      1.104
_refine_ls_R_factor_all          0.0496
_refine_ls_R_factor_gt           0.0451
_refine_ls_shift/su_max          0.000
_refine_ls_shift/su_mean         0.000
_refine_ls_structure_factor_coef Fsqd
_refine_ls_weighting_details
'w=1/[\s^2^(Fo^2^)+(0.0363P)^2^+0.3200P] where P=(Fo^2^+2Fc^2^)/3'
_refine_ls_weighting_scheme      calc
_refine_ls_wR_factor_gt          0.1000
_refine_ls_wR_factor_ref         0.1034
_reflns_Friedel_coverage         0.000
_reflns_number_gt                2822
_reflns_number_total             3013
_reflns_threshold_expression     'I > 2\s(I)'
_cod_data_source_file            jo7b01745_si_002.cif
_cod_data_source_block           mx5205_C8DTBDF
_cod_depositor_comments
;
The following automatic conversions were performed:

'_exptl_absorpt_correction_type' value 'Multi-scan' changed to
'multi-scan' according to
/home/data/users/saulius/crontab/automatic-downloads/rss-feeds/ACS/lib/dictionaries/cif_core.dic
dictionary named 'cif_core.dic' version 2.4.2 from 2011-04-26.

Automatic conversion script
Id: cif_fix_values 4973 2017-02-22 13:04:09Z antanas 

 Adding full bibliography for 4032919--4032922.cif.
;
_cod_original_cell_volume        660.8(5)
_cod_database_code               4032922
_shelx_space_group_comment
;
The symmetry employed for this shelxl refinement is uniquely defined
by the following loop, which should always be used as a source of
symmetry information in preference to the above space-group names.
They are only intended as comments.
;
_diffrn_number_total             3013
_olex2_refinement_description
;
1. Fixed Uiso
 At 1.2 times of:
  All C(H) groups, All C(H,H) groups
 At 1.5 times of:
  All C(H,H,H) groups
2.a Secondary CH2 refined with riding coordinates:
 C8(H8A,H8B), C9(H9A,H9B), C10(H10A,H10B), C11(H11A,H11B), C12(H12A,H12B),
 C13(H13A,H13B), C14(H14A,H14B)
2.b Aromatic/amide H refined with riding coordinates:
 C2(H2), C7(H7)
2.c Idealised Me refined as rotating group:
 C15(H15A,H15B,H15C)
;
_shelx_res_file
;
    mx5205.res created by SHELXL-2014/7

TITL mx5205_a.res in P-1
CELL 0.71073 6.6568 8.1766 12.8507 94.123 92.155 108.359
ZERR 1 0.0028 0.0035 0.0051 0.007 0.004 0.008
LATT 1
SFAC C H O S
UNIT 30 38 2 2

L.S. 4 0 75
PLAN  20
BOND $H
list 4
fmap 2
MORE -1
ACTA 52
CONF
REM <olex2.extras>
REM <HklSrc "%.\\mx5205.hkl">
REM </olex2.extras>

WGHT    0.036300    0.320000
FVAR       1.33600
S1    4   -0.360759    0.502414    0.368745    11.00000    0.02395    0.02588 =
         0.03758    0.00659    0.00601    0.01085
O1    3   -0.108431    0.160740    0.432855    11.00000    0.01914    0.02900 =
         0.03681    0.00947    0.00652    0.01031
C1    1   -0.547614   -0.159970    0.541427    11.00000    0.02145    0.02518 =
         0.02397    0.00118    0.00131    0.01044
C2    1   -0.342847   -0.087761    0.509337    11.00000    0.01978    0.02705 =
         0.02997    0.00223    0.00245    0.01171
AFIX  43
H2    2   -0.240338   -0.142553    0.514854    11.00000   -1.20000
AFIX   0
C3    1   -0.302858    0.069722    0.469044    11.00000    0.01682    0.02753 =
         0.02670    0.00187    0.00377    0.00808
C4    1   -0.137446    0.308837    0.399754    11.00000    0.02300    0.02628 =
         0.02892    0.00381    0.00210    0.01042
C5    1   -0.337311    0.314504    0.412891    11.00000    0.02119    0.02380 =
         0.02792    0.00271    0.00229    0.00889
C6    1   -0.097827    0.566360    0.332426    11.00000    0.02402    0.02648 =
         0.02994    0.00239    0.00423    0.00667
C7    1    0.002344    0.449288    0.354603    11.00000    0.02004    0.03068 =
         0.03115    0.00421    0.00397    0.00828
AFIX  43
H7    2    0.142459    0.460716    0.341745    11.00000   -1.20000
AFIX   0
C8    1   -0.009974    0.732304    0.281891    11.00000    0.02785    0.02892 =
         0.03713    0.00713    0.00482    0.00796
AFIX  23
H8A   2   -0.020809    0.827583    0.328390    11.00000   -1.20000
H8B   2   -0.094706    0.727051    0.217905    11.00000   -1.20000
AFIX   0
C9    1    0.221069    0.767048    0.256569    11.00000    0.02743    0.02513 =
         0.03076    0.00327    0.00457    0.00584
AFIX  23
H9A   2    0.304729    0.771635    0.320811    11.00000   -1.20000
H9B   2    0.230945    0.670810    0.210619    11.00000   -1.20000
AFIX   0
C10   1    0.317042    0.933907    0.204897    11.00000    0.03015    0.02622 =
         0.02940    0.00396    0.00201    0.00630
AFIX  23
H10A  2    0.236329    0.929497    0.139730    11.00000   -1.20000
H10B  2    0.307682    1.031009    0.250221    11.00000   -1.20000
AFIX   0
C11   1    0.547230    0.961360    0.183144    11.00000    0.03120    0.02709 =
         0.03045    0.00350    0.00524    0.00708
AFIX  23
H11A  2    0.554428    0.864117    0.137259    11.00000   -1.20000
H11B  2    0.625315    0.961628    0.248460    11.00000   -1.20000
AFIX   0
C12   1    0.656369    1.127571    0.133528    11.00000    0.03134    0.02620 =
         0.03066    0.00285    0.00401    0.00611
AFIX  23
H12A  2    0.583734    1.125010    0.066268    11.00000   -1.20000
H12B  2    0.643927    1.224960    0.177520    11.00000   -1.20000
AFIX   0
C13   1    0.889410    1.154966    0.117994    11.00000    0.03329    0.02841 =
         0.03586    0.00257    0.00935    0.00768
AFIX  23
H13A  2    0.901954    1.057071    0.074537    11.00000   -1.20000
H13B  2    0.962318    1.158629    0.185337    11.00000   -1.20000
AFIX   0
C14   1    0.997806    1.320162    0.067521    11.00000    0.03482    0.03067 =
         0.03798    0.00313    0.00802    0.00387
AFIX  23
H14A  2    0.975696    1.417012    0.108132    11.00000   -1.20000
H14B  2    0.931504    1.312590   -0.001952    11.00000   -1.20000
AFIX   0
C15   1    1.234767    1.355578    0.059006    11.00000    0.04033    0.04190 =
         0.07473    0.00532    0.02328    0.00677
AFIX 137
H15A  2    1.258059    1.263279    0.015816    11.00000   -1.50000
H15B  2    1.301856    1.363039    0.127415    11.00000   -1.50000
H15C  2    1.293934    1.462768    0.028412    11.00000   -1.50000
AFIX   0
HKLF 4

REM  mx5205_a.res in P-1
REM R1 =  0.0451 for    2822 Fo > 4sig(Fo)  and  0.0496 for all    3013 data
REM    155 parameters refined using      0 restraints

END

WGHT      0.0363      0.3197

REM Highest difference peak  0.298,  deepest hole -0.248,  1-sigma level  0.046
Q1    1  -0.0607  0.3744  0.3810  11.00000  0.05    0.30
Q2    1   0.2689  0.8593  0.2330  11.00000  0.05    0.30
Q3    1  -0.6122 -0.1124  0.5339  11.00000  0.05    0.30
Q4    1   0.5990  1.0409  0.1558  11.00000  0.05    0.28
Q5    1  -0.2316  0.3196  0.4081  11.00000  0.05    0.28
Q6    1  -0.0625  0.6397  0.3081  11.00000  0.05    0.27
Q7    1   0.9475  1.2368  0.0974  11.00000  0.05    0.27
Q8    1  -0.5920 -0.2412  0.5612  11.00000  0.05    0.26
Q9    1  -0.3140  0.0013  0.4999  11.00000  0.05    0.24
Q10   1  -0.2159  0.5302  0.3412  11.00000  0.05    0.23
Q11   1   0.7760  1.1432  0.1218  11.00000  0.05    0.22
Q12   1  -0.4473 -0.1169  0.5223  11.00000  0.05    0.22
Q13   1  -0.2140  0.0935  0.4478  11.00000  0.05    0.21
Q14   1  -0.0329  0.5189  0.3498  11.00000  0.05    0.20
Q15   1   0.1070  0.7531  0.2713  11.00000  0.05    0.20
Q16   1   0.4399  0.9518  0.1984  11.00000  0.05    0.20
Q17   1  -0.1055  0.2633  0.4196  11.00000  0.05    0.19
Q18   1  -0.3924  0.3808  0.3745  11.00000  0.05    0.19
Q19   1   1.1241  1.3362  0.0630  11.00000  0.05    0.17
Q20   1  -0.3510  0.5497  0.4417  11.00000  0.05    0.15
;
_shelx_res_checksum              79498
_shelx_hkl_file
;
   0   0   2  277.45    3.52
   0   0  -2  274.22    3.46
   0   0   2  261.23    3.32
   0   0  -2  288.36    3.59
   0   0   2  282.33    3.87
   0   0  -3   19.26    1.19
   0   0  -3   21.48    1.48
   0   0   3   16.18    1.18
   0   0   3   19.23    1.02
   0   0   3   32.36    3.49
   0   0  -3   18.56    1.19
   0   0   4 1313.97   14.94
   0   0  -4 1278.00   14.56
   0   0   4 1263.43   14.36
   0   0  -4 1291.31   14.47
   0   0   4 1325.69   14.73
   0   0   4 1301.33   14.94
   0   0  -4 1239.50   14.22
   0   0  -5   67.27    1.87
   0   0   5   64.87    1.73
   0   0  -5   67.46    2.27
   0   0   5   67.75    1.58
   0   0  -5   62.05    1.90
   0   0   6    7.60    1.35
   0   0  -6   11.04    1.72
   0   0   6    9.92    1.01
   0   0   6   10.71    1.70
   0   0  -6   10.81    1.23
   0   0   7  297.93    6.24
   0   0  -7  311.53    6.60
   0   0  -7  324.97    7.03
   0   0   7  290.12    5.43
   0   0   7  318.02    7.03
   0   0   8   84.98    4.58
   0   0  -8   93.30    5.14
   0   0  -8   82.85    4.57
   0   0   8   75.32    3.66
   0   0   8   95.18    8.12
   0   0   9   24.62    2.85
   0   0  -9   23.08    2.83
   0   0  -9   18.11    3.88
   0   0   9   16.06    1.66
   0   0   9   19.69    3.70
   0   0  10   78.98    8.32
   0   0 -10   72.81    7.67
   0   0 -10   73.08    8.10
   0   0  10   74.57    7.84
   0   0  11  110.91    6.31
   0   0 -11  109.27    6.35
   0   0 -11   84.75    4.47
   0   0  11   96.79    6.32
   0   0  12   87.80    4.41
   0   0 -12   71.47    4.45
   0   0 -12   74.77    3.40
   0   0  12   84.63    7.56
   0   0  13   56.40    4.49
   0   0 -13   40.12    3.85
   0   0 -13   36.66    2.61
   0   0  13   28.25    7.86
   0   0  14   38.02    4.76
   0   0 -14   17.43    3.16
   0   0  14   15.93    4.80
   0   0  15   17.72    3.67
   0   0 -15   22.20    4.39
   0   0  15   13.84    5.66
   0   0  16   25.64    5.69
   0   0 -16   25.24    5.57
   0   0  16   15.79    3.41
   0  -1  16    7.46    2.85
   0   1 -16   14.15    3.55
   0  -1  16    5.98    2.84
   0  -1  15   58.92   10.25
   0   1 -15   55.41    9.97
   0  -1  15   65.34   11.37
   0  -1  14   86.73    7.92
   0   1 -14   79.79    7.50
   0   1 -14   65.86    5.52
   0  -1  14   77.04    9.11
   0  -1  13   28.31    3.14
   0   1 -13   31.24    3.22
   0   1 -13   10.28    5.73
   0  -1  13   26.55    5.58
   0  -1  12   52.50    4.67
   0   1 -12   48.22    4.26
   0   1 -12   35.92    5.43
   0  -1  12   44.10    8.25
   0  -1  11   66.78    4.42
   0   1 -11   79.55    5.01
   0   1 -11   54.85    5.35
   0  -1  11   66.69    7.27
   0  -1  10  224.37    6.91
   0   1 -10  249.59    7.99
   0   1 -10  222.93    7.03
   0  -1  10  217.25    8.24
   0  -1   9   41.84    3.92
   0   1  -9   46.43    4.48
   0   1  -9   48.64    5.64
   0  -1   9   59.81    6.22
   0  -1   8  270.69    7.34
   0   1  -8  298.11    7.99
   0  -1   8  255.32    6.47
   0  -1   8  290.34    8.66
   0  -1   7  786.16   13.90
   0   1  -7  773.65   13.46
   0  -1   7  740.84   12.66
   0  -1   7  810.95   15.84
   0  -1   6   51.37    1.80
   0   1  -6   59.47    2.32
   0   1  -6   53.61    1.96
   0   1  -6   62.99    2.12
   0  -1   6   57.23    1.59
   0  -1   5    1.21    1.27
   0   1  -5    2.66    1.16
   0  -1   5    0.98    0.61
   0   1  -5    1.78    1.10
   0  -1   5    0.65    0.48
   0  -1   5    0.68    1.00
   0   1  -5    4.62    1.24
   0  -1   4  903.94   10.54
   0   1  -4  909.29   10.70
   0  -1   4  902.42   10.60
   0   1  -4  920.25   10.68
   0  -1   4  910.53   10.42
   0  -1   4  948.95   11.47
   0   1  -4  911.56   10.98
   0  -1   3   30.81    1.18
   0  -1   3   28.89    1.19
   0   1  -3   32.01    1.26
   0  -1   3   28.58    1.00
   0  -1   3   29.46    1.67
   0   1  -2  130.00    2.07
   0   1  -2  130.04    2.12
   0  -1   2  131.54    2.06
   0  -1   2  127.94    2.46
   0  -1   1  691.42    7.68
   0  -1   1  677.84    7.78
   0   1  -1  732.97    8.20
   0  -1   1  734.41    8.53
   0   1  -1  694.74    8.07
   0   1   0    9.50    0.57
   0  -1   0    7.45    0.46
   0  -1   0    6.15    0.65
   0  -1   0    7.36    0.50
   0   1   1   35.94    0.99
   0  -1  -1   36.21    1.24
   0  -1  -1   37.63    0.90
   0   1   2  106.44    2.45
   0  -1  -2  106.45    2.70
   0   1   2  104.44    2.23
   0  -1  -5 1129.14   15.12
   0  -1  -5 1184.46   16.11
   0   1   5 1217.90   15.85
   0   1   5 1113.47   14.87
   0  -1  -5 1154.13   15.97
   0  -1  -6   71.55    2.75
   0   1   6   78.83    4.14
   0   1   6   69.01    2.48
   0  -1  -6   75.09    4.82
   0  -1  -7  574.56   11.19
   0   1   7  565.73   10.13
   0   1   7  551.71   10.92
   0   1   8  195.59    5.95
   0  -1  -8  194.05    6.04
   0   1   8  175.55   14.19
   0   1   8  194.26    5.94
   0   1   9  121.76    6.08
   0  -1  -9  107.91   11.00
   0   1   9  104.50   10.33
   0   1   9  108.27   10.93
   0   1  10   35.77    3.63
   0  -1 -10   35.91    3.82
   0   1  10   33.26    3.33
   0   1  11   63.97    4.45
   0  -1 -11   57.14    4.52
   0   1  11   50.01    3.50
   0   1  12   63.36    6.59
   0  -1 -12   74.49    5.35
   0   1  12   63.94    6.44
   0   1  13    1.69    1.62
   0  -1 -13    2.63    2.26
   0   1  13    3.65    1.67
   0   1  14    6.78    2.77
   0  -1 -14    9.92    2.78
   0   1  14    8.29    2.04
   0   1  15   38.48    6.46
   0  -1 -15   40.28    7.06
   0   1  15   38.45    6.03
   0   1  16    7.02    3.08
   0  -1 -16   21.58    5.78
   0   1  16    4.24    1.99
   0  -2  16   32.18    6.62
   0   2 -16   22.98    5.08
   0  -2  15  117.29    8.32
   0   2 -15  106.61    8.18
   0  -2  15  101.88   10.85
   0  -2  14   23.11    2.96
   0   2 -14   35.83    4.39
   0   2 -14   18.68    2.50
   0  -2  14   16.24    4.93
   0  -2  13    3.30    2.06
   0   2 -13    4.05    1.93
   0   2 -13   -0.14    1.00
   0  -2  13    2.24    1.30
   0  -2  12   92.70    4.48
   0   2 -12   97.64    5.07
   0   2 -12   77.51    3.80
   0  -2  12   90.11    7.10
   0  -2  11  338.10   13.19
   0   2 -11  369.04   14.71
   0   2 -11  364.72   14.48
   0  -2  11  370.73   16.63
   0  -2  10    1.91    1.10
   0   2 -10    2.39    1.41
   0   2 -10    2.12    0.90
   0  -2  10   -0.06    1.30
   0  -2   9  321.59   13.39
   0   2  -9  320.95   13.47
   0   2  -9  321.29   13.33
   0  -2   9  318.10   13.56
   0  -2   8   12.33    1.53
   0   2  -8   10.64    1.45
   0   2  -8   15.90    1.63
   0  -2   8    9.03    1.69
   0  -2   7 1080.90   18.46
   0   2  -7 1052.07   18.26
   0   2  -7 1061.67   18.22
   0  -2   7 1088.19   19.25
   0  -2   6    5.77    1.43
   0   2  -6    6.05    0.91
   0   2  -6    5.24    1.15
   0   2  -6    6.10    1.01
   0  -2   6    4.65    0.74
   0  -2   6    7.48    1.90
   0  -2   5  349.00    5.50
   0   2  -5  348.09    5.60
   0   2  -5  347.85    5.79
   0   2  -5  348.74    5.57
   0  -2   5  340.91    5.30
   0  -2   5  365.37    6.45
   0  -2   4 2963.70   37.13
   0   2  -4 2831.87   31.05
   0  -2   4 2891.51   36.22
   0  -2   4 2874.66   32.07
   0  -2   3  511.98    6.41
   0   2  -3  481.15    6.13
   0   2  -3  496.27    6.74
   0   2  -3  530.51    6.81
   0  -2   3  518.35    7.21
   0  -2   2  346.48    4.57
   0  -2   2  344.87    4.60
   0  -2   2  362.90    5.22
   0   2  -2  370.25    5.79
   0   2  -2  350.30    4.71
   0  -2   2  381.50    5.79
   0   2  -2  367.91    5.47
   0   2  -1  629.76    7.87
   0  -2   1  634.03    7.52
   0  -2   1  601.82    8.28
   0   2  -1  660.53    8.99
   0  -2   1  608.86    7.44
   0  -2   1  650.16    8.57
   0   2  -1  614.69    8.00
   0   2   0  167.79    2.83
   0  -2   0  153.13    2.45
   0  -2   0  167.61    4.19
   0   2   0  155.18    3.07
   0   2   0  172.87    2.93
   0  -2   0  173.82    2.80
   0   2   1  440.65    5.77
   0  -2  -1  444.28    5.60
   0  -2  -1  436.15    6.24
   0   2   1  452.12    5.80
   0  -2  -1  419.16    5.32
   0   2   2    3.77    0.88
   0  -2  -2    0.88    0.99
   0   2   2    1.69    0.89
   0  -2  -2    3.21    0.54
   0   2   3    1.53    0.95
   0  -2  -3    3.98    1.23
   0  -2  -3    1.91    0.96
   0   2   3    2.29    0.72
   0   2   4   89.47    2.63
   0  -2  -4   93.13    3.20
   0   2   4   92.71    2.20
   0  -2  -4   81.71    2.29
   0   2   5   69.22    2.49
   0  -2  -5   69.72    2.98
   0   2   5   64.98    1.93
   0   2   5   70.46    1.94
   0  -2  -5   75.31    4.21
   0   2   6 7792.58  328.56
   0   2   6 7108.26  299.56
   0   2   6 7130.87  300.43
   0   2   7 2747.40  218.49
   0  -2  -7 2536.82   58.78
   0   2   7 2377.32   54.54
   0   2   7 2408.65   55.07
   0   2   8  744.87   30.08
   0  -2  -8  679.22   27.56
   0   2   8  647.52   25.94
   0   2   9  206.08    6.95
   0  -2  -9  201.26    7.12
   0  -2 -10  113.93    6.71
   0   2  11   66.75    3.99
   0  -2 -11   73.21    4.86
   0   2  12  126.35    5.86
   0  -2 -12  117.45    6.63
   0   2  12  109.04    4.33
   0   2  13    4.86    2.03
   0  -2 -13    2.88    2.66
   0   2  14    5.64    2.66
   0  -2 -14    6.33    3.33
   0   2  15   13.52    3.34
   0  -2 -15   26.91    7.52
   0  -3  16  134.60   11.76
   0   3 -16  104.21    9.58
   0  -3  16   98.46   12.48
   0  -3  15  160.08   10.92
   0   3 -15  155.83   10.80
   0  -3  15  167.40   15.64
   0  -3  14   29.03    3.62
   0   3 -14   31.70    4.10
   0   3 -14   26.52    4.75
   0  -3  14   24.04    7.38
   0  -3  13    2.32    1.18
   0   3 -13    6.21    2.37
   0   3 -13    1.35    1.23
   0  -3  13    5.24    1.75
   0  -3  12  203.04    9.87
   0   3 -12  202.87   10.26
   0   3 -12  201.89    9.96
   0  -3  12  213.97   12.92
   0  -3  11  187.90    8.20
   0   3 -11  177.96    8.25
   0   3 -11  179.82    7.91
   0  -3  11  186.71    8.72
   0  -3  10  104.35    5.64
   0   3 -10   88.57    5.06
   0   3 -10   96.11    5.28
   0  -3  10   92.26    5.78
   0  -3   9   17.32    2.43
   0   3  -9   16.87    2.46
   0   3  -9   22.04    2.83
   0  -3   9   18.49    2.89
   0  -3   8  750.18   29.95
   0   3  -8  726.93   29.15
   0   3  -8  693.69   27.77
   0  -3   8  755.36   30.55
   0  -3   7    3.88    1.03
   0   3  -7    2.65    0.99
   0   3  -7    1.33    0.99
   0  -3   7    1.12    1.33
   0  -3   6 1846.26   30.51
   0   3  -6 1646.80   27.44
   0   3  -6 1865.06   31.12
   0   3  -6 1852.86   30.89
   0  -3   6 1840.10   31.34
   0  -3   5  599.20   10.60
   0   3  -5  578.97   10.39
   0   3  -5  637.04   11.49
   0   3  -5  632.17   11.40
   0  -3   5  651.54   12.37
   0  -3   4 2051.70   26.14
   0  -3   4 2154.09   27.47
   0   3  -4 2074.12   27.78
   0   3  -4 2145.84   27.65
   0  -3   4 2193.30   28.89
   0  -3   3   21.50    2.67
   0  -3   3   21.10    1.42
   0   3  -3   23.03    3.13
   0   3  -3   21.67    1.49
   0  -3   3   15.83    1.25
   0   3  -2   23.34    1.38
   0  -3   2   29.76    3.16
   0  -3   2   29.22    4.81
   0   3  -2   26.87    4.31
   0   3  -2   23.68    1.65
   0  -3   2   21.61    2.25
   0   3  -2   22.33    1.74
   0   3  -1 2490.35   27.37
   0  -3   1 2483.28   27.13
   0  -3   1 2569.72   29.07
   0   3  -1 2362.53   26.59
   0  -3   1 2462.32   27.19
   0  -3   0 1042.58   12.07
   0  -3   0 1017.27   14.07
   0  -3   0 1028.96   12.17
   0   3   1  968.12   11.78
   0  -3  -1  898.42   10.70
   0  -3  -1  902.81   11.68
   0   3   1  868.02   10.83
   0   3   2   -0.39    1.21
   0  -3  -2    0.69    0.71
   0  -3  -2    2.23    1.18
   0   3   2    0.99    0.76
   0   3   2    2.35    1.22
   0  -3  -2    1.39    0.78
   0   3   3  100.57    2.60
   0  -3  -3  108.06    2.51
   0   3   4  292.76    6.20
   0   3   4  293.38    5.78
   0   3   5   80.00    3.08
   0  -3  -5   86.88    3.62
   0   3   5   81.34    2.37
   0   3   6   53.85    3.35
   0  -3  -6   59.84    3.93
   0   3   6   59.13    3.04
   0   3   7   39.16    4.08
   0  -3  -7   35.01    3.92
   0   3   7   34.20    3.08
   0   3   8  432.02   12.37
   0  -3  -8  413.10   12.27
   0   3   8  388.85   10.44
   0   3   9 1107.40   41.05
   0  -3  -9 1080.59   40.43
   0   3   9 1033.44   37.82
   0   3  10  574.36   23.28
   0  -3 -10  542.23   22.24
   0   3  10  581.43   22.72
   0   3  11  197.13   10.33
   0  -3 -11  192.79   10.46
   0   3  11  185.55    8.75
   0  -3 -12  178.61   11.13
   0   3  12  158.65    8.46
   0  -3 -13   10.35    2.95
   0   3  14   10.16    3.50
   0  -3 -14    6.54    3.18
   0   3  15   21.88    4.43
   0  -3 -15   23.18    5.08
   0  -4  15   13.68    3.58
   0   4 -15   22.00    6.28
   0  -4  15   15.57    6.66
   0  -4  14   10.09    2.87
   0   4 -14   14.60    3.93
   0   4 -14    8.47    3.28
   0  -4  14    5.91    2.63
   0  -4  13  147.59    5.65
   0   4 -13  152.53    6.27
   0   4 -13  162.40    6.25
   0  -4  13  170.66    8.98
   0  -4  12  401.09   13.72
   0   4 -12  430.21   14.99
   0   4 -12  418.34   14.48
   0  -4  12  456.47   16.49
   0  -4  11  254.20   12.11
   0   4 -11  238.03   11.58
   0   4 -11  247.76   11.87
   0  -4  11  237.12   11.96
   0  -4  10   33.20    2.56
   0   4 -10   41.07    2.88
   0   4 -10   38.82    2.80
   0  -4  10   49.50    4.18
   0  -4   9  168.04    6.96
   0   4  -9  167.57    7.18
   0   4  -9  175.92    7.60
   0  -4   9  181.88    8.48
   0  -4   8  491.46   13.26
   0   4  -8  472.11   13.20
   0   4  -8  459.79   12.70
   0  -4   8  464.02   13.41
   0  -4   7  445.36   17.98
   0   4  -7  462.62   18.87
   0   4  -7  456.61   18.60
   0  -4   7  464.39   19.43
   0  -4   6   53.48    2.91
   0  -4   6   63.85    3.41
   0   4  -6   59.06    3.38
   0   4  -6   65.86    3.78
   0  -4   6   61.26    4.29
   0  -4   5  741.32   18.30
   0  -4   5  773.25   18.33
   0   4  -5  781.57   18.85
   0  -4   5  782.32   19.49
   0  -4   4  146.53    4.96
   0  -4   4  155.74    3.91
   0   4  -4  151.54    4.33
   0  -4   4  144.63    5.14
   0  -4   3 2813.63   45.67
   0  -4   3 2842.27   46.93
   0   4  -3 2972.41  125.63
   0  -4   3 3076.17  130.24
   0   4  -2 2538.54   41.44
   0  -4   2 2511.75   40.88
   0  -4   2 2789.46   46.85
   0   4  -2 2801.59   46.03
   0   4  -1  516.90   10.69
   0  -4   1  499.06    9.01
   0  -4   1  569.05   12.14
   0   4  -1  476.11    9.33
   0   4   0   20.46    2.49
   0  -4   0   22.86    1.35
   0  -4   0   36.87    5.25
   0   4   0   27.07    1.78
   0  -4   0   24.73    2.43
   0   4   1   70.12    2.78
   0  -4  -1   59.41    1.93
   0  -4  -1   68.64    3.41
   0   4   1   61.75    2.54
   0   4   2  371.20    7.55
   0  -4  -2  349.70    7.80
   0   4   2  347.50    7.08
   0   4   3  423.67    8.52
   0  -4  -3  412.74    8.89
   0   4   3  441.06    8.62
   0   4   4  532.40   13.42
   0  -4  -4  572.13   14.78
   0   4   4  506.62   12.52
   0   4   5   84.71    7.36
   0  -4  -5   83.68    7.57
   0   4   5   83.13    6.98
   0   4   6    0.64    1.41
   0  -4  -6    2.27    1.58
   0   4   6    2.29    1.22
   0   4   7   61.91    5.16
   0  -4  -7   73.78    5.92
   0   4   7   60.90    4.29
   0   4   8   63.12    4.46
   0  -4  -8   67.70    5.04
   0   4   8   64.97    3.78
   0   4   9  126.74    6.48
   0  -4  -9  129.30    7.27
   0   4   9  129.38    5.72
   0   4  10    2.86    3.13
   0  -4 -10    4.84    3.21
   0   4  10    0.78    0.87
   0   4  11  307.46   16.54
   0  -4 -11  303.60   16.91
   0   4  11  314.25   16.23
   0   4  12  127.24    5.15
   0  -4 -12  105.89    5.17
   0   4  13   72.97    6.36
   0  -4 -13   68.06    6.00
   0   4  14   38.01    8.04
   0  -4 -14   25.91    5.57
   0   5 -15   40.27    9.83
   0   5 -15   35.71    8.52
   0  -5  15   25.67   12.46
   0   5 -14    4.33    1.66
   0   5 -14   11.15    2.52
   0  -5  14    8.91    3.48
   0  -5  13    2.51    1.29
   0   5 -13    2.33    1.49
   0   5 -13    1.01    1.18
   0  -5  13    2.60    1.74
   0  -5  12   20.91    2.43
   0   5 -12   22.68    2.81
   0   5 -12   28.60    3.29
   0  -5  12   25.83    3.79
   0  -5  11    2.54    0.95
   0   5 -11    3.40    2.06
   0   5 -11    1.01    1.17
   0  -5  11    0.88    1.81
   0  -5  10   80.97    4.66
   0   5 -10   68.18   12.21
   0   5 -10   70.15   12.66
   0  -5  10   70.75   12.82
   0  -5   9  480.92   19.06
   0   5  -9  481.60   19.47
   0   5  -9  477.34   19.40
   0  -5   9  482.23   20.23
   0  -5   8  475.56   17.85
   0   5  -8  553.76   21.08
   0   5  -8  496.67   19.03
   0  -5   8  525.68   20.71
   0  -5   7  247.09    5.84
   0   5  -7  255.70    6.60
   0   5  -7  246.57    6.80
   0  -5   7  241.51    7.13
   0  -5   6   28.19    3.28
   0   5  -6   27.10    3.38
   0   5  -6   29.71    3.73
   0  -5   6   27.95    4.31
   0  -5   5  438.25   17.86
   0  -5   5  447.60   18.15
   0   5  -5  476.63   19.53
   0  -5   5  466.75   19.48
   0  -5   4  648.62   26.05
   0  -5   4  665.47   26.60
   0   5  -4  723.59   29.12
   0  -5   4  715.01   29.25
   0   5  -3  378.20    9.60
   0  -5   3  348.74    8.67
   0  -5   3  397.10   10.86
   0   5  -3  384.21   10.27
   0   5  -2  289.01    8.35
   0  -5   2  257.95    6.65
   0  -5   2  286.72    9.86
   0   5  -2  294.60    8.05
   0  -5   2  292.37    8.67
   0   5  -1  199.44    6.98
   0  -5   1  232.71   11.09
   0  -5   1  197.27    6.64
   0   5   0 1393.55   32.60
   0  -5   0 1555.93   39.07
   0   5   0 1451.18   34.11
   0  -5   0 1369.01   32.69
   0   5   1 2589.14  205.98
   0  -5  -1 2499.36   60.49
   0   5   1 2605.73  207.21
   0  -5  -1 2561.21   59.77
   0   5   2    8.27    1.98
   0  -5  -2    8.63    2.00
   0   5   2    7.56    1.57
   0  -5  -3    2.48    1.49
   0   5   3    3.19    1.68
   0   5   4  104.77    4.41
   0  -5  -4   81.56    8.58
   0   5   4   80.93    8.31
   0   5   5    0.64    1.60
   0  -5  -5   -0.06    1.60
   0   5   6   26.26    3.42
   0  -5  -6   28.22    3.42
   0   5   6   21.29    2.08
   0   5   7  123.71    6.49
   0  -5  -7  140.56    8.03
   0   5   7  122.54    5.64
   0   5   8   70.86    4.01
   0  -5  -8   80.99    5.22
   0   5   8   74.65    3.44
   0   5   9   26.85    3.50
   0  -5  -9   20.35    2.98
   0   5   9   29.64    2.57
   0   5  10    2.68    1.83
   0  -5 -10    4.28    2.09
   0   5  10    1.91    1.35
   0   5  11    5.01    2.61
   0  -5 -11    8.96    3.26
   0   5  11    8.44    1.62
   0   5  12   90.02    7.50
   0  -5 -12   88.79    7.69
   0   5  13   19.53    5.06
   0  -5 -13   17.44    4.86
   0   6 -14   64.21    6.20
   0   6 -14   63.75    6.20
   0  -6  14   73.71    7.58
   0   6 -13   12.45    2.91
   0   6 -13   19.94    5.58
   0  -6  13   10.76    3.10
   0   6 -12   89.52    3.87
   0   6 -12  101.73    4.63
   0  -6  12   97.15    5.77
   0   6 -11   30.83    3.51
   0   6 -11   28.59    3.84
   0  -6  11   26.66    4.17
   0  -6  10   73.65    5.19
   0   6 -10   73.71    5.55
   0   6 -10   64.94    5.11
   0  -6  10   87.52    7.58
   0  -6   9    0.67    0.91
   0   6  -9    3.27    2.07
   0   6  -9    4.09    2.24
   0  -6   9    1.11    1.87
   0  -6   8    7.47    1.73
   0   6  -8    0.96    1.40
   0   6  -8    2.62    1.47
   0  -6   8    4.38    1.90
   0  -6   7    4.34    1.47
   0   6  -7    4.78    2.01
   0   6  -7    7.79    2.15
   0  -6   7    4.20    3.25
   0  -6   6  188.07    7.66
   0   6  -6  213.67    9.22
   0  -6   6  208.73    9.51
   0  -6   5  373.43   14.24
   0   6  -5  398.34   15.80
   0  -6   4  312.19    7.25
   0  -6   4  304.27    7.85
   0   6  -4  318.40    8.39
   0  -6   4  301.95    8.76
   0   6  -3    6.49    1.47
   0  -6   3   14.00    2.76
   0   6  -3   10.66    2.57
   0  -6   3    7.99    3.02
   0   6  -2  145.02    5.18
   0  -6   2  148.11   11.38
   0   6  -2  163.58    5.97
   0  -6   2  158.18    7.22
   0   6  -1  424.96   12.95
   0  -6   1  458.73   17.64
   0  -6   1  428.11   13.15
   0   6   0  421.02   13.59
   0  -6   0  432.76   16.20
   0   6   0  425.50   12.17
   0  -6   0  408.94   12.50
   0   6   1   27.02    6.34
   0  -6  -1   31.06    4.01
   0   6   1   29.29    3.09
   0  -6  -1   28.53    3.49
   0   6   2  277.10    7.09
   0  -6  -2  283.32   18.35
   0   6   2  275.23    6.88
   0  -6  -2  293.28    9.30
   0   6   3  256.99    7.21
   0  -6  -3  289.02    8.66
   0   6   3  262.22    6.88
   0   6   4 1424.12   52.44
   0  -6  -4 1556.13   56.95
   0   6   4 1472.42   53.96
   0   6   5  136.80    7.33
   0  -6  -5  116.95    6.82
   0   6   5  122.96    5.83
   0   6   6   72.19    4.71
   0  -6  -6   59.32    5.41
   0   6   6   62.32    3.51
   0   6   7   28.90    4.24
   0  -6  -7   30.38    5.17
   0   6   7   23.81    2.97
   0   6   8   12.11    3.30
   0  -6  -8   17.74    4.08
   0   6   8   18.78    3.19
   0   6   9    3.17    1.91
   0  -6  -9   11.66    3.01
   0   6   9    4.85    1.79
   0   6  10    3.05    1.93
   0  -6 -10    6.33    3.36
   0   6  10    2.17    1.28
   0   6  11   16.52    4.96
   0  -6 -11    5.32    2.44
   0   6  12   24.59    6.37
   0  -6 -12   20.76    5.08
   0   7 -12   37.98    7.24
   0   7 -12   48.66    4.68
   0  -7  12   42.16    8.54
   0   7 -11  191.38   12.61
   0   7 -11  187.87   12.47
   0  -7  11  187.14   13.05
   0   7 -10    4.34    2.08
   0   7 -10    4.46    2.23
   0  -7  10    3.61    2.15
   0   7  -9   82.66    7.07
   0   7  -9   87.65    7.71
   0  -7   9   71.16    6.85
   0   7  -8   26.72    2.96
   0   7  -8   20.75    3.91
   0  -7   8   24.20    3.45
   0  -7   7  194.69    7.07
   0   7  -7  209.19    8.13
   0   7  -7  225.52    9.18
   0  -7   7  214.22    9.54
   0  -7   6   69.20   12.24
   0   7  -6   65.29    6.97
   0  -7   5   14.12    1.79
   0   7  -5   20.55    3.38
   0  -7   5    9.94    2.55
   0  -7   4    4.03    1.59
   0  -7   4    0.97    1.36
   0   7  -4   10.32    3.35
   0  -7   4    1.00    2.03
   0   7  -3   23.19    2.05
   0  -7   3   30.17    4.10
   0   7  -3   32.48    3.63
   0  -7   3   37.91    5.27
   0   7  -2   83.98    5.95
   0  -7   2   91.62   14.23
   0   7  -2   92.06    5.31
   0  -7   2   99.34    6.22
   0   7  -1  113.07    6.27
   0  -7   1  124.63   13.70
   0   7  -1  136.88    7.10
   0  -7   1  110.57    6.73
   0   7   0   27.02    4.24
   0  -7   0   33.99    6.24
   0   7   0   36.88    3.84
   0  -7   0   34.40    4.12
   0   7   1    5.36    1.09
   0  -7  -1    3.10    2.40
   0   7   1    5.26    1.95
   0  -7  -1    3.32    2.18
   0   7   2   95.90   11.73
   0  -7  -2  108.40   17.64
   0   7   2  120.29    5.75
   0  -7  -2  107.22    6.57
   0   7   3  149.19    6.59
   0  -7  -3  161.31   13.80
   0   7   3  147.12    6.38
   0  -7  -3  152.51    7.62
   0   7   4   11.67    2.98
   0  -7  -4   15.64    3.56
   0   7   4   13.03    2.63
   0  -7  -4   17.47    3.79
   0   7   5  299.22   11.40
   0  -7  -5  321.78   13.07
   0   7   5  272.23    9.94
   0   7   6    6.21    2.57
   0  -7  -6    6.11    3.83
   0   7   6    2.30    1.77
   0   7   7  448.78   14.66
   0  -7  -7  497.66   16.65
   0   7   7  442.81   13.57
   0   7   8  106.19    5.91
   0  -7  -8   95.69    6.09
   0   7   8  101.64    4.05
   0   7   9   78.72    6.82
   0  -7  -9   98.87    8.44
   0   7   9   91.34    6.61
   0   7  10    5.32    2.94
   0  -7 -10    3.38    3.09
   0   8 -11   37.52    8.87
   0   8 -11   41.93   10.05
   0  -8  11   40.23    9.87
   0   8 -10    1.48    1.34
   0   8 -10    1.37    1.54
   0  -8  10    2.38    2.18
   0   8  -9    3.32    1.55
   0   8  -9    3.00    1.67
   0  -8   9    9.39    3.68
   0   8  -8  232.89    6.15
   0   8  -8  209.62    6.33
   0  -8   8  215.79    7.60
   0   8  -7   51.12    5.21
   0   8  -7   44.41    5.78
   0   8  -6   22.06    3.07
   0  -8   6   27.49    4.12
   0   8  -5    3.87    2.61
   0  -8   5    2.86    2.14
   0  -8   4  166.72    9.34
   0  -8   4  159.54    9.45
   0   8  -4  185.01   10.52
   0  -8   4  171.05   10.64
   0   8  -3  147.06    8.26
   0  -8   3  155.40    9.62
   0   8  -3  159.52    9.75
   0  -8   3  155.52   10.44
   0   8  -2   69.41    4.16
   0  -8   2   64.37    7.38
   0  -8   2   71.44    5.90
   0   8  -1    8.21    2.99
   0  -8   1    6.50    3.10
   0   8  -1    6.11    2.29
   0  -8   1   20.69    4.02
   0   8   0    1.39    1.10
   0  -8   0    2.40    2.16
   0   8   0   10.99    3.96
   0  -8   0    8.01    3.48
   0   8   1    1.05    1.25
   0  -8  -1   10.64    3.64
   0   8   1   10.01    2.91
   0  -8  -1    6.06    4.39
   0   8   2    8.82    3.42
   0  -8  -2   11.62    4.86
   0   8   2    5.29    1.45
   0  -8  -2   10.12    3.44
   0   8   3    4.28    2.47
   0  -8  -3   10.16    3.37
   0   8   3   10.32    3.15
   0  -8  -3    6.89    3.44
   0   8   4    5.67    1.67
   0  -8  -4    3.55    1.98
   0   8   4    2.50    1.95
   0  -8  -4    8.30    3.77
   0  -8  -5    7.61    2.69
   0   8   5   11.74    2.26
   0  -8  -5    9.01    2.70
   0   8   6   22.54    4.44
   0  -8  -6   34.55    6.41
   0   8   6   20.05    3.43
   0  -8  -6   21.85    5.02
   0   8   7   22.15    6.15
   0  -8  -7   24.54    7.28
   0   8   7   23.50    6.28
   0   8   8  139.65   10.24
   0  -8  -8  133.89   10.68
   0   8   8  116.75    8.07
   0   9  -8   36.02    8.64
   0   9  -8   43.52   10.49
   0  -9   8   44.33   10.98
   0   9  -7   16.63    3.98
   0   9  -7   22.42    5.02
   0  -9   7   20.77    5.13
   0   9  -6    9.56    2.89
   0  -9   6   13.68    4.56
   0   9  -5  145.02   10.55
   0  -9   5  113.91    9.16
   0   9  -4   64.31    5.90
   0  -9   3    4.37    1.93
   0   9  -3    9.04    3.39
   0  -9   3    8.39    4.12
   0  -9   2   27.97    5.98
   0   9  -2   15.90    4.13
   0  -9   2   34.01    7.41
   0  -9   1   32.68   10.79
   0   9  -1   20.65    4.30
   0  -9   1   41.76    8.31
   0   9   0   90.76    3.60
   0  -9   0   93.81   13.22
   0   9   0  103.99    5.15
   0  -9   0  105.00    6.42
   0   9   1   79.06   10.28
   0  -9  -1   65.87   14.02
   0   9   1   90.78    6.97
   0  -9  -1   99.25    8.95
   0   9   2   16.32    7.90
   0  -9  -2   16.37    8.74
   0   9   2   38.33    6.32
   0  -9  -2   54.35    6.32
   0   9   3    5.33    2.61
   0  -9  -3    2.85    2.86
   0   9   3    9.15    3.06
   0  -9  -3    2.75    2.49
   0   9   4    1.10    1.67
   0  -9  -4    2.36    2.24
   0   9   4    3.00    1.78
   0  -9  -4    2.53    2.51
   0   9   5    4.36    2.10
   0  -9  -5    8.61    4.14
   0   9   5    2.90    1.64
   0  -9  -5    1.62    2.40
   0   9   6    4.04    2.19
   0   9   6    7.64    2.95
   0  -9  -6    8.09    4.29
   0 -10   3   53.14    5.85
   0 -10   3   71.11    7.89
   0 -10   2   18.10    5.44
   0  10  -2   13.35    3.89
   0 -10   2   24.13    6.90
   0 -10   1    3.18    4.71
   0  10  -1   15.05    4.61
   0 -10   1   21.47    6.22
   0 -10   0    3.75    2.70
   0  10   0    1.70    1.94
   0 -10   0    0.62    2.26
   1 -10  -3   78.34   15.32
  -1  10   3   97.62    9.63
   1 -10  -3  100.77    9.52
   1 -10  -2   27.77   11.07
  -1  10   2   33.80    8.41
   1 -10  -2   32.44    8.37
   1 -10  -1    6.30    2.99
  -1  10   1    8.43    4.03
   1 -10  -1    8.49    3.65
   1 -10   0   54.72   12.07
  -1  10   0   98.32    8.22
   1 -10   0  108.82    9.35
   1 -10   1   63.83   13.31
  -1  10  -1  108.55    8.37
   1 -10   1  107.11    8.70
   1 -10   2   19.12    5.45
  -1  10  -2   19.27    4.49
   1 -10   2   15.76    4.60
   1 -10   3   50.80    5.12
  -1  10  -3   66.73    6.68
   1 -10   3   81.47    7.68
   1 -10   4  111.78    8.60
  -1  10  -4  143.21   11.13
   1 -10   4  130.93   10.53
  -1  10  -5    2.81    1.96
   1 -10   5    0.97    2.05
  -1   9   7  211.41   17.52
   1  -9  -7  257.01   21.93
  -1   9   7  196.89   16.33
   1  -9  -7  229.74   19.79
  -1   9   6    4.93    2.69
   1  -9  -6    3.91    3.58
  -1   9   6    7.67    2.81
   1  -9  -6    8.39    3.53
  -1   9   5  145.87   10.26
   1  -9  -5  165.97   20.21
  -1   9   5  168.54   11.67
   1  -9  -5  176.15   12.51
  -1   9   4   15.70    5.95
   1  -9  -4   21.63    6.80
  -1   9   4   17.70    3.52
   1  -9  -4   17.85    4.11
  -1   9   3  131.28    5.28
   1  -9  -3  150.34   14.92
  -1   9   3  141.50    5.24
   1  -9  -3  138.44    6.82
  -1   9   2    9.29    4.54
   1  -9  -2   22.78    8.77
  -1   9   2   21.76    4.44
   1  -9  -2   23.36    5.50
  -1   9   1    2.99    1.74
   1  -9  -1    5.58    4.90
  -1   9   1    5.71    2.95
   1  -9  -1   10.44    3.41
   1  -9   0  139.90    8.88
  -1   9   0  139.76    5.82
   1  -9   0  136.59    6.78
   1  -9   1  137.16    8.53
   1  -9   1  158.86    6.46
   1  -9   2   39.39   11.56
  -1   9  -2   56.45    6.10
   1  -9   2   54.69    6.10
   1  -9   3   20.29    4.09
  -1   9  -3   22.83    3.54
   1  -9   3   22.64    4.20
   1  -9   4  119.02    5.85
  -1   9  -4  126.63    5.86
   1  -9   4  112.43    5.95
  -1   9  -5   83.34    4.32
   1  -9   5   78.43    5.80
  -1   9  -6    3.69    2.07
   1  -9   6    3.67    2.12
   1  -9   7   88.63    7.54
  -1   9  -8    1.09    1.61
  -1   9  -8    2.34    1.70
   1  -9   8    3.02    2.77
  -1   9  -9  104.96    9.21
  -1   9  -9  134.82   11.87
  -1   8   9    9.48    3.15
   1  -8  -9   11.81    4.15
  -1   8   9    0.47    1.58
   1  -8  -8   24.51    7.12
  -1   8   8   11.91    2.76
   1  -8  -8   19.46    5.77
  -1   8   7  113.51    8.38
   1  -8  -7  156.93   11.84
  -1   8   7  123.20    8.54
   1  -8  -7  117.53    8.72
  -1   8   6   76.65    4.54
   1  -8  -6   66.82    7.66
  -1   8   6   83.46    4.36
   1  -8  -6   85.60    5.04
  -1   8   5  138.74    5.95
   1  -8  -5  150.47    7.91
  -1   8   5  133.37    6.25
   1  -8  -5  138.78    7.04
  -1   8   4  410.60   21.52
   1  -8  -4  457.98   25.32
  -1   8   4  443.29   23.22
   1  -8  -4  464.22   24.95
  -1   8   3  119.15   13.67
   1  -8  -3  119.91   23.40
  -1   8   3  110.43    7.85
   1  -8  -3  133.40    8.72
  -1   8   2  188.05    8.30
   1  -8  -2  209.41   20.24
  -1   8   2  210.28    9.14
   1  -8  -2  207.44    9.86
  -1   8   1    3.37    1.96
   1  -8  -1    2.15    2.77
  -1   8   1   10.14    3.61
   1  -8  -1    4.80    3.09
  -1   8   0  240.04    9.41
   1  -8   0  267.60   14.48
  -1   8   0  257.96    9.75
   1  -8   0  268.45   10.96
  -1   8  -1   89.01    4.83
   1  -8   1   93.10   17.25
  -1   8  -1  113.33    6.64
   1  -8   1  104.44    7.05
  -1   8  -2   10.97    1.68
   1  -8   2    9.80    3.67
  -1   8  -2   12.43    2.78
   1  -8   2   18.19    3.34
   1  -8   3   78.00    5.86
  -1   8  -3   69.66    4.56
   1  -8   3   76.89    5.98
   1  -8   4  177.73    8.15
  -1   8  -4  195.86    8.16
   1  -8   4  199.60    9.03
  -1   8  -5  220.00   12.53
   1  -8   5  203.80   12.16
  -1   8  -6   23.71    3.85
   1  -8   6   23.23    4.66
  -1   8  -7   28.72    3.67
   1  -8   7   29.31    4.60
  -1   8  -8   90.07    4.05
  -1   8  -8   84.76    3.75
   1  -8   8   73.07    4.93
  -1   8  -9    5.26    2.53
  -1   8  -9    6.84    2.65
   1  -8   9    8.31    3.17
  -1   8 -10   17.77    4.98
  -1   8 -10   30.02    7.81
  -1   8 -11   27.70    5.61
  -1   8 -11   30.91    5.95
   1  -8  11   28.46    6.25
  -1   7  11   66.15    6.84
   1  -7 -11   73.62    7.79
  -1   7  11   65.25    6.03
  -1   7  10   85.18    7.15
   1  -7 -10   84.98    7.62
  -1   7   9   31.61    6.17
   1  -7  -9   49.10    9.78
  -1   7   9   36.46    6.50
  -1   7   8    2.64    1.63
   1  -7  -8    7.36    2.58
  -1   7   8    2.54    1.75
  -1   7   7   75.86    6.15
   1  -7  -7   85.70    7.32
  -1   7   7   67.03    5.45
  -1   7   6   97.34    5.57
   1  -7  -6  116.04    7.87
  -1   7   6  106.11    4.83
  -1   7   5   48.97    5.59
   1  -7  -5   30.27    5.14
  -1   7   5   36.31    4.34
   1  -7  -5   52.39    6.02
  -1   7   4   50.40    4.11
   1  -7  -4   68.25    5.95
  -1   7   4   61.77    4.05
   1  -7  -4   66.13    4.50
  -1   7   3  118.44    6.01
   1  -7  -3  121.52   11.96
  -1   7   3  113.54    5.80
   1  -7  -3  123.55    7.30
  -1   7   2  724.42   28.46
   1  -7  -2  791.48   33.18
  -1   7   2  773.78   30.72
   1  -7  -2  753.91   30.17
  -1   7   1  328.38   13.69
   1  -7  -1  375.51   24.99
  -1   7   1  346.30   14.49
   1  -7  -1  374.44   16.10
  -1   7   0  280.20   11.24
   1  -7   0  313.20   21.98
   1  -7   0  322.03   13.49
  -1   7  -1  168.50    7.12
   1  -7   1  181.63    9.21
  -1   7  -1  197.07    8.65
   1  -7   1  201.45    9.54
  -1   7  -2    8.35    1.27
   1  -7   2    1.99    3.13
  -1   7  -2    8.13    3.22
   1  -7   2    6.38    1.47
   1  -7   3  209.97   10.34
  -1   7  -3  226.16   10.02
   1  -7   3  195.51    9.60
   1  -7   4  116.75    5.12
   1  -7   4  103.45    6.02
  -1   7  -4  132.82    6.76
   1  -7   4  121.19    6.89
   1  -7   5   57.71    3.91
  -1   7  -5   74.00    4.16
   1  -7   5   67.15    4.60
   1  -7   6    3.99    0.89
  -1   7  -6    5.43    1.66
   1  -7   6   13.22    3.05
  -1   7  -7   94.80    5.81
   1  -7   7  110.15    6.86
  -1   7  -8  225.41    8.77
  -1   7  -8  234.86    9.24
  -1   7  -9  136.92    5.75
  -1   7  -9  141.15    5.96
   1  -7   9  156.97    7.15
  -1   7 -10    7.64    2.19
  -1   7 -10    1.37    1.33
   1  -7  10    8.71    2.17
  -1   7 -11   16.14    3.08
  -1   7 -11   29.45    5.04
   1  -7  11   36.29    6.60
  -1   7 -12    4.16    1.71
   1  -7  12   12.48    4.39
  -1   7 -13    6.04    2.52
  -1   7 -13    2.50    1.51
   1  -7  13    9.75    3.66
  -1   6  12    4.63    2.16
   1  -6 -12    4.30    2.54
  -1   6  12    0.31    1.28
  -1   6  11  240.47   15.90
   1  -6 -11  235.33   15.95
  -1   6  11  226.93   14.49
  -1   6  10   56.68    6.07
   1  -6 -10   80.02    5.48
  -1   6  10   70.67    3.32
  -1   6   9    2.64    1.81
   1  -6  -9    1.41    2.28
  -1   6   9    5.47    2.05
  -1   6   8  109.81    5.72
   1  -6  -8  106.50    6.39
  -1   6   8   94.67    4.35
  -1   6   7  229.82    8.86
   1  -6  -7  249.68   10.78
  -1   6   7  222.87    8.18
  -1   6   6  202.07    9.11
   1  -6  -6  230.45   11.11
  -1   6   6  204.24    8.94
  -1   6   5   13.31    2.40
   1  -6  -5   17.36    3.97
  -1   6   5   15.65    2.10
  -1   6   4  102.86    7.22
   1  -6  -4   84.56    7.53
  -1   6   4   96.80    6.82
   1  -6  -4  101.14    7.57
  -1   6   3  367.13    8.35
   1  -6  -3  397.41   10.68
  -1   6   3  392.36    9.34
   1  -6  -3  387.91    9.42
  -1   6   2  596.47   16.06
   1  -6  -2  571.88   16.64
  -1   6   2  621.08   17.20
   1  -6  -2  597.07   16.86
  -1   6   1   43.04    4.87
   1  -6  -1   48.03    7.31
  -1   6   1   53.23    5.84
   1  -6  -1   44.31    5.38
  -1   6   0   13.47    3.23
   1  -6   0   11.52    3.11
  -1   6   0   17.17    2.82
   1  -6   0   16.88    2.74
  -1   6  -1 1464.43   37.16
   1  -6   1 1449.35   36.51
   1  -6   1 1546.62   41.91
  -1   6  -1 1481.36   38.16
   1  -6   1 1488.33   38.67
  -1   6  -2   45.33    6.06
   1  -6   2   43.82    4.48
   1  -6   2   59.19    9.23
  -1   6  -2   49.79    5.80
   1  -6   2   50.76    5.90
   1  -6   3  175.10    4.82
   1  -6   3  208.23    7.30
  -1   6  -3  191.68    6.37
   1  -6   3  195.94    7.42
   1  -6   4  185.89    5.08
   1  -6   4  210.66    5.95
   1  -6   4  194.59    7.03
  -1   6  -4  224.67    7.38
   1  -6   4  208.35    7.50
   1  -6   5   19.35    1.54
   1  -6   5   16.55    1.48
  -1   6  -5   21.90    2.93
   1  -6   5   19.82    3.07
   1  -6   6   45.82    2.44
   1  -6   6   54.12    2.81
  -1   6  -6   58.80    3.86
   1  -6   6   70.06    5.30
   1  -6   7   27.82    1.61
  -1   6  -7   30.23    2.58
  -1   6  -7   38.21    2.99
   1  -6   8   27.92    2.11
  -1   6  -8   36.98    3.84
  -1   6  -8   30.03    3.21
   1  -6   8   23.47    3.15
   1  -6   9    1.37    0.58
  -1   6  -9    5.19    2.10
  -1   6  -9    3.95    1.32
   1  -6   9    1.60    1.93
  -1   6 -10   16.11    2.72
  -1   6 -10   24.66    3.27
   1  -6  10   20.65    4.20
  -1   6 -11  103.26    4.96
  -1   6 -11   96.19    4.29
   1  -6  11  101.74    6.03
  -1   6 -12  143.19    5.20
  -1   6 -12  127.80    4.42
   1  -6  12  160.97    6.73
  -1   6 -13   37.87    9.59
  -1   6 -13   40.99   10.28
   1  -6  13   33.78    8.96
  -1   6 -14    4.99    1.91
  -1   6 -14    2.79    1.23
   1  -6  14    2.57    2.70
  -1   5  14    9.50    3.09
   1  -5 -14   11.88    4.27
  -1   5  13   38.12   10.27
   1  -5 -13   38.74   10.68
  -1   5  12    8.51    3.29
   1  -5 -12   11.29    4.21
  -1   5  12   16.44    4.32
  -1   5  11    3.08    2.58
   1  -5 -11   17.28    3.97
  -1   5  11    6.08    1.77
  -1   5  10   19.72    3.31
   1  -5 -10   11.11    3.94
  -1   5  10   15.24    3.18
  -1   5   9  148.15    8.34
   1  -5  -9  129.55    8.08
  -1   5   9  124.47    6.30
  -1   5   8  389.13   16.15
   1  -5  -8  445.30   19.01
  -1   5   8  408.71   16.63
  -1   5   7  220.73    9.31
   1  -5  -7  224.36   10.52
  -1   5   7  221.27    8.87
  -1   5   6   83.41    6.12
   1  -5  -6   75.76    6.30
  -1   5   6   70.75    5.07
  -1   5   5   24.92    3.08
   1  -5  -5   27.79    4.65
  -1   5   5   31.03    3.72
  -1   5   4  263.56   11.15
   1  -5  -4  285.22   12.66
  -1   5   4  289.37   12.15
  -1   5   3  462.30   18.82
   1  -5  -3  500.63   21.08
  -1   5   3  484.78   19.75
   1  -5  -3  469.17   19.26
  -1   5   2  188.79    5.42
   1  -5  -2  185.15    6.37
  -1   5   2  183.06    5.62
   1  -5  -2  185.47    6.16
  -1   5   1   38.86    2.61
   1  -5  -1   35.06    2.13
   1  -5  -1   46.80    5.21
   1  -5  -1   26.83    2.35
  -1   5   0  469.38   11.49
   1  -5   0  444.99   10.70
   1  -5   0  541.96   17.88
  -1   5   0  538.87   13.95
   1  -5   0  474.76   12.34
  -1   5  -1 1789.38   41.09
   1  -5   1 1931.13   44.12
   1  -5   1 1805.19   43.64
  -1   5  -1 1919.02   44.64
   1  -5   1 1786.41   41.93
  -1   5  -2  794.84   18.50
   1  -5   2  837.81   23.87
  -1   5  -2  904.86   21.74
   1  -5   2  848.80   20.78
   1  -5   3  197.80    4.89
   1  -5   3  210.26    5.42
   1  -5   3  210.13    7.13
  -1   5  -3  212.05    6.23
   1  -5   3  213.83    6.81
   1  -5   4 1226.62   28.06
   1  -5   4 1318.40   30.22
   1  -5   4 1313.57   31.35
  -1   5  -4 1381.65   32.42
   1  -5   4 1334.90   32.02
   1  -5   5   14.50    1.91
   1  -5   5   14.28    1.47
  -1   5  -5   15.73    2.14
   1  -5   5   17.32    3.05
   1  -5   6   56.52    6.59
   1  -5   6   59.40    5.94
  -1   5  -6   53.08    5.75
   1  -5   7  369.23    7.83
   1  -5   7  413.65    8.13
  -1   5  -7  433.83    9.77
  -1   5  -7  420.50    9.28
   1  -5   7  442.99   10.58
   1  -5   8   11.40    1.21
  -1   5  -8    6.82    1.75
  -1   5  -8   10.03    1.97
   1  -5   8    7.33    1.98
   1  -5   9    5.63    0.96
  -1   5  -9    4.68    2.22
  -1   5  -9    6.48    1.49
   1  -5   9    5.08    2.74
   1  -5  10    0.79    0.53
  -1   5 -10    2.93    1.66
  -1   5 -10    1.20    1.34
   1  -5  10    5.88    2.78
   1  -5  11    4.02    1.25
  -1   5 -11    2.45    1.53
  -1   5 -11    6.12    1.74
   1  -5  11    4.33    2.57
   1  -5  12    0.92    0.67
  -1   5 -12   -0.92    1.51
  -1   5 -12    2.39    1.20
   1  -5  12    1.37    1.67
  -1   5 -13    6.52    2.20
  -1   5 -13    6.81    2.17
   1  -5  13    5.40    2.40
  -1   5 -14   17.97    4.93
   1  -5  14   15.66    6.02
  -1   5 -15   55.94    5.73
   1  -5  15   28.13   13.75
  -1   4  14   12.60    3.70
   1  -4 -14   14.77    5.10
   1  -4 -13    7.05    2.92
  -1   4  13    2.03    1.10
  -1   4  12   55.24    6.01
   1  -4 -12   38.31    4.90
  -1   4  12   39.24    3.79
  -1   4  11   27.36    3.54
   1  -4 -11   32.24    4.00
  -1   4  11   29.91    2.58
  -1   4  10  142.75    6.75
   1  -4 -10  123.09    6.35
  -1   4  10  127.51    5.13
  -1   4   9    4.31    1.94
   1  -4  -9    2.36    1.99
  -1   4   9    5.26    1.17
  -1   4   8   58.30    4.93
   1  -4  -8   63.63    5.62
  -1   4   8   55.89    4.04
  -1   4   7   12.56    2.70
   1  -4  -7   12.66    2.60
  -1   4   7   10.70    1.73
  -1   4   6 1231.54   48.82
   1  -4  -6 1338.71  129.60
  -1   4   6 1257.39   49.80
  -1   4   5  334.30    8.97
   1  -4  -5  328.88    9.57
  -1   4   5  322.90    8.56
  -1   4   4  292.46    6.24
   1  -4  -4  298.54    7.45
  -1   4   4  282.58    5.94
  -1   4   3  330.22    6.65
  -1   4   3  319.17    6.54
  -1   4   2   27.48    1.81
   1  -4  -2   24.44    1.46
   1  -4  -2   24.47    2.62
  -1   4   2   24.60    1.76
   1  -4  -2   22.03    1.86
  -1   4   1   66.52    1.98
   1  -4  -1   65.15    1.80
   1  -4  -1   58.49    3.25
   1  -4  -1   71.86    2.76
  -1   4   0  353.21    5.39
   1  -4   0  340.71    5.05
   1  -4   0  374.61    8.02
   1  -4   0  339.47    6.26
  -1   4  -1  350.06    5.52
   1  -4   1  363.09    7.08
  -1   4  -1  382.68    6.39
   1  -4   1  376.94    6.92
  -1   4  -2    3.29    0.55
   1  -4   2    4.19    0.51
   1  -4   2    6.15    1.83
  -1   4  -2    4.29    1.58
   1  -4   2    8.51    2.25
   1  -4   3  122.14    2.37
   1  -4   3  130.92    2.66
   1  -4   3  120.74    4.16
  -1   4  -3  133.13    3.50
   1  -4   3  135.50    4.07
   1  -4   4 1681.25   27.28
   1  -4   4 1710.59   27.69
  -1   4  -4 1536.99   25.81
   1  -4   4 1770.70   30.10
   1  -4   6 1181.42   27.18
  -1   4  -6 1231.55   29.16
  -1   4  -6 1217.17   28.57
   1  -4   6 1269.17   30.49
   1  -4   7  539.45   21.45
  -1   4  -7  551.80   22.05
  -1   4  -7  562.58   22.88
  -1   4  -7  548.38   22.08
   1  -4   7  595.13   24.41
   1  -4   8   39.43    4.15
  -1   4  -8   39.19    4.26
  -1   4  -8   38.03    4.28
  -1   4  -8   54.19    5.89
   1  -4   8   53.11    6.29
   1  -4   9   16.76    1.74
  -1   4  -9   21.77    2.64
  -1   4  -9   23.07    2.39
   1  -4   9   17.83    2.73
   1  -4  10  512.64   20.11
  -1   4 -10  531.02   21.44
  -1   4 -10  506.95   20.17
   1  -4  10  560.02   22.93
   1  -4  11    3.06    1.23
  -1   4 -11    2.78    1.64
  -1   4 -11    3.11    1.29
   1  -4  11   -0.22    1.74
   1  -4  12    2.22    1.12
  -1   4 -12    9.59    3.22
  -1   4 -12    4.30    1.50
   1  -4  12    5.28    1.62
   1  -4  13   11.16    1.97
  -1   4 -13   18.21    3.29
  -1   4 -13   14.44    2.37
   1  -4  13   15.89    5.65
   1  -4  14   42.39    7.66
  -1   4 -14   40.29    7.28
   1  -4  14   32.82    9.57
  -1   4 -15   15.08    4.59
   1  -4  15    4.49    3.25
  -1   3  15   16.44    4.58
   1  -3 -15   16.41    4.56
  -1   3  14   29.26    5.83
   1  -3 -14    9.50    3.84
  -1   3  13    8.56    2.75
  -1   3  13    5.15    1.36
  -1   3  12    9.44    3.35
   1  -3 -12    3.54    1.91
  -1   3  11   20.08    3.81
   1  -3 -11   13.67    3.09
  -1   3  10   24.73    2.98
   1  -3 -10   17.14    2.50
  -1   3   9    6.98    2.45
   1  -3  -9   14.06    2.75
  -1   3   8    3.05    1.52
   1  -3  -8    2.03    1.47
  -1   3   7  146.55    6.91
   1  -3  -7  136.84    6.58
  -1   3   6   22.67    2.21
   1  -3  -6   15.21    2.19
  -1   3   6   18.76    1.59
   1  -3  -6   14.78    2.27
  -1   3   5  348.87    7.13
   1  -3  -5  354.92    7.86
  -1   3   5  329.54    6.57
   1  -3  -5  335.81    6.36
   1  -3  -4  128.29    4.36
  -1   3   4  127.91    3.18
  -1   3   3 4497.17   56.14
   1  -3  -3 4508.37   56.26
   1  -3  -3 4604.13   74.99
  -1   3   2   89.07    2.14
   1  -3  -2   81.13    1.93
   1  -3  -2   82.34    3.32
  -1   3   2   84.07    2.77
  -1   3   2   92.99    2.58
  -1   3   1   51.10    1.54
   1  -3  -1   46.23    1.34
   1  -3  -1   47.09    2.45
  -1   3   1   48.86    1.98
   1  -3  -1   54.51    1.80
   1  -3  -1   46.53    1.88
  -1   3   0  506.78    6.06
   1  -3   0  502.64    5.96
   1  -3   0  537.49   11.28
  -1   3   0  522.00    6.98
   1  -3   0  492.14    6.76
  -1   3  -1  303.99    3.72
   1  -3   1  319.13    3.79
   1  -3   1  304.86    5.66
  -1   3  -1  318.78    4.82
   1  -3   1  307.77    4.97
  -1   3  -1  285.78    4.63
   1  -3   2   75.42    1.09
   1  -3   2   73.28    1.19
   1  -3   2   80.39    4.81
  -1   3  -2   81.30    2.49
   1  -3   3    0.55    0.40
   1  -3   3    1.49    0.42
   1  -3   3    1.84    1.06
  -1   3  -3    0.78    1.10
   1  -3   3    3.65    1.12
   1  -3   3    1.26    1.54
  -1   3  -3    1.16    0.91
   1  -3   4   88.18    1.67
  -1   3  -4   93.22    1.99
  -1   3  -4   87.46    2.49
   1  -3   4   83.31    2.16
   1  -3   5   29.18    1.21
  -1   3  -5   29.57    1.41
  -1   3  -5   32.33    1.53
   1  -3   5   26.54    1.42
   1  -3   6   13.12    1.02
  -1   3  -6   14.19    1.22
  -1   3  -6   12.51    1.43
   1  -3   6   16.46    2.25
   1  -3   7  430.84   10.46
  -1   3  -7  392.73    9.69
  -1   3  -7  420.05   10.41
   1  -3   7  462.29   12.26
   1  -3   8 1071.30   42.30
  -1   3  -8 1067.81   42.23
   1  -3   8 1140.66   45.57
   1  -3   9 1408.97   35.92
  -1   3  -9 1382.20   35.23
   1  -3   9 1592.40   41.65
   1  -3  10   39.47    2.91
  -1   3 -10   33.49    2.60
  -1   3 -10   35.72    2.47
   1  -3  10   51.93    7.57
   1  -3  11    4.95    1.43
  -1   3 -11    8.96    1.68
  -1   3 -11   10.82    1.50
   1  -3  11   12.36    2.58
   1  -3  12   18.69    2.62
  -1   3 -12   21.87    2.88
  -1   3 -12   15.12    2.93
   1  -3  12   19.18    4.69
   1  -3  13  305.32   16.08
  -1   3 -13  303.12   16.39
  -1   3 -13  287.78   15.01
   1  -3  13  310.36   18.37
   1  -3  14   30.20    3.53
  -1   3 -14   29.40    4.41
   1  -3  14   22.81    5.52
   1  -3  15    9.59    2.37
  -1   3 -15   11.45    3.03
   1  -3  15    8.28    2.89
   1  -3  16    1.77    1.23
  -1   3 -16    8.42    3.18
   1  -3  16    2.35    1.17
  -1   2  16   33.93    8.56
  -1   2  15   18.39    5.92
   1  -2 -15   26.71    7.40
  -1   2  14   51.77    5.95
   1  -2 -14   49.05    5.73
  -1   2  13    3.80    1.82
   1  -2 -12    3.52    1.97
  -1   2  11   65.88    4.13
   1  -2 -11   71.61    5.06
  -1   2  11   64.50    3.62
  -1   2  10  112.96    6.30
   1  -2 -10   82.94    5.09
  -1   2  10   99.99    5.31
  -1   2   9   27.90    3.67
   1  -2  -9   29.63    3.74
  -1   2   9   25.54    3.13
  -1   2   8    5.56    1.53
   1  -2  -8   12.65    2.30
  -1   2   8    5.74    1.26
  -1   2   7   32.86    2.94
   1  -2  -7   27.32    2.85
   1  -2  -7   29.80    3.60
  -1   2   6    1.69    1.26
   1  -2  -6    1.77    1.25
   1  -2  -6    0.30    0.47
  -1   2   5  263.11    4.90
  -1   2   5  252.78    5.24
   1  -2  -5  244.00    5.01
  -1   2   4    4.14    0.94
  -1   2   4    8.82    1.22
  -1   2   4    4.04    0.90
   1  -2  -4    6.93    0.94
  -1   2   3  821.22    9.86
  -1   2   3  825.16   10.26
   1  -2  -3  834.58    9.53
  -1   2   2  566.50    6.91
   1  -2  -2  602.75    7.31
   1  -2  -2  608.32    8.32
  -1   2   2  593.55    7.69
   1  -2  -1 2548.25   27.55
   1  -2  -1 2554.38   28.60
  -1   2   1 2398.96   26.70
  -1   2   0 9999.00  122.86
   1  -2   1    7.61    1.62
  -1   2  -1    7.07    1.78
  -1   2  -1    9.15    1.43
   1  -2   1    9.71    0.80
  -1   2  -1    9.30    1.17
   1  -2   2   60.64    2.24
  -1   2  -2   65.02    3.98
  -1   2  -2   74.57    1.80
   1  -2   2   69.71    1.53
   1  -2   2   65.37    2.02
  -1   2  -2   57.69    1.76
   1  -2   3   48.64    1.01
  -1   2  -3   43.69    1.01
  -1   2  -3   47.23    1.80
  -1   2  -3   44.48    1.35
   1  -2   3   48.51    1.38
  -1   2  -3   44.44    1.77
   1  -2   4  336.86    4.30
  -1   2  -4  340.32    4.56
   1  -2   4  334.30    4.46
  -1   2  -4  316.81    5.04
   1  -2   5  331.35    5.00
  -1   2  -5  304.27    4.64
  -1   2  -5  308.09    4.73
   1  -2   5  314.54    4.76
  -1   2  -6  330.54    6.14
   1  -2   6  325.65    5.93
   1  -2   6  338.66    7.32
   1  -2   7   13.86    1.46
  -1   2  -7    9.21    0.84
  -1   2  -7   14.75    1.68
  -1   2  -7   14.97    1.17
   1  -2   7   12.99    0.97
   1  -2   7   12.68    1.94
   1  -2   8    1.82    0.60
  -1   2  -8   -0.94    1.19
  -1   2  -8    3.25    0.78
   1  -2   8    1.22    0.82
   1  -2   8    2.75    0.81
   1  -2   9  101.23    3.82
  -1   2  -9   93.73    6.54
  -1   2  -9   90.54    9.02
   1  -2   9   78.55    7.81
   1  -2   9  107.24    9.24
   1  -2  10    4.90    1.36
  -1   2 -10   10.48    2.21
  -1   2 -10    5.42    1.47
   1  -2  10    4.55    2.39
   1  -2  11  246.82   10.51
  -1   2 -11  248.16   10.82
  -1   2 -11  245.29   10.16
   1  -2  11  266.00   11.85
   1  -2  12  999.32   44.67
  -1   2 -12  962.23   43.43
  -1   2 -12  727.06   32.46
   1  -2  12  872.71   41.94
  -1   2 -13    9.86    2.67
  -1   2 -13    1.80    1.30
   1  -2  13   12.16    3.15
   1  -2  14    2.53    1.40
  -1   2 -14    0.83    1.51
   1  -2  14    3.51    1.44
   1  -2  15   32.33    5.13
  -1   2 -15   47.79    8.76
   1  -2  15   25.44    7.87
   1  -2  16   98.92    7.53
   1  -2  16   84.52    8.24
  -1   1  16   26.23    5.87
   1  -1 -16   27.85    6.14
  -1   1  16   19.45    4.14
  -1   1  15   69.43    6.18
   1  -1 -15   70.15    6.18
  -1   1  15   76.92    5.78
  -1   1  14   68.61   14.99
   1  -1 -14   78.32    5.34
  -1   1  14   74.71    3.48
  -1   1  13    5.66    2.27
   1  -1 -13    7.38    2.63
  -1   1  13    6.29    2.01
  -1   1  12   13.15    2.41
   1  -1 -12   10.32    2.36
   1  -1 -12   11.77    2.02
  -1   1  12   13.60    3.48
  -1   1  11  145.57    7.06
   1  -1 -11  156.16    7.86
   1  -1 -11  153.86    7.03
  -1   1  11  159.64    7.43
  -1   1  10  119.81    8.09
   1  -1 -10  116.47    8.06
   1  -1 -10  117.42    7.92
  -1   1  10  115.70    7.69
  -1   1   9   11.73    2.31
   1  -1  -9   13.02    2.31
   1  -1  -9    6.00    1.33
  -1   1   9    9.33    2.39
   1  -1  -8   32.10    2.38
  -1   1   8   34.28    3.23
  -1   1   7  333.06    7.12
   1  -1  -7  306.47    6.45
  -1   1   7  308.93    6.31
   1  -1  -7  291.13    5.79
   1  -1  -6  279.69    5.38
   1  -1  -6  277.25    5.07
  -1   1   6  272.58    6.03
  -1   1   6  277.44    4.90
   1  -1  -6  275.60    4.56
  -1   1   5  454.64    7.28
  -1   1   5  507.02    7.70
   1  -1  -5  479.54    7.35
  -1   1   5  497.09    8.14
  -1   1   5  503.30    8.00
   1  -1  -5  492.43    7.00
  -1   1   4    2.54    1.00
  -1   1   4    1.41    0.91
   1  -1  -4    1.37    0.85
  -1   1   4   -0.11    0.54
  -1   1   4    0.66    0.49
   1  -1  -4    0.77    0.53
  -1   1   3    1.00    1.44
   1  -1  -3    4.66    0.86
  -1   1   3    6.12    1.03
   1  -1  -3    4.21    1.25
  -1   1   3    5.91    0.83
  -1   1   3    5.63    0.82
   1  -1  -3    4.33    0.52
  -1   1   2 2277.47   25.05
  -1   1   2 2167.11   23.88
   1  -1  -2 2127.81   23.57
  -1   1   2 2137.83   23.78
   1  -1  -1 1728.67   18.90
  -1   1   1 1742.68   19.25
  -1   1   1 1665.13   18.36
   1  -1   1   15.99    1.00
  -1   1  -1   16.10    0.55
   1  -1   1   14.56    1.04
  -1   1  -1   13.65    1.03
  -1   1  -1   16.56    0.89
   1  -1   1   17.06    1.76
  -1   1  -1   14.69    0.96
  -1   1  -3 5490.21   68.04
   1  -1   4   89.07    2.00
  -1   1  -4   89.10    1.81
  -1   1  -4   85.19    2.08
   1  -1   4   86.61    2.00
  -1   1  -4   89.04    1.49
   1  -1   4   90.11    1.45
   1  -1   4   89.70    3.01
  -1   1  -4   80.87    2.11
   1  -1   5  245.80    4.24
  -1   1  -5  258.75    4.23
  -1   1  -5  274.07    4.81
   1  -1   5  256.81    4.39
  -1   1  -5  277.56    4.05
   1  -1   5  247.84    3.57
   1  -1   5  284.59    7.05
  -1   1  -5  237.66    4.47
   1  -1   6  118.50    2.94
  -1   1  -6  115.18    2.61
  -1   1  -6  126.41    3.05
  -1   1  -6  123.38    2.37
   1  -1   6  126.73    2.20
   1  -1   6  122.19    3.62
   1  -1   7   50.57    2.30
  -1   1  -7   57.60    2.41
  -1   1  -7   58.78    2.65
   1  -1   7   53.57    1.55
   1  -1   7   67.77    5.80
   1  -1   8  174.52   14.31
  -1   1  -8  158.70    7.64
  -1   1  -8  153.77    7.04
   1  -1   8  152.29    6.71
   1  -1   8  156.24   11.72
  -1   1  -9  386.23   16.00
  -1   1  -9  388.58   15.79
   1  -1   9  345.88   13.80
   1  -1   9  418.05   17.75
   1  -1  10  101.72    7.17
  -1   1 -10  113.00    7.81
  -1   1 -10   98.75    6.50
   1  -1  10   89.87    5.72
   1  -1  10  116.82   12.24
   1  -1  11   20.49    2.86
  -1   1 -11   17.14    2.68
  -1   1 -11    8.83    2.18
   1  -1  11   20.23    2.77
   1  -1  12   56.07    4.93
  -1   1 -12   53.34    4.85
  -1   1 -12   44.77    3.21
   1  -1  12   45.60    9.17
   1  -1  13   44.12    3.65
  -1   1 -13   48.89    4.57
   1  -1  13   22.50    6.12
   1  -1  14   14.99    3.19
  -1   1 -14    8.66    2.27
   1  -1  14   13.65    4.83
   1  -1  15  310.06   50.66
  -1   1 -15  291.42   18.93
   1  -1  15  298.55   19.40
   1  -1  16   18.27    4.49
  -1   1 -16   17.86    4.61
   1  -1  16   11.93    3.84
  -1   0  16    5.12    2.72
   1   0 -16    5.63    2.26
  -1   0  16   -0.11    1.12
   1   0 -15   20.40    4.31
   1   0 -15   20.76    3.51
  -1   0  15    9.03    5.35
  -1   0  14    2.76    1.74
   1   0 -14    1.75    1.59
   1   0 -14    1.27    1.01
  -1   0  14    2.36    1.14
  -1   0  13    1.85    1.45
   1   0 -13    3.17    1.95
   1   0 -13    2.25    1.15
  -1   0  13    3.87    1.76
  -1   0  12   52.15    4.31
   1   0 -12   57.52    4.97
   1   0 -12   46.16    5.91
  -1   0  12   57.07    6.17
  -1   0  11  152.84    8.29
   1   0 -11  149.05    8.00
   1   0 -11  142.45    7.46
  -1   0  11  134.97    8.92
  -1   0  10    0.82    1.40
   1   0 -10    6.70    2.68
   1   0 -10    2.32    1.54
  -1   0  10   11.74    1.48
  -1   0   9    2.83    1.50
   1   0  -9    2.41    2.01
   1   0  -9    2.36    0.63
  -1   0   9    4.43    0.84
  -1   0   8  177.53    5.50
   1   0  -8  171.88   14.10
   1   0  -8  177.51    7.64
  -1   0   8  188.39    6.13
  -1   0   7  464.32    9.03
   1   0  -7  450.91    8.75
   1   0  -7  460.10    9.46
  -1   0   7  465.78    9.77
  -1   0   6  200.03    4.26
   1   0  -6  182.15    3.92
   1   0  -6  207.70    4.47
  -1   0   6  190.94    3.65
  -1   0   6  197.67    4.12
   1   0  -6  178.69    3.59
   1   0  -5   54.77    1.89
   1   0  -5   58.43    2.16
  -1   0   5   49.36    1.45
   1   0  -5   59.30    2.40
  -1   0   5   50.33    1.72
  -1   0   5   60.84    2.06
   1   0  -5   57.32    1.81
  -1   0   4  439.36    6.05
   1   0  -4  454.38    6.31
   1   0  -4  440.46    5.86
   1   0  -4  447.68    6.53
  -1   0   4  439.69    5.90
  -1   0   4  444.19    5.73
   1   0  -4  436.04    5.65
   1   0  -3  495.00    6.46
   1   0  -3  506.52    7.00
  -1   0   3  484.98    5.96
   1   0  -3  495.30    6.08
  -1   0   2 2383.49   26.37
   1   0  -2 2338.09   25.83
  -1   0   2 2364.75   25.53
   1   0  -2 2328.12   25.74
  -1   0   1  164.14    2.73
  -1   0   1  188.95    2.42
  -1   0   1  183.10    2.85
   1   0   0  141.44    3.40
  -1   0   0  146.75    2.52
  -1   0   0  141.10    1.93
   1   0   0  146.40    2.14
  -1   0   0  150.41    2.22
  -1   0  -1 2699.52   29.18
  -1   0  -4  978.06   11.60
   1   0   4 1035.41   11.07
   1   0   4  984.10   12.12
  -1   0  -4  967.54   12.11
   1   0   5 2368.61   30.32
  -1   0  -5 2225.37   28.43
  -1   0  -5 2222.77   28.56
   1   0   5 2172.99   29.16
  -1   0  -5 2101.72   27.99
   1   0   6  706.98   10.36
  -1   0  -6  719.56   10.74
   1   0   6  677.41    8.70
   1   0   6  670.65   10.57
   1   0   7    5.63    1.81
  -1   0  -7    5.87    1.92
   1   0   7    5.12    0.48
   1   0   7    3.30    1.86
   1   0   8   97.53    4.90
  -1   0  -8  110.81    5.65
   1   0   8   98.09    4.37
   1   0   8  104.69    5.53
   1   0   9  225.80    9.87
  -1   0  -9  212.99    9.54
   1   0   9  203.49    8.22
   1   0   9  214.49    9.54
   1   0  10    5.62    1.86
  -1   0 -10    7.59    3.06
   1   0  10    1.74    0.59
   1   0  10    5.19    2.07
   1   0  11    7.34    2.00
  -1   0 -11   13.97    2.20
   1   0  11    9.10    2.92
   1   0  12  137.21    7.67
  -1   0 -12  140.52    7.96
   1   0  12  125.79    8.00
   1   0  13   94.27    7.16
  -1   0 -13   98.12    7.53
   1   0  13  102.95    7.62
   1   0  14   43.83    5.15
  -1   0 -14   38.86    4.85
   1   0  14   43.38    4.73
   1   0  15    5.72    2.78
  -1   0 -15    1.58    1.95
   1   0  15    5.54    2.80
   1   0  16   30.02    7.26
  -1   0 -16   30.18    7.80
   1   0  16   25.51    6.21
  -1  -1  16    2.58    1.87
   1   1 -16    3.14    2.90
  -1  -1  16    1.39    0.91
  -1  -1  15   24.53    4.55
   1   1 -15   24.47    4.93
   1   1 -15   10.13    4.82
  -1  -1  15   12.04    3.96
  -1  -1  14   12.19    2.63
   1   1 -14   16.78    3.39
   1   1 -14   12.83    4.32
  -1  -1  14   18.08    5.50
  -1  -1  13   26.87    3.18
   1   1 -13   17.96    3.88
   1   1 -13   13.25    5.24
  -1  -1  13   25.00    4.60
  -1  -1  12   12.71    2.21
   1   1 -12   10.06    2.46
   1   1 -12    5.65    1.77
  -1  -1  12    3.29    1.50
  -1  -1  11    0.03    1.26
   1   1 -11    1.55    1.63
   1   1 -11    3.49    1.22
  -1  -1  11    0.10    0.97
  -1  -1  10   11.77    2.37
   1   1 -10   15.38    2.34
   1   1 -10   14.37    2.68
  -1  -1  10   17.83    3.56
  -1  -1   9    3.97    2.02
   1   1  -9    1.14    1.07
   1   1  -9    1.95    1.12
  -1  -1   9    2.20    1.02
  -1  -1   8   98.95    5.11
   1   1  -8   91.29    4.88
   1   1  -8   95.99    5.24
  -1  -1   8  104.58    5.59
  -1  -1   7   57.15    2.55
   1   1  -7   50.47    2.35
   1   1  -7   61.13    4.66
  -1  -1   7   56.55    2.43
  -1  -1   6   66.99    2.59
   1   1  -6   65.30    2.36
   1   1  -6   68.25    2.47
  -1  -1   6   73.34    2.76
   1   1  -6   67.57    2.36
  -1  -1   5    0.96    1.15
   1   1  -5    2.10    1.10
   1   1  -5   -0.54    0.85
  -1  -1   5    1.62    1.02
  -1  -1   5    0.55    0.63
  -1  -1   5    0.28    0.88
   1   1  -5    4.45    1.17
   1   1  -4  849.78   10.00
  -1  -1   4  826.25    9.69
   1   1  -4  873.92   10.65
   1   1  -4  839.58   10.33
  -1  -1   3  381.29    5.59
   1   1  -3  384.22    5.51
   1   1  -3  384.10    4.81
  -1  -1   3  397.58    4.96
   1   1  -3  404.60    5.54
  -1  -1   3  387.08    5.22
  -1  -1   3  398.59    5.68
   1   1  -3  403.07    5.67
  -1  -1   2  922.42   10.94
  -1  -1   2  867.30   10.54
   1   1  -2  862.39    9.58
   1   1  -2  883.42   10.43
  -1  -1   2  878.36   10.23
  -1  -1   2  903.78   10.96
   1   1  -1  105.12    2.75
   1   1  -1  103.13    1.73
   1   1  -1  108.19    2.67
  -1  -1   1  112.41    2.11
   1   1   0  186.44    5.61
  -1  -1   0  165.70    3.64
  -1  -1   0  166.95    2.34
   1   1   0  177.25    2.91
  -1  -1   0  168.28    2.65
   1   1   1 2246.82   24.95
  -1  -1  -1 2162.76   23.44
  -1  -1  -2  682.07    8.36
  -1  -1  -2  661.62    7.93
   1   1   2  681.31    7.99
   1   1   2  671.98    7.60
  -1  -1  -2  680.42    7.64
   1   1   3  271.54    4.40
  -1  -1  -3  290.97    4.46
   1   1   3  267.07    3.28
  -1  -1  -3  282.14    3.52
   1   1   4  703.10    8.68
   1   1   4  713.85    7.98
  -1  -1  -4  736.27   10.62
   1   1   5 2470.42   30.77
   1   1   6 6406.85  270.19
   1   1   6 6138.41  258.53
   1   1   7 1655.31   38.63
  -1  -1  -7 1704.91   39.85
   1   1   7 1677.87   38.30
   1   1   7 1575.43   35.92
   1   1   7 1570.63   36.76
   1   1   8  372.39   15.55
  -1  -1  -8  367.23   15.36
   1   1   8  360.58   14.36
   1   1   8  334.91   13.31
   1   1   8  352.82   14.66
   1   1   9   56.23    6.35
  -1  -1  -9   58.62    6.53
   1   1   9   46.79    4.69
   1   1   9   53.75    5.34
   1   1   9   55.03    6.20
   1   1  10   11.05    2.21
  -1  -1 -10   11.27    2.34
   1   1  10   10.72    0.94
   1   1  10    7.27    0.72
   1   1  10   17.52    2.85
   1   1  11    2.26    2.09
  -1  -1 -11    4.64    1.89
   1   1  11    1.07    0.53
   1   1  11    7.62    2.29
   1   1  12   84.33    5.44
  -1  -1 -12   87.33    5.89
   1   1  12   82.77    5.51
   1   1  13   13.00    2.61
  -1  -1 -13   20.66    3.97
   1   1  13   26.83    3.21
   1   1  14    8.02    3.14
  -1  -1 -14   11.72    3.68
   1   1  14    5.83    2.39
   1   1  15    8.58    2.86
  -1  -1 -15   17.90    5.67
   1   1  16   21.53    5.99
  -1  -1 -16   26.86    6.81
  -1  -2  16   20.42    4.62
   1   2 -16   23.11    5.46
  -1  -2  16    8.47    3.80
  -1  -2  15  117.66    8.77
   1   2 -15  117.15    8.63
   1   2 -15  100.59    7.55
  -1  -2  15   83.33   12.88
  -1  -2  14  105.26    4.69
   1   2 -14  101.18    5.00
   1   2 -14   91.02    7.40
  -1  -2  14   99.48    7.72
  -1  -2  13   39.54    3.84
   1   2 -13   26.67    2.92
   1   2 -13   17.06    5.99
  -1  -2  13   26.79    7.40
  -1  -2  12    5.63    1.56
   1   2 -12    3.79    2.14
   1   2 -12    0.80    1.48
  -1  -2  12    3.49    1.48
  -1  -2  11   47.67    3.49
   1   2 -11   46.50    3.22
   1   2 -11   38.63    8.08
  -1  -2  11   38.58    3.40
  -1  -2  10  125.32    8.36
   1   2 -10  123.85    8.25
   1   2 -10  128.54    8.70
  -1  -2  10  122.29    8.26
  -1  -2   9   24.98    3.32
   1   2  -9   23.69    3.04
   1   2  -9   31.32    3.79
  -1  -2   9   27.34    3.62
  -1  -2   8    8.97    1.81
   1   2  -8    9.29    1.66
   1   2  -8    8.75    1.56
  -1  -2   8    5.24    1.34
  -1  -2   7   44.29    2.85
   1   2  -7   50.61    2.98
   1   2  -7   52.00    3.24
  -1  -2   7   56.07    3.53
  -1  -2   6   45.33    2.33
   1   2  -6   38.86    1.78
   1   2  -6   37.63    2.25
  -1  -2   6   41.61    2.45
  -1  -2   5  194.33    4.28
   1   2  -5  188.99    4.17
   1   2  -5  197.31    3.76
   1   2  -5  188.91    3.89
  -1  -2   4 1713.79   22.95
  -1  -2   4 1729.32   22.79
   1   2  -4 1776.07   22.73
   1   2  -4 1809.50   23.59
  -1  -2   4 1750.10   23.29
   1   2  -4 1677.50   22.34
  -1  -2   3  177.13    3.22
  -1  -2   3  188.24    3.95
   1   2  -3  184.41    3.17
   1   2  -3  194.95    3.01
   1   2  -3  184.69    3.42
  -1  -2   3  185.23    4.01
  -1  -2   2  788.19   10.12
   1   2  -2  763.73    9.95
  -1  -2   2  792.44    9.56
  -1  -2   2  799.91   10.41
   1   2  -1  194.98    4.13
  -1  -2   1  189.16    3.51
  -1  -2   1  213.28    4.08
   1   2  -1  196.30    3.09
  -1  -2   1  201.19    3.21
  -1  -2   1  190.52    3.94
   1   2   0   61.16    3.72
  -1  -2   0   66.62    2.79
   1   2   0   62.49    1.52
  -1  -2  -1  788.71    9.68
  -1  -2  -1  791.95    9.56
   1   2   1  791.58    9.30
   1   2   1  820.91    9.67
  -1  -2  -1  794.51    9.31
   1   2   2   98.90    2.72
  -1  -2  -2   91.82    2.28
   1   2   2   92.67    2.01
   1   2   2   90.69    1.82
  -1  -2  -2   87.99    1.76
   1   2   3    2.25    1.42
  -1  -2  -3    4.11    0.99
   1   2   3    2.80    0.70
   1   2   3    3.63    0.74
  -1  -2  -3    2.26    0.57
   1   2   4  494.76    8.01
  -1  -2  -4  456.27    7.43
   1   2   4  484.54    7.38
   1   2   4  469.09    6.60
  -1  -2  -4  491.58    6.88
   1   2   5  518.39   10.10
  -1  -2  -5  467.88    8.96
   1   2   5  475.94    8.25
   1   2   6  251.37    7.20
  -1  -2  -6  242.17    6.90
   1   2   6  229.93    5.85
   1   2   6  250.50    6.17
   1   2   7   54.25    5.20
  -1  -2  -7   46.24    4.37
   1   2   7   40.51    5.10
   1   2   7   45.67    3.85
  -1  -2  -8  556.20   15.38
   1   2   8  552.93   14.58
   1   2   8  515.39   13.24
  -1  -2  -9 2657.24  117.99
   1   2   9 2517.00  111.13
   1   2   9 2494.27   44.72
   1   2  10 1356.45   52.78
  -1  -2 -10 1346.98   52.58
   1   2  10 1233.76   47.16
   1   2  11   34.39    3.81
  -1  -2 -11   28.33    3.40
   1   2  11   23.22    1.76
   1   2  12   23.70    3.46
  -1  -2 -12   17.56    4.53
   1   2  13   13.28    3.49
  -1  -2 -13    5.10    1.92
  -1  -2 -14   18.77    4.30
   1   2  15    9.07    2.94
  -1  -2 -15    7.52    2.65
  -1  -3  16   46.30   10.93
   1   3 -16   34.59    8.57
  -1  -3  16   16.32    7.77
  -1  -3  15    4.30    1.88
   1   3 -15    5.74    2.60
   1   3 -15    2.16    1.59
  -1  -3  15    3.91    2.21
  -1  -3  14  114.14    4.65
   1   3 -14  109.03    4.68
   1   3 -14  103.17    4.39
  -1  -3  14  109.33    6.03
  -1  -3  13   21.83    3.17
   1   3 -13   18.59    3.30
   1   3 -13   12.30    4.43
  -1  -3  13   18.35    3.16
  -1  -3  12   36.20    3.29
   1   3 -12   33.13    3.17
   1   3 -12   19.59    4.33
  -1  -3  12   35.20    3.84
  -1  -3  11  118.40    5.29
   1   3 -11  115.66    5.22
   1   3 -11  138.92    6.32
  -1  -3  11  128.76    6.24
  -1  -3  10  142.74    7.41
   1   3 -10  136.52    7.28
   1   3 -10  143.50    7.75
  -1  -3  10  147.26    8.05
  -1  -3   9   22.01    2.45
   1   3  -9   30.61    2.90
   1   3  -9   27.53    3.08
  -1  -3   9   23.24    3.15
  -1  -3   8    3.53    1.13
   1   3  -8    4.66    1.37
   1   3  -8    3.01    1.15
  -1  -3   8    2.08    1.33
  -1  -3   7  241.43   10.39
   1   3  -7  226.10    9.57
   1   3  -7  224.55    9.63
  -1  -3   7  229.41   10.08
  -1  -3   6  163.77    7.76
   1   3  -6  167.22   13.60
   1   3  -6  156.58    7.54
  -1  -3   6  170.20   14.25
  -1  -3   5  186.72    4.63
   1   3  -5  189.10    4.18
   1   3  -5  183.76    4.81
  -1  -3   5  194.47    5.55
  -1  -3   4   20.32    2.43
  -1  -3   4   27.68    2.08
   1   3  -4   22.02    2.75
   1   3  -4   25.68    1.44
   1   3  -4   29.97    2.15
  -1  -3   4   26.51    2.53
  -1  -3   3   57.86    3.79
  -1  -3   3   62.91    2.54
   1   3  -3   61.01    3.81
   1   3  -3   48.88    1.97
  -1  -3   3   59.16    3.28
   1   3  -2  300.63    5.48
  -1  -3   2  305.79    5.78
  -1  -3   2  297.92    5.00
   1   3  -2  327.23    5.55
  -1  -3   2  315.28    6.15
   1   3  -1 2449.13   31.65
  -1  -3   1 2276.62   30.03
  -1  -3   1 2329.05   30.14
   1   3  -1 2246.92   28.79
  -1  -3   1 2152.51   28.67
   1   3   0    8.20    2.86
  -1  -3   0    4.95    0.94
  -1  -3   0    7.20    1.87
   1   3   0    2.65    0.91
   1   3   1  601.71    8.58
   1   3   2  106.32    3.19
  -1  -3  -2   98.77    2.98
   1   3   2   94.06    2.33
   1   3   2   92.31    2.34
  -1  -3  -2   87.72    2.17
   1   3   3   61.17    2.86
  -1  -3  -3   63.51    2.76
   1   3   3   58.34    2.03
   1   3   3   60.95    2.15
  -1  -3  -3   56.08    1.81
   1   3   4  117.30    4.05
  -1  -3  -4  108.85    3.36
   1   3   4   97.13    2.75
  -1  -3  -4  104.04    2.57
   1   3   5  154.46    7.49
  -1  -3  -5  162.51    7.90
   1   3   5  158.85    7.18
   1   3   6   93.44    8.08
  -1  -3  -6   86.05    7.44
   1   3   6   82.31    6.83
   1   3   7   15.26    2.45
  -1  -3  -7   17.83    2.43
   1   3   7   19.45    2.34
   1   3   8   87.78    6.52
  -1  -3  -8   98.82    7.32
   1   3   8   71.93    4.82
   1   3   8   91.35    5.85
   1   3   9  117.34    6.22
  -1  -3  -9  105.83    5.95
   1   3   9  109.63    4.66
   1   3  10    7.77    2.93
  -1  -3 -10    3.91    1.76
   1   3  10    4.40    0.89
  -1  -3 -11   19.22    2.86
   1   3  12  873.11   25.78
  -1  -3 -12  893.56   26.64
   1   3  13  793.54   15.05
  -1  -3 -13  800.25  187.33
   1   3  14    3.26    2.87
  -1  -3 -14   13.26    4.25
  -1  -4  15   31.47    6.12
   1   4 -15   40.48    7.87
   1   4 -15   14.47    9.03
  -1  -4  15   23.93    8.67
  -1  -4  14   60.13    5.16
   1   4 -14   69.70    5.92
   1   4 -14   55.98    8.01
  -1  -4  14   76.31    6.44
  -1  -4  13  149.30    4.56
   1   4 -13  141.57    4.70
   1   4 -13  149.00    4.99
  -1  -4  13  137.22    5.46
  -1  -4  12   32.08    3.51
   1   4 -12   35.29    3.37
   1   4 -12   30.92    3.42
  -1  -4  12   29.53    3.85
  -1  -4  11  213.35   10.43
   1   4 -11  202.66   10.12
   1   4 -11  191.96    9.93
  -1  -4  11  202.75   10.59
  -1  -4  10  283.28   10.12
   1   4 -10  266.05    9.55
   1   4 -10  282.73   10.53
  -1  -4  10  272.93   10.69
  -1  -4   9   73.33    4.41
   1   4  -9   69.12    4.12
   1   4  -9   66.66    4.43
  -1  -4   9   70.63    4.91
  -1  -4   8   11.04    2.42
   1   4  -8    4.03    1.18
   1   4  -8    3.87    2.06
  -1  -4   8    0.75    1.62
  -1  -4   7  185.36    6.14
   1   4  -7  201.30    6.15
   1   4  -7  182.12    6.11
  -1  -4   7  178.33    6.60
  -1  -4   6  181.03    8.06
   1   4  -6  175.19    7.52
   1   4  -6  193.22    8.51
  -1  -4   6  196.06    9.21
  -1  -4   5   91.37    7.88
   1   4  -5  108.52   10.77
   1   4  -5  103.42   10.46
  -1  -4   5   98.48    8.86
  -1  -4   4   79.70    4.45
   1   4  -4   75.74    4.14
  -1  -4   4   69.05    4.26
   1   4  -3  212.19    6.08
   1   4  -3  205.83    6.03
   1   4  -3  222.92    6.57
  -1  -4   3  190.42    6.57
   1   4  -2  444.72    8.78
  -1  -4   2  430.70    8.50
   1   4  -2  399.82    7.91
  -1  -4   2  419.01    9.30
   1   4  -1   35.50    4.20
  -1  -4   1   37.96    6.12
   1   4  -1   33.38    1.91
   1   4  -1   38.87    2.50
  -1  -4   1   30.59    3.13
   1   4   0    1.38    0.90
  -1  -4   0    1.20    0.63
   1   4   0    1.44    0.82
   1   4   0    2.14    1.15
   1   4   1   40.77    4.72
  -1  -4  -1   42.35    2.50
   1   4   1   35.07    1.65
   1   4   1   44.81    2.47
   1   4   2  718.41   17.75
  -1  -4  -2  681.81   16.91
   1   4   2  668.27   16.13
   1   4   3   56.23    3.66
  -1  -4  -3   56.40    3.87
   1   4   3   54.22    3.18
   1   4   4  182.33    8.47
  -1  -4  -4  170.66    7.83
   1   4   4  153.71    6.68
   1   4   5  185.91    6.37
  -1  -4  -5  186.46    6.41
   1   4   5  163.64    5.08
   1   4   6  194.79    6.28
  -1  -4  -6  179.04    5.62
   1   4   6  153.29    4.00
   1   4   7    1.46    1.85
  -1  -4  -7    2.39    1.49
   1   4   7    1.64    1.00
   1   4   8   39.92    3.32
  -1  -4  -8   47.90    3.89
   1   4   8   41.67    2.36
   1   4   9   82.05    5.69
  -1  -4  -9   73.54    5.36
   1   4   9   74.18    3.94
   1   4  10    3.77    2.00
  -1  -4 -10    8.71    2.94
   1   4  10    8.05    1.84
   1   4  11    6.49    2.47
  -1  -4 -11    3.27    1.82
   1   4  12   15.59    4.78
  -1  -4 -12   20.05    4.98
   1   4  13    6.56    2.42
  -1  -4 -13   11.83    3.62
  -1  -4 -14    5.82    2.46
  -1  -5  14   22.44    4.67
   1   5 -14   28.64    5.73
   1   5 -14   26.02    5.29
  -1  -5  14   31.68    6.65
   1   5 -13    5.80    2.30
   1   5 -13   12.75    3.05
  -1  -5  13   12.79    3.43
  -1  -5  12   12.64    2.27
   1   5 -12   10.99    2.20
   1   5 -12    7.58    2.29
  -1  -5  12   13.82    2.97
  -1  -5  11   90.68    6.54
   1   5 -11   77.22    5.62
   1   5 -11   93.09    7.19
  -1  -5  11   88.54    7.32
  -1  -5  10  239.64    8.89
   1   5 -10  246.92    9.15
   1   5 -10  251.54    9.69
  -1  -5  10  252.90   10.47
  -1  -5   9  103.00    4.80
   1   5  -9  118.14    5.10
   1   5  -9  109.25    5.51
  -1  -5   9  105.63    5.69
  -1  -5   8   57.25    3.57
   1   5  -8   54.29    3.08
   1   5  -8   57.74    4.59
  -1  -5   8   54.03    4.56
  -1  -5   7  550.84   20.87
   1   5  -7  567.68   21.29
   1   5  -7  565.58   21.69
  -1  -5   7  559.32   21.99
  -1  -5   6  525.44   11.38
   1   5  -6  555.27   11.48
   1   5  -6  539.18   11.68
  -1  -5   6  530.19   12.55
  -1  -5   5  220.19    7.15
   1   5  -5  209.73    7.28
  -1  -5   5  204.54    7.51
  -1  -5   4   26.50    3.57
   1   5  -4   25.20    3.26
  -1  -5   4   25.06    3.73
   1   5  -3  243.05   10.44
  -1  -5   3  233.18   10.16
   1   5  -3  249.08   10.84
  -1  -5   3  240.53   10.97
   1   5  -2  373.03   15.56
  -1  -5   2  377.27   18.14
  -1  -5   2  392.39   16.91
   1   5  -1   41.50    7.45
  -1  -5   1   40.24    6.23
   1   5  -1   41.06    4.18
   1   5   0   35.41    6.90
  -1  -5   0   50.20    7.45
   1   5   0   36.11    3.46
  -1  -5   0   40.50    4.81
   1   5   1  365.68   15.98
  -1  -5  -1  338.28   15.08
   1   5   1  321.14   13.36
   1   5   2  174.90    6.73
  -1  -5  -2  158.98    5.86
   1   5   2  157.97    5.27
   1   5   3   64.63    6.98
  -1  -5  -3   53.78    5.94
   1   5   3   54.47    5.88
   1   5   4   88.63    6.49
  -1  -5  -4   95.75    7.14
   1   5   4   82.51    5.74
   1   5   5  236.25   10.59
  -1  -5  -5  256.78   11.22
   1   5   5  226.05    9.07
   1   5   6  108.11    6.34
  -1  -5  -6   99.19    6.06
   1   5   6  104.94    4.93
   1   5   7   28.28    3.59
  -1  -5  -7   27.34    3.82
   1   5   7   29.31    2.90
   1   5   8   67.61   12.63
  -1  -5  -8   54.49    6.04
   1   5   8   57.08    5.56
   1   5   9  109.85    8.38
  -1  -5  -9  116.85    8.77
   1   5  10   33.11    4.53
  -1  -5 -10   25.33    4.09
   1   5  11    6.34    2.61
  -1  -5 -11    1.79    2.00
   1   5  12   14.84    4.98
  -1  -5 -12   19.13    5.46
   1   5  13    8.42    4.34
  -1  -5 -13   12.90    4.25
   1   6 -13   11.74    2.83
   1   6 -13   19.44    4.32
  -1  -6  13   17.50    4.62
  -1  -6  12    3.59    2.10
   1   6 -12    1.28    1.22
   1   6 -12    4.53    2.22
  -1  -6  11   25.73    4.72
   1   6 -11   24.21    4.51
   1   6 -11   24.58    4.80
  -1  -6  11   29.63    5.77
  -1  -6  10   50.72    4.68
   1   6 -10   53.02    4.95
   1   6 -10   44.64    4.50
  -1  -6  10   46.46    5.15
  -1  -6   9   15.25    2.67
   1   6  -9   22.98    3.24
   1   6  -9   26.30    3.37
  -1  -6   9   23.28    4.34
  -1  -6   8   26.42    2.53
   1   6  -8   32.04    2.37
   1   6  -8   30.20    3.10
  -1  -6   8   27.61    3.52
  -1  -6   7  208.39   10.32
   1   6  -7  205.44    9.90
   1   6  -7  227.39   11.51
  -1  -6   7  183.60   10.41
  -1  -6   6  131.77    5.68
   1   6  -6  154.76    6.06
   1   6  -6  142.38    6.40
  -1  -6   6  150.33    7.93
  -1  -6   5    3.21    1.64
   1   6  -5    2.30    1.92
  -1  -6   5    9.26    4.13
  -1  -6   4  352.71   14.04
   1   6  -4  357.60   14.11
  -1  -6   4  387.25   16.01
   1   6  -3  775.15   28.92
  -1  -6   3  756.23   28.32
  -1  -6   3  780.31   29.85
   1   6  -2  536.34   20.55
  -1  -6   2  553.92   24.48
   1   6  -2  548.08   20.94
   1   6  -1   43.11    5.23
  -1  -6   1   46.58    6.05
   1   6  -1   42.49    3.56
  -1  -6   1   52.01    5.26
   1   6   0   69.51    5.10
  -1  -6   0   89.77    8.50
   1   6   0   67.10    4.24
  -1  -6   0   91.42    6.87
   1   6   1  346.68   14.33
  -1  -6  -1  354.97   21.13
   1   6   1  329.29   13.12
  -1  -6  -1  347.56   14.96
   1   6   2  190.37    9.41
  -1  -6  -2  196.20   12.69
   1   6   2  182.68    7.71
   1   6   3   15.20    3.65
  -1  -6  -3   13.02    2.40
   1   6   3    9.06    1.81
   1   6   4  113.81    5.77
  -1  -6  -4  100.82    5.63
   1   6   4  114.94    5.11
   1   6   5   86.80    5.55
  -1  -6  -5   77.85    5.27
   1   6   5   73.89    4.59
   1   6   6   79.65    5.91
  -1  -6  -6   71.16    5.14
   1   6   6   82.21    4.59
   1   6   7  262.73   14.75
  -1  -6  -7  302.62   16.66
   1   6   7  248.47   13.29
   1   6   8   24.60    3.56
  -1  -6  -8   34.28    4.24
   1   6   8   21.05    2.28
   1   6   9   70.32   17.30
  -1  -6  -9   65.59   11.52
   1   6   9   53.82    9.09
   1   6  10   -1.24    1.97
  -1  -6 -10   -0.63    2.01
   1   6  11    4.93    2.51
  -1  -6 -11    1.63    2.02
   1   7 -12    5.67    2.04
   1   7 -12   10.73    3.35
  -1  -7  12    2.33    1.78
   1   7 -11    9.50    2.27
   1   7 -11   11.89    3.14
  -1  -7  11    4.43    2.10
   1   7 -10   72.45    5.35
   1   7 -10   76.51    6.36
  -1  -7  10   82.74    6.95
  -1  -7   9   31.13    5.71
   1   7  -9   33.72    6.06
   1   7  -9   23.53    4.71
  -1  -7   9   43.33    8.32
  -1  -7   8    6.27    1.83
   1   7  -8    5.89    1.95
   1   7  -8    1.41    1.55
  -1  -7   8    2.90    1.92
  -1  -7   7   47.99    4.13
   1   7  -7   52.79    4.15
   1   7  -7   56.49    4.77
  -1  -7   7   61.92    5.80
  -1  -7   6  108.65    7.67
   1   7  -6  117.97    8.03
   1   7  -6  105.20    7.87
  -1  -7   6  105.84    8.39
  -1  -7   5    1.17    1.34
   1   7  -5    6.46    2.62
  -1  -7   5   11.29    3.90
  -1  -7   4   38.41    4.39
   1   7  -4   50.44    5.92
  -1  -7   4   61.37    7.57
   1   7  -3  131.87    7.19
  -1  -7   3  135.80    7.57
   1   7  -2   22.90    3.11
  -1  -7   2   36.98    4.73
   1   7  -2   39.09    4.80
  -1  -7   2   24.29    3.94
   1   7  -1   84.49    6.22
  -1  -7   1  105.71    8.68
   1   7  -1   98.47    6.09
  -1  -7   1   99.62    7.31
   1   7   0  465.46   23.23
  -1  -7   0  482.72   22.60
   1   7   0  459.43   21.29
  -1  -7   0  502.73   24.24
   1   7   1  449.52   21.99
  -1  -7  -1  503.74   24.93
   1   7   1  449.91   20.79
  -1  -7  -1  493.18   23.64
   1   7   2  150.88    8.24
  -1  -7  -2  156.73   16.27
   1   7   2  156.53    8.28
  -1  -7  -2  167.35    9.75
   1   7   3    1.03    1.51
  -1  -7  -3    8.20    2.35
   1   7   3    1.92    1.55
  -1  -7  -3    5.64    2.61
   1   7   4  129.15    7.79
  -1  -7  -4  149.96    9.34
   1   7   4  131.00    7.96
   1   7   5  148.63    6.61
  -1  -7  -5  139.32    6.63
   1   7   6   46.78    5.54
  -1  -7  -6   47.17    6.15
   1   7   6   49.59    5.21
   1   7   7   16.24    5.39
  -1  -7  -7   18.23    4.25
   1   7   7   13.93    3.78
   1   7   8    8.56    2.99
  -1  -7  -8   14.60    3.41
   1   7   8    7.75    2.37
   1   7   9   38.19    8.00
  -1  -7  -9   31.68    6.79
   1   8 -10  151.62   12.65
   1   8 -10  188.54   16.02
  -1  -8  10  171.30   14.84
   1   8  -9   70.66    5.39
   1   8  -9   55.43    5.50
  -1  -8   9   72.95    6.97
   1   8  -8    4.69    2.06
   1   8  -8    4.07    1.92
  -1  -8   8    1.15    2.23
   1   8  -7   86.04    6.24
   1   8  -7   92.96    7.96
  -1  -8   7   81.75    7.91
   1   8  -6  107.50    3.84
  -1  -8   6  107.33    6.06
  -1  -8   5   38.17    4.16
   1   8  -5   53.06    5.65
  -1  -8   5   33.07    4.58
  -1  -8   4    3.71    1.43
   1   8  -4   10.02    2.61
  -1  -8   4    9.41    4.33
   1   8  -3  112.70    5.47
  -1  -8   3   97.93    4.92
   1   8  -3  109.75    6.01
  -1  -8   3  123.73    8.58
   1   8  -2   91.92    9.97
  -1  -8   2   94.27   10.46
   1   8  -2   87.19    7.95
  -1  -8   2   84.84    8.82
   1   8  -1    3.35    1.60
  -1  -8   1    6.10    2.86
   1   8  -1    4.97    1.94
  -1  -8   1    9.44    5.18
   1   8   0   10.21    5.08
  -1  -8   0   17.96    5.36
   1   8   0   33.23    4.39
  -1  -8   0   28.18    4.61
   1   8   1    8.30    4.81
  -1  -8  -1   18.28    7.08
   1   8   1   22.88    3.16
  -1  -8  -1   26.48    4.10
   1   8   2    1.10    2.50
  -1  -8  -2    3.39    2.06
   1   8   2    6.08    2.35
  -1  -8  -2    7.35    4.05
   1   8   3  122.66    8.20
  -1  -8  -3  127.86    9.37
   1   8   3  118.53    4.97
  -1  -8  -3  150.43    7.45
   1   8   4  188.24    7.54
   1   8   4  198.00    5.87
  -1  -8  -4  216.16    8.79
   1   8   5  113.15    9.49
  -1  -8  -5  107.12   14.89
   1   8   5  114.94    8.10
  -1  -8  -5  145.07   11.31
   1   8   6    4.06    2.96
  -1  -8  -6   13.70    4.10
   1   8   6   13.33    2.91
   1   8   7   14.62    4.25
  -1  -8  -7   12.05    3.82
   1   8   7    9.77    2.51
   1   9  -7  125.14   11.49
  -1  -9   7  116.30   11.49
   1   9  -6  111.04    9.27
   1   9  -5   35.95    7.20
  -1  -9   5   22.02    4.98
   1   9  -4   22.57    6.47
  -1  -9   4   31.16    9.04
  -1  -9   3   66.66    5.81
   1   9  -3   97.23    8.26
  -1  -9   3  100.12    9.58
  -1  -9   2   96.85    7.55
   1   9  -2  132.79   10.10
  -1  -9   2  113.78    9.26
   1   9  -1   10.66    2.84
  -1  -9   1    9.60    2.85
   1   9  -1   19.79    5.71
  -1  -9   1   16.83    6.13
   1   9   0   11.24    7.48
  -1  -9   0   29.86   12.42
   1   9   0   25.84    7.01
  -1  -9   0   31.81    8.90
   1   9   1   33.96   12.69
  -1  -9  -1   29.19   13.69
   1   9   1   53.15   13.28
  -1  -9  -1   92.71    8.66
   1   9   2    8.86    6.12
  -1  -9  -2   24.91    8.11
   1   9   2   20.02    4.46
  -1  -9  -2   25.21    6.02
   1   9   3    2.84    1.60
  -1  -9  -3    3.89    2.75
   1   9   3    5.86    2.46
  -1  -9  -3    9.81    4.45
   1   9   4    4.45    2.96
  -1  -9  -4    1.62    1.51
   1   9   4    2.35    1.57
  -1  -9  -4    7.97    3.33
   2 -10  -4   13.25    7.35
  -2  10   4   10.70    3.13
   2 -10  -3   40.28   16.78
  -2  10   3   53.45    5.11
   2 -10  -3   47.22   11.58
   2 -10  -2   22.46    7.38
  -2  10   2   18.74    4.44
   2 -10  -2   31.71    6.54
   2 -10  -1   67.43   20.14
  -2  10   1   99.46    7.56
   2 -10  -1  114.74    8.81
   2 -10   0    3.49    3.45
   2 -10   0    2.20    1.65
   2 -10   1    9.86    4.53
  -2  10  -1   16.21    5.48
   2 -10   1   11.21    3.87
   2 -10   2   84.75   11.49
  -2  10  -2   93.86    7.46
   2 -10   2   94.22    7.83
   2 -10   3   68.14    6.58
  -2  10  -3   56.35   14.18
   2 -10   3   55.30   14.27
   2 -10   4    7.09    2.81
  -2  10  -4    7.12    3.37
   2 -10   4   15.19    4.07
  -2  10  -5   78.68    6.91
   2 -10   5   79.29    7.27
  -2  10  -6   94.40    8.70
   2 -10   6   93.99    9.45
  -2   9   7   46.87   11.22
   2  -9  -7   52.50    6.29
  -2   9   7   49.81    4.51
  -2   9   6    2.02    1.29
   2  -9  -6    3.41    2.28
  -2   9   6    3.53    2.14
  -2   9   5   29.89    4.83
   2  -9  -5   23.93    7.55
  -2   9   5   35.65    6.04
   2  -9  -5   49.69    5.23
  -2   9   4   19.10    4.19
   2  -9  -4   12.50    3.82
  -2   9   4   12.22    4.03
   2  -9  -4   12.60    3.67
  -2   9   3    6.34    2.29
   2  -9  -3    5.66    2.54
  -2   9   3    9.44    3.63
   2  -9  -3   11.19    3.71
   2  -9  -2  559.47   15.90
  -2   9   2  567.77    9.88
   2  -9  -2  577.80  122.65
   2  -9  -1    7.74    2.45
  -2   9   1    5.47    2.60
   2  -9  -1    5.35    1.86
   2  -9   0   11.71    3.82
  -2   9   0   19.82    3.16
   2  -9   0   21.53    3.88
   2  -9   1   14.65    3.16
  -2   9  -1   10.64    2.72
   2  -9   1    7.93    3.10
   2  -9   2  254.11   12.16
  -2   9  -2  235.36    8.70
   2  -9   2  222.32    8.71
   2  -9   3   82.30    5.36
  -2   9  -3   67.35    6.96
   2  -9   3   64.00    6.81
   2  -9   4    1.37    1.79
  -2   9  -4    7.48    2.20
   2  -9   4    7.58    2.53
   2  -9   5   74.13    5.06
  -2   9  -5   93.17    4.92
   2  -9   5   96.28    5.22
  -2   9  -6  150.65    6.12
   2  -9   6  167.80    6.64
  -2   9  -7   77.13    6.39
   2  -9   7   66.85    5.94
  -2   9  -8   22.17    6.18
  -2   9  -8   12.89    3.49
   2  -9   8   13.26    3.49
  -2   9  -9  132.59    9.43
  -2   9  -9  123.79    8.94
   2  -9   9  106.49    8.83
  -2   8  10    3.49    1.82
   2  -8 -10    1.27    3.76
  -2   8  10    1.34    1.74
  -2   8   9    2.32    2.19
   2  -8  -9   12.31    3.63
  -2   8   9    7.66    3.23
  -2   8   8    5.66    2.44
   2  -8  -8   10.86    3.35
  -2   8   8    5.63    2.46
  -2   8   7   43.28    7.79
   2  -8  -7   47.84    9.53
  -2   8   7   65.12   11.25
   2  -8  -7   57.39   10.04
  -2   8   6  270.57    6.05
   2  -8  -6  302.46    8.96
  -2   8   6  310.93    7.09
   2  -8  -6  276.95    6.56
  -2   8   5  299.33    9.91
   2  -8  -5  328.51   12.33
  -2   8   5  303.77   10.28
   2  -8  -5  351.51   11.94
  -2   8   4  261.18   14.09
   2  -8  -4  249.42   15.82
  -2   8   4  273.74   15.13
   2  -8  -4  281.76   15.64
  -2   8   3   17.58    3.81
   2  -8  -3   14.74    5.08
  -2   8   3   15.51    3.93
   2  -8  -3   23.58    3.13
  -2   8   2   71.71    4.09
   2  -8  -2   97.34   16.70
  -2   8   2   84.32    5.29
   2  -8  -2   78.59    5.33
  -2   8   1  167.25    8.62
   2  -8  -1  196.84   19.35
   2  -8  -1  197.89   10.48
  -2   8   0   41.81    7.01
   2  -8   0   61.15    9.39
  -2   8   0   68.87   12.57
   2  -8   0   64.99    6.90
   2  -8   1  771.98   35.62
  -2   8  -1  890.21   40.29
   2  -8   1  825.03   37.41
   2  -8   2  132.53   14.16
  -2   8  -2  144.54    8.03
   2  -8   2  133.12    7.80
   2  -8   3   22.72    4.67
  -2   8  -3   17.67    3.32
   2  -8   3   12.67    3.07
   2  -8   4   25.06    4.39
  -2   8  -4   15.97    3.95
   2  -8   4   15.62    3.81
   2  -8   5  200.59    9.87
  -2   8  -5  231.46    9.65
   2  -8   5  212.03    9.19
  -2   8  -6  139.51    8.24
   2  -8   6  151.03    9.14
  -2   8  -7   78.20    7.40
   2  -8   7   84.40    8.19
  -2   8  -8   13.99    2.98
  -2   8  -8    9.32    2.53
   2  -8   8    5.17    1.94
  -2   8  -9  104.60    4.43
  -2   8  -9   97.19    4.32
   2  -8   9  129.04    5.95
  -2   8 -10  143.29    9.92
  -2   8 -10  142.63    9.94
   2  -8  10  154.47   11.47
  -2   8 -11    6.48    2.74
  -2   8 -11   10.64    2.92
   2  -8  11    8.94    3.44
  -2   7  11   11.35    3.99
   2  -7 -11   17.41    5.48
  -2   7  11    5.95    2.01
  -2   7  10    6.08    2.29
   2  -7 -10    7.86    3.38
  -2   7  10    5.33    2.17
  -2   7   9   78.81    4.09
   2  -7  -9  106.57    6.34
  -2   7   9   84.03    3.64
  -2   7   8   41.33    4.73
   2  -7  -8   48.31    5.83
  -2   7   8   37.26    3.79
   2  -7  -8   45.67    4.95
  -2   7   7   28.51    3.25
   2  -7  -7   16.80    3.99
  -2   7   7   24.21    3.14
   2  -7  -7   37.38    4.40
  -2   7   6    4.48    1.48
   2  -7  -6   16.52    5.49
  -2   7   6   10.45    3.24
   2  -7  -6   10.71    2.93
  -2   7   5    3.30    1.68
   2  -7  -5    7.33    2.67
  -2   7   5    3.49    2.81
   2  -7  -5    2.96    1.54
  -2   7   4    9.04    2.16
   2  -7  -4    8.16    3.34
  -2   7   4    6.71    2.91
   2  -7  -4    4.72    2.13
  -2   7   3  220.99    9.40
   2  -7  -3  226.65   15.07
  -2   7   3  240.87   10.74
   2  -7  -3  256.41   11.43
  -2   7   2  488.28   19.31
   2  -7  -2  522.99   29.73
  -2   7   2  524.68   21.28
   2  -7  -2  506.34   20.60
  -2   7   1  656.29   24.31
   2  -7  -1  673.93   29.23
  -2   7   1  676.64   25.68
   2  -7  -1  690.97   26.35
  -2   7   0  205.82    8.51
   2  -7   0  246.13   12.02
  -2   7   0  203.75    8.96
   2  -7   0  216.62    9.43
  -2   7  -1   25.22    3.60
   2  -7   1   25.95    1.50
   2  -7   1   51.19    9.06
  -2   7  -1   52.56    4.92
   2  -7   1   30.41    3.07
  -2   7  -2  355.08   13.07
   2  -7   2  421.62   19.13
  -2   7  -2  424.87   16.87
   2  -7   2  407.72   16.26
   2  -7   3  418.75   17.16
  -2   7  -3  433.82   17.14
   2  -7   3  389.58   15.54
   2  -7   4  440.43   18.56
  -2   7  -4  466.65   19.10
   2  -7   4  428.01   17.80
   2  -7   5  226.03   10.60
  -2   7  -5  265.95   11.70
   2  -7   5  249.29   11.27
  -2   7  -6   95.63    4.55
   2  -7   6   99.66    6.04
  -2   7  -7  179.95    9.39
   2  -7   7  170.44    9.51
  -2   7  -8   60.41    4.36
  -2   7  -8   53.06    3.83
   2  -7   8   44.30    4.44
  -2   7  -9  107.05    5.30
  -2   7  -9  105.49    4.76
   2  -7   9  117.13    6.41
  -2   7 -10  156.36    4.93
  -2   7 -10  131.12    4.27
   2  -7  10  169.67    7.37
  -2   7 -11   17.31    3.24
  -2   7 -12   19.52    5.55
  -2   7 -12   16.99    4.59
   2  -7  12   10.22    3.63
  -2   7 -13   91.83    8.31
   2  -7  13   84.86   14.99
  -2   6  13    3.66    2.01
   2  -6 -13    4.53    3.53
  -2   6  13    2.42    1.39
  -2   6  12    3.07    2.59
   2  -6 -12    6.56    3.67
  -2   6  12    0.40    1.31
  -2   6  11    7.28    2.49
   2  -6 -11   24.78    6.78
  -2   6  11    9.80    2.85
  -2   6  10  129.37    4.58
   2  -6 -10  139.04    6.14
  -2   6  10  133.01    4.09
  -2   6   9   97.50    7.57
   2  -6  -9   77.55    7.06
  -2   6   9   76.74    5.71
  -2   6   8  157.13    7.01
   2  -6  -8  159.53    8.36
  -2   6   8  161.66    6.66
  -2   6   7    6.57    2.20
   2  -6  -7   13.61    3.83
  -2   6   7   10.78    2.10
  -2   6   6  335.16   13.86
   2  -6  -6  353.30   15.80
  -2   6   6  351.24   14.49
   2  -6  -6  398.91   16.43
  -2   6   5  211.01    8.72
   2  -6  -5  224.42   10.70
  -2   6   5  205.74    8.67
   2  -6  -5  248.89   10.27
  -2   6   4  292.66    7.08
   2  -6  -4  307.26    9.37
  -2   6   4  288.08    7.25
   2  -6  -4  304.23    7.60
  -2   6   3    2.97    1.12
   2  -6  -3    8.08    2.30
  -2   6   3   10.26    2.63
   2  -6  -3   10.19    1.76
  -2   6   2    4.93    1.11
   2  -6  -2   15.00    3.02
   2  -6  -2    7.66    1.88
  -2   6   1   47.36    5.02
   2  -6  -1   35.93    3.78
   2  -6  -1   52.71    7.88
  -2   6   1   43.80    5.25
   2  -6  -1   44.09    4.92
  -2   6   0   25.06    2.84
   2  -6   0   22.53    2.49
   2  -6   0   28.91    5.18
  -2   6   0   30.70    3.80
   2  -6   0   20.77    3.07
   2  -6   1  269.04    7.11
   2  -6   1  320.49   14.01
  -2   6  -1  298.19    9.06
   2  -6   1  307.44    9.29
  -2   6  -2  665.56   16.76
   2  -6   2  640.14   16.08
   2  -6   2  769.22   23.43
  -2   6  -2  814.93   21.83
   2  -6   2  761.22   20.71
   2  -6   3  569.45   16.36
  -2   6  -3  630.99   17.23
   2  -6   3  610.85   16.89
   2  -6   4   19.12    2.87
  -2   6  -4   16.86    2.18
   2  -6   4   18.76    2.92
  -2   6  -5  317.22    7.73
   2  -6   5  363.15    9.17
  -2   6  -6  784.49   29.15
   2  -6   6  851.22   32.37
  -2   6  -7  158.10    7.33
   2  -6   7  155.59    7.72
  -2   6  -8  142.83    6.05
  -2   6  -8  159.10    6.65
   2  -6   8  155.54    7.50
  -2   6  -9   75.23    4.90
  -2   6  -9   72.94    4.31
   2  -6   9   85.64    5.97
  -2   6 -10  310.85   16.68
  -2   6 -10  286.35   15.13
  -2   6 -11    2.55    1.59
  -2   6 -11   -0.07    0.83
   2  -6  11    3.05    1.71
  -2   6 -12   25.11    4.88
  -2   6 -12   28.18    5.13
   2  -6  12   21.43    8.87
  -2   6 -13  106.79    7.86
   2  -6  13   86.08   14.91
  -2   6 -14   54.69    5.50
   2  -6  14   35.90   14.09
  -2   5  14   12.61    4.00
   2  -5 -14    7.31    3.20
  -2   5  13   40.24   10.51
   2  -5 -13   41.03   10.74
  -2   5  13   46.29   11.55
  -2   5  12   60.05   10.92
   2  -5 -12   71.13   17.57
  -2   5  12   79.43    3.74
  -2   5  11   11.46    2.88
   2  -5 -11    8.64    2.66
  -2   5  11    5.81    1.68
  -2   5  10    6.22    2.98
   2  -5 -10    1.97    2.14
  -2   5  10    3.76    1.72
  -2   5   9    5.15    2.61
   2  -5  -9    1.00    2.21
  -2   5   9    4.69    2.11
  -2   5   8    5.74    1.84
   2  -5  -8    5.00    3.36
  -2   5   8    3.31    1.61
  -2   5   7  238.46   10.30
   2  -5  -7  229.55   10.40
  -2   5   7  216.84    8.97
  -2   5   6  126.01    8.47
   2  -5  -6  117.20    8.74
  -2   5   6  119.19    7.93
  -2   5   5  930.70   24.35
   2  -5  -5  914.32   25.25
  -2   5   5  909.37   23.98
  -2   5   4  518.61   21.03
   2  -5  -4  508.19   21.32
  -2   5   4  504.69   20.61
   2  -5  -4  547.74   22.12
  -2   5   3  542.88   21.85
   2  -5  -3  541.13   22.54
  -2   5   3  502.58   20.44
   2  -5  -3  534.39   21.58
  -2   5   2  566.76   13.67
   2  -5  -2  549.52   14.59
  -2   5   2  549.16   13.82
   2  -5  -2  570.26   14.03
  -2   5   1 1301.13   30.02
   2  -5  -1 1328.43   30.65
   2  -5  -1 1485.84   36.67
  -2   5   1 1321.88   31.18
   2  -5  -1 1372.33   32.17
  -2   5   0  348.86    8.45
   2  -5   0  326.00    7.89
   2  -5   0  380.49   12.21
  -2   5   0  369.25    9.83
   2  -5   0  333.30    8.93
  -2   5  -1    6.48    0.75
   2  -5   1    4.33    0.51
   2  -5   1   11.43    2.24
  -2   5  -1   12.99    2.13
   2  -5   1    3.80    1.41
   2  -5   2  212.77   11.25
  -2   5  -2  191.43    5.73
   2  -5   2  186.22    5.81
   2  -5   3  113.40    6.16
  -2   5  -3  111.34    5.55
   2  -5   3  117.19    6.17
   2  -5   4   -0.96    1.18
  -2   5  -4    0.29    1.51
   2  -5   4    1.87    1.19
  -2   5  -5  265.44   11.13
   2  -5   5  281.07   12.26
  -2   5  -6  645.86   17.09
   2  -5   6  653.42   18.27
   2  -5   7  242.90    4.69
  -2   5  -7  260.41    6.19
   2  -5   7  272.95    7.50
   2  -5   8   52.96    2.70
  -2   5  -8   44.84    3.01
   2  -5   8   64.48    4.98
   2  -5   9  746.92   28.73
  -2   5  -9  763.89   29.84
   2  -5   9  869.34   34.62
   2  -5  10   39.75    3.87
  -2   5 -10   47.74    4.96
  -2   5 -10   35.24    3.77
   2  -5  10   41.02    5.29
  -2   5 -11   39.88    3.12
  -2   5 -11   45.37    2.99
   2  -5  11   43.74    7.66
  -2   5 -12   10.98    2.46
  -2   5 -12   12.15    2.11
   2  -5  12   14.20    3.18
  -2   5 -13  180.62    5.97
   2  -5  13  180.01    9.18
  -2   5 -14   12.07    3.12
   2  -5  14    8.48    4.35
  -2   5 -15    4.41    1.98
   2  -5  15    5.82    2.80
  -2   4  14  118.38    9.35
   2  -4 -14   92.74    8.13
  -2   4  14   94.39    6.77
  -2   4  13   40.34    7.51
   2  -4 -13   37.57    7.40
  -2   4  13   41.00    7.12
  -2   4  12   32.19    3.77
   2  -4 -12   35.04    4.40
  -2   4  12   32.43    3.32
  -2   4  11    7.41    2.99
   2  -4 -11   10.02    3.31
  -2   4  10  138.20    7.00
   2  -4 -10  128.11    7.03
  -2   4   9  261.86   11.32
   2  -4  -9  294.43   13.09
  -2   4   8  175.08    5.44
   2  -4  -8  166.88    6.23
  -2   4   7    7.71    1.78
   2  -4  -7    8.32    2.34
   2  -4  -7    5.50    0.85
  -2   4   6    1.95    1.22
   2  -4  -6    3.50    1.64
  -2   4   6    2.86    0.81
   2  -4  -6    0.85    0.42
  -2   4   5   28.17    2.51
   2  -4  -5   31.42    3.42
  -2   4   5   22.00    1.87
   2  -4  -5   24.44    1.54
  -2   4   4  183.94    5.42
   2  -4  -4  178.11    6.94
  -2   4   4  181.24    5.37
   2  -4  -4  184.95    5.21
  -2   4   3   40.36    1.94
   2  -4  -3   44.52    3.31
   2  -4  -3   47.76    2.13
  -2   4   2 1562.00   25.82
   2  -4  -2 1517.01   25.11
   2  -4  -2 1548.62   27.18
  -2   4   2 1614.70   27.21
   2  -4  -2 1550.73   25.73
  -2   4   1 1972.74   32.14
   2  -4  -1 1726.26   28.22
   2  -4  -1 1894.54   33.08
  -2   4   1 1857.49   30.90
   2  -4  -1 1857.30   30.62
  -2   4   0   27.26    1.17
   2  -4   0   21.76    1.01
   2  -4   0   32.36    5.60
  -2   4   0   26.75    2.16
   2  -4   0   24.88    1.69
  -2   4   0   23.34    1.58
  -2   4  -1  599.60    7.72
   2  -4   1  597.70    7.78
   2  -4   1  575.81    8.84
  -2   4  -1  575.45    8.78
   2  -4   2 1967.97   33.67
   2  -4   2 2147.67   35.54
   2  -4   3 1176.91   20.91
  -2   4  -3 1281.51   21.72
   2  -4   3 1214.06   20.98
  -2   4  -4  190.50    4.44
   2  -4   4  184.12    4.85
   2  -4   5  100.49    4.32
  -2   4  -5  105.71    5.14
   2  -4   5  104.04    5.57
   2  -4   6  305.17   12.11
  -2   4  -6  294.76   11.76
  -2   4  -6  311.13   13.01
  -2   4  -6  321.26   13.20
   2  -4   6  316.32   13.53
   2  -4   7  207.11    8.44
  -2   4  -7  211.12    8.63
  -2   4  -7  211.54    9.30
  -2   4  -7  190.93    8.18
   2  -4   8    2.04    0.74
  -2   4  -8    6.37    1.08
  -2   4  -8    5.47    1.66
  -2   4  -8    6.32    1.50
   2  -4   8    5.23    2.14
   2  -4   9  199.42    7.83
  -2   4  -9  206.87    8.73
  -2   4  -9  180.76    7.18
   2  -4   9  209.83   11.98
   2  -4  10  372.34   14.84
  -2   4 -10  418.46   17.14
  -2   4 -10  402.49   16.03
   2  -4  10  415.37   18.79
   2  -4  11   11.87    1.82
  -2   4 -11   14.40    2.73
  -2   4 -11   11.92    1.68
   2  -4  11   20.49    3.81
  -2   4 -12  317.02   16.36
   2  -4  12  365.71   19.99
   2  -4  13    5.09    1.34
  -2   4 -13    1.77    1.41
   2  -4  13   18.87    4.99
  -2   4 -14   11.17    2.86
   2  -4  14    9.22    3.80
  -2   4 -15    5.19    2.78
   2  -4  15    2.72    2.22
  -2   3  15    4.75    2.90
   2  -3 -15    1.08    1.86
  -2   3  14  110.78    8.54
   2  -3 -14  100.99    8.02
  -2   3  13  303.49    7.14
   2  -3 -13  322.47    8.29
  -2   3  12   11.56    3.03
   2  -3 -12   11.46    2.90
  -2   3  11   89.19    5.90
   2  -3 -11   84.29    5.54
  -2   3  10  163.17    8.15
   2  -3 -10  159.33    7.99
  -2   3   9  217.19    6.23
   2  -3  -9  200.88    6.20
  -2   3   8   13.06    2.29
   2  -3  -8   11.74    2.48
   2  -3  -8   19.83    2.26
  -2   3   7  148.75    6.84
   2  -3  -7  130.97    5.55
  -2   3   6  628.65   15.46
   2  -3  -6  614.12   14.69
  -2   3   5  950.17   16.76
   2  -3  -5  837.82   14.16
  -2   3   4  280.52    5.78
   2  -3  -4  261.54    4.74
  -2   3   3  141.56    3.40
   2  -3  -3  135.18    3.10
   2  -3  -3  136.45    2.58
  -2   3   2   50.19    1.73
   2  -3  -2   40.87    1.48
   2  -3  -2   52.58    1.70
  -2   3   1    3.02    0.92
   2  -3  -1    2.38    0.66
  -2   3   1    2.27    0.89
  -2   3   1    0.73    1.09
   2  -3  -1    1.66    0.73
  -2   3   1    4.46    1.11
  -2   3   0    8.88    0.64
   2  -3   0   12.09    0.90
  -2   3   0    9.94    1.50
  -2   3   0   12.75    1.45
   2  -3   0   12.51    1.06
  -2   3   0   12.94    1.06
  -2   3  -1 1060.52   11.64
  -2   3  -1 1013.81   11.05
   2  -3   1 1078.92   14.36
  -2   3  -1 1040.12   12.38
   2  -3   2 2552.55   34.19
  -2   3  -2 2751.05   34.79
   2  -3   2 2605.98   32.96
   2  -3   2 2585.70   32.97
  -2   3  -2 2467.57   31.49
  -2   3  -3  152.79    2.04
   2  -3   3  157.44    4.36
   2  -3   3  157.80    3.02
   2  -3   3  162.84    3.75
  -2   3  -3  155.85    3.52
   2  -3   4   90.87    1.70
  -2   3  -4   81.49    1.46
  -2   3  -4   96.26    2.48
   2  -3   4   86.52    2.08
   2  -3   4  100.82    3.34
   2  -3   5 1088.46   17.85
  -2   3  -5 1052.92   17.28
  -2   3  -5 1129.97   19.61
  -2   3  -5 1098.63   18.39
   2  -3   5 1023.25   17.15
   2  -3   5 1176.45   20.64
   2  -3   6 1063.93   24.55
  -2   3  -6  967.24   22.34
  -2   3  -6 1033.14   24.62
  -2   3  -6  997.50   23.19
   2  -3   6  971.19   22.54
   2  -3   7  333.04   13.45
  -2   3  -7  285.84   11.54
  -2   3  -7  345.61   14.40
  -2   3  -7  303.71   12.28
   2  -3   7  307.26   12.36
   2  -3   7  356.94   15.18
   2  -3   8    1.06    0.71
  -2   3  -8    0.76    1.17
  -2   3  -8    1.91    0.60
   2  -3   8    0.61    0.57
   2  -3   8    4.32    1.77
   2  -3   9  167.23    4.44
  -2   3  -9  160.47    5.08
  -2   3  -9  147.93    3.65
   2  -3   9  140.86    3.35
   2  -3   9  183.81   11.86
   2  -3  10  307.32   11.91
  -2   3 -10  341.37   13.70
  -2   3 -10  270.56   10.29
   2  -3  10  320.80   19.45
   2  -3  11  162.11    6.33
  -2   3 -11  170.46    6.98
  -2   3 -11  151.96    5.48
   2  -3  11  173.96   10.43
   2  -3  12    1.33    1.03
  -2   3 -12    1.76    1.57
   2  -3  12    1.78    2.12
   2  -3  13  172.78    6.39
  -2   3 -13  191.46    7.18
   2  -3  13  181.94   11.04
   2  -3  14   43.51    7.55
  -2   3 -14   66.91   11.77
   2  -3  14   48.56   13.99
   2  -3  15   66.03    5.32
  -2   3 -15   78.97    6.97
   2  -3  15   58.82   20.38
  -2   2  16   65.95    6.98
   2  -2 -16   73.51    7.39
  -2   2  15   15.25    4.76
   2  -2 -15    9.80    2.75
  -2   2  14    3.99    2.67
   2  -2 -14    3.43    1.95
   2  -2 -13   18.72    3.96
  -2   2  13   17.84    2.65
  -2   2  12   18.76    3.46
   2  -2 -12    4.06    2.85
  -2   2  12   10.24    2.40
  -2   2  11   58.42    4.85
   2  -2 -11   57.94    5.04
  -2   2  11   65.28    3.25
  -2   2  10  457.22   17.72
   2  -2 -10  481.82   18.83
  -2   2  10  457.43   17.12
  -2   2   9  243.33    6.57
   2  -2  -9  220.96    6.83
   2  -2  -9  216.67    6.01
  -2   2   9  222.23    5.20
  -2   2   8    0.60    1.20
   2  -2  -8    3.83    1.62
   2  -2  -8    3.07    1.24
  -2   2   8    3.64    0.97
   2  -2  -8    1.76    0.61
  -2   2   7  188.99    6.06
   2  -2  -7  179.68    5.75
   2  -2  -7  164.87   13.66
  -2   2   7  174.75   14.09
   2  -2  -7  157.87    7.00
  -2   2   6  503.24    9.91
   2  -2  -6  464.65    9.57
   2  -2  -6  460.59    9.23
   2  -2  -6  427.43    7.45
  -2   2   5  235.76    5.34
   2  -2  -5  231.15    5.63
   2  -2  -5  211.52    4.99
   2  -2  -5  215.43    3.91
  -2   2   4   57.17    2.17
   2  -2  -4   64.21    3.41
   2  -2  -4   52.67    2.32
   2  -2  -4   51.90    1.05
   2  -2  -3  693.69    8.87
   2  -2  -3  782.94   10.50
  -2   2   3  704.82   10.95
  -2   2   2 1988.93   22.23
   2  -2  -2 1984.44   22.23
  -2   2   2 1925.69   21.92
  -2   2   1 1382.41   15.60
   2  -2  -1 1342.53   15.32
  -2   2   1 1258.89   14.76
   2  -2  -1 1345.47   14.67
  -2   2   1 1332.51   14.52
  -2   2   0  580.44    7.08
   2  -2   0  590.20    7.05
  -2   2  -1    5.78    0.94
  -2   2  -1    5.17    0.69
  -2   2  -1    6.05    1.12
  -2   2  -1    4.63    0.75
   2  -2   1    7.40    1.29
  -2   2  -1    6.02    0.73
   2  -2   2   24.42    1.76
  -2   2  -2   25.23    0.88
  -2   2  -2   27.36    3.13
  -2   2  -2   27.59    1.12
   2  -2   2   30.36    3.00
  -2   2  -2   22.59    1.26
   2  -2   3  484.87    6.30
  -2   2  -3  478.82    7.66
  -2   2  -3  484.61    6.07
   2  -2   3  481.73    9.82
  -2   2  -3  474.16    6.56
   2  -2   4   72.12    1.93
  -2   2  -4   75.10    1.76
  -2   2  -4   71.52    2.36
  -2   2  -4   69.46    1.75
   2  -2   4   64.20    1.50
   2  -2   4   77.49    4.80
   2  -2   5 2330.94   29.48
  -2   2  -5 2278.65   28.81
  -2   2  -5 2346.75   30.52
  -2   2  -5 2350.62   29.35
   2  -2   5 2360.35   29.53
   2  -2   6  110.07    2.89
  -2   2  -6  117.07    2.77
  -2   2  -6  124.25    3.87
  -2   2  -6  110.02    2.38
   2  -2   6  107.12    2.28
   2  -2   6  126.88    6.68
   2  -2   7   38.70    2.45
  -2   2  -7   52.19    3.25
  -2   2  -7   46.68    2.30
   2  -2   7   42.00    2.10
   2  -2   7   53.25    5.40
   2  -2   8  141.55    6.42
  -2   2  -8  149.52    6.93
  -2   2  -8  134.33    5.58
   2  -2   8  135.15    5.54
   2  -2   8  153.66    8.85
   2  -2   9  360.54   10.24
  -2   2  -9  357.43   10.46
  -2   2  -9  346.12    9.14
   2  -2   9  315.79    8.27
   2  -2   9  336.85   11.98
   2  -2  10  214.10    8.75
  -2   2 -10  227.82    9.73
  -2   2 -10  180.48    6.94
   2  -2  10  161.59    6.05
   2  -2  10  218.49   13.66
   2  -2  11   19.82    2.49
  -2   2 -11   20.43    2.74
  -2   2 -11   14.43    2.14
   2  -2  11   23.97    5.40
   2  -2  12   28.08    3.22
  -2   2 -12   27.16    3.32
   2  -2  12   25.45    5.15
   2  -2  13  137.69    8.13
  -2   2 -13  152.90    9.25
   2  -2  13  134.99   14.69
   2  -2  14  181.01    5.56
  -2   2 -14  182.03    6.74
   2  -2  14  180.49   13.76
   2  -2  15   40.96   10.49
  -2   2 -15   34.90    9.07
   2  -2  15   32.87   11.97
   2  -2  16   25.89    6.55
   2  -2  16   13.53    6.54
  -2   1  16   12.80    4.46
   2  -1 -16   11.14    3.48
  -2   1  15   12.89    3.34
   2  -1 -15   16.08    3.86
  -2   1  14  133.98    5.13
   2  -1 -14  137.49    5.46
   2  -1 -14  118.85    4.22
  -2   1  14  133.85    5.14
  -2   1  13  278.66   15.33
   2  -1 -13  268.39   15.10
   2  -1 -13  280.59   15.23
  -2   1  13  262.44   14.66
  -2   1  12  153.96    8.25
   2  -1 -12  188.51   10.10
   2  -1 -12  180.35    9.35
  -2   1  12  171.76    9.24
  -2   1  11    5.98    2.37
   2  -1 -11    8.41    1.92
   2  -1 -11    7.89    2.14
  -2   1  11   10.89    2.10
   2  -1 -10   54.28    4.65
   2  -1 -10   48.86    4.06
  -2   1  10   50.25    6.22
  -2   1   9  170.54    5.98
   2  -1  -9  165.05    6.04
   2  -1  -9  158.13    6.14
  -2   1   9  159.29    5.83
  -2   1   8    2.23    1.46
   2  -1  -8    4.51    1.22
   2  -1  -8    6.59    1.44
  -2   1   8    7.26    1.91
   2  -1  -8    5.63    0.94
  -2   1   7  440.65   11.45
   2  -1  -7  430.86   11.25
   2  -1  -7  450.53   13.31
  -2   1   7  437.76   11.26
   2  -1  -7  397.31    9.68
  -2   1   6  637.77   11.99
   2  -1  -6  580.50   11.18
  -2   1   6  591.93   10.72
   2  -1  -6  570.43    9.90
  -2   1   5  117.79    3.07
   2  -1  -5  115.00    3.26
  -2   1   5  109.01    2.59
   2  -1  -5  127.91    4.30
  -2   1   5  120.63    2.84
   2  -1  -5  102.53    2.18
  -2   1   4   14.83    1.71
   2  -1  -4   15.47    1.44
  -2   1   4   17.78    1.23
   2  -1  -4   18.05    3.11
  -2   1   4   16.18    0.83
   2  -1  -4   15.52    0.88
  -2   1   3  236.45    4.08
   2  -1  -3  233.73    4.08
   2  -1  -3  245.93    4.19
  -2   1   3  256.49    4.00
   2  -1  -3  248.56    5.44
  -2   1   3  246.80    4.48
  -2   1   3  240.85    2.98
  -2   1   2  324.41    4.87
   2  -1  -2  340.15    5.03
  -2   1   2  349.32    4.84
   2  -1  -2  374.12    6.35
  -2   1   2  340.86    5.61
  -2   1   2  349.40    4.12
  -2   1   1    0.66    0.86
   2  -1  -1    2.63    0.77
  -2   1   1    2.87    0.75
   2  -1  -1    1.58    0.97
  -2   1   1    4.03    1.03
  -2   1   1    4.00    0.91
  -2   1   0  329.81    4.76
   2  -1   0  343.92    5.21
  -2   1   0  315.60    4.55
   2  -1   0  331.64    4.85
   2  -1   0  328.43    4.28
  -2   1   0  325.56    4.34
   2  -1   1 1247.89   14.70
  -2   1  -1 1221.17   14.14
   2  -1   1 1296.33   14.81
  -2   1  -1 1149.48   13.50
  -2   1  -1 1220.58   13.84
   2  -1   1 1215.08   14.19
  -2   1  -1 1218.94   13.95
   2  -1   2 1026.67   12.34
  -2   1  -2 1097.58   12.51
  -2   1  -2 1066.03   12.68
   2  -1   3  478.25    6.25
  -2   1  -3  485.62    6.18
   2  -1   3  465.53    7.29
  -2   1  -3  462.42    7.82
   2  -1   4  112.44    2.80
  -2   1  -4  103.00    1.58
   2  -1   5   98.63    2.82
  -2   1  -5  110.14    2.66
  -2   1  -5   92.68    1.40
  -2   1  -5  100.73    1.47
   2  -1   5  107.18    3.95
   2  -1   6 1045.36   17.94
  -2   1  -6 1043.21   18.13
   2  -1   6 1012.38   19.19
   2  -1   7  212.28    6.07
  -2   1  -7  203.83    6.03
   2  -1   7  209.77    7.69
   2  -1   8  712.47   28.56
  -2   1  -8  727.17   29.27
   2  -1   8  727.20   29.72
   2  -1   9   57.02    6.15
  -2   1  -9   57.25    6.24
   2  -1   9   61.22    7.93
   2  -1  10  127.19    6.74
  -2   1 -10  125.98    7.01
   2  -1  10  121.71    7.82
  -2   1 -11    3.83    1.78
   2  -1  11    2.43    1.62
   2  -1  12   36.03    4.15
  -2   1 -12   39.80    4.89
   2  -1  12   29.14    9.01
   2  -1  13   59.17    5.17
  -2   1 -13   62.24    5.49
   2  -1  13   53.49    6.13
   2  -1  14   22.82    4.69
  -2   1 -14   24.78    5.12
   2  -1  14   16.52    4.80
   2  -1  15    1.31    1.41
  -2   1 -15    7.60    3.10
   2  -1  15    3.54    2.13
   2  -1  16   31.52    8.01
  -2   1 -16   32.41    8.19
   2  -1  16   33.09    8.35
  -2   0  16   18.62    5.43
   2   0 -16    7.86    3.07
   2   0 -16   21.74    5.63
  -2   0  15   13.76    3.47
   2   0 -15   16.02    3.68
   2   0 -15   14.72    2.94
  -2   0  15    6.74    2.58
  -2   0  14   94.40    4.38
   2   0 -14  100.54    5.21
   2   0 -14  111.72    4.50
  -2   0  13   88.96    7.07
   2   0 -13   94.53    7.18
   2   0 -13   93.55    8.90
  -2   0  13   93.84    6.90
  -2   0  12    3.52    2.00
   2   0 -12    7.66    2.15
   2   0 -12    2.63    1.77
  -2   0  12    3.40    1.30
  -2   0  11  167.07    7.81
   2   0 -11  157.06    7.44
   2   0 -11  153.84    7.97
  -2   0  11  155.81    7.71
  -2   0  10  658.74   14.32
   2   0 -10  632.78   13.55
   2   0 -10  635.42   13.92
  -2   0  10  657.06   14.05
  -2   0   9  809.85   21.87
   2   0  -9  693.48   18.62
   2   0  -9  800.21   22.57
  -2   0   9  729.18   20.34
  -2   0   8  220.33    9.64
   2   0  -8  202.72    8.80
   2   0  -8  211.60   10.15
  -2   0   8  225.10    9.51
   2   0  -7    4.92    1.21
   2   0  -7    6.84    1.39
  -2   0   7    7.91    1.40
   2   0  -7    6.35    0.93
  -2   0   6  588.98   11.37
   2   0  -6  533.92    9.93
   2   0  -6  552.63   11.00
  -2   0   6  532.44    9.57
   2   0  -6  489.25    8.90
   2   0  -5  680.67    9.81
  -2   0   5  616.39    8.65
   2   0  -5  659.37   10.65
  -2   0   5  627.70    8.91
   2   0  -5  656.72    9.37
   2   0  -4  239.19    4.27
  -2   0   4  219.02    3.62
   2   0  -4  230.57    6.48
  -2   0   4  223.25    3.90
   2   0  -4  226.01    3.97
  -2   0   3  470.77    6.97
   2   0  -3  507.67    6.52
  -2   0   3  499.57    6.11
  -2   0   3  481.32    6.60
  -2   0   3  463.90    6.04
  -2   0   2  480.04    6.60
  -2   0   2  454.01    6.62
   2   0  -2  480.75    5.89
  -2   0   2  486.77    5.79
  -2   0   2  471.61    6.38
  -2   0   1  124.59    2.60
   2   0  -1  121.72    2.33
  -2   0   1  126.33    1.84
  -2   0   1  135.98    2.64
   2   0   0    2.98    1.50
  -2   0   0    1.19    0.73
  -2   0   0    1.87    0.37
   2   0   0    1.26    0.60
  -2   0   0    2.62    0.80
   2   0   1   53.00    3.75
  -2   0  -1   53.51    2.69
  -2   0  -1   48.04    1.36
  -2   0  -1   56.19    1.25
   2   0   1   54.23    2.02
  -2   0  -1   55.19    1.32
  -2   0  -2   18.85    0.94
   2   0   2   20.96    1.89
  -2   0  -2   20.96    0.78
  -2   0  -2   16.19    1.11
   2   0   3   16.48    1.33
  -2   0  -3   17.77    1.39
  -2   0  -3   15.64    0.90
   2   0   3   16.91    0.88
   2   0   3   17.95    0.96
  -2   0  -3   18.55    0.56
  -2   0  -3   20.29    3.29
   2   0   4  169.36    4.01
  -2   0  -4  156.01    3.29
  -2   0  -4  171.13    3.39
   2   0   4  152.47    2.87
  -2   0  -5   77.64    2.56
   2   0   6   68.07    2.88
  -2   0  -6   69.90    2.47
   2   0   6   67.66    2.97
   2   0   7   62.00    3.70
  -2   0  -7   60.91    3.50
   2   0   7   61.66    3.78
   2   0   8  204.98    8.95
  -2   0  -8  205.71    9.01
   2   0   8  208.37    9.35
   2   0   9  331.91    8.31
  -2   0  -9  367.27    8.86
   2   0   9  327.95    8.19
   2   0  10  287.58   11.65
  -2   0 -10  278.44   11.47
   2   0  10  268.25   11.20
   2   0  11   47.15    4.63
  -2   0 -11   48.32    4.34
   2   0  11   56.56    5.18
   2   0  12    9.57    2.84
  -2   0 -12    8.69    3.01
   2   0  12    2.46    1.58
   2   0  13   58.23    6.22
  -2   0 -13   54.35    5.64
   2   0  13   54.07    5.29
   2   0  14   39.09    7.59
  -2   0 -14   19.65    4.21
   2   0  14   29.22    5.61
   2   0  15   -0.84    1.66
  -2   0 -15    1.40    1.96
   2   0  15   -0.03    1.34
  -2  -1  16  283.33   23.04
   2   1 -16  264.57   21.79
   2   1 -16  280.29   22.92
  -2  -1  16  214.34   19.78
  -2  -1  15  182.74   12.37
   2   1 -15  163.83   11.48
   2   1 -15  139.25   12.03
  -2  -1  15  148.28   12.08
  -2  -1  14   61.79    6.29
   2   1 -14   68.39   14.97
   2   1 -14   62.13    6.32
  -2  -1  14   62.10    9.34
  -2  -1  13   85.93    6.76
   2   1 -13   86.52    6.95
   2   1 -13   70.13   10.05
  -2  -1  13   67.31    8.46
  -2  -1  12   12.31    2.33
   2   1 -12   10.35    2.44
   2   1 -12    5.52    1.76
  -2  -1  12    7.67    1.78
  -2  -1  11   68.81    4.22
   2   1 -11   75.40    4.48
   2   1 -11   65.32    8.42
  -2  -1  11   63.80    5.63
  -2  -1  10  167.96    7.46
   2   1 -10  166.82    7.18
   2   1 -10  177.58   15.53
  -2  -1  10  178.74    7.61
  -2  -1   9   89.30    9.26
   2   1  -9  100.12    4.17
   2   1  -9   97.39    7.83
  -2  -1   9   99.16    4.01
  -2  -1   8   50.47    4.75
   2   1  -8   51.90    4.64
   2   1  -8   49.10    5.71
  -2  -1   8   53.36    4.93
  -2  -1   7  689.99   17.15
   2   1  -7  665.47   16.15
   2   1  -7  690.40   18.06
  -2  -1   7  671.71   16.31
  -2  -1   6 1443.57   24.98
   2   1  -6 1358.14   22.86
  -2  -1   6 1216.29   20.33
   2   1  -6 1350.38   23.32
  -2  -1   6 1310.42   22.28
  -2  -1   5  872.74   15.69
   2   1  -5  893.31   15.18
  -2  -1   5  858.03   14.45
   2   1  -5  837.17   15.04
   2   1  -5  882.09   15.51
  -2  -1   4   82.46    2.92
   2   1  -4   96.50    2.36
  -2  -1   4   94.53    1.96
   2   1  -4   86.73    2.68
  -2  -1   4   88.42    3.05
   2   1  -3  558.00    7.47
  -2  -1   3  534.68    7.10
  -2  -1   3  536.53    8.25
  -2  -1   2 1847.73   21.48
  -2  -1   2 1856.26   21.70
  -2  -1   2 1938.94   21.79
  -2  -1   2 1887.31   21.65
   2   1  -1   61.81    2.70
   2   1  -1   65.29    1.80
   2   1   0    1.31    1.22
  -2  -1   0    0.39    0.66
   2   1   0    1.82    0.71
  -2  -1   0    0.66    0.56
  -2  -1  -1  288.07    4.57
  -2  -1  -1  300.73    3.78
   2   1   1  304.13    3.66
   2   1   1  309.48    4.36
  -2  -1  -1  304.87    4.11
   2   1   2  300.34    5.51
  -2  -1  -2  277.27    4.94
  -2  -1  -2  287.87    4.37
   2   1   2  285.15    4.15
   2   1   2  288.97    4.34
  -2  -1  -2  268.70    3.96
  -2  -1  -3  183.87    3.36
   2   1   3  182.47    3.12
   2   1   3  193.29    3.03
  -2  -1  -3  179.89    2.76
   2   1   4   25.29    2.22
  -2  -1  -4   33.05    1.65
   2   1   4   29.29    1.23
   2   1   4   26.54    0.82
  -2  -1  -4   26.34    0.84
   2   1   5    0.78    1.62
  -2  -1  -5   -0.31    0.90
   2   1   5    0.46    0.31
   2   1   6   11.22    1.77
  -2  -1  -6    9.35    1.39
   2   1   6    4.39    0.42
   2   1   6    7.18    0.37
   2   1   7    6.61    1.67
  -2  -1  -7    4.65    1.81
   2   1   8   22.69    3.33
  -2  -1  -8   20.24    2.61
   2   1   9    3.92    1.80
  -2  -1  -9    9.36    2.26
   2   1  10    4.12    2.74
  -2  -1 -10    7.11    2.50
   2   1  11  158.08    8.58
  -2  -1 -11  161.13    8.59
   2   1  12   51.63    4.91
  -2  -1 -12   48.54    4.76
   2   1  13  117.24    5.54
  -2  -1 -13  131.08    5.74
   2   1  14    2.46    2.11
  -2  -1 -14    5.74    2.88
   2   1  15    5.64    2.91
  -2  -1 -15    8.25    3.29
  -2  -2  16    5.09    2.44
   2   2 -16    3.25    1.78
   2   2 -16    3.05    1.93
  -2  -2  16    3.58    1.66
  -2  -2  15  154.99   11.00
   2   2 -15  148.27   10.32
   2   2 -15  126.94   10.54
  -2  -2  15  117.62   10.20
  -2  -2  14   38.34    7.00
   2   2 -14   43.57    7.96
   2   2 -14   22.00    7.88
  -2  -2  14   28.79    9.17
  -2  -2  13  655.98   19.83
   2   2 -13  641.81   19.49
   2   2 -13  627.53   19.08
  -2  -2  13  650.88   19.86
  -2  -2  12  719.80   24.18
   2   2 -12  711.24   23.68
   2   2 -12  694.71   24.99
  -2  -2  12  666.89   22.25
  -2  -2  11    2.98    1.58
   2   2 -11    0.13    1.23
   2   2 -11    1.57    1.01
  -2  -2  11    0.85    1.67
  -2  -2  10   97.90    5.57
   2   2 -10   95.63    5.30
   2   2 -10  105.35   10.28
  -2  -2  10   99.29    5.69
  -2  -2   9  134.13    7.28
   2   2  -9  133.93    6.70
   2   2  -9  144.80    5.33
  -2  -2   9  131.70    7.00
  -2  -2   8    1.18    1.53
   2   2  -8    1.85    0.98
   2   2  -8    1.68    1.28
  -2  -2   8    0.20    1.01
  -2  -2   7   82.68    7.20
   2   2  -7   81.78    6.95
   2   2  -7   83.13    7.20
  -2  -2   7   75.18    6.70
  -2  -2   6  168.14   13.90
   2   2  -6  172.01   14.00
   2   2  -6  189.30    5.87
  -2  -2   6  177.15    5.74
  -2  -2   5    6.36    2.14
   2   2  -5    3.41    0.94
   2   2  -5    4.88    1.57
  -2  -2   5    2.28    1.97
  -2  -2   4  266.48    6.21
   2   2  -4  243.18    4.57
   2   2  -4  248.12    5.60
  -2  -2   4  249.09    5.88
   2   2  -3  955.16   12.58
   2   2  -3  931.62   11.97
  -2  -2   3  946.23   13.96
   2   2  -2 1101.81   15.53
   2   2  -2 1138.35   14.58
   2   2  -2 1106.83   13.90
   2   2  -1  191.97    6.68
   2   2  -1  185.35    2.74
   2   2  -1  190.40    3.90
   2   2   0   90.67    3.64
  -2  -2   0   86.76    2.41
   2   2   0   80.01    1.50
   2   2   0   83.44    2.71
  -2  -2   0   75.60    2.12
   2   2   1  817.22   12.09
  -2  -2  -1  769.43   10.32
   2   2   1  811.06   10.56
   2   2   1  823.99   11.35
  -2  -2  -1  746.03   10.18
   2   2   2  492.91    8.26
  -2  -2  -2  447.83    6.68
   2   2   2  434.96    6.18
   2   2   2  470.41    6.99
  -2  -2  -2  426.22    6.22
   2   2   3  168.27    4.76
  -2  -2  -3  185.62    4.14
   2   2   3  173.86    3.61
   2   2   3  197.05    4.09
  -2  -2  -3  181.89    3.64
   2   2   4    7.48    2.82
  -2  -2  -4    4.06    0.98
   2   2   4    3.42    0.78
   2   2   4    3.43    0.70
  -2  -2  -4    2.83    0.52
   2   2   5  101.87    5.92
  -2  -2  -5   85.99    4.55
   2   2   5   87.81    4.04
  -2  -2  -5   85.23    3.88
  -2  -2  -6  175.79    7.79
   2   2   6  187.85    7.60
   2   2   7  118.67    5.08
  -2  -2  -7  114.85    4.39
   2   2   7  107.45    3.16
   2   2   7  120.03    3.35
   2   2   8   18.77    2.61
  -2  -2  -8   22.72    2.70
   2   2   8   13.54    1.98
   2   2   8   22.25    1.53
   2   2   9    6.36    2.76
  -2  -2  -9    1.87    1.42
   2   2   9    3.19    0.40
   2   2  10   31.86    3.36
  -2  -2 -10   42.08    4.18
   2   2  11   84.82    5.74
  -2  -2 -11   88.96    5.39
   2   2  12   92.95   10.38
  -2  -2 -12  113.67    5.74
   2   2  13   17.89    4.13
  -2  -2 -13   29.07    6.00
   2   2  14   70.49    6.42
  -2  -2 -14   76.93    6.78
  -2  -3  15    1.90    1.56
   2   3 -15    6.49    2.20
   2   3 -15    4.66    2.18
  -2  -3  15    2.68    1.71
  -2  -3  14   13.05    3.31
   2   3 -14    2.54    1.59
   2   3 -14    2.40    1.62
  -2  -3  14    5.10    2.11
  -2  -3  13    2.18    1.64
   2   3 -13    2.31    1.93
   2   3 -13    3.97    1.57
  -2  -3  12  126.26    7.62
   2   3 -12  130.84    8.07
   2   3 -12  104.87   13.57
  -2  -3  12  128.42    7.78
  -2  -3  11    2.46    1.60
   2   3 -11    3.81    1.38
   2   3 -11    2.73    2.27
  -2  -3  11    2.20    1.95
  -2  -3  10  736.20   24.40
   2   3 -10  703.65   23.08
   2   3 -10  748.65   25.00
  -2  -3  10  702.40   23.51
  -2  -3   9 1527.16   55.25
   2   3  -9 1526.85   54.94
   2   3  -9 1519.79   55.10
  -2  -3   9 1423.67   52.51
  -2  -3   8  162.63    5.17
   2   3  -8  153.77    4.24
   2   3  -8  162.18    5.68
  -2  -3   8  173.76    6.02
  -2  -3   7   16.69    2.83
   2   3  -7   10.74    1.69
   2   3  -7   16.09    2.63
  -2  -3   7   15.44    2.61
  -2  -3   6  245.15   10.79
   2   3  -6  245.08   10.06
   2   3  -6  241.42   10.58
  -2  -3   6  233.57   10.39
  -2  -3   5  102.18    5.54
   2   3  -5   82.61    6.65
   2   3  -5   89.36    4.19
   2   3  -5   89.96    4.85
  -2  -3   5  102.67    5.77
  -2  -3   4    2.54    1.84
   2   3  -4    5.05    0.84
   2   3  -4    4.55    0.77
   2   3  -4    7.33    1.71
  -2  -3   4    8.33    1.90
   2   3  -3   75.08    3.78
   2   3  -3   71.97    1.84
  -2  -3   3   72.47    3.83
   2   3  -2   34.44    2.62
   2   3  -2   40.71    1.52
   2   3  -2   46.09    2.45
  -2  -3   2   54.27    3.87
   2   3  -1    2.18    1.12
  -2  -3   1    0.77    0.27
   2   3  -1    2.84    0.49
   2   3  -1    1.78    1.07
   2   3   0  170.46    6.21
  -2  -3   0  186.29    4.27
   2   3   0  157.90    3.30
   2   3   0  156.70    4.07
   2   3   1  381.90    9.97
  -2  -3  -1  417.64    7.88
   2   3   1  376.70    6.81
   2   3   1  426.51    8.10
   2   3   2  120.75    8.26
  -2  -3  -2  117.62    5.59
   2   3   2  117.20    5.35
   2   3   2  133.46    6.40
   2   3   3    4.57    0.94
  -2  -3  -3    3.78    1.29
   2   3   3    5.33    0.93
   2   3   3    3.71    1.03
   2   3   4   73.30    6.74
  -2  -3  -4   66.06    5.84
   2   3   4   73.66    6.19
  -2  -3  -4   59.25    4.94
   2   3   5  170.54    8.02
  -2  -3  -5  168.07    7.64
   2   3   5  167.81    7.07
  -2  -3  -5  152.39    6.40
   2   3   6  130.09    5.32
  -2  -3  -6  170.18    5.78
   2   3   6  171.25    4.97
   2   3   7   45.31    4.80
  -2  -3  -7   47.47    4.24
   2   3   7   34.74    2.52
   2   3   8    1.13    1.93
  -2  -3  -8   -1.20    1.33
   2   3   8    2.31    0.59
   2   3   9   39.43    4.17
  -2  -3  -9   38.33    3.86
   2   3   9   34.72    2.45
  -2  -3 -10   85.42    5.76
   2   3  11   42.06    5.32
  -2  -3 -11   30.78    3.84
   2   3  12    5.59    2.40
  -2  -3 -12   -0.51    1.70
   2   3  13   10.49    3.90
  -2  -3 -13   12.62    3.58
   2   3  14   51.39    6.42
  -2  -3 -14   60.64    6.57
  -2  -4  14   26.44    6.99
   2   4 -14   29.70    7.87
   2   4 -14   12.30    5.46
  -2  -4  14   33.90    8.95
  -2  -4  13   61.18    5.23
   2   4 -13   51.79    4.80
   2   4 -13   49.02    8.57
  -2  -4  13   70.47    5.88
  -2  -4  12   69.47   15.12
   2   4 -12   62.38    5.97
   2   4 -12   80.53    4.51
  -2  -4  12   68.23   14.94
  -2  -4  11    9.47    2.35
   2   4 -11    8.14    1.84
   2   4 -11   14.56    3.13
  -2  -4  11   11.31    2.70
  -2  -4  10    2.36    1.51
   2   4 -10    0.74    1.04
   2   4 -10    2.49    1.54
  -2  -4  10    2.01    1.62
  -2  -4   9   86.33    4.40
   2   4  -9   89.58    4.32
   2   4  -9   84.83    4.88
  -2  -4   9   88.27    5.51
  -2  -4   8   46.22    3.19
   2   4  -8   45.63    2.62
   2   4  -8   46.48    3.57
  -2  -4   8   41.70    3.78
  -2  -4   7  273.68   11.23
   2   4  -7  268.00   10.42
   2   4  -7  277.37   11.28
  -2  -4   7  249.54   11.11
  -2  -4   6 1398.85   27.21
   2   4  -6 1340.18   24.82
   2   4  -6 1372.81   26.53
  -2  -4   6 1369.60   26.97
  -2  -4   5  544.68   15.48
   2   4  -5  538.59   14.11
   2   4  -5  516.34   14.49
  -2  -4   5  555.60   15.89
  -2  -4   4   70.17    6.60
   2   4  -4   58.29    7.05
   2   4  -4   66.46    5.58
   2   4  -4   78.84    6.99
  -2  -4   4   70.47    6.88
   2   4  -3  101.83   10.41
   2   4  -3   85.54    7.13
   2   4  -3  101.36   10.35
  -2  -4   3   88.35    8.05
   2   4  -2  139.93    6.62
  -2  -4   2  130.56    5.69
   2   4  -2  121.48    5.34
   2   4  -2  155.77    7.33
  -2  -4   2  142.27    7.35
   2   4  -1  130.35    6.30
  -2  -4   1  141.41    7.90
   2   4  -1  113.31    4.98
   2   4  -1  128.52    6.06
  -2  -4   1  141.73    7.33
   2   4   0    1.91    1.04
  -2  -4   0    3.50    0.97
   2   4   0    0.02    0.38
   2   4   0    1.86    1.13
   2   4   1   14.56    3.33
  -2  -4  -1   11.46    2.18
   2   4   1    9.24    1.18
   2   4   1    8.13    1.48
   2   4   2   21.41    6.51
  -2  -4  -2   27.93    3.02
   2   4   2   20.93    2.12
   2   4   2   21.94    2.28
   2   4   3    3.64    1.94
  -2  -4  -3    3.09    1.56
   2   4   3    1.60    1.40
   2   4   4   40.94    5.28
  -2  -4  -4   28.28    3.42
   2   4   4   30.17    3.43
   2   4   5   19.22    3.18
  -2  -4  -5   26.70    3.07
   2   4   5   19.60    2.05
   2   4   6   17.63    3.08
  -2  -4  -6   19.48    2.38
   2   4   6   19.24    1.92
   2   4   7    8.88    3.16
  -2  -4  -7   19.79    2.94
   2   4   7    9.40    1.39
   2   4   8    6.23    3.86
  -2  -4  -8    5.65    2.18
   2   4   8   10.78    1.74
   2   4   9   45.85    4.04
  -2  -4  -9   48.24    4.06
   2   4  10   35.60    4.31
  -2  -4 -10   36.09    4.22
   2   4  11   12.62    3.98
  -2  -4 -11   11.26    3.60
   2   4  12    7.33    3.13
  -2  -4 -12    0.91    1.64
   2   4  13   23.15    6.52
  -2  -4 -13   15.92    4.83
  -2  -5  14   61.12    6.02
   2   5 -14   61.51    5.95
   2   5 -14   69.83    7.07
  -2  -5  14   51.95    6.06
  -2  -5  13   80.38    6.33
   2   5 -13   83.97    6.40
   2   5 -13  102.71    7.73
  -2  -5  13   84.74    6.93
  -2  -5  12   39.33    6.12
   2   5 -12   43.16    6.56
   2   5 -12   38.15    6.17
  -2  -5  12   41.01    6.68
  -2  -5  11    7.17    2.33
   2   5 -11    9.72    1.99
   2   5 -11    4.19    1.64
  -2  -5  11    3.72    1.77
  -2  -5  10   72.18    5.73
   2   5 -10   72.08    5.23
   2   5 -10   78.67    6.37
  -2  -5  10   89.99    7.38
  -2  -5   9  160.51    6.66
   2   5  -9  166.49    6.54
   2   5  -9  194.90    8.39
  -2  -5   9  157.87    7.75
  -2  -5   8  121.64    6.79
   2   5  -8  121.29    6.09
   2   5  -8  127.01    7.29
  -2  -5   8  115.99    7.08
  -2  -5   7   46.56    4.71
   2   5  -7   33.45    2.73
   2   5  -7   39.98    4.15
  -2  -5   7   31.31    4.14
  -2  -5   6   82.50    6.50
   2   5  -6   80.00    3.65
   2   5  -6   78.30    4.85
  -2  -5   6   83.17    7.10
  -2  -5   5  166.41    7.70
   2   5  -5  148.63    7.08
   2   5  -5  164.37    7.69
  -2  -5   5  165.06    8.28
  -2  -5   4    8.51    2.69
   2   5  -4    0.28    0.67
  -2  -5   4    4.65    3.49
   2   5  -3  482.92   11.02
   2   5  -3  478.61   10.91
  -2  -5   3  521.27   13.00
   2   5  -2  382.53    9.25
  -2  -5   2  376.30    8.13
   2   5  -1  261.73    7.27
  -2  -5   1  262.06    6.52
   2   5  -1  264.73    6.74
  -2  -5   1  221.54    7.49
   2   5   0    2.12    2.14
  -2  -5   0    3.16    2.27
   2   5   0    5.95    2.42
  -2  -5   0    3.73    2.69
   2   5   1   22.29    4.80
  -2  -5  -1   17.92    3.90
   2   5   1   27.85    2.95
   2   5   2  113.78   12.55
  -2  -5  -2  106.55    5.89
   2   5   2  116.59    6.38
   2   5   3   55.93    8.78
  -2  -5  -3   45.49    3.48
   2   5   3   51.50    3.49
   2   5   4    6.23    3.34
  -2  -5  -4   14.33    2.28
   2   5   4   12.37    1.71
   2   5   5    2.52    2.08
  -2  -5  -5    4.17    1.87
   2   5   5    3.02    1.52
   2   5   6   13.40    3.57
  -2  -5  -6   15.00    2.73
   2   5   6    9.11    1.60
   2   5   7    5.92    2.50
  -2  -5  -7    5.17    2.26
   2   5   7    1.38    0.84
   2   5   8    5.26    2.17
  -2  -5  -8    1.89    1.42
   2   5   8    2.18    1.00
   2   5   9   11.54    3.37
  -2  -5  -9    8.58    2.61
   2   5  10   31.74    6.20
  -2  -5 -10   25.61    4.67
   2   5  11    8.24    3.40
  -2  -5 -11    5.65    2.76
   2   5  12    1.72    2.09
  -2  -5 -12    1.29    1.96
  -2  -6  12    5.80    1.85
   2   6 -12    3.85    1.91
   2   6 -12   10.30    3.33
  -2  -6  12    7.03    2.87
  -2  -6  11   39.06    6.10
   2   6 -11   25.55    4.10
   2   6 -11   32.74    5.39
  -2  -6  11   36.32    6.22
  -2  -6  10   99.36    4.28
   2   6 -10   95.48    3.55
   2   6 -10   93.71    4.61
  -2  -6  10   89.27    5.87
  -2  -6   9  135.59    5.02
   2   6  -9  120.00    3.32
   2   6  -9  127.81    5.32
  -2  -6   9  134.87    5.70
  -2  -6   8   20.66    3.60
   2   6  -8   19.80    2.89
   2   6  -8   25.57    3.41
  -2  -6   8   23.17    4.37
  -2  -6   7   24.31    2.86
   2   6  -7   17.27    3.41
   2   6  -7   20.99    2.66
  -2  -6   7   18.26    4.35
  -2  -6   6  165.39    7.28
   2   6  -6  133.77    5.08
   2   6  -6  135.88    7.11
  -2  -6   6  129.25    7.17
  -2  -6   5  271.25   13.36
   2   6  -5  273.14   12.59
   2   6  -5  278.97   13.61
  -2  -6   5  250.64   13.29
  -2  -6   4  122.83    6.04
   2   6  -4  139.65    6.58
  -2  -6   4  124.19    7.01
   2   6  -3  212.51    8.69
   2   6  -3  200.53    8.30
  -2  -6   3  211.90    9.77
   2   6  -2  188.39    7.76
  -2  -6   2  175.87    6.64
   2   6  -2  185.59    7.81
  -2  -6   2  155.47    8.36
   2   6  -1  155.02   10.59
  -2  -6   1  130.57    7.71
   2   6  -1  158.28    6.74
  -2  -6   1  152.20    8.21
   2   6   0   20.69    8.05
  -2  -6   0   19.86    4.73
   2   6   0   29.31    3.14
  -2  -6   0   25.76    4.32
   2   6   1   47.43   13.49
  -2  -6  -1   51.64   10.42
   2   6   1   57.05    4.74
  -2  -6  -1   63.69    5.16
   2   6   2  194.26    9.21
  -2  -6  -2  188.48   10.89
   2   6   2  199.46    7.73
   2   6   3   41.62   11.66
  -2  -6  -3   49.23    5.73
   2   6   3   54.04    5.58
   2   6   4   21.23    4.80
  -2  -6  -4   19.08    2.89
   2   6   4   15.89    3.40
   2   6   5   14.25    4.25
  -2  -6  -5   13.57    2.92
   2   6   5   14.81    2.53
   2   6   6   36.63    9.22
  -2  -6  -6   49.12    5.18
   2   6   6   44.41    4.17
   2   6   7   28.85    4.53
  -2  -6  -7   31.06    4.38
   2   6   7   31.52    3.51
   2   6   8    0.46    2.14
  -2  -6  -8    5.71    2.30
   2   6   9    3.82    2.32
  -2  -6  -9    2.25    1.73
   2   6  10    6.56    2.65
  -2  -6 -10    8.82    3.59
   2   7 -11   35.54    8.87
  -2  -7  11   54.52    6.31
  -2  -7  10    4.17    1.98
   2   7 -10    1.70    1.46
  -2  -7  10    5.52    2.82
  -2  -7   9   22.57    6.10
   2   7  -9   14.65    4.30
  -2  -7   9   22.94    6.64
  -2  -7   8    1.12    1.40
  -2  -7   8    3.24    2.27
  -2  -7   7   37.72    4.52
   2   7  -7   34.46    3.42
   2   7  -7   27.52    3.81
  -2  -7   7   34.08    4.65
  -2  -7   6  103.16    4.42
   2   7  -6   96.84    2.93
   2   7  -6  105.69    4.56
  -2  -7   6  111.79    5.75
  -2  -7   5   73.97    7.02
   2   7  -5   81.00    6.67
  -2  -7   5   77.97    7.53
  -2  -7   4   12.68    4.17
   2   7  -4   15.30    3.73
  -2  -7   4    6.91    2.63
   2   7  -3   23.37    3.81
   2   7  -3   25.77    3.21
  -2  -7   3   27.48    4.24
   2   7  -2  182.62   10.50
  -2  -7   2  163.30    9.06
   2   7  -2  183.33   10.58
  -2  -7   2  194.08   12.25
   2   7  -1  134.31    8.46
  -2  -7   1  131.62    7.76
   2   7  -1  128.58    7.86
   2   7   0  330.59   17.79
  -2  -7   0  350.47   18.60
   2   7   0  310.89   16.73
  -2  -7   0  348.58   19.60
   2   7   1   25.74    8.54
  -2  -7  -1   46.92    6.77
   2   7   1   40.94    4.11
  -2  -7  -1   37.46    5.06
   2   7   2  186.27    9.19
  -2  -7  -2  212.65   10.17
   2   7   2  202.20    7.52
  -2  -7  -2  224.07   10.15
   2   7   3   13.73    4.50
  -2  -7  -3   17.08    5.40
   2   7   3   31.83    3.89
   2   7   4    6.70    3.58
  -2  -7  -4    7.84    2.36
   2   7   4    9.90    2.16
   2   7   5   24.51   12.00
  -2  -7  -5   43.23    7.94
   2   7   5   45.23    7.95
   2   7   6   29.43   11.04
  -2  -7  -6   35.81    6.09
   2   7   6   39.06    6.07
   2   7   7   14.72    8.00
  -2  -7  -7   47.07   12.15
   2   7   8   10.15    4.01
  -2  -7  -8   10.34    4.09
   2   8  -8  131.37   11.85
  -2  -8   8  150.72   13.60
   2   8  -7   40.77    8.08
  -2  -8   7   58.64    6.20
  -2  -8   6    3.49    2.27
   2   8  -6    3.22    1.93
  -2  -8   6    8.07    3.16
  -2  -8   5    2.82    1.64
  -2  -8   5   20.51    5.57
  -2  -8   4    5.64    2.77
   2   8  -4    1.62    1.88
  -2  -8   4    6.03    4.07
   2   8  -3   27.54    4.71
  -2  -8   3   18.94    4.67
   2   8  -2   65.21   11.37
   2   8  -2   67.16   11.79
   2   8  -1   30.28    5.95
   2   8  -1   30.38    5.86
  -2  -8   1   25.98    6.05
   2   8   0    2.56    1.58
   2   8   0   14.73    3.67
  -2  -8   0   10.42    5.49
   2   8   1   14.42    8.21
   2   8   1   32.18    5.08
  -2  -8  -1   33.29    6.56
   2   8   2   42.36    9.58
   2   8   2   55.38    5.39
  -2  -8  -2   45.56    9.04
   2   8   3  189.09   12.92
   2   8   3  197.26   13.10
  -2  -8  -3  243.29   17.54
   2   8   4    5.98    3.59
   2   8   4    2.42    1.50
  -2  -8  -4    7.07    4.43
   2   8   5   59.83   10.31
   2   8   5   83.72    7.63
   2   9  -2    1.69    1.64
   2   9  -2    2.19    1.85
  -2  -9   2    0.74    2.89
   2   9  -1    1.81    1.20
   2   9  -1   19.09    5.06
  -2  -9   1    5.03    3.16
   3 -10  -4   33.15   12.73
  -3  10   4   26.78    6.83
   3 -10  -3    6.02    3.62
   3 -10  -2   23.92   10.19
  -3  10   2   35.45    7.14
   3 -10  -1  122.99   14.01
  -3  10   1  161.47   11.48
   3 -10  -1  130.77    9.61
   3 -10   0  138.83   19.79
  -3  10   0  147.62   10.55
   3 -10   0  157.34   11.16
   3 -10   1    4.28    3.55
  -3  10  -1    8.34    4.71
   3 -10   1    4.52    2.09
   3 -10   2    3.01    3.92
  -3  10  -2    8.46    3.79
   3 -10   2    3.42    2.02
   3 -10   3   16.07    5.83
  -3  10  -3   13.95    4.93
   3 -10   3   17.10    5.23
   3 -10   4    0.07    1.76
  -3  10  -4    4.81    2.90
   3 -10   4    9.05    3.29
  -3  10  -5    6.57    2.40
   3 -10   5   15.26    3.94
  -3  10  -6   57.85    6.36
   3 -10   6   53.48    6.30
  -3   9   7   38.92    7.50
   3  -9  -7   42.29    8.78
  -3   9   7   54.02    5.41
  -3   9   6    5.61    1.56
   3  -9  -6   12.68    6.09
  -3   9   6   12.09    3.14
  -3   9   5    7.75    2.38
   3  -9  -5    4.54    2.99
  -3   9   5   10.59    3.09
   3  -9  -4    5.04    3.49
  -3   9   4    3.11    2.40
   3  -9  -3   30.75    8.25
  -3   9   3   17.78    5.19
   3  -9  -3   23.32    4.62
   3  -9  -2   29.81    6.10
   3  -9  -2   29.79    3.71
   3  -9  -1   66.57   16.34
  -3   9   1   87.31    4.59
   3  -9  -1   79.27    4.05
   3  -9   0   44.83   12.13
  -3   9   0   60.72    6.20
   3  -9   0   60.82    6.12
   3  -9   1    2.03    1.73
  -3   9  -1    8.21    3.50
   3  -9   1    5.53    2.23
   3  -9   2  118.26    6.29
  -3   9  -2  126.08    4.97
   3  -9   2  112.97    5.15
   3  -9   3  331.15    9.45
  -3   9  -3  338.67    7.62
   3  -9   3  324.15    7.45
   3  -9   4   32.07    5.37
  -3   9  -4   25.98    3.47
   3  -9   4   32.44    4.26
   3  -9   5   16.33    4.97
  -3   9  -5    8.17    3.16
   3  -9   5    6.17    2.39
  -3   9  -6    2.28    2.44
   3  -9   6    8.54    3.54
  -3   9  -7   31.71    5.41
   3  -9   7   42.95    7.38
  -3   9  -8    8.21    2.50
   3  -9   8    4.41    1.85
  -3   9  -9    9.08    3.35
  -3   9  -9    3.58    1.72
   3  -9   9    4.41    2.13
  -3   8   9   92.54    6.98
   3  -8  -9  123.60   10.56
  -3   8   9   93.38    6.93
  -3   8   8   27.39    4.83
   3  -8  -8   29.40    6.48
  -3   8   8   25.03    4.28
  -3   8   7    2.02    1.34
   3  -8  -7   18.50    5.98
  -3   8   7   11.09    4.19
  -3   8   6    1.15    1.07
   3  -8  -6    0.64    2.87
  -3   8   6    6.52    3.03
  -3   8   5  112.56    4.86
   3  -8  -5  125.94    9.99
  -3   8   5  130.87    5.80
  -3   8   4  203.96   11.11
   3  -8  -4  233.74   23.80
  -3   8   4  233.01   13.14
   3  -8  -4  234.08   12.69
  -3   8   3  146.80    8.08
   3  -8  -3  177.99   21.55
  -3   8   3  170.48    9.76
   3  -8  -3  164.95    6.53
  -3   8   2   97.73    4.24
   3  -8  -2  120.33   19.16
  -3   8   2  112.90    5.57
   3  -8  -2  105.22    5.03
  -3   8   1   14.33    2.92
   3  -8  -1   14.11    6.56
  -3   8   1   13.81    3.66
   3  -8  -1    8.89    2.24
   3  -8   0    7.50    2.63
  -3   8   0   13.39    3.46
   3  -8   0    9.87    2.24
   3  -8   1    3.71    2.12
  -3   8  -1    4.54    2.63
   3  -8   1    2.67    1.68
   3  -8   2   50.55   10.07
  -3   8  -2   62.89    6.63
   3  -8   2   45.17    5.05
   3  -8   3  140.68    8.08
  -3   8  -3  135.71    6.63
   3  -8   3  137.89    6.52
   3  -8   4  122.71    6.70
  -3   8  -4  129.15    6.40
   3  -8   4  124.40    6.24
   3  -8   5   11.60    3.69
  -3   8  -5   14.97    3.47
   3  -8   5   11.13    2.87
  -3   8  -6  332.67   11.23
   3  -8   6  358.91   12.49
  -3   8  -7   68.24    6.31
   3  -8   7   82.78    8.16
  -3   8  -8   73.64    3.83
   3  -8   8   71.50   17.34
  -3   8  -9   18.45    3.72
   3  -8   9    9.59    3.57
  -3   8 -10   19.62    5.66
  -3   8 -10   14.92    4.23
   3  -8  10   16.09    5.08
  -3   8 -11   23.47    5.77
  -3   8 -11   23.24    5.73
   3  -8  11   19.91    5.43
  -3   7  11    1.57    1.61
   3  -7 -11    9.62    4.51
  -3   7  11    4.64    2.52
  -3   7  10    9.20    2.83
   3  -7 -10   14.71    5.46
  -3   7  10   14.75    4.27
  -3   7   9   23.68    4.87
   3  -7  -9   45.62    9.47
  -3   7   9   35.89    6.54
  -3   7   8   32.22    4.03
   3  -7  -8   40.54    5.72
  -3   7   8   38.14    4.69
  -3   7   7    3.96    1.89
   3  -7  -7    3.94    2.75
  -3   7   7    5.25    1.81
  -3   7   6  105.25    4.69
   3  -7  -6  131.65    8.12
  -3   7   6   92.83    4.74
   3  -7  -6  107.56    4.64
  -3   7   5   65.40    6.36
   3  -7  -5   76.01    6.93
  -3   7   5   61.31    6.20
   3  -7  -5   65.72    6.33
  -3   7   4   22.52    2.41
   3  -7  -4   24.96    4.30
  -3   7   4   12.83    2.28
   3  -7  -4   23.11    2.54
  -3   7   3    2.72    1.22
   3  -7  -3    5.53    2.49
   3  -7  -3    4.82    1.46
  -3   7   2  118.09    5.39
   3  -7  -2  165.59   11.74
  -3   7   2  138.18    6.75
   3  -7  -2  137.80    6.46
  -3   7   1  446.60   17.51
   3  -7  -1  514.42   22.60
  -3   7   1  513.75   20.92
   3  -7  -1  435.34   17.46
  -3   7   0  554.42   21.45
   3  -7   0  605.51   28.64
  -3   7   0  627.74   25.20
   3  -7   0  561.24   22.36
  -3   7  -1  413.17   15.07
   3  -7   1  504.65   21.60
  -3   7  -1  519.56   20.32
   3  -7   1  466.26   18.84
   3  -7   2  123.92   10.44
  -3   7  -2  134.44    7.50
   3  -7   2  110.26    5.94
   3  -7   3    6.41    3.49
  -3   7  -3    8.98    2.53
   3  -7   3   11.72    2.32
   3  -7   4   16.82    3.38
  -3   7  -4   20.59    3.41
   3  -7   4   15.39    2.31
   3  -7   5    2.40    1.80
  -3   7  -5    1.80    1.91
   3  -7   5    1.08    1.59
  -3   7  -6   67.10    6.94
   3  -7   6   61.47    6.46
  -3   7  -7  279.39   10.06
   3  -7   7  314.92   12.19
  -3   7  -8   61.80    5.02
   3  -7   8   59.75    5.75
  -3   7  -9  103.30    5.16
  -3   7  -9   95.48    4.33
   3  -7   9  116.05    6.13
  -3   7 -10   25.05    4.73
  -3   7 -10   40.29    7.07
   3  -7  10   40.73    7.72
  -3   7 -11   77.62    5.92
  -3   7 -11   70.26    5.33
   3  -7  11   59.86   16.25
  -3   7 -12   57.50    5.11
   3  -7  12   61.79   10.25
  -3   6  12    7.85    3.28
   3  -6 -12   20.87    5.84
  -3   6  12    9.69    3.32
  -3   6  11   -0.52    1.70
   3  -6 -11    6.68    2.94
  -3   6  11    2.10    1.76
  -3   6  10   34.99    4.79
   3  -6 -10   29.89    4.60
  -3   6  10   31.45    3.94
  -3   6   9   82.50    6.53
   3  -6  -9   88.12    7.97
  -3   6   9   74.88    5.85
  -3   6   8   58.94    4.40
   3  -6  -8   67.68    5.78
  -3   6   8   67.74    4.38
  -3   6   7    7.88    2.22
   3  -6  -7   16.68    3.77
  -3   6   7    7.92    2.06
   3  -6  -7    9.90    1.61
  -3   6   6    4.69    1.80
   3  -6  -6    1.99    2.35
   3  -6  -6    6.07    1.58
  -3   6   5   52.91    3.58
   3  -6  -5   58.13    5.57
  -3   6   5   45.38    2.93
   3  -6  -5   57.04    2.95
  -3   6   4   18.57    1.84
   3  -6  -4   27.94    3.85
  -3   6   4   21.91    2.82
   3  -6  -4   18.67    1.56
  -3   6   3   13.76    2.08
   3  -6  -3   13.97    3.04
  -3   6   3   18.47    2.59
   3  -6  -3   11.23    1.43
  -3   6   2   29.59    2.58
   3  -6  -2   41.55    6.54
  -3   6   2   25.98    2.76
   3  -6  -2   33.14    2.89
  -3   6   1   34.84    3.66
   3  -6  -1   33.86    3.64
   3  -6  -1   43.65    7.01
  -3   6   1   34.53    4.33
   3  -6  -1   36.17    4.07
  -3   6   0   31.59    3.30
   3  -6   0   29.83    3.16
   3  -6   0   34.22    5.59
  -3   6   0   37.44    4.74
   3  -6   0   36.08    4.18
  -3   6  -1   45.93    4.54
   3  -6   1   42.49    4.26
   3  -6   1   42.52    6.81
  -3   6  -1   47.69    5.47
   3  -6   1   41.49    4.72
   3  -6   2  410.61   11.67
   3  -6   3  893.33   19.16
  -3   6  -3  921.08   18.54
   3  -6   3  872.49   17.52
   3  -6   4  956.41   20.01
  -3   6  -4 1043.09   20.65
   3  -6   4  976.30   19.73
  -3   6  -5  446.92   17.21
   3  -6   5  424.09   16.59
  -3   6  -6   57.76    3.35
   3  -6   6   70.49    4.41
  -3   6  -7   35.68    3.38
   3  -6   7   44.13    4.42
  -3   6  -8   87.17    5.34
  -3   6  -8   79.97    4.51
   3  -6   8   81.94    5.59
  -3   6  -9   10.10    2.85
  -3   6  -9   -0.55    0.98
   3  -6   9    3.87    1.88
  -3   6 -10  229.16    8.28
  -3   6 -10  217.23    7.16
   3  -6  10  225.84   11.27
  -3   6 -11  141.00    4.76
  -3   6 -11  129.39    3.63
   3  -6  11  144.00   17.19
  -3   6 -12    3.55    1.86
   3  -6  12    0.74    1.21
  -3   6 -13    4.00    2.00
   3  -6  13    2.72    3.30
  -3   5  13  118.41    9.04
   3  -5 -13  110.32    9.30
  -3   5  13  100.49    7.19
  -3   5  12    0.35    1.74
   3  -5 -12    7.32    4.25
  -3   5  12    2.83    1.78
  -3   5  11    5.66    2.54
   3  -5 -11    6.80    3.83
  -3   5  11    6.42    2.87
  -3   5  10    4.57    1.96
   3  -5 -10   14.20    4.02
  -3   5  10    8.27    2.13
  -3   5   9   21.96    3.54
   3  -5  -9   28.73    4.60
  -3   5   9   27.94    3.64
  -3   5   8   11.35    2.54
   3  -5  -8    4.22    1.95
  -3   5   8    9.82    1.68
  -3   5   7    3.53    1.47
   3  -5  -7    5.43    2.03
  -3   5   7    7.77    2.48
   3  -5  -7    1.82    0.79
  -3   5   6   95.63    5.68
  -3   5   6   73.20    4.53
   3  -5  -6   89.10    4.51
  -3   5   5  214.25    5.63
  -3   5   5  233.77    6.33
   3  -5  -5  211.37    4.67
  -3   5   4  197.28    6.06
   3  -5  -4  182.92    5.26
  -3   5   3  132.58    5.89
  -3   5   3  138.09    6.46
   3  -5  -3  125.42    5.39
  -3   5   2    1.74    0.70
   3  -5  -2    4.15    1.29
  -3   5   2    3.88    1.97
   3  -5  -2    1.78    0.67
  -3   5   1   45.73    3.93
   3  -5  -1   41.15    3.57
   3  -5  -1   66.57   11.18
  -3   5   1   52.69    4.87
   3  -5  -1   47.12    4.15
  -3   5   0    4.22    0.63
   3  -5   0    6.28    0.87
   3  -5   0    4.34    2.21
  -3   5   0    4.26    1.31
   3  -5   0    6.21    1.05
  -3   5   0    5.06    1.00
  -3   5  -1   24.96    1.33
  -3   5  -1   27.98    1.45
   3  -5   1   34.92    6.53
  -3   5  -1   32.37    2.57
   3  -5   1   24.80    2.00
   3  -5   2   18.96    5.29
  -3   5  -2   13.88    1.85
   3  -5   2   18.29    2.16
   3  -5   3   46.48    5.24
  -3   5  -3   40.67    3.86
   3  -5   3   30.88    3.28
   3  -5   4    0.27    1.44
  -3   5  -4    2.40    1.43
   3  -5   4    5.64    2.10
  -3   5  -5  105.80    4.22
   3  -5   5  102.45    4.52
  -3   5  -6  479.57   10.02
   3  -5   6  470.44   10.56
  -3   5  -7  820.15   30.75
  -3   5  -7  813.59   29.97
   3  -5   7  825.77   31.14
   3  -5   8  515.12   19.76
  -3   5  -8  582.13   23.43
  -3   5  -8  564.28   22.09
   3  -5   8  613.87   26.68
  -3   5  -9  215.72    8.48
  -3   5  -9  218.71    7.83
   3  -5   9  240.88   14.80
  -3   5 -10    3.52    1.59
  -3   5 -10    2.83    1.18
   3  -5  10    5.38    2.49
  -3   5 -11  114.66    8.18
  -3   5 -11   88.99    5.96
  -3   5 -12   74.14    4.11
   3  -5  12   79.53    6.27
  -3   5 -13   71.49    5.86
   3  -5  13   75.73    9.42
  -3   5 -14  132.94    9.60
   3  -5  14  104.38   13.25
  -3   4  14    6.02    2.33
   3  -4 -14    8.58    4.41
  -3   4  13    7.75    3.78
   3  -4 -13   14.57    4.53
  -3   4  12  200.13    6.26
   3  -4 -12  203.48    6.73
  -3   4  11  318.12   17.34
   3  -4 -11  297.10   16.79
  -3   4  10   83.01    5.50
   3  -4 -10   79.72    6.10
  -3   4   9   15.32    2.77
   3  -4  -9   21.40    4.10
  -3   4   8    8.77    1.89
   3  -4  -8   18.09    3.55
  -3   4   7    7.57    2.03
   3  -4  -7    9.47    2.40
   3  -4  -7    8.91    0.78
  -3   4   6    5.09    2.16
   3  -4  -6    7.85    3.09
   3  -4  -6    5.07    0.69
  -3   4   5   29.62    3.22
   3  -4  -5   26.40    3.59
   3  -4  -5   27.38    2.25
   3  -4  -5   25.95    2.15
  -3   4   4    7.03    1.32
   3  -4  -4    6.14    1.99
   3  -4  -4    8.08    1.08
  -3   4   3   20.00    1.74
   3  -4  -3   17.24    2.33
   3  -4  -3   19.68    1.09
  -3   4   2  230.19    4.73
   3  -4  -2  260.61    5.47
   3  -4  -2  258.22    6.59
  -3   4   2  254.29    5.77
   3  -4  -2  257.26    4.79
  -3   4   1  690.67   11.96
   3  -4  -1  650.85   11.50
   3  -4  -1  706.29   14.70
  -3   4   1  674.25   12.44
   3  -4  -1  655.81   11.27
  -3   4   1  610.91   10.63
  -3   4   0  878.16   14.69
   3  -4   0  829.92   14.10
   3  -4   0  875.93   18.38
  -3   4   0  894.40   15.94
   3  -4   0  880.00   15.06
  -3   4   0  842.53   14.47
  -3   4  -1  410.61    7.11
   3  -4   1  441.15    9.98
  -3   4  -1  441.02    8.57
   3  -4   1  389.86    7.34
  -3   4  -1  418.91    7.92
  -3   4  -2   10.39    0.52
  -3   4  -2    9.27    0.48
   3  -4   2   19.14    2.88
  -3   4  -2   10.70    1.25
   3  -4   2    9.02    1.27
  -3   4  -3   23.94    1.08
   3  -4   3   22.30    2.49
  -3   4  -3   29.27    2.20
   3  -4   3   20.89    1.81
  -3   4  -4  206.52    4.77
  -3   4  -4  249.66    6.67
   3  -4   4  267.40    8.91
   3  -4   5  186.53    7.49
  -3   4  -5  175.88    7.01
  -3   4  -5  198.56    8.39
   3  -4   5  211.47   10.28
   3  -4   6    3.00    0.64
  -3   4  -6    2.66    0.51
  -3   4  -6    2.39    1.82
  -3   4  -6    3.13    1.33
   3  -4   6    4.46    1.62
   3  -4   7    3.97    0.85
  -3   4  -7    3.50    0.79
  -3   4  -7    3.98    1.69
  -3   4  -7    4.24    1.00
   3  -4   7    4.77    2.20
   3  -4   8    2.29    0.98
  -3   4  -8    0.48    0.43
  -3   4  -8   -0.97    1.54
  -3   4  -8    0.88    0.86
   3  -4   8    6.05    1.78
   3  -4   9   65.47    3.18
  -3   4  -9   66.01    3.82
  -3   4  -9   61.02    2.79
   3  -4   9   77.36    8.07
   3  -4  10  287.56   13.21
  -3   4 -10  300.48   14.46
  -3   4 -10  267.57   12.15
   3  -4  11  360.21   12.17
  -3   4 -11  372.46   13.40
   3  -4  11  381.67   14.33
   3  -4  12  243.80    7.83
  -3   4 -12  261.74    9.20
   3  -4  12  284.40   13.29
  -3   4 -13   26.44    5.25
   3  -4  13   23.78    5.71
  -3   4 -14   22.91    6.24
   3  -4  14   26.56   10.95
  -3   4 -15   95.20    8.67
   3  -4  15   79.75    9.69
  -3   3  15    7.52    3.22
   3  -3 -15    3.77    2.91
  -3   3  14    1.82    1.96
   3  -3 -14    2.29    1.86
  -3   3  13   61.64   11.15
   3  -3 -13   68.19   12.02
  -3   3  12  236.44    8.72
   3  -3 -12  230.96    9.40
  -3   3  11  113.35    5.93
   3  -3 -11  107.64    6.08
  -3   3  10  153.13    6.58
   3  -3 -10  157.44    7.50
  -3   3   9  213.57    9.40
   3  -3  -9  222.87   10.79
  -3   3   7   14.33    2.60
   3  -3  -7    7.77    2.43
   3  -3  -7   11.03    1.27
  -3   3   6    8.18    1.76
   3  -3  -6    6.23    1.85
  -3   3   5   26.27    2.26
   3  -3  -5   24.32    2.63
  -3   3   4  113.76    3.29
   3  -3  -4  115.71    4.65
  -3   3   3   92.75    3.05
   3  -3  -3   89.45    3.85
  -3   3   2    8.77    1.14
   3  -3  -2    8.67    1.15
   3  -3  -2   10.05    1.82
   3  -3  -2    9.26    0.88
  -3   3   1    0.95    0.88
   3  -3  -1    2.07    1.36
   3  -3  -1    2.87    1.15
   3  -3  -1    1.30    0.45
  -3   3   1    1.27    0.59
  -3   3   0    3.68    0.75
  -3   3   0    3.84    0.84
   3  -3   0    4.51    1.26
   3  -3   0    5.26    1.14
  -3   3   0    2.65    0.73
  -3   3  -1   49.15    1.97
  -3   3  -1   50.65    1.77
   3  -3   1   59.87    7.00
  -3   3  -1   65.43    2.67
   3  -3   1   52.92    2.14
  -3   3  -1   44.81    1.76
  -3   3  -2  652.54   11.04
  -3   3  -2  604.47   10.45
   3  -3   2  674.00   12.72
  -3   3  -2  673.50   11.93
   3  -3   2  633.99   13.05
  -3   3  -2  594.29   10.64
   3  -3   3 1058.15   17.55
  -3   3  -3  986.58   16.24
   3  -3   3 1051.20   18.68
  -3   3  -3 1092.43   18.49
   3  -3   3 1036.95   18.26
   3  -3   4 1113.95   18.76
   3  -3   4 1109.50   21.32
   3  -3   5  265.95    7.06
  -3   3  -5  271.09    6.65
  -3   3  -5  264.49    7.37
  -3   3  -5  268.12    6.79
   3  -3   5  276.83    8.26
   3  -3   6   38.41    3.57
  -3   3  -6   37.24    3.23
  -3   3  -6   40.90    4.02
  -3   3  -6   38.51    3.36
   3  -3   6   58.61    8.71
   3  -3   7  360.86    9.93
  -3   3  -7  328.90    8.83
  -3   3  -7  365.54   10.50
  -3   3  -7  352.73    9.25
   3  -3   7  408.13   13.01
   3  -3   8  296.73    6.78
  -3   3  -8  292.22    7.38
  -3   3  -8  270.22    5.50
   3  -3   8  314.49   15.40
   3  -3   9   75.54    4.11
  -3   3  -9   76.82    4.56
  -3   3  -9   74.36    3.64
   3  -3   9   90.45    6.57
   3  -3  10    6.82    1.79
  -3   3 -10    3.51    1.54
  -3   3 -10    0.95    0.42
   3  -3  10    1.47    1.26
   3  -3  11   13.45    3.05
   3  -3  11   12.98    3.86
   3  -3  12    2.13    0.98
  -3   3 -12   -0.15    1.48
   3  -3  12    2.14    1.73
   3  -3  13   38.25    4.15
  -3   3 -13   33.65    4.13
   3  -3  13   34.31    8.15
   3  -3  14   76.75    5.80
  -3   3 -14   85.53    6.79
   3  -3  14   88.98   13.63
  -3   3 -15  148.01   12.78
   3  -3  15  116.82   12.29
   3  -2 -15    4.78    2.79
  -3   2  14    1.58    1.74
   3  -2 -14    7.23    3.20
  -3   2  13   11.21    2.41
   3  -2 -13   13.39    3.11
  -3   2  12   37.85    4.19
   3  -2 -12   26.72    3.71
   3  -2 -12   36.97    4.01
  -3   2  11    1.96    1.81
   3  -2 -11    3.91    2.45
   3  -2 -11    0.29    1.21
  -3   2  11    1.57    0.74
  -3   2  10   50.94    4.10
   3  -2 -10   51.15    3.95
   3  -2 -10   47.56    3.41
  -3   2  10   44.63    2.29
  -3   2   9  551.58   21.25
   3  -2  -9  535.17   20.87
   3  -2  -9  496.43   19.37
  -3   2   9  488.79   18.00
   3  -2  -9  462.32   17.12
  -3   2   8  583.65   16.12
   3  -2  -8  524.64   14.91
   3  -2  -8  545.27   15.37
  -3   2   8  515.72   13.57
   3  -2  -8  509.52   13.23
  -3   2   7 1097.94   43.80
   3  -2  -7 1098.71   43.95
   3  -2  -7 1027.13   41.11
  -3   2   7  928.42   36.42
   3  -2  -7  980.18   38.49
  -3   2   6   15.59    2.10
   3  -2  -6    5.74    1.92
   3  -2  -6   11.93    1.96
  -3   2   5 2445.10   40.70
   3  -2  -5 2405.81   40.36
   3  -2  -5 2246.89   37.81
  -3   2   4  138.63    4.03
   3  -2  -4  158.65    4.46
   3  -2  -4  151.41    4.47
  -3   2   3  389.32    6.61
   3  -2  -3  381.60    6.71
  -3   2   3  346.34    5.87
   3  -2  -3  353.19    7.53
  -3   2   2    1.11    1.14
   3  -2  -2    1.87    1.45
   3  -2  -2    0.09    1.16
  -3   2   2    0.58    0.67
   3  -2  -2    0.66    0.93
  -3   2   2    0.19    0.22
  -3   2   1  163.39    3.36
  -3   2   1  148.71    3.54
   3  -2  -1  158.12    3.81
  -3   2   1  154.68    3.69
  -3   2   1  154.79    2.65
  -3   2   0  496.71    8.06
  -3   2   0  536.36    8.16
   3  -2   0  545.48    9.51
  -3   2   0  489.25    7.69
  -3   2   0  497.19    7.69
   3  -2   0  511.53    7.21
  -3   2   0  541.20    7.56
  -3   2  -1  360.01    5.74
   3  -2   1  356.47    8.73
  -3   2  -1  351.57    7.22
  -3   2  -1  356.70    7.00
   3  -2   1  359.22    6.14
  -3   2  -1  372.02    5.73
   3  -2   2   60.33    1.97
  -3   2  -2   52.09    1.76
   3  -2   2   56.55    2.79
  -3   2  -2   60.19    2.54
  -3   2  -2   48.70    2.28
   3  -2   2   60.76    4.06
  -3   2  -2   56.55    1.91
   3  -2   3    1.30    0.42
  -3   2  -3    2.00    0.99
  -3   2  -3    0.74    0.71
  -3   2  -3    1.25    0.80
   3  -2   3   -0.06    0.81
   3  -2   4    0.82    0.79
  -3   2  -4    0.69    0.48
  -3   2  -4   -0.27    0.98
  -3   2  -4    1.02    0.53
  -3   2  -4    0.83    0.64
   3  -2   4    4.10    1.35
   3  -2   5  118.67    5.75
  -3   2  -5  131.01    6.01
  -3   2  -5  121.60    5.87
  -3   2  -5  110.57    4.93
  -3   2  -5  123.07    5.46
   3  -2   5  126.94    7.38
   3  -2   6  269.58    7.33
  -3   2  -6  247.21    5.93
   3  -2   6  266.34    8.36
   3  -2   7  647.24   26.00
  -3   2  -7  656.85   26.48
  -3   2  -7  612.44   24.03
   3  -2   7  670.53   28.35
   3  -2   9    2.39    1.17
  -3   2  -9    2.39    2.31
   3  -2   9    5.05    1.67
   3  -2  10  147.57    6.94
  -3   2 -10  143.32    6.86
   3  -2  10  130.86    8.26
   3  -2  11  222.93   11.13
  -3   2 -11  229.58   11.44
   3  -2  11  223.47   12.06
   3  -2  12  134.92    7.95
  -3   2 -12  111.47    8.13
   3  -2  12  124.82   12.36
   3  -2  13   10.46    2.41
   3  -2  13   17.25    5.10
   3  -2  14   10.95    3.11
  -3   2 -14    8.35    2.68
   3  -2  14    3.63    2.49
   3  -2  15    2.67    1.51
  -3   2 -15    5.54    1.93
   3  -2  15   19.85    4.84
  -3   1  15   99.29    7.60
   3  -1 -15   99.64    7.71
   3  -1 -15   89.60    7.00
  -3   1  14    2.56    1.70
   3  -1 -14    2.20    1.56
   3  -1 -14    2.72    1.48
  -3   1  13   23.23    3.98
   3  -1 -13   19.58    3.06
   3  -1 -13   19.75    3.03
   3  -1 -12   93.21    5.63
   3  -1 -12   85.78   11.29
  -3   1  12   74.14    5.73
  -3   1  11   58.26    5.00
   3  -1 -11   64.92    4.60
   3  -1 -11   71.32    4.53
  -3   1  11   49.07    5.11
  -3   1  10   26.93    3.42
   3  -1 -10   24.14    3.05
   3  -1 -10   18.25    4.14
  -3   1  10   17.14    3.18
  -3   1   9   16.51    2.24
   3  -1  -9   21.60    3.40
   3  -1  -9   16.56    4.01
  -3   1   9   22.14    2.86
   3  -1  -9   17.73    1.86
  -3   1   8   12.78    2.40
   3  -1  -8   11.05    2.33
   3  -1  -8   10.40    2.08
  -3   1   8    9.03    1.98
   3  -1  -8    6.82    1.07
  -3   1   7    3.70    1.93
   3  -1  -7    2.07    1.09
   3  -1  -7   -0.25    1.33
  -3   1   7    0.31    0.45
   3  -1  -7    0.58    0.53
  -3   1   6  545.36   13.91
   3  -1  -6  514.70   13.07
   3  -1  -6  536.59   14.10
  -3   1   6  516.61   12.21
  -3   1   5  738.36   13.79
   3  -1  -5  795.48   14.41
   3  -1  -5  764.63   14.30
  -3   1   5  686.55   11.53
   3  -1  -4 4643.06  195.92
  -3   1   4 4178.01  176.21
   3  -1  -4 4753.61  200.78
  -3   1   4 4213.76  177.53
  -3   1   3  661.02   10.36
   3  -1  -3  641.90    9.45
  -3   1   3  606.20    8.60
  -3   1   3  627.65    8.53
  -3   1   2 4302.07   53.64
  -3   1   1  106.66    2.88
  -3   1   1  112.71    3.89
   3  -1  -1  109.06    3.24
  -3   1   1  103.08    2.40
   3  -1  -1  119.52    4.73
  -3   1   1  101.16    4.17
  -3   1   1  114.57    2.37
   3  -1   0 1396.79   18.80
  -3   1   0 1364.28   18.74
   3  -1   0 1376.57   19.17
  -3   1   0 1400.58   18.29
   3  -1   0 1344.95   18.40
  -3   1   0 1328.37   17.25
   3  -1   1  125.10    3.70
  -3   1  -1  104.88    2.88
  -3   1  -1  115.20    3.20
   3  -1   1  102.98    2.67
  -3   1  -1  110.69    2.57
  -3   1  -1  109.68    4.03
   3  -1   2   78.21    2.60
  -3   1  -2   72.90    2.15
  -3   1  -2   72.61    2.21
  -3   1  -2   79.07    2.06
   3  -1   2   71.50    2.03
  -3   1  -2   69.51    2.17
   3  -1   2   71.64    2.46
  -3   1  -2   71.83    4.27
   3  -1   3  574.06   12.49
  -3   1  -3  588.91   10.54
  -3   1  -3  530.78    9.81
  -3   1  -3  597.23   10.54
  -3   1  -3  562.20    9.81
   3  -1   3  557.68   10.36
   3  -1   4  708.60   12.71
  -3   1  -4  697.84   12.33
  -3   1  -4  680.38   11.33
  -3   1  -4  702.14   11.62
   3  -1   4  647.70   11.91
   3  -1   5  162.77    7.76
  -3   1  -5  162.00    7.46
  -3   1  -5  154.77    6.60
  -3   1  -5  150.73    6.42
   3  -1   5  163.05    7.90
   3  -1   6   10.52    1.37
  -3   1  -6   15.99    1.51
   3  -1   6   16.74    2.10
   3  -1   7   -1.19    1.26
  -3   1  -7    1.73    1.10
   3  -1   7    3.52    1.42
   3  -1   8    4.81    1.83
  -3   1  -8    5.51    1.83
   3  -1   8    2.86    1.88
   3  -1   9   10.15    2.18
  -3   1  -9    8.37    1.62
   3  -1   9    6.14    2.22
   3  -1  10  168.12    8.14
  -3   1 -10  185.62    8.67
   3  -1  10  186.82    8.81
   3  -1  11  461.09   21.55
  -3   1 -11  435.37   20.41
   3  -1  11  418.01   19.80
   3  -1  12   52.78    4.86
  -3   1 -12   55.35    5.08
   3  -1  12   46.49    4.58
   3  -1  13    6.06    2.56
  -3   1 -13    6.90    2.60
   3  -1  13   13.55    3.24
   3  -1  14   80.90    6.75
  -3   1 -14   59.69    5.48
   3  -1  14   75.46    6.81
   3  -1  15   57.24    5.97
  -3   1 -15   83.66    8.29
   3  -1  15   83.01    8.11
  -3   0  15   10.68    3.27
   3   0 -15    9.49    2.89
   3   0 -15    2.95    1.91
  -3   0  14  274.93    7.80
   3   0 -14  262.13    7.99
   3   0 -14  257.23    7.79
  -3   0  13   11.94    2.75
   3   0 -13   12.92    3.03
   3   0 -13   11.73    3.93
  -3   0  13   11.42    3.29
  -3   0  12  317.69   11.92
   3   0 -12  271.08   10.26
   3   0 -12  292.50   11.88
  -3   0  11  113.30    5.72
   3   0 -11   91.81    4.62
   3   0 -11   88.22   11.19
  -3   0  11   90.88    5.29
  -3   0  10    4.22    1.93
   3   0 -10    3.54    1.71
   3   0 -10    3.34    1.18
  -3   0  10    1.30    0.68
   3   0  -9  175.57    5.65
   3   0  -9  186.20    6.17
  -3   0   9  172.47    4.56
  -3   0   8  370.72   11.05
   3   0  -8  377.20   10.75
   3   0  -8  395.77   20.11
  -3   0   8  367.92   10.11
  -3   0   7  488.28   20.19
   3   0  -7  409.85   16.89
   3   0  -7  446.37   18.52
  -3   0   7  443.24   17.84
   3   0  -7  405.34   16.45
  -3   0   6   45.08    3.47
   3   0  -6   45.06    2.89
   3   0  -6   53.78    6.48
  -3   0   6   44.92    2.61
  -3   0   5   20.96    2.10
   3   0  -5   20.59    1.63
  -3   0   5   20.71    1.11
   3   0  -5   21.26    3.40
  -3   0   5   23.83    1.64
  -3   0   4   58.80    2.94
   3   0  -4   69.63    2.37
  -3   0   4   70.03    2.09
   3   0  -4   66.47    2.90
  -3   0   4   69.33    2.48
  -3   0   3  152.31    4.69
   3   0  -3  155.89    3.51
  -3   0   3  159.12    3.21
   3   0  -3  160.37    4.64
  -3   0   3  168.98    4.21
  -3   0   2   66.87    3.13
   3   0  -2   59.78    1.62
  -3   0   2   68.31    1.51
   3   0  -2   60.57    3.37
   3   0  -1 5559.70   90.03
   3   0  -1 5383.45   87.50
  -3   0   1 5150.24   83.09
  -3   0   0 2919.77   36.31
   3   0   0 2898.32   36.83
  -3   0   0 2897.88   36.67
   3   0   1 1514.01   20.98
  -3   0  -1 1382.11   18.11
  -3   0  -1 1475.90   18.64
   3   0   1 1375.92   18.33
  -3   0  -1 1382.91   18.01
  -3   0  -1 1306.41   17.44
   3   0   2   97.70    3.47
  -3   0  -2   99.05    2.30
  -3   0  -2  101.96    2.09
   3   0   2   92.17    3.05
  -3   0  -2   96.66    2.06
   3   0   3 1137.08   20.31
  -3   0  -3 1142.63   19.06
   3   0   3 1101.77   18.25
  -3   0  -3 1121.61   18.42
   3   0   4  307.47    6.88
  -3   0  -4  311.29    6.07
   3   0   4  301.13    5.33
   3   0   5    7.73    2.53
  -3   0  -5    4.29    1.38
   3   0   6  246.09   10.87
  -3   0  -6  225.30    9.56
   3   0   7  514.09   14.34
  -3   0  -7  506.49   13.93
   3   0   7  489.71   13.79
   3   0   8  175.73    5.47
  -3   0  -8  202.51    5.63
   3   0   8  172.18    5.41
   3   0   9   46.70    4.19
  -3   0  -9   45.36    3.40
   3   0   9   47.62    4.13
   3   0  10    3.19    1.95
  -3   0 -10    1.86    1.56
   3   0  10    1.40    2.00
   3   0  11    1.97    2.35
  -3   0 -11    7.74    2.69
   3   0  11    6.63    2.56
   3   0  12    5.75    1.80
  -3   0 -12    8.87    2.52
   3   0  12    3.89    1.64
   3   0  13   10.87    3.17
  -3   0 -13   13.77    3.91
   3   0  14  151.30   10.75
  -3   0 -14  147.60   10.68
   3   0  15   40.50    9.80
  -3   0 -15   42.02   10.17
  -3  -1  15  142.05   10.37
   3   1 -15  146.82   10.73
   3   1 -15  134.35    9.63
  -3  -1  14   25.19    4.69
   3   1 -14   25.61    4.84
   3   1 -14   13.25    5.33
  -3  -1  14   12.74    6.10
  -3  -1  13   10.42    2.95
   3   1 -13   10.45    2.37
   3   1 -13    5.74    3.42
  -3  -1  13    6.11    2.03
  -3  -1  12   65.78    6.04
   3   1 -12   61.62    5.84
   3   1 -12   52.65   12.55
  -3  -1  12   63.70    5.09
  -3  -1  11  585.95   27.04
   3   1 -11  540.42   24.74
   3   1 -11  554.06   29.03
  -3  -1  11  555.45   25.19
  -3  -1  10   -2.64    1.98
   3   1 -10    4.17    1.64
   3   1 -10    2.85    1.66
  -3  -1  10    1.80    0.84
  -3  -1   9  440.79   17.33
   3   1  -9  438.61   16.79
   3   1  -9  431.73   17.75
  -3  -1   9  427.09   16.30
  -3  -1   8  456.50   10.54
   3   1  -8  442.62    9.61
   3   1  -8  453.55   11.71
  -3  -1   8  391.68    8.72
  -3  -1   7  172.29    8.16
   3   1  -7  180.50   10.97
  -3  -1   7  156.11    7.02
  -3  -1   6  130.25    6.47
   3   1  -6  124.34    5.50
  -3  -1   6  118.13    5.03
   3   1  -6  133.83    9.98
  -3  -1   6  122.01    5.76
   3   1  -5  643.43   15.29
  -3  -1   5  620.71   14.57
   3   1  -5  616.34   16.34
  -3  -1   5  632.79   15.58
  -3  -1   4 1605.29   27.81
   3   1  -4 1478.55   24.24
  -3  -1   4 1592.34   25.89
  -3  -1   4 1669.67   28.24
  -3  -1   3  469.89    9.88
   3   1  -3  472.97    8.01
  -3  -1   3  496.96    8.25
   3   1  -3  511.22    9.98
  -3  -1   3  493.60    9.68
   3   1  -2  421.21    8.50
   3   1  -1   85.94    3.52
   3   1  -1   87.38    2.94
   3   1   0    2.05    1.47
   3   1   0    3.67    0.98
  -3  -1   0    3.93    0.78
   3   1   1   36.50    6.12
  -3  -1  -1   25.36    0.92
  -3  -1  -1   24.49    0.87
   3   1   1   28.04    1.84
  -3  -1  -1   26.80    1.38
  -3  -1  -2 1244.03   20.48
   3   1   2 1263.84   21.17
  -3  -1  -2 1234.90   20.43
   3   1   3 1772.48   30.46
  -3  -1  -3 1674.22   27.55
   3   1   3 1582.85   25.99
   3   1   3 1676.28   27.55
  -3  -1  -3 1655.81   26.98
   3   1   4    3.78    1.20
  -3  -1  -4    1.84    0.71
   3   1   4    2.38    0.62
   3   1   4    2.97    0.65
  -3  -1  -4    1.93    0.40
   3   1   5    3.29    1.77
  -3  -1  -5   -0.49    0.76
   3   1   5    0.34    0.32
  -3  -1  -5    1.28    0.39
   3   1   6  305.45    9.42
  -3  -1  -6  276.19    8.09
   3   1   7  221.05    6.42
  -3  -1  -7  224.80    5.80
   3   1   8   23.66    3.13
  -3  -1  -8   11.31    1.91
   3   1   9   10.10    2.19
  -3  -1  -9   22.09    2.64
   3   1  10  187.37    9.99
  -3  -1 -10  180.81    9.35
   3   1  11   99.16    7.95
  -3  -1 -11  108.17    8.01
   3   1  12   49.74    5.97
  -3  -1 -12   34.23    4.40
   3   1  13    8.74    3.81
  -3  -1 -13    2.74    1.81
   3   1  14    6.77    2.88
  -3  -1 -14    2.85    1.84
  -3  -2  15   35.67    8.75
   3   2 -15   25.39    6.56
   3   2 -15   17.95   11.03
  -3  -2  15   20.82    9.27
  -3  -2  14    9.06    2.88
   3   2 -14    2.40    1.43
   3   2 -14    1.78    1.83
  -3  -2  14    3.33    1.74
  -3  -2  13   52.50    5.72
   3   2 -13   43.45    4.59
   3   2 -13   32.76    8.78
  -3  -2  13   42.25    4.60
  -3  -2  12  372.96   12.36
   3   2 -12  371.38   12.04
   3   2 -12  380.01   13.09
  -3  -2  12  372.39   11.97
  -3  -2  11  192.12    7.98
   3   2 -11  179.28    7.23
   3   2 -11  163.56    8.21
  -3  -2  11  160.90    6.60
  -3  -2  10  125.04    6.01
   3   2 -10  131.01    5.73
   3   2 -10  114.77    8.39
  -3  -2  10  120.72    5.67
  -3  -2   9  445.47   18.56
   3   2  -9  440.09   17.70
   3   2  -9  463.56   21.13
  -3  -2   9  407.32   16.57
  -3  -2   8  902.79   33.95
   3   2  -8  866.53   31.90
   3   2  -8  859.70   32.31
  -3  -2   8  793.69   29.62
  -3  -2   7  165.40    5.86
   3   2  -7  179.60    4.70
   3   2  -7  173.18    5.52
  -3  -2   7  168.79    5.95
  -3  -2   6  300.19    9.39
   3   2  -6  308.51    8.48
   3   2  -6  311.62    9.60
  -3  -2   6  305.47    9.24
  -3  -2   5  580.19   23.90
   3   2  -5  542.71   21.52
   3   2  -5  607.16   24.80
  -3  -2   5  574.85   23.39
  -3  -2   4  652.48   16.87
   3   2  -4  635.98   14.86
  -3  -2   4  681.28   17.19
  -3  -2   3    4.86    1.74
   3   2  -3    2.58    0.45
   3   2  -3    7.40    1.89
  -3  -2   3    3.50    1.67
   3   2  -2  338.25    9.41
   3   2  -2  299.34    8.03
   3   2  -1 1888.18   44.15
   3   2  -1 1843.92   42.76
   3   2   0 1093.82   26.65
   3   2   0 1062.76   25.09
  -3  -2  -1  639.62   14.84
   3   2   1  620.43   14.24
   3   2   1  656.53   15.91
   3   2   2    8.54    1.94
  -3  -2  -2    4.68    0.76
   3   2   2    7.04    0.62
   3   2   2    8.07    1.17
  -3  -2  -2    7.98    0.89
   3   2   3  105.45   11.78
  -3  -2  -3   85.05    7.07
   3   2   3   79.92    6.54
   3   2   3   82.41    6.83
  -3  -2  -3   74.39    6.11
   3   2   4  135.60   12.18
  -3  -2  -4  127.06    5.64
   3   2   4  109.62    4.76
   3   2   4  112.41    4.88
  -3  -2  -4  113.06    4.80
  -3  -2  -5   59.21    6.16
   3   2   5   62.70    6.26
  -3  -2  -5   50.91    5.11
   3   2   6  498.66   11.86
  -3  -2  -6  493.70   10.55
   3   2   6  475.12    8.97
  -3  -2  -6  473.32    8.92
   3   2   7   54.85    4.55
  -3  -2  -7   55.93    3.67
   3   2   7   46.62    2.26
   3   2   8   46.16    4.13
  -3  -2  -8   55.75    4.01
   3   2   9   17.12    3.63
  -3  -2  -9   10.24    2.02
   3   2  10   53.39    5.30
  -3  -2 -10   53.61    4.91
   3   2  11   12.68    2.99
  -3  -2 -11   17.24    3.11
   3   2  12    4.53    3.34
  -3  -2 -12    6.62    2.94
   3   2  13   22.57    6.26
  -3  -2 -13   22.58    6.43
  -3  -3  14    5.06    2.19
   3   3 -14    3.01    1.54
   3   3 -14    7.32    3.57
  -3  -3  14    2.78    1.52
  -3  -3  13   32.47    5.38
   3   3 -13   32.77    5.57
   3   3 -13   16.90    9.17
  -3  -3  13   30.44    4.99
  -3  -3  12  129.97    5.41
   3   3 -12  130.08    4.48
   3   3 -12  130.31    6.06
  -3  -3  12  112.13    4.42
  -3  -3  11   12.46    3.43
   3   3 -11    6.42    1.73
   3   3 -11    5.60    3.28
  -3  -3  11    5.46    1.86
  -3  -3  10   13.28    3.44
   3   3 -10   21.36    2.25
   3   3 -10   20.83    3.24
  -3  -3  10   18.05    4.09
  -3  -3   9  512.10   17.59
   3   3  -9  514.30   16.97
   3   3  -9  525.88   18.32
  -3  -3   9  520.24   17.85
  -3  -3   8  421.92   17.50
   3   3  -8  437.74   17.30
   3   3  -8  474.63   19.56
  -3  -3   8  410.06   17.06
  -3  -3   7  378.10   15.13
   3   3  -7  408.52   15.37
   3   3  -7  399.37   15.86
  -3  -3   7  386.98   15.65
  -3  -3   6 1904.54   36.39
   3   3  -6 1941.49   35.19
   3   3  -6 1883.42   35.59
  -3  -3   6 1971.56   37.56
  -3  -3   5  521.20   15.03
   3   3  -5  544.62   14.07
  -3  -3   5  538.12   15.54
  -3  -3   4  399.18   11.79
   3   3  -4  404.34   10.95
   3   3  -4  444.05   11.39
   3   3  -4  445.09   12.96
  -3  -3   4  459.29   13.35
   3   3  -3   16.65    1.46
   3   3  -3   14.15    1.86
  -3  -3   3   17.07    2.82
   3   3  -2  192.19    8.95
   3   3  -2  179.77    8.07
  -3  -3   2  175.62    8.48
   3   3  -1  750.60   30.40
   3   3  -1  674.75   26.36
   3   3  -1  731.56   29.35
   3   3   0   97.66   10.70
  -3  -3   0   88.05    7.15
   3   3   0   92.35    7.40
   3   3   0  107.78   10.90
   3   3   1   10.38    2.34
  -3  -3  -1    5.54    1.14
   3   3   1    8.58    0.85
   3   3   1   10.00    1.65
   3   3   2  761.71   31.44
  -3  -3  -2  701.76   18.16
   3   3   2  670.50   26.44
   3   3   2  717.84   28.67
   3   3   3  832.03   24.91
  -3  -3  -3  780.05   20.32
   3   3   3  669.82   17.19
   3   3   3  762.91   19.80
   3   3   4  579.28   14.45
  -3  -3  -4  549.89   11.49
   3   3   4  582.57   11.54
   3   3   5   27.74    6.20
  -3  -3  -5   23.63    2.40
   3   3   5   28.46    2.03
   3   3   6   39.25    4.02
  -3  -3  -6   30.73    2.33
   3   3   6   35.51    1.94
   3   3   7  158.61    7.53
  -3  -3  -7  149.42    6.16
   3   3   7  150.50    5.21
  -3  -3  -8   13.30    2.19
   3   3   9   99.30    7.87
  -3  -3  -9  103.64    7.58
   3   3  10   21.15    4.31
  -3  -3 -10    8.41    2.58
   3   3  11   49.64    9.13
  -3  -3 -11   27.05    5.05
   3   3  12   15.51    5.04
  -3  -3 -12    3.40    2.11
   3   3  13    5.18    3.04
  -3  -3 -13    5.01    2.65
  -3  -4  14    1.91    2.38
   3   4 -14    1.89    1.70
   3   4 -14    2.78    1.40
  -3  -4  14    4.88    2.46
  -3  -4  13   13.06    3.43
   3   4 -13   16.08    4.54
   3   4 -13   14.12    5.27
  -3  -4  13   21.63    5.95
  -3  -4  12   88.23    6.82
   3   4 -12  100.89    7.32
   3   4 -12   75.08   15.24
  -3  -4  12  106.64    8.21
  -3  -4  11   21.65    3.50
   3   4 -11   17.89    4.33
  -3  -4  11   27.16    4.06
  -3  -4  10    1.68    1.51
   3   4 -10    4.31    1.62
   3   4 -10    4.87    2.55
  -3  -4  10    7.91    2.39
  -3  -4   9  137.73    6.48
   3   4  -9  136.64    5.47
   3   4  -9  154.72    7.39
  -3  -4   9  151.07    7.16
  -3  -4   8   40.75    5.03
   3   4  -8   43.17    4.20
   3   4  -8   48.14    5.66
  -3  -4   8   37.24    4.82
  -3  -4   7    9.27    2.96
   3   4  -7    0.86    0.80
   3   4  -7    4.35    2.55
  -3  -4   7    3.94    1.97
  -3  -4   6  342.90   14.61
   3   4  -6  336.77   13.26
   3   4  -6  345.31   14.49
  -3  -4   6  356.21   15.37
  -3  -4   5  462.47   18.23
   3   4  -5  447.72   16.48
  -3  -4   5  471.54   19.06
  -3  -4   4  460.78   18.12
   3   4  -4  473.74   17.34
   3   4  -4  490.85   18.97
  -3  -4   4  524.52   21.07
   3   4  -3 2845.37  126.25
   3   4  -3 2392.67   42.90
   3   4  -3 2901.11  127.90
   3   4  -3 3146.49  139.42
  -3  -4   3 3193.66  141.94
   3   4  -2   24.56    3.83
   3   4  -2   18.00    1.32
   3   4  -2   23.98    2.89
  -3  -4   2   18.84    3.78
   3   4  -1  283.59    8.04
   3   4  -1  244.83    4.85
   3   4  -1  285.33    7.64
   3   4   0   44.93    8.71
  -3  -4   0   35.32    4.30
   3   4   0   34.17    2.34
   3   4   0   43.22    3.68
   3   4   1    1.92    2.22
  -3  -4  -1    1.94    0.75
   3   4   1   -0.10    0.34
   3   4   1    1.15    1.17
   3   4   2  275.61   12.30
  -3  -4  -2  263.05   10.28
   3   4   2  235.09    8.92
   3   4   2  267.62   10.64
   3   4   3  137.78   10.71
  -3  -4  -3  131.93    6.73
   3   4   3  126.92    6.37
   3   4   4   42.51    9.12
  -3  -4  -4   37.99    2.92
   3   4   4   40.45    2.51
   3   4   5   86.26    9.97
  -3  -4  -5   83.00    4.35
   3   4   5   85.07    3.76
   3   4   6  248.85   12.67
  -3  -4  -6  224.53   11.09
   3   4   6  215.11   10.00
   3   4   7  273.54   12.86
  -3  -4  -7  268.24   10.26
   3   4   7  253.06    8.53
   3   4   8   65.89    5.94
  -3  -4  -8   54.41    4.59
   3   4   9    5.65    2.27
  -3  -4  -9    8.08    2.73
   3   4  10   64.60    6.48
  -3  -4 -10   47.31    8.37
   3   4  11   22.93    6.72
  -3  -4 -11   29.84    7.97
   3   4  12    9.87    3.66
  -3  -4 -12    5.92    2.48
  -3  -5  12   70.50    5.95
   3   5 -12   82.69    7.30
  -3  -5  12   75.50    6.69
  -3  -5  11   41.16    6.63
   3   5 -11   37.55    6.19
  -3  -5  11   47.90    8.67
  -3  -5  10    1.91    1.75
   3   5 -10    8.09    3.19
  -3  -5  10    2.78    2.32
  -3  -5   9  104.13    5.32
   3   5  -9  105.91    6.08
  -3  -5   9   93.19   10.49
  -3  -5   8   64.42    5.47
   3   5  -8   63.12    4.49
   3   5  -8   75.07    6.38
  -3  -5   8   66.84    6.07
  -3  -5   7   54.20    4.44
   3   5  -7   43.34    2.44
   3   5  -7   38.80    3.15
  -3  -5   7   54.93    5.06
  -3  -5   6   36.40    4.90
   3   5  -6   28.55    2.83
   3   5  -6   34.87    4.43
  -3  -5   6   18.33    3.68
  -3  -5   5   29.66    3.97
   3   5  -5   30.74    2.98
   3   5  -5   32.61    4.08
  -3  -5   5   39.19    5.14
  -3  -5   4   15.39    3.02
   3   5  -4   16.86    1.39
   3   5  -4   17.69    2.85
  -3  -5   4   15.39    3.68
   3   5  -3  109.34    6.01
   3   5  -3   93.11    3.36
   3   5  -3  108.12    5.72
  -3  -5   3  108.84    6.92
   3   5  -2  263.30   12.07
   3   5  -2  262.89   11.55
  -3  -5   2  276.03   13.03
   3   5  -1  264.34   11.99
   3   5  -1  268.64   11.73
  -3  -5   1  308.77   14.58
   3   5   0 2538.54  152.33
  -3  -5   0 2372.42  141.94
   3   5   0 2370.25   91.03
   3   5   1  107.91   11.96
  -3  -5  -1  110.62    6.84
   3   5   1  133.47    6.02
   3   5   2   28.13    8.20
  -3  -5  -2   32.85    7.20
   3   5   2   37.30    3.65
   3   5   3   38.80   11.74
  -3  -5  -3   43.20    4.76
   3   5   3   37.59    4.03
   3   5   4   38.41   10.05
  -3  -5  -4   52.95    3.90
   3   5   4   59.00    3.68
   3   5   5   28.70    7.27
  -3  -5  -5   31.35    3.31
   3   5   5   29.59    2.19
   3   5   6   24.48    5.72
  -3  -5  -6   21.97    3.75
   3   5   6   29.49    2.99
   3   5   7   41.76   14.32
  -3  -5  -7   45.94    5.05
   3   5   8    9.51    4.03
  -3  -5  -8    6.07    2.60
   3   5   9   25.87    7.27
  -3  -5  -9   26.69    7.13
   3   5  10   65.02    6.70
  -3  -5 -10   57.54    5.35
  -3  -6  11    2.44    2.25
   3   6 -11    1.98    1.70
  -3  -6  11    2.15    1.67
  -3  -6  10   76.31    6.26
   3   6 -10   73.38    6.51
  -3  -6  10   86.20    7.28
  -3  -6   9   65.80    5.95
   3   6  -9   77.13    6.46
  -3  -6   9   76.07    6.76
  -3  -6   8   90.53    4.82
   3   6  -8   94.64    4.93
  -3  -6   8  105.12    6.11
  -3  -6   7  112.09    5.24
   3   6  -7   98.27    5.24
  -3  -6   7  108.71    6.12
  -3  -6   6   10.89    2.72
  -3  -6   6   16.80    4.16
  -3  -6   5   53.92    5.41
   3   6  -5   51.72    5.07
  -3  -6   5   49.71    5.76
  -3  -6   4  134.30    8.80
   3   6  -4  144.80    8.51
  -3  -6   4  136.58    9.77
   3   6  -3   17.09    3.51
   3   6  -3   11.22    2.80
  -3  -6   3   15.21    5.11
   3   6  -2    0.99    1.39
   3   6  -2    1.97    1.59
  -3  -6   2    2.74    2.73
   3   6  -1   12.33    3.66
   3   6  -1    8.55    2.45
  -3  -6   1   12.70    4.54
   3   6   0   10.48    4.75
   3   6   0   18.52    3.50
  -3  -6   0   13.60    3.92
   3   6   1   22.52   10.96
   3   6   1   44.56    4.07
   3   6   2   19.73    6.66
   3   6   2   19.44    3.45
   3   6   3 1215.66  120.70
   3   6   3 1166.01   33.00
   3   6   4  227.24    9.01
   3   6   4  212.71    5.30
   3   6   5    5.34    2.53
   3   6   5    3.52    1.49
   3   6   6    2.86    2.91
   3   6   6    2.21    1.38
   3   6   7   29.15   12.95
   3   6   8    2.93    2.14
  -3  -7   9    1.30    1.65
   3   7  -9    5.11    2.11
  -3  -7   9    6.14    3.30
  -3  -7   8    1.23    1.75
   3   7  -8   10.49    4.03
  -3  -7   8    1.92    2.05
  -3  -7   7  125.89    9.26
   3   7  -7  130.24   10.04
  -3  -7   7  143.98   10.98
  -3  -7   6   21.54    4.49
   3   7  -6   26.94    4.99
  -3  -7   6   16.56    4.20
  -3  -7   5   63.59    5.98
   3   7  -5   59.08    5.42
  -3  -7   5   95.92    9.84
  -3  -7   4  202.55    7.41
   3   7  -4  182.71    6.10
  -3  -7   4  212.37    8.55
   3   7  -3    9.08    2.95
   3   7  -3   11.38    3.61
  -3  -7   3   12.88    4.18
   3   7  -2    3.76    2.21
   3   7  -2    2.41    1.67
  -3  -7   2    8.82    4.62
   3   7  -1   97.58    5.34
   3   7  -1   90.61    4.28
  -3  -7   1   95.41    6.87
   3   7   0   23.81   11.54
   3   7   0   45.32    8.12
  -3  -7   0   61.68   11.92
   3   7   1   16.33    7.17
   3   7   1   15.23    3.72
  -3  -7  -1   31.33    7.20
   3   7   2    4.09    3.17
   3   7   2    4.54    1.78
  -3  -7  -2   11.69    5.07
   3   7   3    4.66    2.20
   3   7   3    6.97    2.40
   3   7   4    3.17    2.05
   3   7   4    2.14    1.25
   3   7   5    8.32    3.26
   3   7   5   11.05    3.20
   3   7   6  286.82   23.72
  -3  -8   5   15.63    5.11
   3   8  -5   23.09    6.20
  -3  -8   5   15.30    5.17
  -3  -8   4  120.02   11.01
   3   8  -4  101.40   10.05
  -3  -8   4  122.43   11.79
   3   8  -3    4.97    2.09
  -3  -8   3    4.16    4.29
   3   8  -2   15.82    4.18
   3   8  -2   11.07    3.61
  -3  -8   2   21.58    6.96
   3   8  -1  118.40    9.17
   3   8  -1  130.47    9.77
  -3  -8   1  126.39   11.14
   3   8   0   43.88    8.90
   3   8   0   39.72    7.82
   3   8   1    4.54    2.39
   3   8   1    8.04    2.80
  -3  -8  -1   16.31    5.92
   3   8   2    5.76    4.66
   3   8   2   13.62    3.95
  -3  -8  -2   13.39    5.13
   4 -10  -3   26.83   11.81
  -4  10   3   41.93   10.15
   4 -10  -2    5.73    3.88
  -4  10   2    8.80    3.02
   4 -10  -1   34.46   14.68
  -4  10   1   45.38   11.07
   4 -10   0  138.43   13.78
  -4  10   0  137.41    9.75
   4 -10   1  107.50   12.83
  -4  10  -1  121.04    9.44
   4 -10   1   93.10    7.00
   4 -10   2   24.03    6.68
  -4  10  -2   17.85    4.18
   4 -10   2   10.37    3.13
   4 -10   3   41.37    8.57
  -4  10  -3   47.25   11.77
   4 -10   3   25.56    5.18
   4 -10   4   98.05    8.46
  -4  10  -4   87.30    6.78
   4 -10   4   91.32    7.16
  -4  10  -5   37.60    9.26
   4 -10   5   38.33    9.24
   4  -9  -7   54.85   14.87
  -4   9   7   53.14    5.99
   4  -9  -6   90.30   12.85
  -4   9   6   87.94    7.01
   4  -9  -5   18.79   10.46
  -4   9   5   18.78    5.27
   4  -9  -4   11.00    5.43
  -4   9   4    8.07    3.10
   4  -9  -3   73.91   18.63
  -4   9   3   80.81    6.76
  -4   9   2    0.56    2.12
   4  -9  -1   40.45   15.03
  -4   9   1   58.15   10.20
   4  -9   0  152.04    8.68
  -4   9   0  118.93    4.66
   4  -9   0  114.32    3.98
   4  -9   1   56.23   16.79
  -4   9  -1   58.59    6.11
   4  -9   1   51.01    5.18
   4  -9   2    0.69    2.10
   4  -9   2    0.31    1.05
   4  -9   3   78.22    6.10
  -4   9  -3   83.93    5.05
   4  -9   3   74.97    4.01
   4  -9   4  190.92    8.27
  -4   9  -4  185.71    5.88
   4  -9   4  181.23    6.00
   4  -9   5  121.74    9.77
  -4   9  -5  111.80    8.18
   4  -9   5   98.32    7.41
  -4   9  -6    5.09    2.49
   4  -9   6    6.67    3.09
  -4   9  -7   49.65   12.56
   4  -9   7   57.50   14.57
  -4   9  -8   49.35    4.42
   4  -9   8   50.21    5.42
   4  -8  -9    8.58    4.88
  -4   8   9    7.26    2.57
  -4   8   8   70.13    5.74
   4  -8  -8  100.16    9.42
  -4   8   8   74.13    6.06
  -4   8   7  137.60    9.15
   4  -8  -7  202.98   15.10
  -4   8   6  122.02    4.41
   4  -8  -6  130.27   12.72
  -4   8   6  114.99    4.64
  -4   8   5    0.76    0.92
   4  -8  -5    2.55    1.97
  -4   8   5    4.41    2.12
  -4   8   4  170.61    5.94
   4  -8  -4  209.59   18.06
  -4   8   3   31.37    2.75
   4  -8  -3   33.33    8.41
  -4   8   3   31.50    3.50
   4  -8  -2    6.47    2.53
  -4   8   2    5.59    2.69
   4  -8  -2    0.47    0.68
   4  -8  -1    7.01    2.42
  -4   8   1    1.15    2.36
   4  -8  -1    2.05    1.08
   4  -8   0   83.76   12.87
  -4   8   0   91.18    5.62
   4  -8   0   82.18    4.49
   4  -8   1    3.45    3.23
  -4   8  -1    4.24    2.58
   4  -8   1    1.90    1.00
   4  -8   2   17.18    5.00
  -4   8  -2   19.64    3.06
   4  -8   2   29.24    2.73
   4  -8   3  141.75    9.70
  -4   8  -3  140.77    8.40
   4  -8   3  130.59    7.91
   4  -8   4  151.60    9.66
  -4   8  -4  172.92    9.99
   4  -8   4  161.21    9.38
   4  -8   5   47.62    5.50
  -4   8  -5   50.63    5.34
   4  -8   5   54.82    5.34
  -4   8  -6    6.20    2.57
   4  -8   6    2.81    1.69
  -4   8  -7  115.82    4.71
   4  -8   7  106.22    5.26
  -4   8  -8  158.98   10.93
  -4   8  -8  162.76   10.74
   4  -8   8  180.47   12.57
  -4   8  -9   66.15    5.52
  -4   8  -9   73.48    5.51
   4  -8   9   46.77   14.23
  -4   8 -10    8.08    3.29
  -4   8 -10    1.81    1.45
   4  -8  10    3.93    1.61
  -4   7  11  142.93   12.51
   4  -7 -11  161.01   14.96
  -4   7  11  135.83   11.69
  -4   7  10   53.31   13.44
   4  -7 -10   34.38    9.42
  -4   7  10   45.88   11.69
  -4   7   9    7.23    2.71
   4  -7  -9   20.73    4.84
  -4   7   9    8.46    4.01
  -4   7   8  163.27    4.78
   4  -7  -8  178.49    8.36
  -4   7   8  171.14    5.73
  -4   7   7  176.92    6.89
   4  -7  -7  251.04   10.94
  -4   7   7  207.52    7.75
  -4   7   6   74.81    5.79
   4  -7  -6   91.03    8.00
  -4   7   6   86.37    6.40
  -4   7   5   22.86    2.42
   4  -7  -5   33.09    4.57
  -4   7   5   22.27    2.43
  -4   7   4  258.63   12.17
  -4   7   4  251.07   12.28
  -4   7   3  451.82   20.41
  -4   7   3  493.12   22.84
   4  -7  -3  437.60   19.61
  -4   7   2   82.93    3.45
  -4   7   2  119.60    5.72
   4  -7  -2  104.01    4.24
  -4   7   1  174.37    6.04
  -4   7   1  186.03    7.67
   4  -7  -1  183.10    6.73
  -4   7   0    1.16    0.56
   4  -7   0    2.25    1.66
  -4   7   0    4.32    2.89
   4  -7   0    0.99    0.80
   4  -7   1   53.02    6.58
  -4   7  -1   27.72    3.30
   4  -7   1   26.80    2.86
   4  -7   2   70.49   12.81
  -4   7  -2   67.26    4.12
   4  -7   2   52.47    4.16
   4  -7   3   27.31    4.41
  -4   7  -3   10.25    1.93
   4  -7   3   13.64    2.49
   4  -7   4    1.59    1.76
  -4   7  -4    0.82    1.93
   4  -7   4    6.83    2.14
  -4   7  -5    9.31    3.23
   4  -7   5   -0.23    1.22
  -4   7  -6   70.03    4.36
   4  -7   6   60.04    4.20
  -4   7  -7  119.94   13.50
   4  -7   7  134.81    8.77
  -4   7  -8  101.22    4.72
  -4   7  -8   89.84    7.60
   4  -7   8   88.07   15.60
  -4   7  -9   41.29    4.92
  -4   7  -9   22.88    2.98
   4  -7   9   27.22    5.40
  -4   7 -10    6.98    2.75
  -4   7 -10    0.73    0.86
   4  -7  10   11.00    4.05
  -4   7 -11   71.02    5.87
   4  -7  11   76.57    9.45
  -4   7 -12  113.21   10.10
   4  -7  12   98.46   11.86
  -4   6  12  109.28   10.21
   4  -6 -12  100.31   10.41
  -4   6  12   98.96    8.75
  -4   6  11  293.82   19.06
   4  -6 -11  316.35   69.22
  -4   6  11  310.03   67.33
  -4   6  10   36.71    7.01
   4  -6 -10   19.37    4.99
  -4   6  10   26.70    5.17
  -4   6   9   77.06    4.22
   4  -6  -9   83.11    5.75
  -4   6   9   75.87    3.89
  -4   6   8  305.20   16.38
   4  -6  -8  293.28   16.71
  -4   6   8  318.75   17.15
  -4   6   7  176.24    7.21
   4  -6  -7  199.61    9.73
  -4   6   7  191.31    7.88
  -4   6   6   15.48    2.59
   4  -6  -6    8.86    3.35
  -4   6   6   15.64    2.89
  -4   6   5  156.87    6.33
   4  -6  -5  141.15    7.21
  -4   6   4  378.71   15.14
   4  -6  -4  378.83   17.09
  -4   6   4  389.54   16.11
   4  -6  -4  320.67   12.39
  -4   6   3  369.60   14.01
   4  -6  -3  374.10   19.68
  -4   6   3  395.37   15.69
   4  -6  -3  346.49   12.82
  -4   6   2   18.19    1.73
   4  -6  -2   27.05    4.28
  -4   6   2   23.87    3.16
   4  -6  -2   16.30    1.42
  -4   6   1  179.53    7.09
   4  -6  -1  153.16    7.46
   4  -6  -1  202.53   19.06
  -4   6   1  183.97    8.10
   4  -6  -1  190.62    7.59
  -4   6   0  685.80   12.77
   4  -6   0  800.03   19.56
  -4   6   0  757.59   15.65
   4  -6   0  752.47   14.70
  -4   6  -1  437.60   16.05
  -4   6  -1  441.60   16.07
   4  -6   1  496.58   21.00
  -4   6  -1  490.06   18.96
   4  -6   1  402.74   15.25
   4  -6   2   33.83    7.44
  -4   6  -2   35.81    3.09
   4  -6   2   40.30    3.02
   4  -6   3    3.59    2.05
  -4   6  -3    2.31    1.80
   4  -6   3    1.89    1.03
   4  -6   4   86.20    5.81
  -4   6  -4   82.70    5.85
   4  -6   4   83.44    6.18
  -4   6  -5  271.22   11.35
   4  -6   5  248.75   11.07
  -4   6  -6   31.03    3.29
   4  -6   6   32.27    6.55
  -4   6  -7   36.51    3.82
   4  -6   7   39.04    5.96
  -4   6  -8    8.52    3.00
  -4   6  -8    7.77    2.24
   4  -6   8    2.70    1.45
  -4   6  -9   15.80    2.80
  -4   6  -9   16.80    2.58
   4  -6   9   16.70    2.96
  -4   6 -10   34.38    4.35
   4  -6  10   29.83    6.99
  -4   6 -11   44.89    7.15
   4  -6  11   40.88    8.76
  -4   6 -12   43.26   10.91
   4  -6  12   38.58   13.33
   4  -6  13    9.58    3.79
  -4   5  13   29.32    7.87
   4  -5 -13   19.10    5.54
  -4   5  12    8.28    3.50
   4  -5 -12    9.35    3.87
  -4   5  11    5.44    2.16
   4  -5 -11    2.89    2.43
  -4   5  10  229.60    8.55
   4  -5 -10  242.44    9.83
  -4   5   9   43.34    4.36
   4  -5  -9   57.94    6.10
  -4   5   8  761.18   34.36
   4  -5  -8  834.59   38.74
  -4   5   7    4.48    1.44
   4  -5  -7    8.21    3.48
  -4   5   6    2.46    1.25
   4  -5  -6    4.35    2.48
  -4   5   5  254.48   10.24
   4  -5  -5  257.39   11.69
  -4   5   4  326.89    7.59
   4  -5  -4  329.95    9.94
  -4   5   3  161.04    4.50
   4  -5  -3  170.56    9.32
  -4   5   3  166.57    5.20
   4  -5  -3  156.33    3.09
  -4   5   2   21.53    2.68
   4  -5  -2   33.23    6.81
  -4   5   2   14.53    2.45
   4  -5  -2   19.63    2.74
  -4   5   1  233.68    6.69
   4  -5  -1  213.15    6.42
   4  -5  -1  243.17    8.51
  -4   5   1  251.13    7.80
   4  -5  -1  212.00    6.45
  -4   5   1  217.38    6.26
  -4   5   0  437.12   11.51
  -4   5   0  506.49   13.16
   4  -5   0  549.25   16.82
  -4   5   0  537.15   14.81
   4  -5   0  478.79   14.28
  -4   5   0  439.37   11.78
  -4   5  -1  174.42    6.13
   4  -5   1  200.40   14.77
  -4   5  -1  189.62    6.06
   4  -5   1  174.79    5.70
  -4   5  -2   16.94    1.81
  -4   5  -2   16.02    1.68
   4  -5   2   18.72    3.78
  -4   5  -2   16.73    2.32
   4  -5   2   22.78    3.89
  -4   5  -3  386.33    9.67
   4  -5   3  482.19   14.57
  -4   5  -3  437.77   12.02
   4  -5   3  469.77   14.67
   4  -5   4  635.23   15.00
  -4   5  -4  704.39   13.98
   4  -5   4  671.84   16.17
  -4   5  -5    3.28    2.06
   4  -5   5    5.33    1.41
  -4   5  -6   15.08    1.60
   4  -5   6   17.73    3.05
  -4   5  -7   31.30    2.59
  -4   5  -7   35.79    2.46
   4  -5   7   30.52    4.43
  -4   5  -8  363.80   17.14
  -4   5  -8  313.54   14.24
   4  -5   8  360.58   18.60
  -4   5  -9  120.90    5.66
  -4   5  -9  110.30    4.37
   4  -5   9  120.35    7.15
  -4   5 -10  138.54    5.98
   4  -5  10  145.62   10.77
  -4   5 -11   31.69    3.98
   4  -5  11   27.04    7.98
  -4   5 -12    4.72    2.12
   4  -5  12    8.85    3.32
  -4   5 -13    2.00    1.72
   4  -5  13    5.06    1.67
  -4   4  14    6.35    2.89
   4  -4 -14    8.97    3.74
  -4   4  13   11.30    3.71
  -4   4  12   52.73    9.38
   4  -4 -12   60.73   11.42
  -4   4  11  103.75    5.48
   4  -4 -11   96.90    6.52
  -4   4  10  129.01    8.12
   4  -4 -10  152.32   10.07
  -4   4   9   17.29    3.57
   4  -4  -9   10.43    3.07
  -4   4   8   64.60    4.32
   4  -4  -8   56.21    4.77
  -4   4   7  734.17   27.67
   4  -4  -7  702.71   27.27
  -4   4   6   18.29    2.42
   4  -4  -6   30.05    3.92
  -4   4   5 1096.63   21.61
   4  -4  -5 1066.40   21.89
  -4   4   4   71.89    7.62
   4  -4  -4   74.28    8.16
  -4   4   3  162.89    7.39
   4  -4  -3  161.07    8.05
  -4   4   2   61.44    5.38
   4  -4  -2   72.89   11.84
   4  -4  -2   59.92    4.89
  -4   4   2   57.31    4.72
  -4   4   1  188.73    7.95
  -4   4   1  205.16    8.65
   4  -4  -1  209.28   12.84
   4  -4  -1  205.88    8.57
  -4   4   1  192.53    7.92
  -4   4   0  315.63   12.83
  -4   4   0  350.68   14.19
   4  -4   0  354.03   15.53
  -4   4   0  353.83   14.63
   4  -4   0  331.68   13.68
  -4   4   0  298.87   12.07
  -4   4  -1   48.01    4.12
  -4   4  -1   54.32    4.66
   4  -4   1   75.83   11.12
  -4   4  -1   61.49    5.54
   4  -4   1   56.55    5.69
  -4   4  -1   52.01    4.50
  -4   4  -2    4.76    0.96
  -4   4  -2    8.22    1.21
   4  -4   2    4.88    1.65
  -4   4  -2    4.57    1.22
   4  -4   2   10.92    1.61
  -4   4  -3  168.90    6.93
  -4   4  -3  175.71    7.38
   4  -4   3  179.38    8.43
  -4   4  -3  166.90    7.34
   4  -4   3  162.69    7.36
  -4   4  -4  204.22    5.52
  -4   4  -4  217.09    6.13
  -4   4  -4  214.83    6.37
   4  -4   4  214.03    6.89
   4  -4   5   24.26    2.75
  -4   4  -5   23.89    2.57
  -4   4  -5   22.52    2.70
   4  -4   5   25.05    4.28
   4  -4   6   72.50    4.83
  -4   4  -6   71.09    5.29
  -4   4  -6   73.08    4.93
   4  -4   6   84.51    6.54
   4  -4   7  334.96   12.57
  -4   4  -7  355.12   14.18
  -4   4  -7  337.65   12.72
   4  -4   7  347.54   17.54
   4  -4   8    6.65    1.86
  -4   4  -8    9.54    1.77
  -4   4  -8   11.05    1.27
   4  -4   8   14.84    3.27
   4  -4   9   16.87    5.60
  -4   4  -9   35.07    4.05
  -4   4  -9   28.67    2.83
   4  -4   9   32.62    7.05
   4  -4  10    0.47    0.72
  -4   4 -10    3.64    1.86
   4  -4  10    1.62    1.14
  -4   4 -11  176.62    6.83
   4  -4  11  159.82   11.84
  -4   4 -12  117.74    4.81
   4  -4  12  104.24    7.10
  -4   4 -13  155.98   10.80
   4  -4  13  159.04   15.57
  -4   4 -14   69.13    6.64
   4  -4  14   45.49   18.29
  -4   3  14  123.20    8.97
   4  -3 -14  108.39    9.24
  -4   3  13   26.06    4.83
   4  -3 -13   25.87    5.45
  -4   3  12    7.92    2.62
   4  -3 -12    5.20    3.05
  -4   3  11   36.64    3.55
   4  -3 -11   41.25    4.86
  -4   3  10   20.87    2.82
   4  -3 -10   30.00    4.30
  -4   3   9    3.82    2.41
   4  -3  -9    0.62    1.99
  -4   3   8   37.81    3.63
   4  -3  -8   31.09    3.17
  -4   3   7  220.40    6.18
   4  -3  -7  234.49    7.19
  -4   3   6   69.75    7.26
   4  -3  -6   76.85    8.37
  -4   3   5  497.78   13.87
   4  -3  -5  481.08   14.18
  -4   3   4 1003.74   40.05
   4  -3  -4  912.12   36.71
  -4   3   3  462.42   11.87
   4  -3  -3  417.46   11.45
  -4   3   2  928.52   22.21
   4  -3  -2  983.74   24.59
  -4   3   1   27.85    2.16
   4  -3  -1   34.87    4.83
  -4   3   1   29.73    1.68
  -4   3   0  405.71   10.50
  -4   3   0  440.90   11.09
   4  -3   0  431.64   12.92
   4  -3   0  421.18   10.24
  -4   3   0  422.08   10.19
  -4   3  -1    5.26    1.35
  -4   3  -1    5.31    1.06
   4  -3   1    3.04    1.40
   4  -3   1    7.95    1.91
  -4   3  -1    6.41    0.91
  -4   3  -2   23.02    2.36
  -4   3  -2   24.10    1.85
   4  -3   2   26.20    2.30
  -4   3  -2   30.99    2.19
   4  -3   2   27.64    4.15
   4  -3   3  223.38    9.36
  -4   3  -3  204.07    8.44
  -4   3  -3  225.41    9.33
   4  -3   3  201.64    8.77
   4  -3   4  177.04    8.76
  -4   3  -4  171.23    7.19
  -4   3  -4  149.37    7.13
  -4   3  -4  184.49    7.75
   4  -3   4  176.29    7.85
   4  -3   5   70.24    7.21
  -4   3  -5   69.29    6.94
  -4   3  -5   72.11    7.42
  -4   3  -5   57.21    5.76
  -4   3  -5   72.57    7.21
   4  -3   5   92.05    9.70
   4  -3   6    1.99    1.54
  -4   3  -6    1.78    1.25
  -4   3  -6    0.15    0.37
  -4   3  -6    2.12    1.09
   4  -3   6   -0.46    1.22
   4  -3   7   40.78    4.53
  -4   3  -7   41.49    3.10
  -4   3  -7   27.40    2.84
  -4   3  -7   38.95    2.11
   4  -3   7   48.36    9.01
   4  -3   8   25.30    5.75
  -4   3  -8   26.33    2.62
  -4   3  -8   31.82    1.47
   4  -3   8   34.65    6.54
   4  -3   9    4.15    1.75
  -4   3  -9    4.14    1.59
   4  -3   9    7.78    2.84
   4  -3  10   57.46    4.04
  -4   3 -10   58.81    4.22
   4  -3  10   62.14    7.97
   4  -3  11    1.55    1.40
  -4   3 -11    3.43    1.57
   4  -3  12    9.64    1.99
  -4   3 -12    9.52    2.06
  -4   3 -13   11.68    3.16
   4  -3  13    6.55    3.11
  -4   3 -14   37.77    7.43
   4  -3  14   22.77   10.43
  -4   2  14  149.12   11.08
   4  -2 -14  144.52   10.71
   4  -2 -14  113.95    8.71
  -4   2  13   23.40    5.52
   4  -2 -13   14.62    4.23
  -4   2  12  245.51    9.27
   4  -2 -12  237.43    9.06
   4  -2 -12  230.34    9.10
  -4   2  11  371.74   19.78
   4  -2 -11  353.67   19.00
   4  -2 -11  389.99   21.05
  -4   2  10  181.20    9.44
   4  -2 -10  196.75   10.50
   4  -2 -10  197.69   10.61
  -4   2   9    5.19    2.08
   4  -2  -9    8.78    2.74
   4  -2  -9    9.86    2.74
  -4   2   9    3.36    1.21
  -4   2   8   72.41    4.86
   4  -2  -8   75.21    5.46
   4  -2  -8   73.03    5.09
  -4   2   8   57.61    2.76
  -4   2   7  211.32    6.14
   4  -2  -7  237.21    6.90
   4  -2  -7  239.17    6.96
  -4   2   6  102.59    4.49
   4  -2  -6  116.91    4.70
   4  -2  -6  107.95    4.95
  -4   2   5   79.53    7.02
   4  -2  -5   88.60    7.81
   4  -2  -5   81.17    7.23
  -4   2   4   90.29    7.88
   4  -2  -4   87.97    7.80
  -4   2   4   86.84    6.95
  -4   2   4   84.35    6.75
  -4   2   3   85.38    5.02
   4  -2  -3   77.21    4.46
   4  -2  -3   81.16    4.77
  -4   2   3   75.85    3.42
  -4   2   3   79.06    3.61
  -4   2   2 2186.33   50.73
   4  -2  -2 2334.48   55.45
  -4   2   2 2027.48   46.82
   4  -2  -2 2160.60   50.24
  -4   2   2 2025.33   46.17
  -4   2   1  421.98    8.57
   4  -2  -1  422.05    9.40
  -4   2   1  369.90    7.29
   4  -2  -1  412.97    8.63
  -4   2   1  392.74    7.66
  -4   2   0  939.84   16.67
   4  -2   0  963.00   18.84
  -4   2   0  870.89   15.34
   4  -2   0  981.03   18.77
  -4   2   0  919.46   15.68
   4  -2   1  473.51   11.80
  -4   2  -1  395.09   10.49
  -4   2  -1  436.40   10.94
   4  -2   2   16.15    1.94
  -4   2  -2   13.26    2.02
   4  -2   2   13.47    1.50
   4  -2   3  255.16    7.21
  -4   2  -3  216.74    6.84
   4  -2   3  230.34    6.51
   4  -2   4   57.71    7.53
  -4   2  -4   53.37    4.73
  -4   2  -4   42.84    3.79
  -4   2  -4   59.69    5.01
   4  -2   4   45.92    4.36
   4  -2   5    8.40    1.57
  -4   2  -5    3.24    1.05
  -4   2  -5    3.50    0.84
  -4   2  -5    4.01    0.69
   4  -2   5    3.70    1.17
   4  -2   6   35.03    5.54
  -4   2  -6   29.52    3.48
  -4   2  -6   24.95    2.54
  -4   2  -6   30.14    3.08
   4  -2   6   37.99    5.02
   4  -2   7  133.75    6.87
  -4   2  -7  134.00    6.81
   4  -2   7  124.42    8.61
   4  -2   8  116.19    6.67
  -4   2  -8  115.13    5.79
   4  -2   8  116.91    6.17
   4  -2   9   62.57    3.71
  -4   2  -9   67.17    3.61
   4  -2   9   86.93    4.79
   4  -2  10    4.33    1.66
  -4   2 -10    6.18    2.79
   4  -2  11    4.14    1.47
  -4   2 -11    6.66    2.08
   4  -2  11    3.97    1.73
   4  -2  12   16.37    4.21
  -4   2 -12   16.02    3.12
   4  -2  12   15.80    3.33
   4  -2  13    2.47    1.88
  -4   2 -13    4.22    2.51
   4  -2  13    0.73    1.70
   4  -2  14    4.59    2.42
  -4   2 -14    6.75    2.64
   4  -2  14    7.34    3.15
  -4   1  15    8.54    3.29
   4  -1 -15    1.72    1.58
   4  -1 -15    9.52    3.06
   4  -1 -14  101.56    7.89
   4  -1 -14  103.76    8.06
   4  -1 -13   77.96    4.77
   4  -1 -13   81.16    4.80
  -4   1  12   12.65    2.77
   4  -1 -12    7.66    2.04
   4  -1 -12   14.49    3.04
  -4   1  11  322.92   12.16
   4  -1 -11  316.61   12.06
   4  -1 -11  331.48   14.40
  -4   1  10   10.06    3.25
   4  -1 -10    3.44    1.96
   4  -1 -10    3.94    1.37
  -4   1  10    4.31    1.08
  -4   1   9  139.69    7.05
   4  -1  -9  155.18    8.04
   4  -1  -9  132.60    8.91
  -4   1   9  130.97    5.67
  -4   1   8  480.73   18.71
   4  -1  -8  451.63   17.43
   4  -1  -8  517.93   21.16
  -4   1   8  475.49   17.54
  -4   1   7  487.81   11.05
   4  -1  -7  518.27   11.31
   4  -1  -7  488.64   11.52
  -4   1   7  464.26    9.03
  -4   1   6  129.08    5.17
   4  -1  -6  117.64    4.69
   4  -1  -6  101.64    6.52
  -4   1   6  112.41    3.40
  -4   1   5   10.64    1.97
   4  -1  -5   16.77    2.16
   4  -1  -5   15.78    2.58
  -4   1   5   12.15    1.48
  -4   1   4  497.78   13.01
   4  -1  -4  465.06   11.60
  -4   1   4  439.44   10.74
   4  -1  -4  483.24   18.22
  -4   1   4  476.33   11.50
  -4   1   3  468.22   12.40
   4  -1  -3  471.03   11.72
  -4   1   3  430.88   10.40
   4  -1  -3  459.55   14.63
  -4   1   2  947.27   23.07
   4  -1  -2 1059.01   25.27
  -4   1   2  923.15   21.54
   4  -1  -2  941.70   23.81
  -4   1   2  849.98   19.79
  -4   1   1   55.86    3.78
   4  -1  -1   57.07    3.14
  -4   1   1   54.56    2.85
   4  -1  -1   52.01    5.37
  -4   1   1   50.98    2.66
   4  -1   0    5.33    1.64
   4  -1   0    1.56    0.70
  -4   1   0    1.44    0.62
   4  -1   0    0.64    0.83
  -4   1   0    0.88    0.49
   4  -1   1 3313.81  263.42
  -4   1  -1 2821.72  224.25
   4  -1   1 3024.66  240.40
   4  -1   2   12.66    3.34
  -4   1  -2    9.34    1.52
  -4   1  -2   12.17    1.17
   4  -1   2   13.13    1.60
  -4   1  -2   10.05    0.98
   4  -1   3  434.67   12.75
  -4   1  -3  419.02   10.26
  -4   1  -3  439.84   10.60
   4  -1   4  103.39   10.68
  -4   1  -4  111.53    5.00
  -4   1  -4  111.98    4.69
   4  -1   5  101.37    3.88
  -4   1  -5  101.03    3.63
  -4   1  -5   90.22    8.79
  -4   1  -5   97.42    2.78
   4  -1   6   12.65    4.94
  -4   1  -6   16.58    1.78
   4  -1   6   14.74    2.64
   4  -1   7   16.61    2.70
  -4   1  -7   13.46    1.73
   4  -1   7   18.98    2.59
   4  -1   8   11.81    2.57
  -4   1  -8    8.20    1.64
   4  -1   8   10.94    2.16
   4  -1   9    5.24    2.04
  -4   1  -9    1.19    1.36
   4  -1  10   34.61    3.71
  -4   1 -10   34.50    3.16
   4  -1  10   24.91    3.23
  -4   1 -11   53.72    5.11
   4  -1  11   46.24    4.87
   4  -1  12   76.17    4.64
  -4   1 -12   74.94    4.05
   4  -1  12   77.16    4.70
   4  -1  13   28.03    7.51
  -4   1 -13   36.46    9.45
   4  -1  13   36.99    9.73
   4  -1  14    9.75    3.32
  -4   1 -14    2.75    1.76
  -4   0  15   35.66    8.75
   4   0 -15   25.49    6.82
   4   0 -15   28.28    7.20
  -4   0  14    6.43    3.72
   4   0 -14    8.54    2.83
   4   0 -14    4.13    2.31
  -4   0  13   19.18    4.74
   4   0 -13   12.14    3.43
   4   0 -13   16.87    7.49
  -4   0  12   26.19    3.96
   4   0 -12   17.07    3.18
   4   0 -12   13.46    4.68
  -4   0  11  101.76    7.69
   4   0 -11   88.60    6.88
   4   0 -11   81.07    8.96
  -4   0  11   81.93    5.71
   4   0 -10   65.37    6.38
   4   0 -10   69.78   14.97
  -4   0  10   71.49   12.65
  -4   0   9  189.77    8.88
   4   0  -9  187.57    8.47
   4   0  -9  165.97   12.55
  -4   0   9  167.24    7.13
  -4   0   8  357.11   14.40
   4   0  -8  333.53   13.15
   4   0  -8  361.00   15.95
  -4   0   8  327.24   12.51
  -4   0   7   56.27    5.00
   4   0  -7   72.59    5.19
   4   0  -7   80.33    7.43
  -4   0   7   72.70    5.01
  -4   0   6    6.86    1.99
   4   0  -6    5.87    1.43
   4   0  -6    7.63    1.65
  -4   0   6    4.54    1.01
  -4   0   5  221.79    9.93
   4   0  -5  210.22    8.90
  -4   0   5  201.04    8.25
  -4   0   5  210.59    8.94
  -4   0   4  532.05   21.91
   4   0  -4  492.10   19.65
  -4   0   4  505.55   20.02
   4   0  -4  489.53   22.20
  -4   0   4  494.70   20.00
  -4   0   3  227.45    7.30
   4   0  -3  211.65    6.20
  -4   0   3  224.43    5.47
   4   0  -3  204.85    7.88
  -4   0   2   15.88    2.23
   4   0  -2   24.84    2.23
  -4   0   2   23.32    1.22
   4   0  -2   28.42    3.43
   4   0  -1  325.86    9.85
   4   0   0  536.28   13.70
  -4   0   0  483.96   11.35
  -4   0   0  503.85   11.67
   4   0   0  508.14   13.54
   4   0   1 1517.01   35.85
  -4   0  -1 1450.82   33.49
  -4   0  -1 1525.98   34.85
   4   0   1 1503.66   35.18
   4   0   2  477.46   12.45
  -4   0  -2  435.09   10.78
  -4   0  -2  479.84   11.36
   4   0   2  488.90   12.23
  -4   0  -2  476.57   11.47
   4   0   3  114.28    6.06
  -4   0  -3  100.06    8.28
  -4   0  -3  102.76   10.10
   4   0   3   96.06    8.44
  -4   0  -3   97.63    7.96
   4   0   4 1378.74  133.40
  -4   0  -4 1320.15  127.46
   4   0   4 1295.21   50.90
  -4   0  -4 1245.78   48.86
   4   0   5  304.90    9.58
  -4   0  -5  263.47    7.58
  -4   0  -5  269.32    6.94
   4   0   6   32.00    6.26
  -4   0  -6   39.56    3.11
   4   0   7   65.34    5.25
  -4   0  -7   64.69    3.83
   4   0   8  103.18    6.53
  -4   0  -8   98.42    5.03
   4   0   9   13.85    2.59
  -4   0  -9   15.82    2.44
   4   0  10    7.18    2.79
  -4   0 -10    7.45    2.07
   4   0  11    6.47    3.22
  -4   0 -11    3.07    1.93
   4   0  12    6.64    2.89
  -4   0 -12    3.51    2.07
   4   0  13    7.41    2.85
  -4  -1  14   10.73    3.87
   4   1 -14    4.15    1.95
   4   1 -14    5.91    2.30
   4   1 -13    5.25    2.11
   4   1 -13    2.06    1.18
  -4  -1  12   48.37    5.58
   4   1 -12   40.95    4.44
   4   1 -12   25.20   10.40
  -4  -1  12   37.59    4.05
  -4  -1  11    7.48    2.50
   4   1 -11   10.32    2.52
   4   1 -11    7.86    2.67
  -4  -1  11    2.46    0.96
  -4  -1  10   71.35    5.27
   4   1 -10   68.83    4.33
   4   1 -10   68.83    6.03
  -4  -1  10   78.17    4.57
  -4  -1   9   25.19    3.61
   4   1  -9   17.91    2.45
   4   1  -9   15.53    5.31
  -4  -1   9   19.53    2.31
  -4  -1   8  119.92    6.55
   4   1  -8  107.78    5.27
   4   1  -8  102.60    8.24
  -4  -1   8  106.40    5.18
   4   1  -7  108.44    5.62
   4   1  -7   96.51    6.58
  -4  -1   7   96.97    5.39
  -4  -1   6 1085.72   22.00
   4   1  -6 1067.44   19.98
  -4  -1   6  953.63   17.57
   4   1  -6 1031.29   22.77
  -4  -1   6 1068.97   20.76
  -4  -1   5  131.17    5.33
   4   1  -5  130.01    3.96
  -4  -1   5  131.16    3.73
   4   1  -5  132.46    6.84
  -4  -1   5  143.48    5.65
  -4  -1   4   96.31    8.70
   4   1  -4   90.33    7.34
   4   1  -4   76.63    7.06
  -4  -1   4   89.06    7.85
  -4  -1   3   56.85    5.71
   4   1  -3   44.48    4.18
  -4  -1   3   56.91    5.48
  -4  -1   2   10.45    2.74
   4   1  -2    5.28    1.45
   4   1  -1  145.57    7.41
   4   1  -1  116.50    5.89
   4   1   0   99.25    8.42
   4   1   1  106.60   14.47
  -4  -1  -1   90.00    7.24
   4   1   1   95.75    8.28
   4   1   2   40.15    9.02
  -4  -1  -2   35.97    3.82
  -4  -1  -2   43.55    3.66
   4   1   2   48.27    5.83
   4   1   3  168.43    7.99
  -4  -1  -3  170.54    4.90
   4   1   3  167.55    5.51
  -4  -1  -3  156.36    4.54
   4   1   4  848.36   25.00
  -4  -1  -4  846.62   21.82
   4   1   4  842.71   21.59
  -4  -1  -4  698.39   17.73
   4   1   5  602.93   13.37
  -4  -1  -5  614.17   12.23
   4   1   5  613.05   11.61
  -4  -1  -5  549.77   10.22
   4   1   7  331.59   14.50
  -4  -1  -7  337.04   13.83
   4   1   8  259.27   13.87
  -4  -1  -8  275.18   13.03
   4   1   9   -0.88    1.70
  -4  -1  -9    1.99    1.25
   4   1  10   83.90    8.09
  -4  -1 -10   81.51    7.18
   4   1  11   24.35    5.00
  -4  -1 -11   28.64    5.50
   4   1  12   22.28    4.34
  -4  -1 -12   29.46    5.18
   4   1  13   17.38    4.50
  -4  -1 -13   22.29    4.88
  -4  -2  14   29.93    7.62
   4   2 -14   31.80    7.64
   4   2 -14   13.72    7.12
  -4  -2  13    0.22    1.91
   4   2 -13    2.31    1.13
   4   2 -13    2.40    1.37
  -4  -2  13    3.42    1.51
  -4  -2  12   11.68    3.99
   4   2 -12   10.23    2.68
   4   2 -12    5.19    3.30
  -4  -2  12   17.83    3.76
  -4  -2  11   25.64    3.84
   4   2 -11   21.98    2.89
   4   2 -11   14.52    4.10
  -4  -2  11   23.34    3.08
  -4  -2  10   44.45    4.53
   4   2 -10   52.76    4.38
   4   2 -10   36.24    9.07
  -4  -2  10   43.88    3.84
  -4  -2   9    8.34    3.48
   4   2  -9    6.03    1.28
   4   2  -9    6.56    3.09
  -4  -2   9    5.88    1.74
  -4  -2   8    1.31    2.16
   4   2  -8    1.42    0.84
   4   2  -8    3.64    1.93
  -4  -2   8    5.50    2.06
  -4  -2   7  118.98    6.72
   4   2  -7  112.07    4.95
   4   2  -7  109.75    7.52
  -4  -2   7  127.28    6.44
  -4  -2   6   28.83    3.26
   4   2  -6   15.90    1.24
   4   2  -6   22.90    2.32
  -4  -2   6   27.21    3.23
  -4  -2   5  203.37    6.63
   4   2  -5  182.78    3.89
   4   2  -5  181.32    3.75
   4   2  -5  223.66    6.80
  -4  -2   5  207.94    6.31
   4   2  -4  343.42    9.06
  -4  -2   4  359.17    9.06
  -4  -2   3 1764.68   45.77
   4   2  -3 1904.20   48.82
  -4  -2   3 1930.04  117.29
   4   2  -2   18.63    3.59
   4   2  -2   10.50    2.04
   4   2  -1    3.00    1.88
   4   2  -1    3.48    1.77
   4   2   0   79.46    8.63
   4   2   0   77.25    7.87
   4   2   1  181.59   13.27
   4   2   1  201.29    6.37
   4   2   2   19.35    4.66
  -4  -2  -2   17.41    1.44
   4   2   2   29.53    2.90
  -4  -2  -3    0.66    0.47
   4   2   3    0.41    0.75
   4   2   4   47.00    7.58
  -4  -2  -4   61.23    3.58
   4   2   4   42.64    2.40
   4   2   4   52.59    3.04
   4   2   5    5.38    2.62
  -4  -2  -5    1.58    0.71
   4   2   5    3.23    0.78
   4   2   6    4.47    3.36
  -4  -2  -6    4.83    1.23
   4   2   6    0.98    0.47
   4   2   7  199.71   12.80
  -4  -2  -7  207.11   10.15
   4   2   8  332.67   18.54
  -4  -2  -8  336.21   11.82
   4   2   9  392.76   13.56
  -4  -2  -9  355.76   11.40
   4   2  10   21.20    3.70
  -4  -2 -10   32.65    4.04
   4   2  11   72.65    6.70
  -4  -2 -11   87.01    6.94
   4   2  12    8.56    3.73
  -4  -2 -12    6.30    2.45
  -4  -3  13    4.01    2.80
   4   3 -13    1.34    1.40
  -4  -3  13    2.94    1.85
  -4  -3  12   36.76    6.01
   4   3 -12   22.91   10.28
  -4  -3  12   45.30    6.92
  -4  -3  11   94.66    4.63
   4   3 -11   84.66    4.25
  -4  -3  11   85.51    4.16
  -4  -3  10   82.39    7.48
   4   3 -10   79.91    8.49
  -4  -3  10  106.06    5.20
  -4  -3   9    4.82    2.85
   4   3  -9    0.39    0.63
   4   3  -9    2.05    1.62
  -4  -3   9    2.89    1.34
  -4  -3   8   15.04    3.67
   4   3  -8   13.05    2.65
   4   3  -8   16.19    4.14
  -4  -3   8    8.02    2.29
  -4  -3   7  158.63    8.78
   4   3  -7  148.84    6.98
   4   3  -7  172.26    9.56
  -4  -3   7  168.85    8.96
  -4  -3   6   22.46    3.97
   4   3  -6   19.24    1.55
   4   3  -6   21.44    3.06
  -4  -3   6   17.99    2.50
  -4  -3   5   45.12    4.17
   4   3  -5   45.32    3.64
  -4  -3   5   41.06    4.00
  -4  -3   4   45.65    4.27
   4   3  -4   48.83    4.33
  -4  -3   4   42.43    4.23
  -4  -3   3   44.56    4.46
   4   3  -3   44.45    3.72
  -4  -3   3   49.84    5.02
   4   3  -2  175.43    8.51
   4   3  -2  187.05    8.77
  -4  -3   2  185.80    9.00
   4   3  -1  579.71   22.59
   4   3  -1  531.25   20.28
   4   3   0 1000.88   37.69
   4   3   0  908.41   33.63
   4   3   1  169.23    9.80
   4   3   1  158.58    8.13
   4   3   2   54.49   11.42
  -4  -3  -2   51.40    2.72
   4   3   2   56.92    3.66
   4   3   3    2.89    2.99
  -4  -3  -3    2.11    0.71
   4   3   3    5.08    1.06
   4   3   4  190.72    8.39
  -4  -3  -4  198.62    7.15
   4   3   4  175.81    6.38
   4   3   5   99.28   16.58
  -4  -3  -5  107.68    5.74
   4   3   5  117.19    5.76
  -4  -3  -6   62.59    3.84
   4   3   7    3.26    2.51
  -4  -3  -7    2.47    1.79
   4   3   8    1.07    2.98
  -4  -3  -8    3.98    1.63
   4   3   9    3.07    2.15
  -4  -3  -9   11.73    3.15
   4   3  10   14.83    5.71
  -4  -3 -10    4.23    1.87
   4   3  11   74.39    6.49
  -4  -3 -11   77.24    6.41
  -4  -4  12    6.34    2.50
   4   4 -12    3.11    1.91
  -4  -4  12   10.38    3.28
  -4  -4  11   40.51   10.47
   4   4 -11   22.42   10.90
  -4  -4  11   37.76    9.67
  -4  -4  10   93.12    5.07
   4   4 -10   94.50    5.37
  -4  -4  10   98.41    4.98
  -4  -4   9    5.72    2.77
   4   4  -9    5.72    2.73
  -4  -4   9    9.95    2.97
  -4  -4   8   75.99    7.62
   4   4  -8   63.78    6.19
  -4  -4   8   68.45    6.70
  -4  -4   7  226.20   12.97
   4   4  -7  251.55   14.30
  -4  -4   7  245.13   14.10
  -4  -4   6   62.50    4.77
   4   4  -6   66.00    4.59
  -4  -4   6   65.15    5.59
  -4  -4   5   13.08    3.01
   4   4  -5   10.93    3.02
  -4  -4   5    2.21    2.28
  -4  -4   4  174.36    9.89
   4   4  -4  167.62    8.80
  -4  -4   4  167.69    9.79
   4   4  -3  101.91    5.05
  -4  -4   3  122.19    6.56
   4   4  -2  228.89    9.42
   4   4  -2  218.71    8.44
  -4  -4   2  225.80    9.99
   4   4  -1   15.24    3.29
   4   4  -1   17.16    2.49
   4   4   0   70.80   12.31
   4   4   0   78.14    3.95
   4   4   1   59.71    7.62
   4   4   1   58.19    4.73
   4   4   2  596.12   29.88
   4   4   2  568.79   25.76
   4   4   3  236.76   17.05
   4   4   3  233.52   11.21
   4   4   4  113.92   16.50
   4   4   4  126.43    5.06
   4   4   5   89.28    8.30
   4   4   5   89.75    6.19
   4   4   6   21.26    5.31
   4   4   7   48.18    9.61
   4   4   8   70.90    7.38
   4   4  10   10.32    5.19
  -4  -5  11   79.61    7.69
   4   5 -11   81.43    7.94
  -4  -5  11   77.93    7.90
  -4  -5  10   90.44    7.48
   4   5 -10   94.19    8.11
  -4  -5  10   89.89    7.25
  -4  -5   9    7.58    3.51
   4   5  -9    3.67    2.14
  -4  -5   9    6.50    3.14
  -4  -5   8   16.66    5.30
   4   5  -8    9.55    3.47
  -4  -5   8   14.45    4.50
  -4  -5   7  177.77    6.41
  -4  -5   7  189.56    6.96
  -4  -5   6   18.27    3.68
   4   5  -6   26.60    3.72
  -4  -5   6   22.47    4.27
  -4  -5   5    5.39    3.56
   4   5  -5    2.23    1.76
  -4  -5   5    9.37    3.30
  -4  -5   4  184.15   11.20
   4   5  -4  168.74    9.92
  -4  -5   4  171.83   10.88
   4   5  -3  127.30    7.82
  -4  -5   3  104.28    8.90
   4   5  -2   74.05    6.58
   4   5  -2   72.77    6.17
  -4  -5   2   82.75    7.36
   4   5  -1   49.96    5.45
   4   5  -1   43.00    3.90
  -4  -5   1   36.76    5.16
   4   5   0  146.87    9.54
   4   5   0  127.88    8.05
   4   5   1  291.61   16.38
   4   5   1  286.69   15.46
   4   5   2  110.82   10.66
   4   5   2  117.94    8.29
   4   5   3  234.15   10.49
   4   5   3  217.78    7.68
   4   5   4    6.35    2.71
   4   5   4    0.77    0.89
   4   5   5  408.61   14.64
   4   5   6   12.91    6.42
   4   5   7   27.39   10.81
   4   5   8   16.02    8.47
  -4  -6   9    2.58    2.03
   4   6  -9    4.97    3.14
  -4  -6   9    5.89    2.70
  -4  -6   8  116.79    9.09
   4   6  -8  135.11   10.86
  -4  -6   8  121.07    9.49
  -4  -6   7   59.23   15.09
   4   6  -7   68.17    5.95
  -4  -6   7   52.45   13.77
  -4  -6   6   12.54    3.78
   4   6  -6   22.03    4.53
  -4  -6   6   11.54    4.02
  -4  -6   5    5.04    2.83
  -4  -6   5    9.43    4.13
  -4  -6   4  147.21    6.96
   4   6  -4  133.81    6.29
  -4  -6   4  142.92    6.94
   4   6  -3   57.41   10.19
  -4  -6   3   48.29    9.18
   4   6  -2   38.41    7.74
   4   6  -2   37.34    6.97
  -4  -6   2   30.31    6.94
   4   6  -1   22.02    5.06
   4   6  -1   40.09    7.59
  -4  -6   1   40.73    8.80
   4   6   0   68.99   17.10
   4   6   0   71.85   17.23
  -4  -6   0   85.57    6.72
   4   6   1   69.02   20.29
   4   6   1   93.41    4.13
   4   6   2    5.12    2.43
   4   6   2   -1.14    1.18
   4   6   3   25.85   13.18
   4   6   3   46.13    8.10
   4   6   4  135.54   15.06
   4   6   4  136.49    9.32
   4   6   5   90.44    9.89
   4   6   6  232.66   19.60
  -4  -7   5   69.51    7.60
   4   7  -5   66.67    6.58
  -4  -7   5   77.34    8.47
  -4  -7   4   55.24    6.28
   4   7  -4   44.79    8.95
  -4  -7   4   46.61   11.80
  -4  -7   3    8.34    4.15
   4   7  -3   11.32    3.58
  -4  -7   3   15.61    4.90
   4   7  -2   43.07    8.59
   4   7  -2   44.13    8.57
  -4  -7   2   42.30    8.86
   4   7  -1   27.96    6.19
   4   7  -1   26.88    5.55
  -4  -7   1   26.72    7.04
   4   7   0   24.85    5.86
   4   7   0   26.74    5.72
  -4  -7   0   41.75    9.19
   4   7   1   57.69    7.06
   4   7   1   55.62    5.76
  -4  -7  -1   43.61   11.19
   4   7   2    5.14    2.21
   4   7   2    0.76    1.37
  -4  -7  -2   12.18    6.62
   5 -10  -1    4.17    2.53
  -5  10   1    1.36    2.48
   5 -10   0   85.27   18.29
  -5  10   0   88.83    8.48
   5 -10   1  114.73   16.54
  -5  10  -1  110.61   10.18
   5 -10   2  149.97   14.36
  -5  10  -2  156.82   13.31
   5 -10   3   33.78    8.82
  -5  10  -3   46.82   11.19
   5  -9  -6   26.62   14.62
  -5   9   6   36.65    8.71
   5  -9  -5    6.94    4.53
  -5   9   5    6.74    2.69
   5  -9  -4    9.60    4.19
  -5   9   4   12.70    3.78
  -5   9   3  302.84   19.80
  -5   9   2  204.33   13.88
  -5   9   1   74.36    6.62
  -5   9   0   14.04    3.22
  -5   9  -1   19.16    3.85
   5  -9   2   43.11    7.61
  -5   9  -2   42.26    6.77
   5  -9   2   39.24    5.91
   5  -9   3   23.47    4.68
  -5   9  -3   12.66    3.04
   5  -9   3   14.86    2.91
   5  -9   4   53.82   14.04
  -5   9  -4   60.41   13.67
   5  -9   4   42.92   10.77
  -5   9  -5  195.70   13.33
   5  -9   5  165.85   12.61
  -5   9  -6  143.12    9.95
   5  -9   6  109.40   10.47
  -5   9  -7   11.81    3.67
   5  -9   7    9.51    4.95
  -5   8   8    3.16    1.77
   5  -8  -8   -2.91    2.46
  -5   8   8    2.39    2.62
  -5   8   7    6.19    2.07
   5  -8  -7   16.38    6.66
  -5   8   7    9.16    3.28
  -5   8   6   46.87    8.03
   5  -8  -6   43.62   13.13
  -5   8   6   42.07    6.59
  -5   8   5   26.40    4.85
   5  -8  -5   10.48    4.33
  -5   8   5   39.03    7.38
   5  -8  -4   17.16    7.42
  -5   8   4   12.42    3.48
   5  -8  -3   27.44    8.20
  -5   8   3   40.15    4.56
   5  -8  -2   35.31    8.43
  -5   8   2   41.17    4.29
   5  -8  -1   10.41    3.62
  -5   8   1    7.31    2.24
   5  -8   0  279.89   11.84
  -5   8   0  301.96   10.19
   5  -8   1  525.61   19.72
  -5   8  -1  537.34   16.61
   5  -8   1  515.52   15.39
   5  -8   2    4.28    2.77
  -5   8  -2    3.42    1.89
   5  -8   2    1.30    0.97
   5  -8   3   62.32    7.36
  -5   8  -3   66.91    6.35
   5  -8   3   44.31    9.01
   5  -8   4    8.29    3.06
  -5   8  -4    6.94    1.99
   5  -8   4    3.42    1.15
  -5   8  -5  109.19    4.66
   5  -8   5   81.56    8.23
  -5   8  -6    2.01    1.69
   5  -8   6    3.74    1.27
  -5   8  -7    4.64    1.72
   5  -8   7    3.74    3.00
  -5   8  -8   89.70    6.90
  -5   8  -8   80.33    6.05
   5  -8   8   77.27    7.53
  -5   8  -9  137.49   11.75
   5  -8   9  125.58   14.78
  -5   7  10  411.08   32.82
   5  -7 -10  439.70   36.02
  -5   7  10  459.78   36.73
  -5   7   9  248.75   16.29
   5  -7  -9  275.33   19.28
  -5   7   9  264.72   17.41
  -5   7   8    8.12    3.03
   5  -7  -8   17.91    4.95
  -5   7   8    7.26    3.61
  -5   7   7    3.89    1.90
   5  -7  -7    7.49    2.68
  -5   7   7   10.54    3.71
  -5   7   6   88.65    3.73
   5  -7  -6   80.95    8.52
  -5   7   6  101.59    4.49
  -5   7   5   55.81    5.31
   5  -7  -5   59.61   11.95
  -5   7   5   53.47    5.24
  -5   7   4   10.92    2.20
   5  -7  -4   26.79    7.04
  -5   7   4   14.50    2.80
  -5   7   3   44.24    3.15
   5  -7  -3   56.04   13.10
  -5   7   3   49.03    4.30
  -5   7   2   85.34    4.18
   5  -7  -2  108.34    8.86
  -5   7   2   98.49    5.04
   5  -7  -1  178.29    8.84
  -5   7   1  158.99    7.08
   5  -7   0    1.77    3.26
  -5   7   0    3.98    2.10
   5  -7   0    0.80    0.92
   5  -7   1   47.08    9.81
  -5   7  -1   44.45    3.40
   5  -7   1   51.47    4.95
   5  -7   2   90.28    6.61
  -5   7  -2   83.76    5.43
   5  -7   2   81.40    5.48
   5  -7   3  104.23    7.07
  -5   7  -3  100.02    5.19
   5  -7   3   94.05    6.54
   5  -7   4  488.79   26.19
  -5   7  -4  514.04   26.57
   5  -7   4  496.16   27.07
  -5   7  -5    5.92    2.43
   5  -7   5    9.82    3.34
  -5   7  -6  145.64    5.86
   5  -7   6  122.98    7.04
  -5   7  -7    8.72    2.09
   5  -7   7    8.15    3.02
  -5   7  -8   82.14    4.07
  -5   7  -8   62.28   10.54
   5  -7   8   77.95   13.07
  -5   7  -9   33.39    5.40
   5  -7   9   25.37    6.63
  -5   7 -10   25.94    5.24
   5  -7  10   16.70    5.68
  -5   7 -11   14.16    4.23
   5  -7  11    4.37    2.53
  -5   6  11   38.03    7.56
   5  -6 -11   42.25    8.97
  -5   6  11   33.48    6.68
  -5   6  10   56.92   14.14
   5  -6 -10   62.13   14.24
  -5   6  10   62.43    5.34
  -5   6   9   21.82    4.40
   5  -6  -9   19.16    5.05
  -5   6   9   23.01    4.67
  -5   6   8  128.70    4.89
   5  -6  -8  119.88    6.57
  -5   6   8  122.18    4.96
  -5   6   7  659.63   19.41
   5  -6  -7  769.47   24.25
  -5   6   6  785.07   39.85
   5  -6  -6  891.52   98.19
  -5   6   6  845.03   92.89
  -5   6   5  102.55    4.44
   5  -6  -5  122.26   13.48
  -5   6   5  109.29    5.07
  -5   6   4   89.84    5.16
   5  -6  -4   95.46    6.90
  -5   6   4   88.04    5.71
  -5   6   3  165.98    6.25
   5  -6  -3  185.35    9.41
  -5   6   3  181.44    7.28
  -5   6   2  250.31    8.62
   5  -6  -2  290.88   12.18
  -5   6   2  271.68   10.25
   5  -6  -2  235.60    7.65
  -5   6   1  246.67    8.34
   5  -6  -1  271.99   12.07
  -5   6   1  257.23    9.67
   5  -6  -1  236.16    7.86
  -5   6   0    1.64    0.77
   5  -6   0    4.84    3.16
  -5   6   0   -1.07    1.87
   5  -6   0    1.47    0.76
  -5   6  -1   76.74    3.14
   5  -6   1   88.21   14.73
  -5   6  -1   91.61    5.08
   5  -6   1   81.84    5.72
   5  -6   2  394.05   14.70
  -5   6  -2  371.43   13.05
   5  -6   2  338.22   12.61
   5  -6   3  111.88    6.39
  -5   6  -3  110.72    5.14
   5  -6   3  114.48    6.53
  -5   6  -4    3.35    1.62
   5  -6   4    2.35    1.09
  -5   6  -5  145.68    7.57
   5  -6   5  135.58    7.27
  -5   6  -6    5.43    2.03
   5  -6   6    2.64    1.33
  -5   6  -7  274.18   14.91
  -5   6  -7  254.17   13.46
   5  -6   7  248.26   16.07
  -5   6  -8    1.91    1.58
  -5   6  -8    1.95    0.77
   5  -6   8   -1.90    1.39
  -5   6  -9   90.38    3.89
   5  -6   9   71.31   20.08
  -5   6 -10   25.78    4.21
   5  -6  10   22.48    7.01
  -5   6 -11   32.11    6.31
   5  -6  11   18.47    7.71
  -5   5  12   48.57   11.47
   5  -5 -12   58.03    7.57
  -5   5  11    5.56    2.42
   5  -5 -11   14.63    5.59
  -5   5  10    4.24    1.88
   5  -5 -10    3.23    2.05
  -5   5   9    2.01    2.05
   5  -5  -9    0.06    2.12
  -5   5   8   12.62    2.54
   5  -5  -8   11.33    3.35
  -5   5   7   82.19    5.18
   5  -5  -7   84.06    6.12
  -5   5   6   83.40    5.19
   5  -5  -6   71.81   13.31
  -5   5   5  833.10   27.10
   5  -5  -5  826.60   27.86
  -5   5   4  438.44   17.69
   5  -5  -4  458.37   19.74
  -5   5   3 1322.49   51.10
   5  -5  -3 1354.80   54.62
  -5   5   2  473.90   17.86
   5  -5  -2  440.81   18.43
  -5   5   1  390.93   14.84
   5  -5  -1  481.15   20.03
  -5   5   1  438.47   16.98
   5  -5  -1  413.73   15.38
  -5   5   0   70.54    3.96
   5  -5   0   83.49   12.41
  -5   5   0   79.77    4.89
   5  -5   0   77.27    4.65
  -5   5  -1  327.84   12.67
  -5   5  -1  398.66   14.95
   5  -5   1  399.33   17.14
  -5   5  -1  420.27   16.61
   5  -5   1  376.73   14.50
   5  -5   2  676.43   26.03
  -5   5  -2  694.28   26.03
   5  -5   2  647.55   24.22
  -5   5  -3  146.42    6.08
   5  -5   3  141.44    7.48
  -5   5  -3  142.05    6.44
   5  -5   3  137.90    9.02
  -5   5  -4    4.21    0.83
  -5   5  -4    4.20    1.40
   5  -5   4    9.79    1.90
  -5   5  -5  343.27   11.83
   5  -5   5  314.05   11.67
  -5   5  -6  373.21   17.53
  -5   5  -6  353.14   16.16
   5  -5   6  346.86   17.07
  -5   5  -7   57.06    4.17
  -5   5  -7   53.78    3.23
   5  -5   7   52.66    5.48
  -5   5  -8   64.09    4.95
   5  -5   8   61.67   12.08
  -5   5  -9   18.50    3.36
   5  -5   9    5.66    2.29
  -5   5 -10   78.61    4.18
   5  -5  10   68.04   18.51
  -5   5 -11    8.17    3.02
   5  -5  11    5.61    2.21
  -5   5 -12   15.06    3.51
   5  -5  12   13.43    5.04
  -5   4  13    6.12    2.66
   5  -4 -13    9.96    3.67
  -5   4  12   14.30    4.50
   5  -4 -12    7.11    2.48
  -5   4  11  135.83    6.31
   5  -4 -11  132.30    6.81
  -5   4  10  206.86    6.43
   5  -4 -10  194.50    7.62
  -5   4   9  284.18   15.57
   5  -4  -9  295.30   16.54
  -5   4   8   68.02    4.73
   5  -4  -8   75.33    5.91
  -5   4   7   13.64    2.65
   5  -4  -7   10.90    2.63
  -5   4   6    2.07    1.75
   5  -4  -6    2.80    1.64
  -5   4   5   11.58    1.85
   5  -4  -5    9.04    2.12
  -5   4   4   21.13    2.19
   5  -4  -4   17.67    4.00
  -5   4   3   41.36    3.55
   5  -4  -3   64.46   11.11
  -5   4   2 1761.18   32.90
   5  -4  -2 1814.52   36.61
  -5   4   2 1616.87   29.01
  -5   4   1   16.13    2.18
   5  -4  -1   22.60    4.18
  -5   4   1   14.56    1.28
  -5   4   0  879.46   17.23
   5  -4   0  915.44   25.78
   5  -4   0  827.33   15.58
  -5   4   0  787.24   14.91
  -5   4  -1  562.84   11.63
   5  -4   1  541.14   12.45
  -5   4  -1  543.48   11.50
   5  -4   1  525.02   10.67
  -5   4  -2  882.39   17.17
   5  -4   2  777.51   16.28
  -5   4  -2  849.25   16.66
   5  -4   2  849.35   17.40
  -5   4  -3    5.47    1.55
  -5   4  -3    4.77    1.17
   5  -4   3    5.61    1.81
  -5   4  -4  159.29    7.88
  -5   4  -4  170.57    6.91
   5  -4   4  153.26    9.31
   5  -4   5  572.64   22.50
  -5   4  -5  523.14   20.93
   5  -4   5  529.14   21.95
   5  -4   6  313.79   10.49
  -5   4  -6  336.45   11.92
  -5   4  -6  330.15   10.93
   5  -4   6  322.59   15.62
   5  -4   7   32.10    5.01
  -5   4  -7   40.95    4.54
  -5   4  -7   40.88    3.96
   5  -4   7   37.73    7.35
   5  -4   8   97.70    3.97
  -5   4  -8  105.50    5.10
   5  -4   8   98.30    5.38
  -5   4  -9  305.68   16.38
   5  -4   9  306.79   17.93
  -5   4 -10  156.19    4.91
   5  -4  10  142.07   12.94
  -5   4 -11    5.22    1.99
   5  -4  11    3.89    2.03
  -5   4 -12   11.92    3.03
   5  -4  12    5.29    1.56
  -5   4 -13   14.41    3.99
   5  -4  13    9.01    5.50
  -5   3  13   58.97    5.34
   5  -3 -13   44.62    8.77
  -5   3  12  200.12   13.55
  -5   3  11    5.52    2.74
   5  -3 -11    5.87    2.51
  -5   3  10    0.49    1.65
   5  -3 -10    0.86    1.63
  -5   3   9    6.33    2.40
   5  -3  -9    8.40    3.29
   5  -3  -9    1.11    1.53
  -5   3   8  112.68    6.93
   5  -3  -8  109.68    6.78
   5  -3  -8   94.19    6.13
  -5   3   7  296.55   10.86
   5  -3  -7  288.27   11.25
   5  -3  -7  302.48   11.69
  -5   3   6  582.50   23.51
   5  -3  -6  573.44   23.39
   5  -3  -6  584.07   23.72
  -5   3   5  338.14   13.58
   5  -3  -5  301.16   12.47
  -5   3   4  100.55    7.41
   5  -3  -4   81.47    6.14
  -5   3   3    4.00    2.20
   5  -3  -3    1.34    1.89
  -5   3   3    0.81    0.28
  -5   3   2   92.53    6.56
   5  -3  -2   95.00    7.02
  -5   3   2   84.74    8.34
  -5   3   1   34.69    4.18
   5  -3  -1   32.29    6.98
  -5   3   1   24.42    2.62
  -5   3   0    7.48    1.97
   5  -3   0    6.92    1.77
  -5   3   0    7.86    1.19
  -5   3  -1 1959.35  118.80
   5  -3   1 1878.91   48.15
  -5   3  -2  168.98    5.43
   5  -3   2  154.14    4.45
   5  -3   3  275.82    6.87
  -5   3  -3  267.51    6.16
   5  -3   3  262.71    6.57
   5  -3   4  153.62    7.83
  -5   3  -4  158.19    4.49
  -5   3  -4  157.15    4.09
   5  -3   4  144.97    4.64
   5  -3   5  791.44   29.34
  -5   3  -5  804.43   29.89
  -5   3  -5  800.72   29.31
   5  -3   5  761.24   28.55
   5  -3   6  100.16    5.05
  -5   3  -6   85.74    4.43
  -5   3  -6   95.36    4.10
   5  -3   6  101.54    5.50
   5  -3   7    5.79    2.03
  -5   3  -7    6.15    1.83
  -5   3  -7    3.39    0.48
   5  -3   7    5.83    1.67
   5  -3   8  186.79    7.68
  -5   3  -8  181.40    7.21
   5  -3   8  172.16    7.27
   5  -3   9  212.04   12.19
  -5   3  -9  236.86   12.94
   5  -3   9  233.70   13.42
   5  -3  10   81.70    3.46
  -5   3 -10   87.37    3.58
   5  -3  10  107.08    5.08
   5  -3  11    3.39    1.98
  -5   3 -11    3.73    1.57
   5  -3  11    5.04    3.07
  -5   3 -12  121.01    8.60
   5  -3  12  112.26    8.64
  -5   3 -13   98.72    8.76
   5  -3  13   93.66    8.91
  -5   2  13  214.15   14.61
   5  -2 -13  216.04   14.80
   5  -2 -13  187.79   12.91
  -5   2  12    7.28    3.60
   5  -2 -12    1.09    1.72
   5  -2 -12    1.08    2.03
  -5   2  11    2.71    1.96
   5  -2 -11    0.94    2.33
   5  -2 -11    3.76    1.72
  -5   2  10  104.72    7.88
   5  -2 -10  101.71    8.32
   5  -2 -10  103.79    8.09
  -5   2   9  769.69   25.80
   5  -2  -9  743.57   24.99
   5  -2  -9  753.48   25.84
  -5   2   8   49.21    5.34
   5  -2  -8   46.83    5.23
   5  -2  -8   51.32    5.84
  -5   2   7   19.91    2.98
   5  -2  -7   16.92    2.65
   5  -2  -7   19.99    2.55
  -5   2   6   21.34    2.68
   5  -2  -6   24.48    3.04
   5  -2  -6   18.71    2.32
  -5   2   5   17.97    3.04
   5  -2  -5   10.59    1.97
   5  -2  -5    9.99    1.90
  -5   2   5    7.53    1.05
  -5   2   5   11.03    0.81
  -5   2   4  138.90    5.07
   5  -2  -4  138.85    4.74
   5  -2  -4  137.05    5.04
  -5   2   4  127.22    7.92
  -5   2   4  133.93    6.27
  -5   2   3  505.84   14.42
   5  -2  -3  558.11   15.76
   5  -2  -3  507.77   14.36
  -5   2   3  456.44   11.94
  -5   2   2  520.72   14.64
   5  -2  -2  525.00   16.90
   5  -2  -2  536.90   15.11
  -5   2   2  451.61   11.80
  -5   2   1  202.95    6.77
   5  -2  -1  238.45    7.25
   5  -2  -1  228.68    7.43
  -5   2   1  204.26    6.20
  -5   2   0   62.91    6.83
   5  -2   0   60.73    6.40
   5  -2   0   54.35    5.97
  -5   2  -1   31.00    3.60
   5  -2   2  175.24    6.18
   5  -2   3  293.27    7.50
  -5   2  -3  313.03    7.03
   5  -2   4 1256.95   24.79
  -5   2  -4 1221.53   23.03
   5  -2   5  361.18   14.29
  -5   2  -5  377.68   14.41
  -5   2  -5  399.28   14.82
   5  -2   6   12.79    2.15
  -5   2  -6   15.40    1.80
  -5   2  -6   18.04    1.10
   5  -2   6   26.12    2.89
   5  -2   7    4.24    1.88
  -5   2  -7    3.17    1.54
   5  -2   7    2.82    1.52
   5  -2   8  356.15   12.89
  -5   2  -8  325.29   11.51
   5  -2   8  335.58   12.25
   5  -2   9  124.60    7.68
  -5   2  -9  115.63    7.98
   5  -2   9  132.05    8.65
   5  -2  10    7.96    3.09
  -5   2 -10   30.58    3.78
   5  -2  10   24.90    4.17
   5  -2  11   10.40    4.50
  -5   2 -11   14.99    3.76
   5  -2  11   11.74    3.31
   5  -2  12   37.38   15.38
  -5   2 -12   81.18    6.35
   5  -2  12   90.75    7.96
   5  -2  13   18.20   10.67
  -5   2 -13   57.01    6.02
  -5   1  13   14.44    4.84
   5  -1 -13    8.99    2.69
   5  -1 -13    7.65    2.95
  -5   1  12   72.77    6.31
   5  -1 -12   91.19    7.31
   5  -1 -12   77.54    6.65
  -5   1  11  231.75    6.50
   5  -1 -11  228.29    6.46
   5  -1 -11  244.06    6.91
  -5   1  10  616.14   32.08
   5  -1 -10  603.15   31.15
   5  -1 -10  614.82   32.89
  -5   1   9   30.10    3.12
   5  -1  -9   31.87    3.26
   5  -1  -9   26.52    6.83
  -5   1   8   26.87    4.52
   5  -1  -8   29.33    3.65
   5  -1  -8   25.73    5.84
  -5   1   7   38.57    3.67
   5  -1  -7   43.27    2.90
   5  -1  -7   44.33   11.25
  -5   1   7   40.11    2.04
  -5   1   6 1447.58   53.68
   5  -1  -6 1329.20   48.67
  -5   1   5  341.48   14.09
   5  -1  -5  374.05   14.35
   5  -1  -5  372.45   21.51
  -5   1   5  351.30   13.35
  -5   1   4  175.83    5.81
   5  -1  -4  181.97    4.69
  -5   1   4  177.32    4.14
   5  -1  -4  196.48    6.38
  -5   1   4  188.01    5.03
  -5   1   3    5.67    2.67
   5  -1  -3    3.70    1.22
  -5   1   3    5.06    0.88
   5  -1  -3    2.47    1.15
  -5   1   3    2.31    0.60
  -5   1   2   14.85    2.74
   5  -1  -2   17.57    3.13
  -5   1   2   13.46    1.58
   5  -1  -2   13.22    3.52
  -5   1   1    4.08    2.09
   5  -1  -1    4.78    1.10
  -5   1   1    2.72    0.75
   5  -1  -1    1.95    1.31
  -5   1   0  140.60    5.79
  -5   1   0  112.17    3.63
   5  -1   0  122.76    5.06
   5  -1   1  310.51    9.59
  -5   1  -1  245.55    7.00
  -5   1  -1  286.13    7.73
   5  -1   1  290.65    8.63
   5  -1   2  225.97    6.47
  -5   1  -2  176.99    6.06
  -5   1  -2  216.02    4.76
   5  -1   2  220.15    5.65
   5  -1   3  192.30    6.83
  -5   1  -3  188.61    4.47
   5  -1   4   15.86    3.65
  -5   1  -4   20.56    1.60
  -5   1  -4   11.86    1.03
   5  -1   5   65.29   10.57
  -5   1  -5   76.38    4.10
   5  -1   6  466.23   21.30
  -5   1  -6  478.39   18.96
   5  -1   7  285.71   15.44
  -5   1  -7  316.57   14.75
   5  -1   8  232.12    9.45
  -5   1  -8  234.43    8.62
   5  -1   9    3.26    1.96
  -5   1  -9    1.23    1.13
   5  -1  10   19.21    5.95
  -5   1 -10   21.73    2.69
   5  -1  11   43.36    9.99
  -5   1 -11   68.89    5.67
   5  -1  12   32.35   13.56
  -5   1 -12   70.10    5.57
  -5   0  13   16.60    4.32
   5   0 -13   14.92    4.11
   5   0 -13    8.67    6.93
   5   0 -12    4.59    1.97
   5   0 -12    2.11    2.62
  -5   0  11   51.44    5.75
   5   0 -11   53.23    5.49
   5   0 -11   32.42    9.59
  -5   0  10   67.52    6.47
   5   0 -10   61.78    5.63
   5   0 -10   49.32    9.39
  -5   0   9   19.85    3.12
   5   0  -9   22.84    2.44
   5   0  -9   16.74    6.06
  -5   0   9   21.72    1.81
  -5   0   8  198.23   10.38
   5   0  -8  210.86   10.13
   5   0  -8  154.67   14.46
  -5   0   8  185.20    8.85
  -5   0   7  966.97   84.25
   5   0  -7  851.13   27.23
   5   0  -7  933.43   81.75
  -5   0   7  795.60   25.50
  -5   0   6  141.74    7.84
   5   0  -6  130.90    5.69
   5   0  -6  132.51   14.70
  -5   0   6  140.97    6.40
  -5   0   5  143.07    7.79
   5   0  -5  144.18    6.94
   5   0  -5  138.54   10.59
  -5   0   5  127.82    6.71
  -5   0   4   14.67    3.10
   5   0  -4   10.71    1.93
  -5   0   4    9.06    0.73
   5   0  -4   13.17    3.19
  -5   0   4   11.29    2.00
  -5   0   3 1419.20   28.16
   5   0  -3 1276.80   23.02
  -5   0   3 1257.27   22.51
   5   0  -3 1472.90   28.55
  -5   0   2  756.07   16.47
   5   0  -2  750.29   16.44
  -5   0   1  542.51   12.64
  -5   0   1  472.48    8.53
  -5   0   1  498.59    8.98
   5   0  -1  553.43   12.91
   5   0   0   46.60    5.24
  -5   0   0   27.70    1.85
  -5   0   0   29.93    1.95
   5   0   0   28.92    5.93
   5   0   1   26.84    2.98
  -5   0  -1   25.66    1.98
  -5   0  -1   28.30    1.91
   5   0   1   28.92    5.53
   5   0   2   50.64    4.79
  -5   0  -2   31.14    4.30
  -5   0  -2   49.06    3.27
   5   0   2   49.28    6.05
   5   0   3    5.75    3.20
  -5   0  -3    1.59    0.85
  -5   0  -3    3.40    0.86
   5   0   3    2.14    0.85
   5   0   4   24.29    5.00
  -5   0  -4   22.80    1.78
   5   0   4   20.46    1.63
   5   0   5   46.33    7.00
  -5   0  -5   57.25    2.93
   5   0   6  165.70   10.16
  -5   0  -6  176.20    6.54
   5   0   7  109.23    7.63
  -5   0  -7  115.43    6.08
   5   0   8    2.46    0.99
  -5   0  -8    3.62    1.58
   5   0   9  299.62   10.32
  -5   0  -9  306.51   10.05
   5   0  10   26.34    9.79
  -5   0 -10   29.04    5.50
   5   0  11   48.64   15.05
  -5   0 -11   70.41    5.81
   5   0  12    2.21    2.52
  -5   0 -12    2.46    1.56
  -5  -1  13   26.88    6.90
   5   1 -13   12.21    8.72
  -5  -1  12    5.62    3.16
   5   1 -12    2.18    1.67
  -5  -1  11   55.83   10.04
   5   1 -11   33.44   13.39
  -5  -1  10   81.02    4.56
   5   1 -10   59.33   15.02
  -5  -1  10   80.46    2.95
   5   1  -9   10.09    3.05
  -5  -1   9   16.36    2.87
  -5  -1   8   10.77    3.22
   5   1  -8    5.50    1.49
   5   1  -8   10.18    2.86
  -5  -1   8    6.86    1.87
  -5  -1   7   93.77    6.40
   5   1  -7   74.47    3.93
  -5  -1   7   85.60    5.09
  -5  -1   6    8.12    3.69
   5   1  -6    2.13    0.74
   5   1  -6    1.51    1.09
  -5  -1   6    2.38    1.75
  -5  -1   5   84.01    7.14
   5   1  -5   63.68    9.39
  -5  -1   5   73.57    4.55
  -5  -1   4  786.62   30.21
   5   1  -4  728.22   28.20
  -5  -1   4  763.86   28.75
  -5  -1   3  121.78    7.72
   5   1  -3  108.41    6.34
  -5  -1   3  109.09    6.31
  -5  -1   2  232.47   10.79
   5   1  -2  251.81   10.71
   5   1  -1  286.13   12.19
   5   1  -1  258.08   11.22
   5   1   0  716.71   27.30
   5   1   0  658.13   25.08
   5   1   1  541.86   20.96
   5   1   1  524.54   21.80
   5   1   2  629.15   24.93
   5   1   2  605.82   22.68
   5   1   3  132.78    8.36
  -5  -1  -3  125.78    5.20
   5   1   3  112.97    5.51
   5   1   4    4.19    2.13
  -5  -1  -4    1.49    0.49
   5   1   4    2.69    0.86
   5   1   5   62.47    5.04
  -5  -1  -5   54.14    3.81
   5   1   5   44.31    3.54
   5   1   6   57.29   12.04
  -5  -1  -6   67.78   11.98
   5   1   7   11.82    3.47
  -5  -1  -7   17.60    2.89
   5   1   8    4.57    2.36
  -5  -1  -8    2.00    1.45
   5   1   9   26.76    8.75
  -5  -1  -9   37.51    4.00
   5   1  10  116.27   10.87
  -5  -1 -10  107.14    7.53
   5   1  11   14.33    7.37
  -5  -1 -11   16.86    3.75
  -5  -2  12   15.37    3.68
   5   2 -12   10.12    5.19
  -5  -2  11   62.42    5.71
   5   2 -11   38.78    7.05
  -5  -2  10   95.36    5.29
   5   2 -10   75.01   11.28
  -5  -2  10   81.97    3.70
  -5  -2   9   23.41    3.74
   5   2  -9   21.56    7.21
  -5  -2   9   28.58    3.53
  -5  -2   8   17.41    4.11
  -5  -2   8   10.05    2.11
  -5  -2   7  121.79    6.65
   5   2  -7  119.56    7.66
  -5  -2   7  116.88    5.84
   5   2  -6   80.56   13.38
  -5  -2   6   79.49    5.20
  -5  -2   5   28.43    4.62
   5   2  -5   23.84    4.98
  -5  -2   5   21.34    3.19
  -5  -2   4   25.61    4.25
   5   2  -4   24.32    3.63
  -5  -2   4   27.52    3.53
  -5  -2   3    5.44    3.77
   5   2  -3    7.94    1.84
  -5  -2   3    1.94    2.14
  -5  -2   2   11.30    4.11
   5   2  -2    4.87    1.85
   5   2  -1  375.77   16.20
   5   2  -1  372.06   15.37
   5   2   0   12.00    3.00
   5   2   0    9.38    2.85
   5   2   1   98.33    5.43
   5   2   2  466.16   17.60
   5   2   2  460.59   15.42
   5   2   3  106.11    8.07
   5   2   3   91.50    6.11
   5   2   4  129.72    9.26
   5   2   4  127.12    6.25
   5   2   5  301.22   16.80
   5   2   6  142.31   15.68
   5   2   7    9.59    4.02
   5   2   8    8.48    4.22
   5   2   9   34.13   16.35
   5   2  10   23.05   13.14
  -5  -3  11  121.08    9.12
   5   3 -11  107.84   10.11
  -5  -3  11   99.92    7.57
  -5  -3  10  112.44    8.41
   5   3 -10   92.87    8.99
  -5  -3  10   93.25    6.95
  -5  -3   9  110.30    5.91
   5   3  -9   98.48   11.92
  -5  -3   8    0.22    2.11
  -5  -3   8    5.53    2.84
  -5  -3   7   64.77    6.69
   5   3  -7   67.59    7.54
  -5  -3   7   87.96    8.11
  -5  -3   6   66.24    6.10
   5   3  -6   75.08   13.82
  -5  -3   6   78.88    6.77
  -5  -3   5   12.15    4.12
   5   3  -5   10.86    2.83
  -5  -3   5    8.80    2.63
  -5  -3   4   41.61    4.03
   5   3  -4   44.03    3.92
  -5  -3   4   36.30    3.84
  -5  -3   3   90.31    6.19
   5   3  -3   88.12    5.05
  -5  -3   3   80.15    6.14
   5   3  -2   80.62    6.02
   5   3  -2  102.87    6.52
  -5  -3   2   93.20    6.99
   5   3  -1    3.77    1.85
   5   3  -1    3.86    1.41
   5   3   0    1.01    1.71
   5   3   0    4.58    1.85
   5   3   1    6.60    3.85
   5   3   1    3.76    1.39
   5   3   2  141.30    9.23
   5   3   2  147.30    6.15
   5   3   3   11.87    3.82
   5   3   3   12.85    2.26
   5   3   4    3.67    1.31
   5   3   5  307.05   12.12
   5   3   6    5.56    3.57
   5   3   7    3.54    3.07
   5   3   8   34.56   14.07
   5   3   9   75.51    8.22
  -5  -4  10  103.08    9.60
   5   4 -10   80.39    9.27
  -5  -4  10   88.93    8.48
  -5  -4   9   40.92   10.82
   5   4  -9   29.31   12.35
  -5  -4   9   38.54    9.90
  -5  -4   8   47.66    8.80
   5   4  -8   37.51    6.82
  -5  -4   8   50.13    5.14
  -5  -4   7   48.50    9.24
   5   4  -7   47.76    8.86
  -5  -4   7   47.84    9.10
  -5  -4   6  191.02    6.78
   5   4  -6  184.60    6.04
  -5  -4   6  169.07    6.78
  -5  -4   5   63.26    7.07
   5   4  -5   52.11    6.24
  -5  -4   5   45.91    5.80
  -5  -4   4    1.25    2.65
   5   4  -4    5.44    1.91
  -5  -4   4    8.68    3.44
  -5  -4   3   45.54    6.16
   5   4  -3   44.95    5.04
  -5  -4   3   32.80    4.74
   5   4  -2   52.90    6.39
   5   4  -2   60.30    5.99
  -5  -4   2   49.19    6.19
   5   4  -1   -0.95    1.59
   5   4  -1    5.89    2.49
   5   4   0    9.27    2.69
   5   4   0   15.07    2.92
   5   4   1   52.86    6.44
   5   4   1   50.30    5.05
   5   4   2    5.27    1.87
   5   4   2    6.89    1.81
   5   4   3    4.41    2.20
   5   4   3    3.12    1.29
   5   4   4    3.83    2.55
   5   4   5   79.14   14.70
   5   4   6   24.23    8.96
   5   4   8   61.98   13.01
  -5  -5   8    4.41    2.57
   5   5  -8    1.40    1.82
  -5  -5   8    8.75    3.58
  -5  -5   7   96.59    7.80
   5   5  -7  103.98    8.86
  -5  -5   7   95.51    7.84
  -5  -5   6  120.41    9.24
   5   5  -6  137.53   10.48
  -5  -5   6  103.27    8.87
  -5  -5   5    1.16    2.50
   5   5  -5    7.79    3.03
  -5  -5   5    0.95    2.21
  -5  -5   4    8.82    5.19
   5   5  -4    1.73    1.89
  -5  -5   4    4.96    2.80
  -5  -5   3   81.99    7.37
   5   5  -3   85.82    6.73
  -5  -5   3   84.76    8.05
   5   5  -2  106.40    6.40
   5   5  -2  128.71    5.78
  -5  -5   2  121.41    7.73
   5   5  -1   24.77    5.74
  -5  -5   1   17.62    5.91
   5   5   0    3.41    1.93
   5   5   0    1.47    1.35
   5   5   1   13.76    4.08
   5   5   1   20.40    3.81
   5   5   2   10.97    7.08
   5   5   2   21.14    3.99
   5   5   3    2.77    2.25
   5   5   3    4.47    1.61
   5   5   4    3.97    3.16
   5   5   5    2.32    2.02
  -5  -6   5   28.04    7.84
   5   6  -5   18.71    5.16
  -5  -6   5   37.46    9.56
  -5  -6   4   28.01    7.90
   5   6  -4   39.12    9.60
  -5  -6   4   56.26    7.24
  -5  -6   3  108.82   10.52
   5   6  -3  105.83    9.74
  -5  -6   3  123.99   11.97
   5   6  -2    7.23    2.58
   5   6  -2    9.90    3.12
  -5  -6   2   17.67    6.80
   5   6  -1   37.17    8.35
   5   6  -1   23.17    5.08
  -5  -6   1   52.44    6.43
   5   6   0    8.89    3.79
   5   6   0   12.00    3.50
  -5  -6   0   11.98    5.21
   5   6   1   41.60   10.69
   5   6   1   53.81    5.30
  -5  -6  -1   71.44    8.82
   5   6   2   39.81   10.08
   6  -9  -4    7.94    4.15
  -6   9   4   20.28    5.44
   6  -9  -3    6.84    4.49
  -6   9   3    7.39    2.91
   6  -9  -2   31.26   13.88
  -6   9   2   44.23    8.85
   6  -9  -1  102.44   11.53
  -6   9   1  114.81    8.79
   6  -9   0   10.52    5.38
  -6   9   0    8.87    3.08
   6  -9   1   19.11    9.79
  -6   9  -1   36.87    7.19
   6  -9   2  355.22   80.85
  -6   9  -2  351.51   22.44
   6  -9   3   13.29    3.61
  -6   9  -3   24.23    5.53
   6  -9   4  108.74   10.72
  -6   9  -4   88.55    8.37
  -6   9  -5    6.53    2.31
   6  -8  -7   33.97   16.69
  -6   8   7   59.03    6.77
   6  -8  -6   93.70    9.46
  -6   8   6   62.40    5.24
   6  -8  -5   26.29   10.98
  -6   8   5   47.42   11.99
   6  -8  -4   14.78    6.03
  -6   8   4   26.99    7.26
   6  -8  -3   22.76    5.06
  -6   8   3   25.07    4.74
   6  -8  -2   61.96    6.68
  -6   8   2   48.84    8.50
   6  -8  -1   63.57   21.23
  -6   8   1   70.30   16.92
   6  -8   0   16.17    6.42
  -6   8   0    7.00    2.34
   6  -8   1    2.23    2.12
  -6   8  -1   11.53    3.63
   6  -8   2  170.63    7.88
  -6   8  -2  150.67    5.50
   6  -8   3  137.23   10.36
  -6   8  -3  143.09    9.93
  -6   8  -4   14.72    2.83
   6  -8   4   10.92    3.21
  -6   8  -5  200.59   13.20
   6  -8   5  180.65   13.08
  -6   8  -6   53.57    4.54
   6  -8   6   41.31    8.17
   6  -8   7   16.25    6.38
  -6   7   8   23.76    4.72
   6  -7  -8   35.99    7.57
  -6   7   8   16.60    4.02
  -6   7   7   38.60    9.82
   6  -7  -7   23.39   11.00
  -6   7   7   38.00    9.92
  -6   7   6   33.32    5.09
   6  -7  -6   44.24   13.85
  -6   7   6   49.61    4.91
  -6   7   5   84.26    3.20
   6  -7  -5   97.88    9.61
  -6   7   5   93.98    4.76
  -6   7   4   17.34    4.02
   6  -7  -4   19.05    6.57
  -6   7   4   22.23    3.44
   6  -7  -3   67.94   22.52
  -6   7   3   82.35    4.17
   6  -7  -2   53.16   13.75
  -6   7   2   61.26    6.04
   6  -7  -1   90.10   20.23
  -6   7   1   89.78    7.88
   6  -7   0    3.93    1.87
  -6   7   0    4.28    1.67
   6  -7   1    9.70    3.69
  -6   7  -1   17.41    3.00
   6  -7   2   60.19    6.42
  -6   7  -2   74.06    6.73
   6  -7   2   60.83    5.48
   6  -7   3   52.18    6.00
  -6   7  -3   45.28    4.85
   6  -7   3   32.57    8.05
  -6   7  -4   15.49    2.74
   6  -7   4   11.46    2.45
  -6   7  -5   71.94   17.16
   6  -7   5   38.18    9.78
  -6   7  -6  225.17   14.42
   6  -7   6  209.76   14.24
  -6   7  -7  140.00    9.96
   6  -7   7  135.03    9.84
  -6   7  -8   38.63    7.43
   6  -7   8   19.08    8.44
  -6   7  -9   37.99    9.22
   6  -7   9   11.33    5.48
  -6   6  10   45.95   10.62
   6  -6 -10   60.68    7.66
  -6   6   9   86.38    6.49
   6  -6  -9  101.05    8.82
  -6   6   8   18.23    3.65
   6  -6  -8   13.52    3.85
  -6   6   7    3.51    1.46
   6  -6  -7    2.53    2.38
  -6   6   6   30.76    3.80
   6  -6  -6   30.67    5.36
  -6   6   5   94.22    9.97
   6  -6  -5  105.50    7.35
  -6   6   4  213.54   11.64
   6  -6  -4  241.05   14.24
  -6   6   4  256.16   14.00
  -6   6   3  333.84   17.49
   6  -6  -3  371.70   20.73
  -6   6   3  357.63   19.22
  -6   6   2   56.48    3.65
   6  -6  -2   53.36   11.31
  -6   6   2   68.75    4.95
  -6   6   1    2.44    0.97
   6  -6  -1    2.10    2.20
  -6   6   1    9.22    3.51
  -6   6   0   15.50    3.01
   6  -6   0   18.43    6.03
  -6   6   0   20.44    2.55
   6  -6   1    9.76    2.77
  -6   6  -1    7.63    2.70
   6  -6   1    5.14    1.54
   6  -6   2   98.76    5.87
  -6   6  -2   92.84    4.53
   6  -6   2   83.44    5.09
   6  -6   3   29.32    3.46
  -6   6  -3   27.79    2.87
   6  -6   3   18.82    5.09
  -6   6  -4    8.66    2.10
   6  -6   4    5.85    1.69
  -6   6  -5    8.88    2.18
   6  -6   5    3.90    1.09
  -6   6  -6   27.18    3.26
   6  -6   6   22.36    4.74
  -6   6  -7   52.11    9.19
   6  -6   7   46.49   12.23
  -6   6  -8    5.54    3.09
   6  -6   8   -0.54    1.48
  -6   6  -9  120.96    8.85
   6  -6   9  104.46   12.82
  -6   6 -10  230.50   18.88
   6  -6  10  203.75   21.20
  -6   5  11    5.66    2.67
   6  -5 -11    5.68    3.22
  -6   5  10    5.16    1.91
   6  -5 -10    8.05    3.72
  -6   5   9   16.27    3.44
   6  -5  -9    5.35    2.65
  -6   5   8   11.23    3.37
   6  -5  -8    2.76    2.04
  -6   5   7   59.49    6.00
   6  -5  -7   61.25    6.99
  -6   5   6  182.55    7.10
   6  -5  -6  177.72    7.84
  -6   5   5  110.77    7.91
   6  -5  -5  105.90   10.54
  -6   5   4   84.47    5.07
   6  -5  -4   78.36   14.38
  -6   5   3    2.09    1.24
   6  -5  -3    1.94    1.48
  -6   5   2   60.56    5.84
   6  -5  -2   62.09   12.01
  -6   5   1  488.30   22.28
   6  -5  -1  438.84   20.90
  -6   5   0 1073.45  185.71
   6  -5   0 1047.04   47.47
  -6   5   0 1095.62  189.65
   6  -5   1    7.29    2.41
  -6   5  -1    7.13    2.49
   6  -5   1    6.53    1.43
  -6   5  -2    8.47    2.15
   6  -5   2    4.49    1.50
  -6   5  -2    7.10    2.50
   6  -5   2    6.13    1.67
  -6   5  -3    0.18    0.80
  -6   5  -3    2.98    1.68
   6  -5   3    3.32    1.01
  -6   5  -4   41.03    2.82
   6  -5   4   28.47    5.39
  -6   5  -5   10.37    1.96
  -6   5  -6   24.94    3.19
  -6   5  -6   20.33    2.28
   6  -5   6   15.84    4.54
  -6   5  -7   36.76    4.17
   6  -5   7   33.90    9.08
  -6   5  -8   17.03    4.45
   6  -5   8   10.06    4.92
  -6   5  -9    4.11    2.23
   6  -5   9    2.94    2.19
  -6   5 -10   42.26    8.07
   6  -5  10   31.79    8.32
  -6   5 -11   16.62    4.50
   6  -5  11   18.41    5.35
  -6   4  11    5.30    2.55
   6  -4 -11    5.48    2.32
  -6   4  10   40.40    6.79
   6  -4 -10   47.78    9.06
  -6   4   9   88.47    4.95
   6  -4  -9   82.96    4.60
  -6   4   8   23.78    3.47
   6  -4  -8   24.83    4.08
  -6   4   7   24.01    3.54
   6  -4  -7   20.98    3.86
  -6   4   6    1.20    1.75
   6  -4  -6    3.73    1.85
  -6   4   5    1.97    1.67
   6  -4  -5   10.53    3.07
  -6   4   4   15.40    2.19
   6  -4  -4   14.88    4.76
  -6   4   3  151.92    6.45
   6  -4  -3  125.97    5.71
  -6   4   2  187.38    7.51
   6  -4  -2  166.13    7.21
  -6   4   1  210.05    8.10
   6  -4  -1  201.43    8.29
  -6   4   0  112.66    5.01
   6  -4   0  118.97    6.07
  -6   4  -1    4.95    1.57
   6  -4   1    7.50    2.04
  -6   4  -2  345.60   12.12
  -6   4  -2  364.93   12.52
  -6   4  -3 1613.93  279.16
  -6   4  -3 1675.48  289.76
   6  -4   3 1492.51  258.17
  -6   4  -4  144.90    7.62
  -6   4  -4  150.58    7.47
   6  -4   4  130.26    6.98
  -6   4  -5   33.81    3.30
  -6   4  -5   41.52    3.22
  -6   4  -5   38.48    2.57
   6  -4   5   36.81    3.28
   6  -4   6    1.22    0.64
  -6   4  -6    1.09    1.18
   6  -4   6    1.16    1.21
  -6   4  -7  113.55    4.84
   6  -4   7  108.33    5.26
  -6   4  -8   12.46    2.52
   6  -4   8   16.47    4.37
  -6   4  -9    1.67    1.71
   6  -4   9    4.09    2.76
  -6   4 -10   19.28    5.21
   6  -4  10   35.60    9.28
  -6   4 -11   32.96    7.84
   6  -4  11   34.91    8.84
  -6   3  12    5.11    2.66
   6  -3 -12    9.31    3.38
  -6   3  11    4.17    2.24
   6  -3 -11    3.88    2.44
  -6   3  10   48.89    8.74
   6  -3 -10   46.48    8.85
   6  -3 -10   41.15    6.68
  -6   3   9   12.08    3.11
   6  -3  -9   17.09    4.72
   6  -3  -9    5.93    2.10
  -6   3   8    6.42    2.61
   6  -3  -8    5.73    2.31
   6  -3  -8    1.04    1.14
  -6   3   7   12.22    2.86
   6  -3  -7    9.68    2.68
   6  -3  -7    4.48    1.56
  -6   3   6  183.65    7.99
   6  -3  -6  167.72    7.36
   6  -3  -6  160.41    7.03
  -6   3   5  160.19    8.79
   6  -3  -5  142.45    8.58
   6  -3  -5  147.00    8.61
  -6   3   4  234.08    9.44
   6  -3  -4  231.85    9.04
  -6   3   3   67.04    3.87
   6  -3  -3   48.76    7.18
  -6   3   2   30.60    3.27
   6  -3  -2   23.18    5.66
  -6   3   1   10.50    2.51
   6  -3  -1    2.57    1.27
  -6   3   0   32.62    3.20
   6  -3   0   37.85    3.32
  -6   3  -1   77.26    4.68
  -6   3  -2  154.49    6.64
  -6   3  -3  222.07    8.88
  -6   3  -3  210.15    7.55
   6  -3   4  201.45    9.97
  -6   3  -4  195.02    9.34
  -6   3  -4  204.64    9.71
   6  -3   5   37.09    2.88
  -6   3  -5   38.33    2.59
  -6   3  -5   39.47    2.44
   6  -3   6 1092.81   35.28
  -6   3  -6 1165.56  143.36
   6  -3   7  218.09    8.02
  -6   3  -7  233.45    7.88
   6  -3   8  100.73    4.53
  -6   3  -8   93.83    3.52
   6  -3   8  100.26    4.55
   6  -3   9    7.91    3.19
  -6   3  -9   15.94    3.94
   6  -3   9   22.61    4.69
  -6   3 -10   86.01    6.39
   6  -3  10   67.22    6.09
  -6   3 -11   40.73    7.66
   6  -3  11   39.53    7.92
  -6   2  12   47.85   11.53
   6  -2 -12   49.88    5.98
   6  -2 -11    7.36    1.99
   6  -2 -11   13.21    3.82
  -6   2  10    7.92    2.88
   6  -2 -10    2.47    1.96
   6  -2 -10    1.82    2.04
  -6   2   9   18.35    4.83
   6  -2  -9   13.88    2.36
   6  -2  -9   14.61    3.27
  -6   2   8   27.68    3.60
   6  -2  -8   34.87    4.07
   6  -2  -8   42.62    5.04
  -6   2   7    4.82    3.21
   6  -2  -7    0.91    1.17
   6  -2  -7    3.53    1.76
  -6   2   6    3.16    2.28
   6  -2  -6    3.35    1.12
   6  -2  -6    0.52    1.85
  -6   2   5   12.99    2.61
   6  -2  -5   13.21    3.70
   6  -2  -5   10.08    2.27
  -6   2   4   -1.90    1.91
   6  -2  -4    0.43    1.06
   6  -2  -4    6.23    2.31
  -6   2   4    1.12    0.47
  -6   2   3  103.73    6.08
   6  -2  -3   93.79    4.56
   6  -2  -3   89.53    4.80
  -6   2   2  252.23   11.40
   6  -2  -2  251.72   11.35
   6  -2  -2  229.75   10.38
  -6   2   1  454.28   18.85
   6  -2  -1  444.00   17.60
   6  -2  -1  449.88   18.37
  -6   2   0  320.60   14.40
   6  -2   0  298.32   12.70
  -6   2  -1  129.69    6.85
  -6   2  -2   10.48    1.17
   6  -2   3   15.05    2.91
  -6   2  -3   10.40    1.28
   6  -2   4    7.41    2.18
  -6   2  -4   10.37    1.85
   6  -2   5   31.43    3.61
  -6   2  -5   17.35    3.47
   6  -2   6   95.96    6.86
  -6   2  -6   96.86    6.63
   6  -2   7  317.77   10.81
  -6   2  -7  328.51   10.29
   6  -2   8   15.98    6.24
  -6   2  -8   29.76    3.27
   6  -2   9  420.03    9.10
   6  -2  10  135.40    9.29
  -6   2 -10  154.33   10.34
   6  -2  11  105.88    9.18
  -6   2 -11  119.81   10.38
  -6   1  12   53.83    5.97
   6  -1 -12   50.77    6.55
  -6   1  11    4.03    2.20
   6  -1 -11   10.98    3.47
  -6   1  10   36.24    6.11
   6  -1 -10   41.57    6.82
  -6   1   9  159.09    6.01
   6  -1  -9  163.97    6.74
  -6   1   8  162.20    6.98
   6  -1  -8  148.99    9.03
  -6   1   7   44.59    5.23
   6  -1  -7   35.67    3.22
   6  -1  -7   26.43    7.46
  -6   1   6    0.82    2.37
   6  -1  -6    4.61    1.27
   6  -1  -6    5.38    2.51
  -6   1   5   99.86    6.45
   6  -1  -5   88.86    5.38
   6  -1  -5   65.47    6.84
  -6   1   5   92.38    4.93
  -6   1   4   51.44    4.59
   6  -1  -4   48.76    3.58
   6  -1  -4   49.01   11.00
  -6   1   4   46.28    3.63
  -6   1   3   23.30    3.60
   6  -1  -3   25.49    2.77
   6  -1  -3   16.91    3.08
  -6   1   2    3.14    2.31
   6  -1  -2    0.98    1.37
  -6   1   1   21.19    3.56
   6  -1  -1   20.30    2.30
  -6   1   0   12.34    2.60
  -6   1   0   14.20    0.95
   6  -1   0   15.00    1.71
  -6   1  -1  113.07    4.05
   6  -1   1  115.82    5.56
   6  -1   2  404.43   14.61
  -6   1  -2  372.46   12.08
   6  -1   2  371.64   12.76
   6  -1   3  401.89   19.03
  -6   1  -3  385.14   17.31
   6  -1   4  216.56   11.27
  -6   1  -4  206.14    9.61
   6  -1   5   31.39    9.34
  -6   1  -5   43.01    2.81
   6  -1   6    7.39    2.59
  -6   1  -6   10.49    1.90
   6  -1   7    1.98    1.21
  -6   1  -7    2.39    0.89
   6  -1   8    4.47    2.57
  -6   1  -8    1.45    0.96
   6  -1   9    5.85    2.79
  -6   1  -9   16.70    3.18
   6  -1  10  167.97   16.07
  -6   1 -10  182.40   12.14
   6  -1  11   47.08   17.23
  -6   1 -11   87.65    7.84
  -6   0  12   35.72    9.03
   6   0 -12   18.84   11.12
  -6   0  11    8.68    4.23
   6   0 -11    2.97    1.92
  -6   0  10   70.51    6.12
   6   0 -10   65.60    6.62
  -6   0   9  177.86    7.14
   6   0  -9  168.75    5.98
  -6   0   8   85.69    7.88
  -6   0   7    5.37    2.26
   6   0  -7    5.91    2.00
  -6   0   6  170.32   10.52
   6   0  -6  156.00    9.91
  -6   0   6  141.49    7.85
  -6   0   5  351.23   13.17
   6   0  -5  395.17   15.05
  -6   0   5  361.12   12.66
  -6   0   4  284.17   14.44
   6   0  -4  273.05   14.55
  -6   0   4  294.68   14.21
  -6   0   3   41.20    5.29
   6   0  -3   32.69    9.04
  -6   0   2   38.57    4.55
   6   0  -2   23.79    5.72
  -6   0   1   98.94    6.25
   6   0  -1  102.09    4.66
   6   0   0  252.95   10.06
   6   0   1   98.37    6.92
   6   0   1   75.88    8.40
   6   0   2   11.24    2.77
   6   0   2   10.37    2.88
   6   0   3    9.35    2.40
   6   0   3    1.81    0.82
   6   0   4   10.68    3.79
   6   0   4    9.02    2.01
   6   0   5  119.45   14.19
   6   0   6  242.54    9.87
   6   0   7  186.38    8.83
   6   0   8   52.44   11.00
   6   0   9   11.68    6.16
   6   0  10    0.13    1.91
  -6  -1  11   54.23    6.14
   6   1 -11   21.34   11.17
  -6  -1  10   72.46    6.65
   6   1 -10   57.85   15.67
  -6  -1   9  125.71    9.68
   6   1  -9   90.01    9.88
  -6  -1   8   35.20    7.10
   6   1  -8   17.76   10.60
  -6  -1   7   12.54    3.53
   6   1  -7   13.53    4.36
  -6  -1   7   22.57    2.99
  -6  -1   6  164.78    7.54
   6   1  -6  160.07    7.30
  -6  -1   6  173.05    6.99
  -6  -1   5  194.83   11.33
   6   1  -5  240.94   13.35
  -6  -1   5  213.52   11.93
  -6  -1   4   53.00    5.18
   6   1  -4   49.88   10.41
  -6  -1   4   54.15    4.18
  -6  -1   3   55.58    4.83
   6   1  -3   46.77    8.62
  -6  -1   3   52.90    4.25
  -6  -1   2  432.45   16.51
   6   1  -2  374.00   13.70
  -6  -1   1  524.28   19.24
   6   1  -1  538.11   18.28
   6   1   0  198.37    9.29
   6   1   0  159.02    7.95
   6   1   1    6.83    2.72
   6   1   1    1.34    1.12
   6   1   2   22.95    3.05
   6   1   2    6.37    2.77
   6   1   3  359.75   19.68
   6   1   3  351.14   18.35
   6   1   4  237.20   12.22
   6   1   5    6.47    3.90
   6   1   6    2.61    1.69
   6   1   7    2.63    2.60
   6   1   8    5.62    2.49
   6   1   9   17.81   12.10
   6   2 -10   12.57    5.10
  -6  -2   9   47.45   12.28
  -6  -2   8  153.02   11.00
   6   2  -8  171.41   12.08
  -6  -2   8  163.04   11.04
   6   2  -7    1.63    2.60
  -6  -2   7    1.36    1.28
  -6  -2   6   67.49   14.94
   6   2  -6   58.77   13.09
  -6  -2   6   73.91    4.00
  -6  -2   5  105.38    6.11
   6   2  -5  117.74   14.84
  -6  -2   5  104.17    5.32
  -6  -2   4   14.84    3.72
   6   2  -4   11.91    4.14
  -6  -2   4   17.09    3.63
  -6  -2   3   32.97    4.66
   6   2  -3   26.23    9.15
  -6  -2   3   40.21    4.80
  -6  -2   2  176.95   11.55
   6   2  -2  137.70    9.22
   6   2  -1  107.28    7.61
   6   2   0    1.61    1.65
   6   2   0    2.37    1.44
   6   2   1  193.32    8.46
   6   2   1  167.37    7.82
   6   2   2  418.22   14.39
   6   2   2  412.55   12.74
   6   2   3  200.37    9.79
   6   2   3  179.24    4.13
   6   2   4   22.84   11.19
   6   2   5    8.89    3.42
   6   2   6  180.40   13.36
   6   2   7  219.01   14.98
   6   2   8   15.19   10.22
  -6  -3   9  111.82   10.38
   6   3  -9   84.23   16.61
  -6  -3   8  111.96    8.89
   6   3  -8  114.18    9.15
  -6  -3   8  109.73    8.01
  -6  -3   7  122.74   10.57
   6   3  -7  115.70    9.13
  -6  -3   7  101.74    8.17
  -6  -3   6    7.45    3.07
   6   3  -6    6.14    3.28
  -6  -3   6   10.66    3.45
  -6  -3   5  256.88    8.82
   6   3  -5  229.76    7.90
  -6  -3   5  251.42    8.14
   6   3  -4   26.98    7.02
  -6  -3   4   42.48    8.09
  -6  -3   3    6.92    4.03
   6   3  -3    3.85    1.93
  -6  -3   3   10.47    3.96
  -6  -3   2   91.63    5.42
   6   3  -2   59.18   14.13
  -6  -3   2   93.29    5.74
   6   3  -1   69.14   15.44
   6   3  -1   71.59    7.61
   6   3   0    3.46    1.85
   6   3   0    4.52    2.05
   6   3   1   25.19    5.59
   6   3   1   24.18    8.41
   6   3   2   64.70   11.85
   6   3   3    6.67    4.53
   6   3   4   27.29    8.98
   6   3   5  192.11   14.07
   6   3   6  121.66    9.98
  -6  -4   7    1.06    2.39
   6   4  -7    4.16    2.00
  -6  -4   7    7.56    2.95
  -6  -4   6   76.06    7.69
   6   4  -6   41.46   13.84
  -6  -4   6   46.36   11.24
  -6  -4   5  145.99   11.20
   6   4  -5  141.40   10.54
  -6  -4   5  166.67   12.45
  -6  -4   4  197.21   14.29
   6   4  -4  187.71   12.84
  -6  -4   4  189.81   13.81
  -6  -4   3   24.09    7.35
   6   4  -3   13.56    4.77
  -6  -4   3   20.55    6.37
  -6  -4   2   96.08    9.14
   6   4  -2   85.49    6.62
  -6  -4   2   99.84    9.46
   6   4  -1   71.58    7.18
   6   4  -1   59.28   16.07
  -6  -4   1   76.44    7.49
   6   4   0   27.93    8.22
   6   4   0    8.06    2.65
   6   4   1   19.05    5.98
   6   4   1   10.71    3.77
   6   4   2   46.70   11.44
   6   4   3   25.49    6.23
   6   4   4    9.33    4.73
   7  -8  -4   21.59   11.34
  -7   8   4   29.14    7.14
   7  -8  -3   29.18    9.13
  -7   8   3   32.76    8.07
   7  -8  -2    3.00    3.28
  -7   8   2   21.00    4.81
   7  -8  -1   65.45   13.86
  -7   8   1   86.60    6.90
   7  -8   0  121.27   12.61
  -7   8   0  115.85    8.16
   7  -8   1   47.52    5.50
  -7   8  -1   60.70    5.48
   7  -8   2    6.97    3.09
  -7   8  -2    0.08    1.66
   7  -8   3   43.67   10.84
  -7   8  -3   44.90   10.55
  -7   8  -4   51.78    5.49
   7  -7  -6    5.00    4.00
  -7   7   6    7.08    2.69
   7  -7  -5   46.75   17.77
  -7   7   5   75.09    6.32
   7  -7  -4  109.19   10.00
  -7   7   4  115.50    8.53
   7  -7  -3   37.12   15.08
  -7   7   3   49.29   12.50
   7  -7  -2    7.90    3.37
  -7   7   2    2.61    1.90
   7  -7  -1   46.34   17.37
  -7   7   1   59.54    5.35
   7  -7   0  140.12   15.96
  -7   7   0  160.21   10.82
  -7   7  -1    5.47    2.60
   7  -7   2   26.94    5.33
  -7   7  -2   23.44    4.03
  -7   7  -3  112.91    7.97
  -7   7  -4  102.69    7.38
  -7   7  -5   14.03    3.04
   7  -7   5   10.43    3.47
  -7   7  -6   13.18    3.89
   7  -7   6    4.92    2.41
  -7   6   8   36.65    8.71
   7  -6  -8   21.77    9.03
  -7   6   7    5.39    2.22
   7  -6  -7   11.20    3.92
  -7   6   6   14.51    3.88
   7  -6  -6   12.14    6.99
  -7   6   5   79.18    5.77
   7  -6  -5   73.42   17.95
  -7   6   4   86.94    6.32
   7  -6  -4   97.02   10.86
  -7   6   3    8.24    2.18
   7  -6  -3   10.25    4.68
  -7   6   3   12.98    3.48
  -7   6   2   13.25    3.29
   7  -6  -2   10.35    4.24
  -7   6   2   15.32    4.39
   7  -6  -1   53.07   13.67
  -7   6   1   68.86   15.00
   7  -6   0   71.34    4.66
  -7   6   0   63.51    6.31
   7  -6   1   20.26    3.95
  -7   6  -1   20.86    3.13
   7  -6   2   27.87    5.88
  -7   6  -2   30.02    5.64
  -7   6  -3  246.91    6.01
  -7   6  -4   68.12    5.16
   7  -6   4   60.75    4.83
   7  -6   5    1.31    1.05
  -7   6  -6   25.06    6.69
   7  -6   6   26.96    7.01
  -7   6  -7   74.48    5.79
   7  -6   7   77.83    6.22
  -7   6  -8   33.19    7.82
   7  -6   8   32.26    7.79
  -7   5   9  260.54   21.42
   7  -5  -9  217.10   18.34
  -7   5   8  181.13   12.37
   7  -5  -8  163.35   11.77
  -7   5   7   45.01   11.38
   7  -5  -7   28.86   14.39
  -7   5   6    6.41    3.09
   7  -5  -6    5.33    2.29
  -7   5   5   83.33    4.33
   7  -5  -5   65.56   11.48
  -7   5   4   88.65    3.85
   7  -5  -4   93.10    4.33
  -7   5   3   12.39    2.30
   7  -5  -3    9.93    2.50
  -7   5   2   15.64    2.83
   7  -5  -2   13.26    3.98
  -7   5   1   86.62    7.67
   7  -5  -1   75.23    7.72
  -7   5   0   51.83    4.85
   7  -5   0   63.51    6.76
  -7   5   0   50.55    4.84
  -7   5  -1   10.24    1.89
   7  -5   1   11.84    2.85
  -7   5  -1   12.01    2.55
  -7   5  -2    4.76    1.80
  -7   5  -4   29.24    5.10
  -7   5  -5    4.59    1.98
   7  -5   5    3.33    1.62
  -7   5  -6  129.09    8.80
   7  -5   6  124.15    8.61
  -7   5  -7   61.19   13.61
   7  -5   7   55.82   13.90
  -7   5  -8   26.25    5.35
   7  -5   8   17.42    3.92
  -7   4   9    9.40    3.28
   7  -4  -9    9.70    3.40
  -7   4   8   89.74    7.09
   7  -4  -8   90.56    7.09
  -7   4   7   59.24    4.93
   7  -4  -7   57.47    9.83
  -7   4   6  163.25    5.88
   7  -4  -6  134.85    7.06
  -7   4   5  251.47    6.21
   7  -4  -5  238.00   10.77
  -7   4   4  153.08    6.53
   7  -4  -4  137.12    7.37
  -7   4   3   31.08    3.45
   7  -4  -3   28.47    7.23
  -7   4   2   38.65    4.03
   7  -4  -2   34.69    4.44
  -7   4   1  141.38    8.42
   7  -4  -1  144.28    8.48
  -7   4   0  123.75    7.74
   7  -4   0  122.40   13.94
  -7   4  -1   11.99    2.36
  -7   4  -2   15.59    3.03
  -7   4  -2    9.03    1.65
  -7   4  -3   47.22    4.87
  -7   4  -3   36.99    3.46
  -7   4  -3   37.22    3.71
  -7   4  -4   43.10    4.63
  -7   4  -4   45.97    4.47
  -7   4  -4   44.32    4.28
  -7   4  -5   42.41    7.33
  -7   4  -7    7.81    2.01
  -7   4  -8    3.29    1.67
  -7   4  -9   32.65    7.70
  -7   3  10    5.09    3.29
  -7   3   9   55.94    5.30
   7  -3  -9   44.43    8.67
  -7   3   8  154.48   11.07
   7  -3  -8  131.88    9.80
  -7   3   7   87.95    4.65
   7  -3  -7   77.93    5.53
  -7   3   6    6.49    2.36
   7  -3  -6    5.18    1.94
  -7   3   5   71.84    3.92
   7  -3  -5   70.97    3.49
  -7   3   4  231.12    8.74
   7  -3  -4  208.78    7.68
  -7   3   3   14.40    2.26
   7  -3  -3   13.61    3.28
  -7   3   2   96.29    7.35
   7  -3  -2  104.75    7.45
  -7   3   1  135.48    8.50
   7  -3  -1  100.53    6.93
  -7   3   0  103.36    7.62
  -7   3  -1    1.92    1.58
  -7   3  -2   88.09    7.82
  -7   3  -2   76.76    6.31
  -7   3  -3  160.83    6.81
  -7   3  -3  141.52    5.02
  -7   3  -4   88.69    4.36
  -7   3  -4   81.74    2.91
   7  -3   5   13.11    3.19
  -7   3  -5    9.19    1.62
   7  -3   6    2.52    1.41
  -7   3  -6    3.13    1.56
   7  -3   7   19.35    3.73
  -7   3  -7   18.09    2.96
  -7   3  -8   67.30    5.12
  -7   3  -9  100.65    8.65
  -7   2  10    6.34    3.14
   7  -2 -10   12.68    4.57
  -7   2   9   51.33    5.22
  -7   2   8  144.06   10.70
   7  -2  -8  102.44    8.35
  -7   2   7   28.27    5.43
   7  -2  -7   29.33    5.68
  -7   2   6    8.10    3.01
   7  -2  -6   12.59    2.59
  -7   2   5  134.60    5.37
   7  -2  -5  114.09    5.01
  -7   2   4  154.62    7.14
   7  -2  -4  188.64    8.34
  -7   2   3   68.05    6.53
   7  -2  -3   71.94    6.79
  -7   2   2    5.95    2.75
   7  -2  -2    4.59    1.27
  -7   2   1  234.06   13.53
   7  -2  -1  226.09   12.61
  -7   2   0   19.44    4.04
  -7   2  -1   -0.24    1.86
  -7   2  -2   20.46    3.20
   7  -2   4    5.94    1.79
   7  -2   5   17.66    4.86
   7  -2   6   72.39    5.73
   7  -2   8    7.60    5.10
  -7   1  10   37.81    9.47
   7  -1 -10   29.38    7.59
  -7   1   9   80.14    7.25
   7  -1  -9   85.41    7.69
  -7   1   8  131.95    9.84
   7  -1  -8  133.36    9.98
  -7   1   7   34.61    5.88
   7  -1  -7   33.32    6.00
  -7   1   6    6.20    3.43
   7  -1  -6    7.17    3.23
  -7   1   5  102.91    5.34
   7  -1  -5   81.34    4.41
  -7   1   4   76.12    7.22
   7  -1  -4   81.28    7.79
  -7   1   3   20.70    3.76
   7  -1  -3   13.80    2.91
  -7   1   3   10.03    2.12
  -7   1   2   19.29    3.01
   7  -1  -2   18.44    3.01
  -7   1   1  134.31    6.67
  -7   1   0   95.27    5.83
   7  -1   0   95.07   10.23
  -7   1  -1   18.11    3.25
   7  -1   1   12.39    2.21
   7  -1   2   67.73    6.02
   7  -1   3   50.23    5.57
   7  -1   4   32.60    4.78
   7  -1   5   25.16    5.25
   7  -1   6    7.59    3.02
   7  -1   7    5.34    2.58
   7  -1   8    0.69    1.28
  -7   0   9    6.63    2.62
   7   0  -9    4.53    2.33
  -7   0   8  262.56   17.88
   7   0  -8  216.96   15.48
  -7   0   7    8.38    3.39
   7   0  -7    7.03    3.76
  -7   0   6    4.31    2.65
   7   0  -6    0.04    1.86
  -7   0   5   84.62    5.12
   7   0  -5   89.64    4.99
  -7   0   4   68.27   15.15
   7   0  -4   64.48    7.18
  -7   0   3   17.13    4.37
   7   0  -3   13.29    5.86
  -7   0   3   26.27    3.65
  -7   0   2   19.55    4.63
   7   0  -2    3.60    2.44
  -7   0   1   33.68    4.91
   7   0  -1   20.86    9.65
  -7   0   0   35.60    4.74
   7   0   0   23.11    6.13
   7   0   1    1.51    1.35
   7   0   2   31.69    4.73
   7   0   2   27.98    3.24
   7   0   3   34.29    6.92
   7   0   4   23.68    4.64
   7   0   5    5.17    2.34
   7   0   6   12.39    7.71
   7   0   7   10.20    7.91
  -7  -1   8   -1.24    2.29
   7   1  -8    4.77    2.62
  -7  -1   7  191.30   13.38
   7   1  -7  158.68   17.76
  -7  -1   6   33.53    9.25
   7   1  -6   18.40   10.31
  -7  -1   5  217.25   15.07
   7   1  -5  235.40   15.94
  -7  -1   4   53.19    5.97
   7   1  -4   40.79   10.53
  -7  -1   4   52.79    5.07
  -7  -1   3   84.98    6.39
   7   1  -3   36.31   12.65
  -7  -1   3   84.67    5.25
  -7  -1   2    8.15    4.41
   7   1  -2    1.70    1.39
  -7  -1   1   39.64    7.84
   7   1  -1   16.44    7.81
  -7  -1   0   73.04    5.63
   7   1   0   54.57   10.11
   7   1   1   37.25    7.53
   7   1   1   15.47    6.51
   7   1   2    2.14    1.66
   7   1   3    1.88    1.45
   7   1   4   13.47    3.34
   7   1   5    9.19    4.04
   7   1   6    4.53    3.01
  -7  -2   7   19.03    5.78
   7   2  -7   10.61    6.17
  -7  -2   6   12.32    5.22
   7   2  -6    2.36    1.77
  -7  -2   5   27.60    6.46
   7   2  -5    2.66    3.39
  -7  -2   4  163.13   12.17
   7   2  -4  177.16   12.08
  -7  -2   4  152.98   11.02
  -7  -2   3  174.55   13.44
   7   2  -3  146.81   10.16
  -7  -2   3  150.86   10.96
  -7  -2   2   74.62    7.50
   7   2  -2   27.25   13.40
  -7  -2   2   55.43   14.22
  -7  -2   1   53.69   14.00
   7   2  -1   12.84    8.48
   7   2   0  130.76    9.20
   7   2   1   26.79    8.05
   7   2   1   11.93    6.31
   7   2   2    3.31    1.87
   7   2   3   44.06    8.98
   7   2   4   76.09    8.70
  -7  -3   3    2.62    2.86
   7   3  -3    2.39    2.13
  -7  -3   3    4.12    2.83
  -7  -3   2   73.60    8.90
   7   3  -2   26.44   14.06
  -7  -3   2   83.25    9.13
  -7  -3   1   42.32   10.35
   7   3  -1   10.92    6.47
  -7  -3   1   36.77    9.35
   7   3   0  137.34   11.67
   7   3   1    3.02    2.69
   8  -6  -4  108.26   13.11
   8  -6  -3  240.81   20.04
  -8   6   3  262.40   21.37
   8  -6  -2   80.29    8.02
  -8   6   2   83.50    6.44
   8  -6  -1    4.30    2.01
  -8   6   1    6.27    2.51
   8  -6   0   40.26    7.89
  -8   6   0   80.70    6.29
  -8   6  -1  165.86   11.10
  -8   6  -2  142.73   11.90
  -8   5   5   37.34    8.95
  -8   5   4  167.26   11.39
  -8   5   3    3.14    2.21
  -8   5   2    2.49    1.87
  -8   5   0  244.92   15.84
  -8   5  -1  176.75   11.62
  -8   5  -2   57.37    4.54
  -8   5  -3    2.42    1.06
  -8   5  -4   65.49    5.89
  -8   4   6   58.44    5.81
  -8   4   5    3.06    1.96
  -8   4   4   31.13    8.12
  -8   4   3  326.88   71.02
  -8   4   2  308.75   67.07
  -8   4   1   34.75    8.93
  -8   4   0    9.80    2.74
  -8   4  -1    7.75    2.38
  -8   4  -2    3.06    1.81
  -8   4  -2    4.21    1.64
  -8   3   6  127.68   11.38
  -8   3   5   16.09    3.93
  -8   3   4    2.02    1.99
  -8   3   3   76.20    6.65
  -8   3   2   58.17   14.67
  -8   3   1    1.53    2.04
  -8   3   0  280.74   18.82
  -8   3  -1  562.48  121.96
  -8   3  -2    9.18    3.29
  -8   3  -3    4.40    2.35
  -8   3  -4   18.02    4.48
  -8   2   6  100.49    9.32
   8  -2  -6   92.19    8.86
  -8   2   5    6.13    3.48
   8  -2  -5    1.37    1.60
  -8   2   4   37.83   10.16
  -8   2   3  160.75   11.71
   8  -2  -3  141.49   10.11
  -8   2   2   92.82    7.49
   8  -2  -2   68.92    5.79
  -8   2   1   26.28    7.19
  -8   2   0   38.58   10.59
  -8   2  -1   98.86    8.19
  -8   2  -2   48.15   12.53
  -8   2  -3   60.72    5.24
  -8   2  -4  361.62   82.14
   8  -2   5   30.78    7.47
  -8   1   6  463.74   37.60
   8  -1  -6  443.23   35.72
  -8   1   5    3.97    2.59
   8  -1  -5    7.53    2.63
  -8   1   4   13.11    4.73
   8  -1  -4    3.89    1.98
  -8   1   3  166.96   11.98
   8  -1  -3  164.16   11.57
  -8   1   2   71.58    6.74
   8  -1  -2   38.40    9.84
  -8   1   1    7.08    2.75
   8  -1  -1    5.73    2.20
  -8   1   0   85.29    7.96
   8  -1   0   85.30    6.43
  -8   1  -1  124.15    9.98
  -8   1  -2   69.56    6.85
  -8   1  -3    9.60    4.16
   8  -1   4   43.74   10.59
  -8   0   4  267.51   22.49
   8   0  -4  214.27   18.28
  -8   0   3  575.50   46.49
   8   0  -3  469.42   38.19
  -8   0   2   68.81    7.73
   8   0  -2   62.75    5.80
   8   0  -1   16.29    4.11
  -8   0   0   91.11    8.26
   8   0   0   73.66    5.83
  -8   0  -1   80.95    8.65
  -8   0  -2   26.75    7.40

_computing_structure_solution     'SHELXT 2014/4 (Sheldrick, 2014)'
;
_shelx_hkl_checksum              99121
_shelx_shelxl_version_number     2014/7
_olex2_submission_special_instructions 'No special instructions were received'
loop_
_space_group_symop_operation_xyz
'x, y, z'
'-x, -y, -z'
loop_
_atom_site_label
_atom_site_type_symbol
_atom_site_fract_x
_atom_site_fract_y
_atom_site_fract_z
_atom_site_U_iso_or_equiv
_atom_site_adp_type
_atom_site_occupancy
_atom_site_site_symmetry_order
_atom_site_calc_flag
_atom_site_refinement_flags_posn
S1 S -0.36076(6) 0.50241(5) 0.36874(3) 0.02815(13) Uani 1 1 d .
O1 O -0.10843(17) 0.16074(14) 0.43285(9) 0.0272(3) Uani 1 1 d .
C1 C -0.5476(2) -0.15997(19) 0.54143(11) 0.0229(3) Uani 1 1 d .
C2 C -0.3428(2) -0.0878(2) 0.50934(12) 0.0246(3) Uani 1 1 d .
H2 H -0.2403 -0.1426 0.5149 0.030 Uiso 1 1 calc R
C3 C -0.3029(2) 0.0697(2) 0.46904(12) 0.0234(3) Uani 1 1 d .
C4 C -0.1374(2) 0.3088(2) 0.39975(12) 0.0254(3) Uani 1 1 d .
C5 C -0.3373(2) 0.31450(19) 0.41289(12) 0.0239(3) Uani 1 1 d .
C6 C -0.0978(3) 0.5664(2) 0.33243(12) 0.0271(3) Uani 1 1 d .
C7 C 0.0023(3) 0.4493(2) 0.35460(12) 0.0271(3) Uani 1 1 d .
H7 H 0.1425 0.4607 0.3417 0.033 Uiso 1 1 calc R
C8 C -0.0100(3) 0.7323(2) 0.28189(14) 0.0313(4) Uani 1 1 d .
H8A H -0.0208 0.8276 0.3284 0.038 Uiso 1 1 calc R
H8B H -0.0947 0.7271 0.2179 0.038 Uiso 1 1 calc R
C9 C 0.2211(3) 0.7670(2) 0.25657(13) 0.0283(3) Uani 1 1 d .
H9A H 0.3047 0.7716 0.3208 0.034 Uiso 1 1 calc R
H9B H 0.2309 0.6708 0.2106 0.034 Uiso 1 1 calc R
C10 C 0.3170(3) 0.9339(2) 0.20490(13) 0.0291(4) Uani 1 1 d .
H10A H 0.2363 0.9295 0.1397 0.035 Uiso 1 1 calc R
H10B H 0.3077 1.0310 0.2502 0.035 Uiso 1 1 calc R
C11 C 0.5472(3) 0.9614(2) 0.18314(13) 0.0300(4) Uani 1 1 d .
H11A H 0.5544 0.8641 0.1373 0.036 Uiso 1 1 calc R
H11B H 0.6253 0.9616 0.2485 0.036 Uiso 1 1 calc R
C12 C 0.6564(3) 1.1276(2) 0.13353(13) 0.0300(4) Uani 1 1 d .
H12A H 0.5837 1.1250 0.0663 0.036 Uiso 1 1 calc R
H12B H 0.6439 1.2250 0.1775 0.036 Uiso 1 1 calc R
C13 C 0.8894(3) 1.1550(2) 0.11799(14) 0.0328(4) Uani 1 1 d .
H13A H 0.9020 1.0571 0.0745 0.039 Uiso 1 1 calc R
H13B H 0.9623 1.1586 0.1853 0.039 Uiso 1 1 calc R
C14 C 0.9978(3) 1.3202(2) 0.06752(14) 0.0359(4) Uani 1 1 d .
H14A H 0.9757 1.4170 0.1081 0.043 Uiso 1 1 calc R
H14B H 0.9315 1.3126 -0.0020 0.043 Uiso 1 1 calc R
C15 C 1.2348(3) 1.3556(3) 0.05901(19) 0.0533(6) Uani 1 1 d .
H15A H 1.2581 1.2633 0.0158 0.080 Uiso 1 1 calc GR
H15B H 1.3019 1.3630 0.1274 0.080 Uiso 1 1 calc GR
H15C H 1.2939 1.4628 0.0284 0.080 Uiso 1 1 calc GR
loop_
_atom_site_aniso_label
_atom_site_aniso_U_11
_atom_site_aniso_U_22
_atom_site_aniso_U_33
_atom_site_aniso_U_23
_atom_site_aniso_U_13
_atom_site_aniso_U_12
S1 0.0239(2) 0.0259(2) 0.0376(2) 0.00659(16) 0.00601(16) 0.01085(16)
O1 0.0191(6) 0.0290(6) 0.0368(6) 0.0095(5) 0.0065(4) 0.0103(5)
C1 0.0214(8) 0.0252(7) 0.0240(7) 0.0012(6) 0.0013(6) 0.0104(6)
C2 0.0198(8) 0.0270(8) 0.0300(8) 0.0022(6) 0.0024(6) 0.0117(6)
C3 0.0168(7) 0.0275(7) 0.0267(7) 0.0019(6) 0.0038(6) 0.0081(6)
C4 0.0230(8) 0.0263(8) 0.0289(8) 0.0038(6) 0.0021(6) 0.0104(6)
C5 0.0212(8) 0.0238(7) 0.0279(8) 0.0027(6) 0.0023(6) 0.0089(6)
C6 0.0240(8) 0.0265(8) 0.0299(8) 0.0024(6) 0.0042(6) 0.0067(6)
C7 0.0200(8) 0.0307(8) 0.0311(8) 0.0042(6) 0.0040(6) 0.0083(6)
C8 0.0278(9) 0.0289(8) 0.0371(9) 0.0071(7) 0.0048(7) 0.0080(7)
C9 0.0274(9) 0.0251(8) 0.0308(8) 0.0033(6) 0.0046(6) 0.0058(6)
C10 0.0302(9) 0.0262(8) 0.0294(8) 0.0040(6) 0.0020(7) 0.0063(7)
C11 0.0312(9) 0.0271(8) 0.0305(8) 0.0035(6) 0.0052(7) 0.0071(7)
C12 0.0313(9) 0.0262(8) 0.0307(8) 0.0028(6) 0.0040(7) 0.0061(7)
C13 0.0333(9) 0.0284(8) 0.0359(9) 0.0026(7) 0.0093(7) 0.0077(7)
C14 0.0348(10) 0.0307(9) 0.0380(9) 0.0031(7) 0.0080(7) 0.0039(7)
C15 0.0403(12) 0.0419(11) 0.0747(15) 0.0053(10) 0.0233(11) 0.0068(9)
loop_
_atom_type_symbol
_atom_type_description
_atom_type_scat_dispersion_real
_atom_type_scat_dispersion_imag
_atom_type_scat_source
C C 0.0033 0.0016 'International Tables Vol C Tables 4.2.6.8 and 6.1.1.4'
H H 0.0000 0.0000 'International Tables Vol C Tables 4.2.6.8 and 6.1.1.4'
O O 0.0106 0.0060 'International Tables Vol C Tables 4.2.6.8 and 6.1.1.4'
S S 0.1246 0.1234 'International Tables Vol C Tables 4.2.6.8 and 6.1.1.4'
loop_
_geom_angle_atom_site_label_1
_geom_angle_atom_site_label_2
_geom_angle_atom_site_label_3
_geom_angle
_geom_angle_site_symmetry_1
_geom_angle_site_symmetry_3
C5 S1 C6 91.54(7) . .
C4 O1 C3 104.54(12) . .
C2 C1 C3 119.55(14) . 2_456
C2 C1 C5 136.48(14) . 2_456
C3 C1 C5 103.97(13) 2_456 2_456
C1 C2 H2 122.3 . .
C3 C2 C1 115.50(13) . .
C3 C2 H2 122.3 . .
O1 C3 C1 111.46(13) . 2_456
C2 C3 O1 123.59(13) . .
C2 C3 C1 124.95(14) . 2_456
O1 C4 C7 130.81(14) . .
C5 C4 O1 112.49(13) . .
C5 C4 C7 116.70(14) . .
C1 C5 S1 142.94(12) 2_456 .
C4 C5 S1 109.52(11) . .
C4 C5 C1 107.54(13) . 2_456
C7 C6 S1 112.09(12) . .
C7 C6 C8 127.99(15) . .
C8 C6 S1 119.92(12) . .
C4 C7 H7 124.9 . .
C6 C7 C4 110.16(14) . .
C6 C7 H7 124.9 . .
C6 C8 H8A 109.1 . .
C6 C8 H8B 109.1 . .
C6 C8 C9 112.46(14) . .
H8A C8 H8B 107.8 . .
C9 C8 H8A 109.1 . .
C9 C8 H8B 109.1 . .
C8 C9 H9A 108.7 . .
C8 C9 H9B 108.7 . .
H9A C9 H9B 107.6 . .
C10 C9 C8 114.38(14) . .
C10 C9 H9A 108.7 . .
C10 C9 H9B 108.7 . .
C9 C10 H10A 109.3 . .
C9 C10 H10B 109.3 . .
H10A C10 H10B 108.0 . .
C11 C10 C9 111.58(14) . .
C11 C10 H10A 109.3 . .
C11 C10 H10B 109.3 . .
C10 C11 H11A 108.6 . .
C10 C11 H11B 108.6 . .
C10 C11 C12 114.86(14) . .
H11A C11 H11B 107.5 . .
C12 C11 H11A 108.6 . .
C12 C11 H11B 108.6 . .
C11 C12 H12A 108.9 . .
C11 C12 H12B 108.9 . .
H12A C12 H12B 107.7 . .
C13 C12 C11 113.33(14) . .
C13 C12 H12A 108.9 . .
C13 C12 H12B 108.9 . .
C12 C13 H13A 108.9 . .
C12 C13 H13B 108.9 . .
C12 C13 C14 113.29(14) . .
H13A C13 H13B 107.7 . .
C14 C13 H13A 108.9 . .
C14 C13 H13B 108.9 . .
C13 C14 H14A 108.8 . .
C13 C14 H14B 108.8 . .
C13 C14 C15 113.68(16) . .
H14A C14 H14B 107.7 . .
C15 C14 H14A 108.8 . .
C15 C14 H14B 108.8 . .
C14 C15 H15A 109.5 . .
C14 C15 H15B 109.5 . .
C14 C15 H15C 109.5 . .
H15A C15 H15B 109.5 . .
H15A C15 H15C 109.5 . .
H15B C15 H15C 109.5 . .
loop_
_geom_bond_atom_site_label_1
_geom_bond_atom_site_label_2
_geom_bond_distance
_geom_bond_site_symmetry_2
S1 C5 1.7253(16) .
S1 C6 1.7535(18) .
O1 C3 1.3905(18) .
O1 C4 1.3783(19) .
C1 C2 1.395(2) .
C1 C3 1.421(2) 2_456
C1 C5 1.435(2) 2_456
C2 H2 0.9300 .
C2 C3 1.374(2) .
C3 C1 1.421(2) 2_456
C4 C5 1.362(2) .
C4 C7 1.409(2) .
C5 C1 1.435(2) 2_456
C6 C7 1.367(2) .
C6 C8 1.503(2) .
C7 H7 0.9300 .
C8 H8A 0.9700 .
C8 H8B 0.9700 .
C8 C9 1.526(2) .
C9 H9A 0.9700 .
C9 H9B 0.9700 .
C9 C10 1.524(2) .
C10 H10A 0.9700 .
C10 H10B 0.9700 .
C10 C11 1.517(2) .
C11 H11A 0.9700 .
C11 H11B 0.9700 .
C11 C12 1.523(2) .
C12 H12A 0.9700 .
C12 H12B 0.9700 .
C12 C13 1.519(2) .
C13 H13A 0.9700 .
C13 H13B 0.9700 .
C13 C14 1.521(2) .
C14 H14A 0.9700 .
C14 H14B 0.9700 .
C14 C15 1.521(3) .
C15 H15A 0.9600 .
C15 H15B 0.9600 .
C15 H15C 0.9600 .
loop_
_geom_torsion_atom_site_label_1
_geom_torsion_atom_site_label_2
_geom_torsion_atom_site_label_3
_geom_torsion_atom_site_label_4
_geom_torsion
_geom_torsion_site_symmetry_1
_geom_torsion_site_symmetry_4
S1 C6 C7 C4 0.61(18) . .
S1 C6 C8 C9 179.60(12) . .
O1 C4 C5 S1 -179.53(10) . .
O1 C4 C5 C1 0.29(18) . 2_456
O1 C4 C7 C6 178.83(16) . .
C1 C2 C3 O1 -179.78(13) . .
C1 C2 C3 C1 0.0(3) . 2_456
C3 O1 C4 C5 -0.22(17) . .
C3 O1 C4 C7 -179.24(16) . .
C3 C1 C2 C3 0.0(2) 2_456 .
C4 O1 C3 C1 0.07(17) . 2_456
C4 O1 C3 C2 179.89(15) . .
C5 S1 C6 C7 -0.70(13) . .
C5 S1 C6 C8 178.52(14) . .
C5 C1 C2 C3 -179.61(17) 2_456 .
C5 C4 C7 C6 -0.2(2) . .
C6 S1 C5 C1 -179.1(2) . 2_456
C6 S1 C5 C4 0.59(13) . .
C6 C8 C9 C10 179.85(14) . .
C7 C4 C5 S1 -0.37(19) . .
C7 C4 C5 C1 179.45(14) . 2_456
C7 C6 C8 C9 -1.3(2) . .
C8 C6 C7 C4 -178.55(16) . .
C8 C9 C10 C11 179.31(14) . .
C9 C10 C11 C12 -178.77(13) . .
C10 C11 C12 C13 177.08(14) . .
C11 C12 C13 C14 179.47(14) . .
C12 C13 C14 C15 175.71(16) . .
