#------------------------------------------------------------------------------
#$Date: 2017-11-07 02:58:51 +0200 (Tue, 07 Nov 2017) $
#$Revision: 202751 $
#$URL: file:///home/coder/svn-repositories/cod/cif/4/03/29/4032985.cif $
#------------------------------------------------------------------------------
#
# This file is available in the Crystallography Open Database (COD),
# http://www.crystallography.net/
#
# All data on this site have been placed in the public domain by the
# contributors.
#
data_4032985
loop_
_publ_author_name
'Faggyas, R\'eka J'
'Calder, Ewen D. D.'
'Wilson, Claire'
'Sutherland, Andrew'
_publ_section_title
;
 One-Pot Asymmetric Synthesis of Alkylidene 1-Alkylindan-1-ols Using
 Br\/onsted Acid and Palladium Catalysis.
;
_journal_issue                   21
_journal_name_full               'The Journal of organic chemistry'
_journal_page_first              11585
_journal_page_last               11593
_journal_paper_doi               10.1021/acs.joc.7b02287
_journal_volume                  82
_journal_year                    2017
_chemical_absolute_configuration rmad
_chemical_formula_moiety         'C10 H12 O2'
_chemical_formula_sum            'C10 H12 O2'
_chemical_formula_weight         164.20
_space_group_crystal_system      trigonal
_space_group_IT_number           145
_space_group_name_Hall           'P 32'
_space_group_name_H-M_alt        'P 32'
_symmetry_space_group_name_Hall  'P 32'
_symmetry_space_group_name_H-M   'P 32'
_atom_sites_solution_hydrogens   mixed
_atom_sites_solution_primary     dual
_audit_creation_date             2017-04-19
_audit_creation_method
;
Olex2 1.2
(compiled 2017.03.28 svn.r3405 for OlexSys, GUI svn.r5335)
;
_cell_angle_alpha                90
_cell_angle_beta                 90
_cell_angle_gamma                120
_cell_formula_units_Z            3
_cell_length_a                   11.1863(5)
_cell_length_b                   11.1863(5)
_cell_length_c                   6.1060(3)
_cell_measurement_reflns_used    5193
_cell_measurement_temperature    100
_cell_measurement_theta_max      74.51
_cell_measurement_theta_min      4.56
_cell_volume                     661.70(5)
_computing_cell_refinement       'SAINT V8.37A (Bruker-AXS, 2016)'
_computing_data_collection       'APEX3 Ver. 2016.9-0 (Bruker-AXS, 2016)'
_computing_data_reduction        'APEX3 Ver. 2016.9-0 (Bruker-AXS, 2016)'
_computing_molecular_graphics    'Olex2 (Dolomanov et al., 2009)'
_computing_publication_material  'Olex2 (Dolomanov et al., 2009)'
_computing_structure_refinement  'ShelXL (Sheldrick, 2015)'
_computing_structure_solution    'ShelXT (Sheldrick, 2015)'
_diffrn_ambient_temperature      100
_diffrn_detector                 'charge integrating pixel array detector'
_diffrn_detector_area_resol_mean 7.4074
_diffrn_detector_type            'Bruker PHOTON II'
_diffrn_measured_fraction_theta_full 1.000
_diffrn_measured_fraction_theta_max 0.996
_diffrn_measurement_device       'four-circle diffractometer'
_diffrn_measurement_device_type  'Bruker D8 VENTURE'
_diffrn_measurement_method       '\f and \w scans'
_diffrn_radiation_collimation    'focusing mirrors'
_diffrn_radiation_monochromator  'multilayer mirror optics'
_diffrn_radiation_type           CuK\a
_diffrn_radiation_wavelength     1.54178
_diffrn_reflns_av_R_equivalents  0.0313
_diffrn_reflns_av_unetI/netI     0.0313
_diffrn_reflns_Laue_measured_fraction_full 1.000
_diffrn_reflns_Laue_measured_fraction_max 0.996
_diffrn_reflns_limit_h_max       13
_diffrn_reflns_limit_h_min       -12
_diffrn_reflns_limit_k_max       12
_diffrn_reflns_limit_k_min       -13
_diffrn_reflns_limit_l_max       7
_diffrn_reflns_limit_l_min       -7
_diffrn_reflns_number            5837
_diffrn_reflns_point_group_measured_fraction_full 0.996
_diffrn_reflns_point_group_measured_fraction_max 0.983
_diffrn_reflns_theta_full        67.679
_diffrn_reflns_theta_max         74.506
_diffrn_reflns_theta_min         4.564
_diffrn_source                   'microfocus sealed tube'
_diffrn_source_type              'INCOATEC I\ms 3.0'
_diffrn_standards_number         0
_exptl_absorpt_coefficient_mu    0.687
_exptl_absorpt_correction_T_max  0.7538
_exptl_absorpt_correction_T_min  0.5849
_exptl_absorpt_correction_type   multi-scan
_exptl_absorpt_process_details
;
SADABS-2016/2 (Bruker,2016/2) was used for absorption correction. 
wR2(int) was 0.1333 before and 0.0653 after correction. The Ratio 
of minimum to maximum transmission is 0.7759. The \l/2 correction
 factor is Not present.
;
_exptl_crystal_colour            colourless
_exptl_crystal_colour_primary    colourless
_exptl_crystal_density_diffrn    1.236
_exptl_crystal_description       column
_exptl_crystal_F_000             264
_exptl_crystal_size_max          0.21
_exptl_crystal_size_mid          0.04
_exptl_crystal_size_min          0.02
_refine_diff_density_max         0.166
_refine_diff_density_min         -0.173
_refine_diff_density_rms         0.033
_refine_ls_abs_structure_details
;
 Flack x determined using 841 quotients [(I+)-(I-)]/[(I+)+(I-)]
 (Parsons, Flack and Wagner, Acta Cryst. B69 (2013) 249-259).
;
_refine_ls_abs_structure_Flack   0.10(9)
_refine_ls_extinction_method     none
_refine_ls_goodness_of_fit_ref   1.031
_refine_ls_hydrogen_treatment    mixed
_refine_ls_matrix_type           full
_refine_ls_number_parameters     118
_refine_ls_number_reflns         1761
_refine_ls_number_restraints     1
_refine_ls_restrained_S_all      1.031
_refine_ls_R_factor_all          0.0280
_refine_ls_R_factor_gt           0.0276
_refine_ls_shift/su_max          0.000
_refine_ls_shift/su_mean         0.000
_refine_ls_structure_factor_coef Fsqd
_refine_ls_weighting_details
'w=1/[\s^2^(Fo^2^)+(0.0390P)^2^+0.0800P] where P=(Fo^2^+2Fc^2^)/3'
_refine_ls_weighting_scheme      calc
_refine_ls_wR_factor_gt          0.0698
_refine_ls_wR_factor_ref         0.0700
_reflns_Friedel_coverage         0.974
_reflns_Friedel_fraction_full    0.991
_reflns_Friedel_fraction_max     0.970
_reflns_number_gt                1731
_reflns_number_total             1761
_reflns_threshold_expression     'I > 2\s(I)'
_cod_data_source_file            jo7b02287_si_002.cif
_cod_data_source_block           cu_2017gu0013_0m
_cod_depositor_comments
'Adding full bibliography for 4032985--4032986.cif.'
_cod_original_cell_volume        661.70(7)
_cod_database_code               4032985
_shelx_shelxl_version_number     2016/6
_shelx_space_group_comment
;
The symmetry employed for this shelxl refinement is uniquely defined
by the following loop, which should always be used as a source of
symmetry information in preference to the above space-group names.
They are only intended as comments.
;
_shelx_estimated_absorpt_t_max   0.986
_shelx_estimated_absorpt_t_min   0.869
_olex2_refinement_description
;
1. Fixed Uiso
 At 1.2 times of:
  All C(H) groups, All C(H,H) groups
 At 1.5 times of:
  All C(H,H,H) groups
2.a Ternary CH refined with riding coordinates:
 C3(H3)
2.b Secondary CH2 refined with riding coordinates:
 C2(H2A,H2B)
2.c Aromatic/amide H refined with riding coordinates:
 C4(H4), C5(H5), C6(H6), C7(H7)
2.d Idealised Me refined as rotating group:
 C1'(H1'A,H1'B,H1'C)
;
_shelx_res_file
;
TITL cu_2017gu0013_0m_a.res in P3(2)
    cu_2017gu0013_0m.res
    created by SHELXL-2016/6 at 10:57:37 on 19-Apr-2017
REM Old TITL cu_2017GU0013_0m in P3(2)
REM SHELXT solution in P3(2)
REM R1 0.077, Rweak 0.042, Alpha 0.004, Orientation as input
REM Flack x = 0.094 ( 0.085 ) from Parsons' quotients
REM Formula found by SHELXT: C1' O2
CELL 1.54178 11.1863 11.1863 6.106 90 90 120
ZERR 3 0.0005 0.0005 0.0003 0 0 0
LATT -1
SYMM -Y,+X-Y,0.667+Z
SYMM +Y-X,-X,0.333+Z
SFAC C H O
UNIT 30 36 6
EQIV $1 1+Y-X,1-X,0.333+Z
EQIV $2 +Y-X,-X,0.333+Z

L.S. 10
PLAN  5
SIZE 0.02 0.04 0.21
TEMP -173.15
HTAB O1 O1_$1
HTAB O2 O2_$2
BOND $H
list 4
fmap 2
acta
REM <olex2.extras>
REM <HklSrc "%.\\cu_2017GU0013_0m.hkl">
REM </olex2.extras>

WGHT    0.039000    0.080000
FVAR       1.80135
O1    3    0.562751    0.237539    0.547964    11.00000    0.02024    0.02576 =
         0.02162   -0.00097   -0.00096    0.01350
H1    2    0.595016    0.304323    0.641921    11.00000    0.03885
O2    3    0.102714    0.079084    0.699598    11.00000    0.01882    0.02796 =
         0.02470    0.00824   -0.00222    0.00423
H2    2    0.071987    0.022046    0.806179    11.00000    0.03726
C1    1    0.414997    0.180470    0.535500    11.00000    0.02037    0.02051 =
         0.01847    0.00160   -0.00095    0.01038
C2    1    0.346247    0.144387    0.765129    11.00000    0.02229    0.02525 =
         0.01943    0.00269   -0.00138    0.01133
AFIX  23
H2A   2    0.302981    0.044019    0.792872    11.00000   -1.20000
H2B   2    0.415998    0.194277    0.880387    11.00000   -1.20000
AFIX   0
C3    1    0.235924    0.188621    0.766391    11.00000    0.01831    0.02416 =
         0.02024    0.00019   -0.00175    0.00774
AFIX  13
H3    2    0.231134    0.226628    0.912286    11.00000   -1.20000
AFIX   0
C4    1    0.250992    0.399237    0.553187    11.00000    0.01962    0.02574 =
         0.03417    0.00229    0.00565    0.01267
AFIX  43
H4    2    0.188350    0.408160    0.647491    11.00000   -1.20000
AFIX   0
C5    1    0.308413    0.486245    0.373825    11.00000    0.02428    0.02370 =
         0.04356    0.00719    0.00575    0.01490
AFIX  43
H5    2    0.285144    0.555692    0.345926    11.00000   -1.20000
AFIX   0
C6    1    0.399637    0.472789    0.234589    11.00000    0.02256    0.02207 =
         0.02987    0.00875    0.00315    0.00966
AFIX  43
H6    2    0.435687    0.531146    0.110189    11.00000   -1.20000
AFIX   0
C7    1    0.438294    0.374798    0.276139    11.00000    0.01895    0.02084 =
         0.02253    0.00064    0.00102    0.00933
AFIX  43
H7    2    0.501994    0.366642    0.183290    11.00000   -1.20000
AFIX   0
C1'   1    0.360920    0.056589    0.382441    11.00000    0.03236    0.02114 =
         0.02464   -0.00185   -0.00371    0.01341
AFIX 137
H1'A  2    0.403404    0.087091    0.237774    11.00000   -1.50000
H1'B  2    0.260462    0.013642    0.369099    11.00000   -1.50000
H1'C  2    0.384113   -0.010648    0.442003    11.00000   -1.50000
AFIX   0
C3A   1    0.287288    0.298706    0.591630    11.00000    0.01602    0.02136 =
         0.02262   -0.00050   -0.00042    0.00698
C7A   1    0.381858    0.289198    0.456071    11.00000    0.01860    0.01828 =
         0.01875   -0.00140   -0.00329    0.00898
HKLF 4




REM  cu_2017gu0013_0m_a.res in P3(2)
REM R1 =  0.0276 for    1731 Fo > 4sig(Fo)  and  0.0280 for all    1761 data
REM    118 parameters refined using      1 restraints

END

WGHT      0.0380      0.0831

REM Highest difference peak  0.166,  deepest hole -0.173,  1-sigma level  0.033
Q1    1   0.3861  0.3032  0.3223  11.00000  0.05    0.17
Q2    1   0.4421  0.3588  0.4153  11.00000  0.05    0.13
Q3    1   0.3169  0.2790  0.4757  11.00000  0.05    0.12
Q4    1   0.2531  0.2446  0.6741  11.00000  0.05    0.11
Q5    1   0.2815  0.1537  0.7774  11.00000  0.05    0.11
;
_shelx_res_checksum              39469
_shelx_hkl_file
;
  -1   1   0 1718.33   71.69
   1   0   0 1850.51   71.99
  -1   0   0 1868.11   71.99
   1   1   0 3684.73  143.89
   2  -1   0 3588.74  144.39
  -2   2   0 1518.45   63.89
   2   0   0 1656.13   64.49
   2   0   0 1646.84   63.99
   0  -2   0 1629.44   63.79
   0  -2   0 1634.34   64.29
  -2   0   0 1661.03   63.89
   0   2   0 1556.14   63.89
  -2   0   0 1588.24   64.49
   1   2   0  643.94   24.70
   2  -3   0  594.94   24.20
  -3   1   0  592.44   24.30
  -3   1   0  554.94   25.00
   3  -1   0  602.34   25.10
  -1  -2   0  640.14   24.30
  -1  -2   0  596.34   24.90
  -2   3   0  619.14   24.60
  -3   2   0 5693.73  232.88
   3  -2   0 6069.69  233.68
  -2  -1   0 5900.51  233.58
   3   0   0  934.71   40.10
   0  -3   0 1010.30   39.30
  -3   0   0 1009.40   39.40
  -4   1   0 1074.39   44.90
   1   3   0 1118.79   45.40
   4  -1   0 1138.09   46.00
  -1  -3   0 1138.79   44.80
  -3   4   0 1139.99   45.40
   2  -4   0  730.23   30.90
   2   2   0  827.82   31.70
  -4   2   0  723.63   31.10
   4  -2   0  783.52   32.30
  -2  -2   0  805.12   31.10
   3   1   0  156.08    7.20
  -4   3   0  138.49    6.60
   1  -4   0  146.39    6.50
   4  -3   0  155.08    7.80
  -3  -1   0  159.68    6.60
  -4   4   0  320.37   14.60
   4   0   0  332.97   16.70
  -4   4   0  299.77   13.20
   0  -4   0  341.57   13.90
  -4   0   0  323.67   13.30
   4  -4   0  301.37   14.50
  -5   1   0  844.02   33.20
   5  -1   0  831.02   34.70
  -1  -4   0  865.61   33.10
  -4   5   0  846.32   33.90
  -1  -4   0  716.23   33.50
   2   3   0 2011.60   79.99
   3  -5   0 1912.71   79.19
  -5   2   0 2003.30   79.39
   5  -2   0 2063.19   80.89
  -2  -3   0 1964.30   79.29
   3   2   0  104.49    5.40
  -5   3   0  100.79    4.80
   2  -5   0   98.59    4.60
   5  -3   0   99.99    6.40
  -3  -2   0   98.89    4.80
  -5   4   0  764.42   32.10
   1  -5   0  800.02   32.00
   4   1   0  836.42   33.10
  -5   4   0  777.22   34.00
   5  -4   0  765.22   33.80
  -4  -1   0  825.12   32.20
  -5   5   0  763.32   35.30
   0  -5   0  877.41   32.70
  -5   5   0  762.42   32.80
   5   0   0  824.92   34.20
   5  -5   0  834.22   34.80
  -5   0   0  796.92   32.90
   5  -6   0 1072.49   45.70
  -6   1   0 1073.49   43.60
  -5   6   0 1098.59   44.30
   6  -1   0 1097.29   45.30
  -1  -5   0 1065.79   43.40
  -5   6   0 1056.39   43.40
  -6   2   0   86.59    4.50
   6  -2   0   83.59    6.10
  -2  -4   0   89.99    4.40
   3   3   0 1102.39   45.20
   3  -6   0 1113.59   44.20
  -6   3   0 1086.09   44.40
  -3  -3   0 1085.69   44.30
   6  -3   0 1110.09   46.20
   4   2   0 1990.80   80.49
   2  -6   0 2042.70   79.49
  -6   4   0 2021.60   82.29
  -6   4   0 1913.71   79.59
  -4  -2   0 2040.30   79.69
   6  -4   0 1951.60   81.69
   1  -6   0  261.97   10.70
  -6   5   0  243.48   10.90
   5   1   0  254.47   12.00
  -6   5   0  235.28   12.90
   6  -5   0  249.48   13.00
  -5  -1   0  256.97   10.90
  -6   6   0  378.56   16.20
   0  -6   0  409.56   16.10
  -6   6   0  383.86   18.00
   6   0   0  394.36   17.70
   0  -6   0  362.06   17.70
  -6   0   0  376.66   18.50
   6  -6   0  387.46   18.80
  -6   0   0  378.86   16.30
   6  -7   0  611.24   27.60
  -7   1   0  551.44   25.40
  -7   1   0  598.64   24.60
   6  -7   0  602.34   24.90
  -1  -6   0  581.64   27.60
   7  -1   0  590.34   26.40
  -1  -6   0  591.44   24.30
   5  -7   0  240.78   11.10
  -7   2   0  252.67   10.90
   7  -2   0  246.88   12.90
  -5   7   0  242.18   11.10
  -2  -5   0  236.28   14.10
   4  -7   0  109.99    6.00
  -7   3   0  114.89    5.80
   7  -3   0  117.09    7.30
   7  -3   0  115.69    7.60
  -3  -4   0  120.09    5.70
  -3  -4   0  111.89    9.40
   4   3   0 1349.66   52.99
  -7   4   0 1257.87   51.89
  -7   4   0 1308.67   55.39
   3  -7   0 1359.56   51.69
   3  -7   0 1228.78   52.19
  -4  -3   0 1321.27   51.79
   7  -4   0 1231.38   52.39
  -4  -3   0 1203.58   55.39
   7  -4   0 1295.67   54.19
  -7   5   0  724.83   33.00
   2  -7   0  698.43   30.50
   5   2   0  729.93   31.00
  -7   5   0  724.53   29.90
   2  -7   0  746.03   29.70
  -5  -2   0  708.23   33.50
  -5  -2   0  738.83   29.80
   7  -5   0  742.03   32.60
   6   1   0  217.48   10.80
   1  -7   0  220.38    9.40
  -7   6   0  207.98   12.00
  -7   6   0  204.68    9.60
   1  -7   0  203.38   10.90
  -6  -1   0  216.38   12.80
  -6  -1   0  214.58    9.70
   7  -6   0  210.88   12.30
   0  -7   0  721.43   28.10
   0  -7   0  650.93   30.10
   7   0   0  651.83   29.10
  -7   0   0  666.03   29.20
  -7   0   0  641.14   28.50
  -7   0   0  674.33   27.70
   7  -7   0  659.93   28.10
   7  -7   0  636.24   30.70
  -8   1   0  372.36   18.20
  -8   1   0  352.06   16.90
  -8   1   0  377.96   17.40
   1   7   0  392.06   20.40
   7  -8   0  394.66   17.40
   8  -1   0  384.36   18.00
  -1  -7   0  382.76   20.70
   8  -1   0  363.26   17.30
   2   6   0  220.58   13.40
  -8   2   0  224.98   11.30
  -8   2   0  201.18   10.60
   8  -2   0  216.28   11.30
  -2  -6   0  217.08    9.60
   8  -2   0  200.58   10.80
   8  -2   0  203.88   12.10
   3   5   0  129.09    9.50
  -8   3   0  128.39    6.50
  -8   3   0  125.19    8.10
  -8   3   0  125.99   12.60
   5  -8   0  129.19    6.80
   8  -3   0  119.59    7.40
  -3  -5   0  124.99    6.60
  -3  -5   0  125.99   11.00
  -8   4   0  297.47   13.30
  -8   4   0  288.47   17.20
   4  -8   0  304.17   13.70
  -4  -4   0  285.57   17.60
  -4  -4   0  311.37   14.10
  -4  -4   0  300.67   16.20
   3  -8   0  359.56   16.70
  -8   5   0  350.86   19.60
  -8   5   0  374.56   16.10
   3  -8   0  392.96   15.90
   5   3   0  407.46   19.50
  -5  -3   0  365.46   20.30
  -5  -3   0  353.26   17.20
   8  -5   0  352.06   17.30
   8  -5   0  360.06   18.80
  -5  -3   0  385.46   16.10
  -5  -3   0  378.46   19.60
   6   2   0  123.29    7.50
  -8   6   0  123.79    9.80
   2  -8   0  132.09    6.30
   6   2   0  124.09    9.80
   6   2   0  137.09    7.70
   2  -8   0  119.39    7.80
   8  -6   0  123.79    7.50
  -6  -2   0  118.79    7.30
  -6  -2   0  111.79   11.80
  -6  -2   0  130.69    6.40
  -6  -2   0  133.49   11.60
   7   1   0  142.69    9.80
   1  -8   0  161.68   10.40
   7   1   0  167.28   11.70
   7   1   0  178.78    9.50
  -7  -1   0  160.78    8.90
  -7  -1   0  168.58   10.70
  -1   8   0  184.98   14.00
   8  -7   0  163.48    8.60
  -7  -1   0  154.68    9.60
   8   0   0  162.18    9.00
   0  -8   0  157.88   11.60
   8   0   0  145.69    8.30
  -8   0   0  146.99    9.00
   8  -8   0  152.78    8.00
  -8   0   0  141.79    8.40
  -8   0   0  142.99    8.80
   0   8   0  151.08   10.80
  -9   1   0   30.00    5.00
  -9   1   0   33.20    3.80
   8  -9   0   29.70    3.40
   8  -9   0   32.00    3.90
   1   8   0   28.70    5.30
   9  -1   0   27.60    5.00
  -1  -8   0   14.80    5.60
   9  -1   0   22.00    3.40
   2   7   0  218.98   14.10
  -9   2   0  194.48   10.80
   7  -9   0  199.28   10.50
  -9   2   0  193.28   10.60
   9  -2   0  220.98   10.10
   9  -2   0  202.28   11.30
  -2  -7   0  197.08   14.80
   9  -2   0  193.38   10.80
  -9   3   0  181.78    9.90
   6  -9   0  194.18    9.70
   6  -9   0  181.38    9.80
  -9   3   0  190.68   10.40
   3   6   0  206.48   13.40
  -3  -6   0  193.38   10.30
  -3  -6   0  180.78   14.10
   9  -3   0  185.78   10.30
   9  -3   0  181.28   10.50
   5  -9   0  516.25   22.20
  -9   4   0  486.05   22.40
  -9   4   0  533.85   22.90
   4   5   0  541.85   30.90
  -4  -5   0  486.95   22.60
   9  -4   0  480.65   22.80
  -4  -5   0  490.85   26.70
   9  -4   0  500.65   23.20
  -9   5   0  734.83   33.80
   5   4   0  865.51   38.30
   4  -9   0  819.72   34.20
  -5  -4   0  790.22   34.30
   9  -5   0  773.32   34.60
  -5  -4   0  826.02   38.20
   6   3   0   37.90    3.90
   6   3   0   43.00    5.90
   6   3   0   42.80    4.30
   3  -9   0   44.90    4.70
   9  -6   0   41.00    3.90
  -6  -3   0   36.60    6.80
  -3   9   0   45.70    5.70
   2  -9   0  371.76   18.30
   7   2   0  335.47   16.20
   7   2   0  372.06   17.20
   7   2   0  349.67   20.00
  -7  -2   0  357.86   16.90
  -7  -2   0  364.06   18.90
   9  -7   0  363.16   16.40
  -7  -2   0  353.86   17.70
  -2   9   0  359.66   19.00
   8   1   0  546.55   30.70
   8   1   0  562.44   25.20
   1  -9   0  544.65   27.20
  -1   9   0  621.34   33.50
  -8  -1   0  602.54   30.00
  -8  -1   0  521.45   24.50
   9  -8   0  529.95   24.10
   9  -8   0  549.54   24.90
  -8  -1   0  541.75   24.90
   0  -9   0   70.59    9.30
   9   0   0   54.49    5.10
   9   0   0   55.89    4.90
   0   9   0   58.19    7.20
  -9   0   0   52.39    5.00
   9  -9   0   62.89    5.20
  -9   0   0   60.39    5.20
   9  -9   0   60.29    4.80
 -10   1   0  485.45   22.50
 -10   1   0  497.05   23.00
   9 -10   0  523.25   22.60
   9 -10   0  506.75   22.80
   1   9   0  527.55   26.30
  10  -1   0  489.25   23.00
  -1  -9   0  511.55   27.60
  10  -1   0  516.15   22.60
   2   8   0  316.47   18.80
   8 -10   0  330.57   15.20
 -10   2   0  299.67   15.50
   8 -10   0  318.07   15.20
 -10   2   0  314.97   15.20
  10  -2   0  322.77   15.40
  -2  -8   0  319.67   20.50
  10  -2   0  333.77   16.00
  -2  -8   0  327.37   15.70
  10  -2   0  304.87   14.50
   7 -10   0  193.48   10.60
   3   7   0  213.08   14.30
   7 -10   0  211.48   10.70
 -10   3   0  206.38   11.10
 -10   3   0  202.38   10.60
  10  -3   0  196.88   11.40
  -3  -7   0  214.78   15.80
  -3  -7   0  205.68   11.00
  10  -3   0  210.58   11.20
 -10   4   0   -0.50    1.60
 -10   4   0    2.30    1.90
   6 -10   0    1.30    2.00
   4   6   0    0.60    3.10
  -4  -6   0   -6.90    6.30
  10  -4   0    0.10    1.80
  10  -4   0   -0.60    1.70
  -4  -6   0    1.10    1.80
 -10   5   0  421.56   19.90
   5   5   0  496.55   24.80
  10  -5   0  438.26   21.30
  10  -5   0  405.86   20.00
  -5  -5   0  460.45   20.70
  10  -5   0  464.35   21.00
   6   4   0  829.02   39.60
   6   4   0  848.52   35.60
  -6  -4   0  826.92   35.60
  -6  -4   0  777.92   41.60
   7   3   0  120.09    7.40
   3 -10   0  126.49    9.00
   7   3   0  117.59   10.10
  10  -7   0  121.49    7.00
  -7  -3   0  118.19    7.40
  -7  -3   0  118.29   10.30
  -3  10   0  115.69    9.00
  -7  -3   0  104.99    7.80
   8   2   0   44.30    6.30
   8   2   0   46.80    4.40
   8   2   0   38.30    4.10
   2 -10   0   40.20    5.90
  -8  -2   0   46.30    4.50
  10  -8   0   46.90    4.20
  -2  10   0   49.40    5.90
  -8  -2   0   38.30    4.90
  -8  -2   0   31.80    4.20
  10  -8   0   46.30    4.60
   9   1   0   59.39    7.10
   9   1   0   70.09    5.50
   1 -10   0   72.19    9.20
  -9  -1   0   68.39    5.90
  -1  10   0   71.69    7.20
  10  -9   0   66.69    5.20
  -9  -1   0   68.19    5.40
  10  -9   0   67.39    5.50
  10   0   0   44.30    3.80
   0 -10   0   33.00    7.10
  10   0   0   34.00    3.90
 -10   0   0   41.20    4.00
  10 -10   0   40.90    4.20
 -10   0   0   38.00    3.90
  10 -10   0   37.50    4.10
   0  10   0   42.20    5.80
  10 -11   0  540.45   22.50
  10 -11   0  477.85   22.30
   1  10   0  493.25   25.10
 -11   1   0  478.35   22.10
 -11   1   0  487.85   21.80
  11  -1   0  510.45   22.60
  -1 -10   0  523.75   22.20
  -1 -10   0  549.35   26.70
 -11   2   0  200.98   10.70
   9 -11   0  200.48   10.60
   9 -11   0  222.98   11.30
 -11   2   0  204.38   10.50
   2   9   0  213.18   13.80
  11  -2   0  212.28   10.60
  -2  -9   0  215.38   15.90
  -2  -9   0  216.58   10.90
  11  -2   0  218.58   11.30
 -11   3   0  131.39    7.30
   3   8   0  134.89   10.70
   8 -11   0  127.19    7.30
   8 -11   0  136.59    7.90
 -11   3   0  125.69    7.60
  -3  -8   0  126.49    7.70
  11  -3   0  112.39    6.90
  -3  -8   0  138.09   12.80
  11  -3   0  116.79    7.90
  11  -3   0  134.09    7.70
   4   7   0  212.58   14.40
 -11   4   0  204.48   10.50
   7 -11   0  220.18   11.30
  11  -4   0  199.18   11.30
  -4  -7   0  192.08   15.60
  11  -4   0  221.48   11.30
  11  -4   0  206.68   11.80
  -4  -7   0  218.08   11.20
 -11   5   0  364.06   18.10
   5   6   0  386.46   22.10
   6 -11   0  407.06   18.70
   5   6   0  399.06   18.20
  11  -5   0  384.26   17.10
  11  -5   0  383.76   18.00
  -5  -6   0  416.06   18.50
  -5  -6   0  398.36   22.20
   6   5   0  308.07   14.40
   6   5   0  298.87   17.80
  -6  -5   0  301.97   14.40
  11  -6   0  278.57   14.90
  11  -6   0  295.77   13.50
  11  -6   0  298.87   14.40
  -6  -5   0  269.67   17.20
   7   4   0  421.76   19.30
   7   4   0  417.06   24.40
  11  -7   0  427.36   19.60
  -7  -4   0  429.96   19.50
  -7  -4   0  406.56   21.00
  11  -7   0  424.16   18.70
   3 -11   0  212.08   15.30
   8   3   0  193.48   10.30
   8   3   0  193.28   13.00
  -8  -3   0  182.88   10.40
  -8  -3   0  196.28   10.60
  11  -8   0  196.08   10.60
  11  -8   0  196.68    9.90
  -8  -3   0  185.78   11.90
   2 -11   0   24.30    6.10
   9   2   0   20.30    4.40
  -2  11   0   29.80    4.50
  11  -9   0   25.00    3.50
  -9  -2   0   30.40    3.70
  11  -9   0   30.30    3.40
  -9  -2   0   26.50    3.30
  10   1   0   17.90    2.50
   1 -11   0   22.70    5.90
  -1  11   0   18.70    5.20
  11 -10   0   17.80    3.10
 -10  -1   0   20.30    2.90
  11 -10   0   18.80    2.80
 -10  -1   0   15.80    2.80
   0 -11   0   28.10    2.80
   0 -11   0   20.40    5.20
  11   0   0   24.10    2.90
 -11   0   0   24.00    2.80
   0  11   0   21.50    3.60
 -11   0   0   20.80    2.50
  11 -11   0   24.10    3.10
 -12   1   0   78.39    4.00
  11 -12   0   73.99    4.50
  11 -12   0   79.69    5.40
   1  11   0   67.59    6.60
  -1 -11   0   81.49    8.20
  12  -1   0   71.19    4.50
  10 -12   0    9.60    2.50
 -12   2   0    9.50    1.50
  10 -12   0    8.70    2.10
   2  10   0   10.40    3.10
  -2 -10   0   11.40    2.00
  -2 -10   0    9.80    5.10
  12  -2   0   10.20    2.00
   3   9   0   30.80    2.50
   9 -12   0   31.00    4.10
   3   9   0   27.50    4.90
 -12   3   0   29.70    2.90
  -3  -9   0   34.40    4.60
  -3  -9   0   29.20    6.10
  12  -3   0   30.10    3.20
 -12   4   0   21.50    2.60
   4   8   0   15.40    4.00
   4   8   0   19.50    2.40
   8 -12   0   19.10    3.30
  12  -4   0   19.20    2.40
  -4  -8   0   24.70    3.20
  -4  -8   0    7.20    4.80
  12  -4   0   12.90    3.00
   5   7   0   26.10    5.10
   7 -12   0   26.10    3.80
   5   7   0   26.50    2.80
  -5  -7   0   21.70    3.10
  12  -5   0   27.30    3.60
  -5  -7   0   21.50    5.10
  12  -5   0   26.80    3.10
   6 -12   0   26.80    4.30
   6   6   0   29.40    3.10
   6   6   0   29.10    5.50
  -6  -6   0   22.60    4.80
  12  -6   0   23.90    3.20
  12  -6   0   20.70    3.30
  -6  -6   0   26.20    3.30
   7   5   0   44.60    3.80
   5 -12   0   44.60    5.60
   7   5   0   44.00    6.10
  -7  -5   0   33.30    4.50
  12  -7   0   43.70    4.00
  12  -7   0   47.00    4.20
  -7  -5   0   48.10    4.10
   8   4   0   79.09    7.60
   8   4   0   86.69    5.50
   4 -12   0   89.49    8.50
  -8  -4   0   90.79    6.10
  -8  -4   0   89.79    5.70
  12  -8   0   88.99    6.00
  12  -8   0   91.19    5.40
   9   3   0  145.79    7.60
   9   3   0  122.09    8.70
   3 -12   0  143.09   11.10
  -9  -3   0  148.09    7.70
  12  -9   0  138.39    7.90
  12  -9   0  144.79    8.40
  -9  -3   0  135.09    7.60
  10   2   0   95.29    5.60
 -10  -2   0   99.89    5.70
  12 -10   0  101.79    7.10
  12 -10   0  104.39    5.80
 -10  -2   0   85.89    5.50
  11   1   0   48.00    3.50
   1 -12   0   63.99    7.50
   1 -12   0   48.20    3.30
 -11  -1   0   53.39    3.50
  12 -11   0   44.30    3.70
  12   0   0   63.79    3.60
   3  10   0  102.59    7.30
  -3 -10   0  132.59    5.90
  13  -3   0  115.99    6.00
   9 -13   0    8.60    2.40
   4   9   0    7.80    2.80
  -4  -9   0    8.60    1.60
  13  -4   0    7.70    1.70
  -4  -9   0    9.50    3.80
   8 -13   0    3.50    2.20
   5   8   0    1.60    2.30
   5   8   0    2.80    1.00
  -5  -8   0   -5.20    2.60
  13  -5   0    2.60    1.50
  13  -5   0    1.70    1.50
  -5  -8   0    3.10    1.30
   7 -13   0   46.10    5.20
   6   7   0   46.30    3.00
   6   7   0   40.50    5.10
  -6  -7   0   54.59    5.50
  13  -6   0   40.30    3.50
  -6  -7   0   50.59    5.00
  13  -6   0   44.60    3.40
   6 -13   0  213.28   11.90
   7   6   0  176.18   11.50
   7   6   0  196.28    9.20
  13  -7   0  192.78    9.60
  -7  -6   0  216.38    9.70
   8   5   0   25.00    4.00
   8   5   0   35.00    2.80
   5 -13   0   35.40    5.20
  -8  -5   0   35.20    3.20
  13  -8   0   33.00    3.20
   4 -13   0   82.49    8.40
   9   4   0   99.59    5.20
  -9  -4   0  106.89    5.50
  13  -9   0   94.29    5.70
  10   3   0   20.40    2.70
   3 -13   0   20.20    4.20
  13 -10   0   16.90    2.80
 -10  -3   0   23.90    2.30
   0   0  -1    0.00    0.80
   0   0  -1    0.50    0.30
   0   0  -1    0.70    0.50
   0   0   1    0.10    0.50
   0   0   1    0.10    0.30
   0   0   1    0.10    0.80
  -1   1   1 9999.00  401.56
  -1   1   1 9861.91  401.16
   0  -1  -1 2934.41  112.59
   1   0  -1 2817.32  111.79
  -1   1  -1 2620.44  111.69
   1   0  -1 2892.51  112.39
   1   0  -1 2904.41  112.89
  -1   1  -1 2834.72  112.39
  -1   0   1 2817.52  112.59
   0   1   1 2908.01  112.39
  -1   0   1 2802.92  112.39
   1  -1   1 2715.23  111.79
  -2   1   1 8958.50  354.86
  -2  -1  -1   73.89    3.30
   3  -2  -1   66.59    3.20
  -2  -1  -1   65.69    3.50
   3  -2  -1   69.89    4.50
   1  -3   1   69.09    3.20
  -3   2   1   73.49    4.90
  -3   2   1   68.19    3.10
   2   1   1   65.79    3.20
   2  -2  -1 9136.29  356.06
   0  -2   1 8813.72  355.26
   1   1  -1  780.62   31.90
   1   1  -1  874.31   32.60
   1  -2  -1  849.02   32.90
  -2   1  -1  768.52   31.90
   2  -1   1  786.02   32.00
  -1  -1   1  826.42   32.80
  -1  -1   1  754.32   31.90
  -1  -1   1  776.02   32.70
  -1   2   1  782.22   32.60
  -2   2  -1 2560.64  102.49
   2   0  -1 2696.63  102.89
   2   0  -1 2507.55  101.99
   0  -2  -1 2772.22  103.09
  -2   0   1 2578.14  103.39
  -2   0   1 2659.03  103.29
   2  -2   1 2508.05  101.89
  -2   0   1 2294.47  101.89
  -2   3  -1 9644.83  387.46
   3  -1  -1 9942.11  387.16
  -2  -2  -1  742.23   28.50
  -2  -2  -1  663.33   29.20
   4  -2  -1  774.82   30.30
  -4   2   1  656.93   28.50
   2  -4   1  707.43   28.50
  -4   2   1  711.13   30.80
  -3  -2  -1  649.93   25.40
   5  -3  -1  615.84   27.40
  -5   3   1  608.54   25.30
  -5   3   1  588.94   27.90
   3   2   1  642.44   25.70
   2  -5   1  638.24   25.40
  -3  -1  -1 2383.36  104.59
   4  -3  -1 2710.63  105.79
  -4   3   1 2614.74  103.89
  -4   3   1 2700.93  106.09
   3   1   1 2693.83  104.19
  -3   0  -1  173.58    7.00
   0   3  -1  161.28    7.60
  -3   0  -1  143.99    7.30
   3  -3  -1  167.08    8.30
  -3   3   1  180.18    8.50
   0  -3   1  172.78    7.00
   3   0   1  162.88    7.10
   0  -3   1  155.78    7.60
  -3   3   1  163.28    6.80
   2  -3  -1 1041.10   41.40
   1   2  -1 1073.29   40.80
  -3   1  -1 1028.30   40.20
  -1  -2   1  996.10   41.00
  -1  -2   1  977.10   40.10
   3  -1   1  930.11   40.30
  -2   3   1  984.90   41.00
   1  -3  -1  104.79    5.70
   2   1  -1   96.69    5.00
  -2  -1   1   96.29    5.70
  -1   3   1   83.49    4.60
  -2  -1   1   91.59    4.20
   3  -2   1   83.99    4.60
   0  -3  -1 1131.09   45.00
   3   0  -1 1117.69   45.20
   0  -3  -1 1139.09   43.60
  -3   0   1  993.30   43.90
  -3   0   1 1115.99   45.90
   4  -1  -1 2405.86   96.69
  -1  -3  -1 2526.95   94.89
  -3   4  -1 2383.86   95.59
  -4   1   1 2230.98   95.09
  -4   1   1 2372.26   97.49
   3  -4   1 2441.56   95.29
  -2  -3  -1  584.74   22.80
   5  -2  -1  574.24   24.90
  -5   2   1  541.25   22.90
  -5   2   1  541.45   25.60
   3  -5   1  560.04   22.90
   6  -3  -1 1201.88   49.30
  -3  -3  -1 1222.78   46.50
   3  -6   1 1162.68   46.60
  -6   3   1 1078.59   46.60
  -6   3   1 1121.39   49.90
  -4  -3  -1   77.69    7.90
  -4  -3  -1   73.69    3.70
   7  -4  -1   68.79    6.10
   3  -7   1   66.79    3.80
  -7   4   1   63.49    3.70
  -7   4   1   61.09    6.40
   3  -7   1   57.99    4.60
   6  -4  -1   83.59    6.40
  -4  -2  -1   86.89    4.30
  -6   4   1   81.39    4.30
  -6   4   1   86.19    6.90
   4   2   1   84.99    4.70
   2  -6   1   90.49    4.40
   2  -6   1   92.59    6.70
   5  -4  -1 3081.09  123.69
  -4  -1  -1 3227.28  121.49
  -5   4   1 3033.00  123.89
   4   1   1 3039.20  121.69
   1  -5   1 3035.90  121.39
  -5   4   1 2925.91  121.29
  -4   0  -1 1725.03   66.29
   4  -4  -1 1698.33   67.99
  -4   4   1 1600.44   65.99
   4   0   1 1621.64   66.49
   0  -4   1 1656.73   66.19
   3  -4  -1 1179.28   48.10
   1   3  -1 1204.38   47.50
  -3   4   1 1213.28   47.90
  -1  -3   1 1175.38   47.60
  -3   4   1 1150.48   46.40
  -1  -3   1 1152.58   46.70
   4  -1   1 1104.89   47.20
  -4   2  -1  749.92   30.80
   2   2  -1  811.12   31.70
   2  -4  -1  772.82   31.90
  -2  -2   1  750.32   32.30
  -2  -2   1  766.32   30.70
  -2   4   1  759.02   31.30
   4  -2   1  733.43   31.40
   1  -4  -1 1459.05   57.39
   3   1  -1 1486.15   57.59
   1  -4  -1 1426.36   55.99
  -3  -1   1 1373.36   58.39
  -3  -1   1 1355.76   56.39
   4  -3   1 1369.76   57.19
   4   0  -1 2843.02  115.69
   0  -4  -1 2949.60  113.79
  -4   0   1 2850.51  116.69
  -4   0   1 2849.22  114.19
  -1  -4  -1 1927.01   74.49
   5  -1  -1 1914.41   76.89
  -4   5  -1 1752.92   75.09
  -5   1   1 1949.10   77.99
  -5   1   1 1821.02   74.69
   6  -2  -1  523.85   23.20
   6  -2  -1  546.85   24.50
  -2  -4  -1  565.24   21.80
  -6   2   1  533.95   22.00
   4  -6   1  473.55   22.70
  -6   2   1  552.14   25.60
  -3  -4  -1  140.29   10.60
   7  -3  -1  147.39    9.30
   7  -3  -1  143.09    7.80
  -3  -4  -1  146.89    6.60
  -7   3   1  145.69   10.30
   4  -7   1  137.49    7.50
   4  -7   1  146.09    6.90
  -7   3   1  138.29    6.70
  -4  -4  -1   27.60    2.20
  -4  -4  -1   22.60    5.80
   8  -4  -1   19.90    3.10
   8  -4  -1   25.50    3.20
   4   4   1   26.00    5.00
   4  -8   1   26.20    3.50
  -8   4   1   26.90    3.20
  -4   9  -1   44.80    5.80
   9  -5  -1   46.70    4.90
   9  -5  -1   48.40    4.40
  -5  -4  -1   45.00    4.20
  -5  -4  -1   47.90    7.90
  -9   5   1   54.39    4.40
   5   4   1   44.10    6.40
   4  -9   1   46.50    5.10
   5   4   1   55.19    4.40
  -5  -3  -1  110.29    5.40
   8  -5  -1   92.09    6.40
  -5  -3  -1   94.29    6.30
  -8   5   1  101.69    9.40
   3  -8   1  109.39    5.60
   5   3   1  113.69    9.40
   5   3   1  113.39    6.40
  -8   5   1  113.79    6.40
   7  -5  -1   33.60    3.40
  -5  -2  -1   40.60    2.70
  -5  -2  -1   41.70    6.10
   7  -5  -1   41.30    5.00
  -7   5   1   37.70    4.90
   2  -7   1   34.50    4.00
   5   2   1   41.60    3.20
   2  -7   1   42.30    2.70
  -5  -1  -1  417.96   21.30
  -5  -1  -1  448.46   18.20
   6  -5  -1  450.15   21.00
  -6   5   1  438.86   20.80
  -6   5   1  419.36   18.00
   1  -6   1  458.05   18.20
   5   1   1  436.76   18.60
   1  -6   1  410.86   19.60
   5  -5  -1  258.57   15.70
  -5   0  -1  276.37   11.50
  -5   5   1  251.07   11.10
   0  -5   1  270.27   11.40
  -5   5   1  267.87   13.20
   5   0   1  269.87   12.00
   1   4  -1   53.69    3.90
  -5   1  -1   58.29    3.20
   4  -5  -1   55.19    4.90
  -1  -4   1   53.19    3.60
  -1  -4   1   55.99    3.00
   5  -1   1   51.39    3.60
  -4   5   1   53.89    2.70
  -4   5   1   55.39    4.20
   2   3  -1  577.94   23.90
  -5   2  -1  577.24   23.00
  -2  -3   1  536.35   24.30
   5  -2   1  552.14   23.80
  -2  -3   1  545.85   22.90
  -3   5   1  570.84   23.50
  -5   3  -1  345.77   14.40
   3   2  -1  349.77   15.40
  -3  -2   1  332.17   16.50
  -3  -2   1  340.37   14.30
  -5   4  -1  435.66   18.30
   1  -5  -1  471.25   17.80
   4   1  -1  437.16   19.60
   5  -4   1  428.16   19.50
  -4  -1   1  442.56   21.00
  -4  -1   1  424.06   18.20
   5   0  -1 1374.56   56.19
   0  -5  -1 1418.86   53.79
  -5   0   1 1330.87   57.39
  -5   0   1 1350.26   54.19
   5  -5   1 1265.67   55.59
   6  -1  -1  177.08    9.90
  -1  -5  -1  180.18    7.50
   6  -1  -1  154.38    8.60
  -6   1   1  168.78    7.80
   5  -6   1  166.88    8.20
  -6   1   1  175.38   11.20
   7  -2  -1 1211.58   50.39
  -2  -5  -1 1290.27   49.40
  -2  -5  -1 1150.68   52.69
   7  -2  -1 1238.38   52.59
  -7   2   1 1231.08   49.70
   5  -7   1 1228.88   50.19
   8  -3  -1   34.20    3.70
  -3  -5  -1   33.90    2.40
   8  -3  -1   31.00    4.20
  -3  -5  -1   28.30    6.10
   3   5   1   42.80    5.60
  -8   3   1   30.30    2.90
  -8   3   1   38.70    3.80
  -4  -5  -1  133.39    8.00
   9  -4  -1  139.09    7.90
   9  -4  -1  130.69    8.30
  -4  -5  -1  144.29   12.40
   4   5   1  131.19   11.10
   5  -9   1  127.79    8.10
  -9   4   1  156.68    8.40
   4   5   1  147.69    7.80
   5  -9   1  143.89    8.50
  -5  -5  -1  856.31   36.70
  10  -5  -1  836.82   37.20
  -5  -5  -1  890.31   41.20
 -10   5   1  907.01   36.80
   5   5   1  852.91   36.30
   5 -10   1  827.02   37.50
   5   5   1  850.71   41.00
  -6  -5  -1  132.89    8.60
  11  -6  -1  129.69    7.40
  11  -6  -1  142.29    8.60
  -6  -5  -1  140.79   11.80
   6   5   1  129.49    7.40
   5 -11   1  139.99    9.70
   6   5   1  134.09   11.10
  -6  -4  -1  428.56   20.40
  -4  10  -1  458.45   22.50
  10  -6  -1  439.16   21.10
  -6  -4  -1  473.25   24.50
   4 -10   1  456.25   22.20
   6   4   1  471.55   20.50
   6   4   1  448.66   24.80
   9  -6  -1  225.98   11.40
  -6  -3  -1  239.08   15.50
   9  -6  -1  222.78   12.10
  -3   9  -1  234.98   13.80
  -6  -3  -1  208.28   11.40
   6   3   1  248.98   15.60
   6   3   1  237.78   11.70
   3  -9   1  235.88   13.10
  -2   8  -1  625.84   28.30
  -6  -2  -1  613.94   28.40
   8  -6  -1  558.54   25.50
   8  -6  -1  577.14   25.10
   6   2   1  606.24   25.50
  -8   6   1  485.55   28.80
   6   2   1  578.34   30.30
   2  -8   1  584.64   26.70
   7  -6  -1  187.48    9.90
  -6  -1  -1  210.48   12.70
   7  -6  -1  213.78   12.60
  -6  -1  -1  202.78    9.30
   1  -7   1  216.18    9.30
  -7   6   1  204.38   12.00
   1  -7   1  197.88   11.60
   6  -6  -1 1207.98   53.39
  -6   0  -1 1341.27   52.89
   6  -6  -1 1341.97   56.09
  -6   0  -1 1347.67   55.39
   0  -6   1 1285.37   55.39
   6   0   1 1309.77   53.39
   0  -6   1 1339.77   52.89
  -6   6   1 1314.47   55.19
  -6   1  -1  146.09    6.80
   5  -6  -1  149.79    9.20
  -6   1  -1  145.29    8.60
  -5   6   1  140.39    7.90
  -1  -5   1  127.69    9.60
   6  -1   1  136.89    7.30
  -1  -5   1  143.59    6.70
  -6   2  -1 1130.69   44.90
   2   4  -1 1119.59   45.90
   4  -6  -1 1141.69   47.10
  -2  -4   1 1096.09   44.70
   6  -2   1 1091.39   45.90
  -4   6   1 1122.89   45.30
  -2  -4   1 1057.79   46.20
   3   3  -1  171.08    8.70
  -6   3  -1  169.78    7.70
  -3  -3   1  162.88    9.60
  -3  -3   1  156.68    7.50
   6  -3   1  178.28    9.00
  -6   4  -1  707.23   30.10
   2  -6  -1  728.73   29.50
   4   2  -1  752.52   31.40
   6  -4   1  736.53   31.60
  -4  -2   1  724.63   30.00
  -4  -2   1  757.82   33.10
  -6   5  -1  487.85   21.20
   5   1  -1  496.15   22.70
   1  -6  -1  515.15   20.70
   6  -5   1  480.05   21.50
  -5  -1   1  530.15   21.20
  -5  -1   1  543.25   24.90
   6  -5   1  519.55   23.10
   6   0  -1  368.96   17.00
   0  -6  -1  377.06   15.20
  -6   6  -1  351.66   15.70
  -6   6  -1  370.26   17.40
   6   0  -1  358.06   17.60
  -6   0   1  380.26   15.70
   6  -6   1  352.96   16.00
  -6   0   1  381.76   19.70
   6  -6   1  362.56   17.70
  -6   7  -1  184.88    8.90
  -1  -6  -1  188.48    8.30
  -1  -6  -1  184.88   11.30
   7  -1  -1  192.08   12.40
   7  -1  -1  188.78    9.50
   6  -7   1  188.88    9.30
  -7   1   1  162.38   14.10
   6  -7   1  197.78   11.10
  -7   1   1  200.38    8.90
  -2  -6  -1  388.46   16.30
   8  -2  -1  381.56   17.30
   8  -2  -1  387.16   18.10
  -2  -6  -1  384.76   23.30
   6  -8   1  384.36   17.40
  -8   2   1  376.46   16.80
   2   6   1  406.66   23.30
  -8   2   1  345.37   17.20
  -8   2   1  422.26   19.20
   6  -8   1  381.26   17.80
   9  -3  -1  449.36   21.30
  -3  -6  -1  467.15   25.50
  -3  -6  -1  442.16   21.00
   9  -3  -1  489.05   20.70
  -9   3   1  440.96   20.60
   3   6   1  515.25   25.50
   6  -9   1  476.95   21.20
  -9   3   1  481.85   21.40
   6  -9   1  449.56   21.30
  10  -4  -1  110.89    7.50
  -4  -6  -1  108.09    6.90
  -4  -6  -1  101.69   12.10
   4   6   1  109.29   10.00
 -10   4   1  101.29    6.90
   6 -10   1  105.19    7.00
   6 -10   1  109.19    7.60
   4   6   1  107.79    6.40
  11  -5  -1   96.69    6.90
  11  -5  -1   97.89    5.90
  -5  -6  -1  102.79   11.10
   5   6   1   87.59    7.50
   6 -11   1   90.19    7.30
   5   6   1   99.09    9.50
  -6  -6  -1   10.30    2.10
  -6  -6  -1    9.00    4.50
  12  -6  -1   13.40    2.00
   6   6   1   10.90    4.00
   6   6   1   11.60    1.80
   6 -12   1   18.00    4.10
  -7  -6  -1  187.08    9.60
  13  -7  -1  185.18    9.10
  -7  -6  -1  210.98    9.20
   6 -13   1  184.08   11.40
   7   6   1  185.08    8.20
   7   6   1  173.08   11.10
  12  -7  -1   28.00    3.30
  -7  -5  -1   24.50    4.50
  -7  -5  -1   29.00    3.30
  12  -7  -1   30.90    3.50
   7   5   1   24.00    5.00
   7   5   1   27.10    2.70
   5 -12   1   41.40    5.80
  -4  11  -1   28.70    4.40
  -7  -4  -1   22.80    4.80
  11  -7  -1   37.00    3.70
   4 -11   1   38.70    6.10
   7   4   1   38.90    7.00
   7   4   1   27.30    4.90
  -7  -3  -1   70.39    9.10
  -7  -3  -1   78.39    5.90
  -3  10  -1   80.59    7.40
   3 -10   1   80.49    8.40
   7   3   1   75.09    8.50
   7   3   1   76.19    5.50
  -2   9  -1  562.54   26.90
  -7  -2  -1  504.15   23.80
  -7  -2  -1  528.35   26.10
   7   2   1  527.15   27.90
   2  -9   1  533.45   26.20
   7   2   1  552.44   24.00
  -7  -1  -1  494.65   22.60
  -1   8  -1  529.35   25.60
  -7  -1  -1  494.75   24.40
   7   1   1  507.75   26.70
   1  -8   1  505.25   25.00
   7   1   1  510.85   22.80
  -7   0  -1  142.49    9.80
   0   7  -1  146.49   10.10
  -7   0  -1  134.89    6.80
   0  -7   1  131.99    6.80
  -7   1  -1  967.10   39.70
   6  -7  -1  932.91   41.80
  -7   1  -1  918.21   38.20
  -1  -6   1  928.51   38.10
  -1  -6   1  919.41   42.10
   5  -7  -1 1220.28   50.89
  -7   2  -1 1220.18   48.50
  -7   2  -1 1210.38   47.70
  -2  -5   1 1101.59   51.49
  -2  -5   1 1154.48   47.50
   7  -2   1 1131.79   48.80
   3   4  -1  418.86   18.60
  -7   3  -1  404.56   18.20
  -7   3  -1  418.06   17.40
   7  -3   1  406.66   18.80
  -3  -4   1  403.06   21.30
  -3  -4   1  402.26   17.20
   7  -3   1  398.86   17.40
  -3  -4   1  399.66   19.30
   4   3  -1  783.62   33.40
  -7   4  -1  805.12   32.10
  -4  -3   1  781.72   31.90
  -4  -3   1  798.02   35.10
  -4  -3   1  718.03   35.30
   5   2  -1  613.94   26.60
   5   2  -1  628.94   27.70
  -7   5  -1  618.64   26.20
   2  -7  -1  593.04   26.30
   2  -7  -1  667.93   25.60
  -5  -2   1  623.04   29.20
   7  -5   1  610.04   26.40
  -5  -2   1  642.04   26.10
   7  -5   1  634.04   28.30
  -5  -2   1  674.73   30.20
   6   1  -1  286.47   14.80
   1  -7  -1  269.27   13.10
  -7   6  -1  275.77   12.40
   1  -7  -1  293.67   11.80
   6   1  -1  276.37   12.80
  -7   6  -1  274.57   15.00
   7  -6   1  272.77   14.60
   7  -6   1  273.67   12.70
  -6  -1   1  282.47   12.30
  -6  -1   1  272.27   14.30
   0  -7  -1   41.60    5.30
  -7   7  -1   46.80    3.50
   7   0  -1   48.10    4.00
   0  -7  -1   41.90    2.70
   7  -7   1   48.50    4.10
   7  -7   1   45.80    5.40
   0   7   1   49.99    5.90
  -7   0   1   46.90    4.50
   7  -7   1   47.30    4.10
  -7   0   1   43.50    3.90
  -7   0   1   47.80    3.30
   8  -1  -1   -0.40    1.60
  -1  -7  -1    2.00    3.60
   8  -1  -1    0.00    1.40
   8  -1  -1    1.90    2.00
   7  -8   1    5.20    2.00
  -8   1   1    0.50    1.40
   7  -8   1    0.60    1.60
   1   7   1    0.00    2.70
  -8   1   1    4.00    1.80
   9  -2  -1  910.31   38.70
   9  -2  -1  895.31   37.10
  -2  -7  -1  846.12   37.70
  -2  -7  -1  879.41   42.10
   9  -2  -1  859.01   37.90
  -9   2   1  847.02   37.30
  -9   2   1  928.71   38.40
   7  -9   1  888.61   38.10
   2   7   1  907.91   42.00
   7  -9   1  926.31   37.90
  10  -3  -1  223.58   12.40
  -3  -7  -1  230.38   16.50
  10  -3  -1  225.68   12.10
  -3  -7  -1  229.18   11.60
 -10   3   1  208.98   10.90
   7 -10   1  239.48   12.20
   3   7   1  220.28   10.80
   7 -10   1  218.98   11.80
   3   7   1  241.48   15.50
  -4  -7  -1   85.99    5.90
  -4  -7  -1   89.49   11.30
  11  -4  -1   72.69    6.10
   4   7   1   85.19    5.00
 -11   4   1  104.69    8.50
   7 -11   1   78.89    5.90
   7 -11   1   86.99    7.00
  -5  -7  -1   67.89    4.70
  12  -5  -1   62.79    4.60
  -5  -7  -1   75.49    9.40
  12  -5  -1   73.09    4.90
   7 -12   1   64.59    6.50
   5   7   1   65.99    7.40
   5   7   1   67.59    4.00
  13  -6  -1   69.59    4.50
  -6  -7  -1   87.39    4.80
   6   7   1   72.79    6.60
   7 -13   1   85.49    7.60
  -8  -5  -1    0.70    1.10
  13  -8  -1    0.80    1.20
   8   5   1   -0.10    1.00
   8   5   1    2.00    2.20
   5 -13   1    0.50    3.50
  12  -8  -1   30.40    3.50
  12  -8  -1   27.40    3.20
  -8  -4  -1   28.90    3.20
  -8  -4  -1   19.00    3.30
   8   4   1   27.50    5.00
   4 -12   1   36.50    6.50
   8   4   1   29.30    2.70
  11  -8  -1   69.59    5.00
  -8  -3  -1   62.19    4.90
  -3  11  -1   63.49    6.10
   8   3   1   61.89    7.40
   3 -11   1   62.99    8.10
   8   3   1   62.29    4.70
  -8  -2  -1   13.70    3.60
  10  -8  -1   12.70    2.60
  -2  10  -1   15.00    3.80
   2 -10   1   11.50    4.90
   8   2   1   11.70    2.40
   8   2   1   10.50    4.30
  -8  -1  -1 1050.49   46.50
  -1   9  -1 1167.68   50.29
   8   1   1 1108.99   46.80
   8   1   1 1112.99   51.09
  -8   0  -1  228.48   11.90
  -8   0  -1  236.88   12.40
   0   8  -1  235.28   14.40
   8  -8  -1  223.08   11.10
  -8   0  -1  227.68   11.80
   0  -8   1  219.38   15.20
   8   0   1  231.38   15.40
   8   0   1  218.48   11.20
   1   7  -1   69.09    7.00
  -8   1  -1   43.80    6.10
  -8   1  -1   63.09    5.10
  -8   1  -1   64.99    5.80
   7  -8  -1   66.99    4.50
   8  -1   1   67.29    5.20
   8  -1   1   63.39    7.70
   8  -1   1   62.19    5.00
  -1  -7   1   69.99    9.50
   6  -8  -1   56.49    5.40
  -8   2  -1   50.29    3.70
   2   6  -1   55.89    6.10
  -8   2  -1   57.89    5.30
  -8   2  -1   52.39    4.70
  -8   2  -1   51.89    5.40
  -2  -6   1   68.29    9.10
   8  -2   1   52.79    4.60
   8  -2   1   50.59    5.60
   3   5  -1  261.97   15.20
  -8   3  -1  256.17   12.90
  -8   3  -1  255.87   11.60
  -8   3  -1  251.57   11.70
  -8   3  -1  265.67   12.70
   5  -8  -1  251.67   11.60
   8  -3   1  248.98   12.80
   8  -3   1  236.98   12.50
  -3  -5   1  257.87   16.40
   8  -3   1  259.17   11.50
  -3  -5   1  255.37   11.40
   4   4  -1  180.38   11.50
  -8   4  -1  166.18    9.20
   4  -8  -1  175.88    8.30
  -8   4  -1  167.08    8.00
  -8   4  -1  188.78    8.40
   8  -4   1  160.68    9.20
   8  -4   1  182.48    8.50
  -4  -4   1  170.18    8.10
  -4  -4   1  161.38    9.10
   8  -4   1  157.38   10.00
  -4  -4   1  183.98   13.00
   5   3  -1  170.18   11.10
   5   3  -1  156.88    8.50
   3  -8  -1  153.48    8.00
  -8   5  -1  164.88    8.00
  -8   5  -1  160.38    8.90
  -5  -3   1  160.28   13.50
   8  -5   1  159.68    8.10
  -5  -3   1  164.48   11.90
   8  -5   1  154.08   10.00
  -5  -3   1  162.08    8.80
  -5  -3   1  170.28    7.80
   2  -8  -1  746.53   31.80
  -8   6  -1  661.13   33.20
  -8   6  -1  694.43   31.80
   6   2  -1  754.62   35.20
  -8   6  -1  781.62   35.10
  -6  -2   1  759.32   33.70
   8  -6   1  804.92   32.50
   8  -6   1  747.43   31.50
   8  -6   1  723.93   33.80
   8  -6   1  712.53   35.70
  -6  -2   1  787.72   33.30
  -6  -2   1  786.72   31.10
   1  -8  -1    5.30    2.70
  -8   7  -1    5.20    2.30
   7   1  -1    1.60    1.50
   7   1  -1    3.50    2.10
   7   1  -1    6.20    2.10
  -1   8   1    8.10    3.10
   8  -7   1    6.00    1.40
  -7  -1   1    3.20    3.40
   8  -7   1    3.40    2.10
  -7  -1   1    5.40    1.80
  -7  -1   1    4.40    2.10
   8  -7   1    8.00    2.30
   8   0  -1   59.99    5.10
   8   0  -1   58.09    4.70
   8   0  -1   69.39    5.60
   0  -8  -1   72.39    7.80
   0   8   1   73.19    7.60
  -8   0   1   64.09    4.90
   8  -8   1   68.89    5.60
  -8   0   1   67.59    5.80
   8  -8   1   62.69    4.80
   9  -1  -1  156.98    9.40
   9  -1  -1  155.88    9.00
  -9   1   1  154.78    8.50
   1   8   1  156.18   11.80
   8  -9   1  149.59    9.10
  -9   1   1  156.78    9.30
  -2  -8  -1  307.67   15.10
  -2  -8  -1  312.17   19.90
  10  -2  -1  326.07   15.50
  10  -2  -1  317.37   15.80
 -10   2   1  313.27   15.40
   8 -10   1  311.67   15.60
   8 -10   1  334.67   15.60
   2   8   1  327.57   18.90
 -10   2   1  306.07   14.70
   2   8   1  314.17   14.10
  -3  -8  -1   75.99    5.20
  11  -3  -1   77.29    5.70
  -3  -8  -1   84.99   11.10
  11  -3  -1   72.59    5.70
   3   8   1   70.39    4.20
   8 -11   1   78.39    6.20
   3   8   1   78.19    8.00
 -11   3   1   69.49    5.30
   8 -11   1   68.59    5.60
  12  -4  -1   24.80    2.60
  -4  -8  -1   22.40    5.80
  12  -4  -1   23.30    3.30
  12  -4  -1   12.60    2.70
   4   8   1   19.10    4.30
   8 -12   1   14.40    3.40
  13  -5  -1    0.70    1.20
  -5  -8  -1    0.80    1.00
  -5  -8  -1   -3.20    2.80
   5   8   1    0.00    2.10
   8 -13   1   -1.00    4.10
  13  -9  -1   79.19    4.70
  -9  -4  -1   82.39    4.50
   9   4   1   78.09    4.40
   4 -13   1   75.49    7.90
   9   4   1   60.49    5.20
  12  -9  -1   -0.80    1.60
  -3  12  -1    2.90    3.60
  12  -9  -1   -1.10    1.30
  -9  -3  -1    3.00    1.50
   3 -12   1   -4.60    4.20
   9   3   1    1.90    1.50
   9   3   1    0.00    2.30
  11  -9  -1  147.89    7.80
  -9  -2  -1  138.99    7.90
  11  -9  -1  142.19    8.20
  -2  11  -1  136.79    9.50
  -9  -2  -1  144.59    8.00
   9   2   1  143.29    7.80
   2 -11   1  143.99   12.40
   9   2   1  127.29   10.10
  -9  -1  -1  623.44   27.40
  -9  -1  -1  615.34   28.40
  -9  -1  -1  652.73   27.90
  10  -9  -1  647.54   27.40
   9   1   1  623.04   31.30
   1 -10   1  614.64   32.00
   9   1   1  661.23   27.90
  -9   0  -1  225.48   11.80
  -9   0  -1  236.38   12.10
   0   9  -1  238.28   14.80
   9  -9  -1  245.38   11.60
  -9   0  -1  229.18   12.10
   9   0   1  232.28   15.20
   9   0   1  239.98   13.10
   0  -9   1  228.58   16.80
  -9   1  -1 1150.08   48.40
   1   8  -1 1181.88   52.09
  -9   1  -1 1162.48   48.70
   9  -1   1 1182.48   48.80
   9  -1   1 1155.08   47.90
   9  -1   1 1089.29   52.99
   7  -9  -1  115.09    6.90
   7  -9  -1  114.19    6.50
  -9   2  -1  117.39    6.70
   2   7  -1  120.99    9.70
  -9   2  -1  109.49    7.30
  -9   2  -1  120.59    7.40
  -2  -7   1  106.59   12.00
   9  -2   1  124.69    7.80
   9  -2   1  108.59    7.10
   6  -9  -1  175.48    8.80
  -9   3  -1  166.78    8.50
  -9   3  -1  181.58    9.80
  -9   3  -1  183.58   10.00
   3   6  -1  182.58   12.40
   9  -3   1  174.18    9.70
  -3  -6   1  169.48   13.90
   9  -3   1  176.58   10.20
   9  -3   1  178.28    9.40
   5  -9  -1  453.55   19.90
  -9   4  -1  464.15   20.80
   4   5  -1  471.55   23.90
  -4  -5   1  440.16   21.80
   9  -4   1  443.66   19.70
  -4  -5   1  467.35   24.80
   9  -4   1  442.36   21.20
  -4  -5   1  446.96   20.80
   9  -4   1  473.45   20.60
   4  -9  -1  326.97   15.20
  -9   5  -1  333.77   15.90
   5   4  -1  338.97   19.00
  -5  -4   1  331.27   16.00
   9  -5   1  345.37   16.00
   9  -5   1  332.77   15.00
  -5  -4   1  321.57   16.80
   9  -5   1  336.87   16.50
  -5  -4   1  330.17   19.20
   3  -9  -1  591.74   26.40
   6   3  -1  628.24   30.00
  -9   6  -1  582.74   26.40
   9  -6   1  634.54   27.00
  -6  -3   1  583.14   26.50
  -6  -3   1  592.94   28.60
   9  -6   1  602.14   25.90
   9  -6   1  619.64   27.40
  -6  -3   1  604.64   27.60
   2  -9  -1  322.47   16.00
   7   2  -1  321.77   18.30
  -9   7  -1  298.37   14.90
   7   2  -1  341.47   16.10
  -7  -2   1  297.77   15.10
  -2   9   1  344.07   17.90
   9  -7   1  314.97   14.90
  -7  -2   1  321.77   16.30
  -7  -2   1  305.37   15.80
   9  -7   1  338.37   15.80
   9  -7   1  319.17   16.00
   8   1  -1   63.59    5.40
   8   1  -1   66.49    5.20
  -1   9   1   60.39    7.10
  -8  -1   1   59.69    4.90
   9  -8   1   61.59    5.40
  -8  -1   1   64.79    5.50
   9   0  -1   69.79    5.40
   9   0  -1   66.79    5.60
   0  -9  -1   72.89    9.40
  -9   0   1   65.89    5.20
   0   9   1   75.49    7.70
   9  -9   1   74.99    5.40
  -9   0   1   61.89    5.60
   9  -9   1   75.59    6.00
  -1  -9  -1    1.60    5.60
  -1  -9  -1    4.10    1.80
  10  -1  -1    5.60    2.60
  10  -1  -1    2.80    1.80
   9 -10   1    4.10    2.10
   9 -10   1    6.10    3.00
 -10   1   1    4.30    1.70
 -10   1   1    2.20    1.80
   1   9   1    2.80    1.00
  -2  -9  -1   79.49    5.10
  11  -2  -1   69.09    5.40
  11  -2  -1   81.09    5.60
 -11   2   1   72.89    6.30
   2   9   1   76.19    7.70
 -11   2   1   76.29    5.40
   9 -11   1   80.19    6.10
   9 -11   1   77.39    5.70
  -3  -9  -1   27.00    5.80
  12  -3  -1   25.70    3.10
  -3  -9  -1   28.20    2.80
   3   9   1   26.10    5.90
   9 -12   1   32.60    3.50
  -4  -9  -1  114.29    7.80
  -4  -9  -1  104.19    5.20
   4   9   1   90.29    7.10
  13 -10  -1   52.39    3.90
 -10  -3  -1   57.59    3.50
  10   3   1   50.69    2.90
   3 -13   1   51.19    3.30
  12 -10  -1    4.90    1.80
 -10  -2  -1    4.50    1.50
  -2  12  -1    4.30    2.20
  12 -10  -1    6.20    1.70
  10   2   1    3.40    1.20
   2 -12   1    7.10    4.10
  -1  11  -1   15.70    3.90
  11 -10  -1   18.80    2.90
 -10  -1  -1   16.10    2.50
  11 -10  -1   15.80    2.50
   1 -11   1   24.00    5.70
  10   1   1   16.10    2.40
 -10   0  -1  135.39    7.70
 -10   0  -1  123.29    7.40
   0  10  -1  130.29    9.90
  10 -10  -1  123.69    8.70
  10 -10  -1  138.69    7.80
  10   0   1  134.79    7.70
   0 -10   1  122.79   12.20
   1   9  -1   74.69    7.90
   9 -10  -1   71.59    5.00
 -10   1  -1   68.49    5.40
   9 -10  -1   66.09    5.30
 -10   1  -1   65.09    5.10
  -1  -9   1   69.49    9.50
  10  -1   1   68.99    5.40
 -10   2  -1   62.29    5.30
   8 -10  -1   59.79    4.70
 -10   2  -1   57.09    5.00
   8 -10  -1   67.39    4.90
   2   8  -1   68.09    7.60
  10  -2   1   75.79    5.80
  -2  -8   1   59.19    9.40
 -10   3  -1  142.09    8.50
   3   7  -1  146.99   11.50
   7 -10  -1  143.99    8.00
  10  -3   1  145.69    8.20
  -3  -7   1  165.78   14.00
  10  -3   1  146.39    9.00
  -3  -7   1  149.39    8.90
   4   6  -1  387.26   21.40
 -10   4  -1  377.16   17.80
   6 -10  -1  371.76   17.20
  -4  -6   1  380.36   18.00
  -4  -6   1  379.86   22.40
  10  -4   1  372.06   17.60
  10  -4   1  391.16   18.60
   5   5  -1   52.69    7.20
 -10   5  -1   62.09    5.00
   5 -10  -1   53.69    4.60
  10  -5   1   59.99    5.10
  -5  -5   1   51.89    5.50
  -5  -5   1   54.29    5.00
  -5  -5   1   50.99    7.90
  10  -5   1   56.99    5.40
 -10   6  -1   96.69    6.50
   6   4  -1  102.49    9.10
   4 -10  -1  109.59    7.00
  -6  -4   1  104.69   10.10
  10  -6   1  103.79    7.40
  10  -6   1  107.89    6.30
  -6  -4   1  103.59    6.90
  10  -6   1  114.39    7.20
  -6  -4   1   98.09    7.50
   3 -10  -1  677.13   29.40
   7   3  -1  682.73   29.10
   7   3  -1  669.13   32.10
   7   3  -1  644.84   28.00
 -10   7  -1  638.94   28.00
  10  -7   1  630.84   27.80
  -7  -3   1  644.64   28.40
  10  -7   1  698.93   29.20
  -7  -3   1  610.64   28.70
  10  -7   1  629.44   29.20
  -7  -3   1  652.13   29.60
   8   2  -1  235.98   15.40
   8   2  -1  265.87   13.00
   8   2  -1  267.27   13.60
   2 -10  -1  278.17   15.30
  10  -8   1  264.87   13.70
  10  -8   1  269.87   12.90
  -8  -2   1  270.27   14.00
  -8  -2   1  271.57   13.20
  -2  10   1  282.77   15.10
  10  -8   1  258.67   13.90
   9   1  -1   17.50    3.90
   1 -10  -1   19.40    5.30
  -9  -1   1   14.80    4.70
  10  -9   1   15.10    2.80
  10  -9   1   13.00    2.90
  -1  10   1   16.40    4.00
  -9  -1   1   12.80    3.30
   0 -10  -1   12.10    5.70
   0 -10  -1   13.90    2.30
  10   0  -1   16.40    2.80
  10   0  -1   15.70    2.60
  10 -10   1   16.60    2.90
 -10   0   1   15.50    2.60
   0  10   1   18.20    4.10
 -10   0   1   16.70    2.50
  10 -10   1   18.00    3.10
  -1 -10  -1  184.88    9.00
  11  -1  -1  189.98    9.30
  -1 -10  -1  181.68   15.40
  11  -1  -1  177.68   10.50
 -11   1   1  184.78    9.40
   1  10   1  171.38   11.50
  10 -11   1  186.88    9.90
 -11   1   1  180.48    8.60
  10 -11   1  169.88    9.70
  -2 -10  -1  175.48   12.00
  12  -2  -1  136.89    7.80
  10 -12   1  158.38    8.90
  10 -12   1  158.88    8.90
   2  10   1  157.28    9.80
   3  10   1   30.80    3.40
 -11  -1  -1   34.50    2.90
  12 -11  -1   29.40    2.70
  -1  12  -1   26.30    3.00
  12 -11  -1   26.00    3.70
  11   1   1   29.70    2.50
   1 -12   1   31.50    2.80
   0  11  -1  166.98   10.80
  11 -11  -1  174.48    9.40
 -11   0  -1  207.58    9.40
  11   0   1  198.48    9.50
   0 -11   1  195.88   13.00
   0 -11   1  200.48    9.60
 -11   1  -1   67.99    4.80
  10 -11  -1   76.59    5.10
   1  10  -1   67.69    6.80
  10 -11  -1   62.59    4.50
  -1 -10   1   58.49    8.20
  -1 -10   1   71.39    5.10
  11  -1   1   74.09    5.00
 -11   2  -1   27.40    3.60
   2   9  -1   31.10    5.50
   9 -11  -1   28.40    3.20
   9 -11  -1   34.60    3.70
  -2  -9   1   31.50    3.70
  11  -2   1   26.00    3.60
  -2  -9   1   27.10    6.70
   8 -11  -1   29.40    3.40
 -11   3  -1   18.50    2.70
   3   8  -1   23.10    5.20
  11  -3   1   17.30    3.00
  -3  -8   1   24.90    4.30
   4   7  -1  118.19   13.60
   7 -11  -1  119.89    7.20
 -11   4  -1  116.99    7.20
  11  -4   1  116.79    7.00
  11  -4   1  118.69    7.80
  -4  -7   1  121.39   11.80
   5   6  -1  443.26   23.40
   6 -11  -1  446.06   19.80
  -5  -6   1  429.26   22.60
  11  -5   1  415.36   21.70
  11  -5   1  459.55   23.00
  -5  -6   1  398.36   20.60
  -5  -6   1  439.46   20.00
 -11   6  -1  173.98    9.20
   6   5  -1  167.98    9.70
   5 -11  -1  167.98    9.80
   6   5  -1  168.48   13.80
  -6  -5   1  165.08   10.10
  11  -6   1  181.88   10.40
  -6  -5   1  198.68   12.00
  -6  -5   1  182.08    9.90
  11  -6   1  188.18   10.50
 -11   7  -1  411.66   18.30
   7   4  -1  417.26   18.20
   7   4  -1  422.76   22.10
   4 -11  -1  430.76   20.20
   7   4  -1  409.66   22.30
  -7  -4   1  408.36   19.70
  11  -7   1  439.36   21.90
  11  -7   1  403.86   19.70
   3 -11  -1  106.39   10.00
   8   3  -1  120.79    6.50
   8   3  -1  104.59    8.80
   8   3  -1  113.19    7.20
  -8  -3   1  110.39    7.40
  11  -8   1  120.99    6.80
  11  -8   1  123.59    7.70
  -8  -3   1  115.39    7.00
  11  -8   1  117.99    7.70
   9   2  -1   17.80    2.50
   2 -11  -1   17.50    4.80
   9   2  -1   18.70    3.00
  11  -9   1   17.30    3.20
  -9  -2   1   17.10    2.60
  -9  -2   1   13.50    2.70
  11  -9   1   15.50    2.60
  10   1  -1   77.79    5.30
  10   1  -1   88.09    5.10
   1 -11  -1   75.89    4.80
   1 -11  -1   93.59   10.00
 -10  -1   1   67.09    4.90
 -10  -1   1   75.19    5.20
  11 -10   1   76.79    5.70
  -1  11   1   73.59    6.10
  11   0  -1   67.19    4.00
  11   0  -1   56.19    4.10
   0 -11  -1   51.89    5.40
   0  11   1   61.99    5.60
  11 -11   1   59.49    4.80
 -11   0   1   59.99    4.10
  11 -11   1   47.20    5.90
  -1 -11  -1   34.50    5.10
  12  -1  -1   32.10    2.70
  11 -12   1   32.70    3.10
   1  11   1   33.20    3.40
 -12   0  -1    5.70    1.00
  12   0   1    6.30    1.10
   0 -12   1    8.70    1.30
 -12   1  -1   14.50    2.30
   1  11  -1   10.10    3.30
  11 -12  -1   12.50    2.00
  12  -1   1   15.20    2.00
  -1 -11   1   18.00    2.20
   2  10  -1   63.29    6.10
  10 -12  -1   71.79    4.90
 -12   2  -1   69.29    4.20
  12  -2   1   58.99    4.40
  -2 -10   1   67.49    7.50
  -2 -10   1   63.69    4.40
   3   9  -1   84.69    8.40
   9 -12  -1   81.49    5.40
 -12   3  -1   74.09    4.80
  12  -3   1   74.89    5.30
   4   8  -1  212.78   13.40
 -12   4  -1  229.68   12.60
   8 -12  -1  232.08   11.20
  12  -4   1  201.48   11.00
  -4  -8   1  218.68   10.90
   5   7  -1  174.88   11.80
   5   7  -1  177.88    9.10
   7 -12  -1  173.38    9.50
  -5  -7   1  182.58    9.20
  12  -5   1  158.88    9.40
  -5  -7   1  165.08   12.20
  12  -5   1  153.18    9.40
   6   6  -1  217.38   10.90
   6   6  -1  210.58   13.30
 -12   6  -1  226.28   10.10
   6 -12  -1  226.28   11.60
  12  -6   1  203.68   10.80
  12  -6   1  198.78   11.10
  -6  -6   1  231.18   10.90
   7   5  -1   69.79    6.90
   5 -12  -1   74.69    6.40
   7   5  -1   84.99    5.40
  12  -7   1   69.19    5.40
  12  -7   1   76.69    5.50
  -7  -5   1   77.39    5.20
  -7  -5   1   78.79    5.50
   4 -12  -1   49.60    6.70
   8   4  -1   47.90    4.00
   8   4  -1   47.10    5.10
  12  -8   1   43.50    4.20
  12  -8   1   41.40    4.10
  -8  -4   1   52.79    4.10
  -8  -4   1   52.69    4.20
   9   3  -1  326.37   17.20
   3 -12  -1  362.36   18.90
  -9  -3   1  355.76   15.70
  -9  -3   1  338.07   16.00
  12  -9   1  372.96   16.90
  10   2  -1  123.39    6.60
   2 -12  -1  115.79    9.90
  12 -10   1  115.99    7.00
 -10  -2   1  114.89    6.50
 -10  -2   1  125.59    6.20
   1 -12  -1   34.20    5.50
  12 -11   1   47.30    3.70
 -11  -1   1   40.20    2.90
  12   0  -1  113.99    5.50
   3  10  -1   82.09    5.80
  13  -3   1   77.79    4.50
  -3 -10   1   88.59    4.50
   4   9  -1   57.49    4.40
   4   9  -1   49.90    5.00
   9 -13  -1   66.99    4.70
  -4  -9   1   62.99    3.80
  13  -4   1   55.09    4.30
   5   8  -1  204.98    9.30
   5   8  -1  201.38   11.70
  -5  -8   1  218.68    9.70
  13  -5   1  190.48    9.90
   6   7  -1  152.78    7.40
   6   7  -1  147.09    9.50
   7 -13  -1  158.98    8.80
  13  -6   1  136.49    7.30
  13  -6   1  138.09    8.70
  -6  -7   1  159.18    7.60
   6 -13  -1  156.28    9.20
   7   6  -1  126.69    8.60
   7   6  -1  140.39    7.10
  13  -7   1  141.29    7.30
  -7  -6   1  158.98    7.30
  13  -7   1  130.79    7.50
   5 -13  -1   63.39    6.40
   8   5  -1   46.40    4.50
   8   5  -1   60.39    3.80
  13  -8   1   51.19    4.00
  -8  -5   1   65.99    3.90
  13  -8   1   58.29    4.10
  -8  -5   1   56.39    3.70
   9   4  -1   78.79    4.60
   4 -13  -1   89.39    7.50
  -9  -4   1   72.29    4.60
  -9  -4   1  101.59    6.30
  13  -9   1   77.79    5.10
  10   3  -1  181.68    8.50
  13 -10   1  190.28    9.00
 -10  -3   1  181.08    8.30
   0   0  -2    0.10    0.60
   0   0  -2    0.20    0.40
   0   0   2    0.00    0.70
   0   0   2    0.40    0.50
   0   0   2    0.70    1.20
   1  -1  -2  581.84   23.30
   0   1  -2  566.24   22.90
   1  -1  -2  588.44   22.50
  -1   0  -2  574.74   22.50
   0   1  -2  552.84   22.60
   0  -1   2  549.35   23.30
  -1   1   2  604.84   24.10
   1   0   2  548.25   23.70
  -1   1   2  478.25   23.10
   0  -1   2  586.34   23.90
   0  -1   2  538.45   22.50
   1   0  -2  342.57   13.90
   0  -1  -2  301.47   13.30
  -1   1  -2  308.57   13.00
   1   0  -2  315.17   13.00
   1  -1   2  324.27   14.20
  -1   0   2  347.47   14.70
   0   1   2  331.87   14.40
   1  -1   2  295.27   13.20
  -1   0   2  320.27   12.90
   1  -1   2  304.47   13.00
   2  -1  -2 2362.36   90.69
  -1  -1  -2 2340.87   90.49
   2  -1  -2 2385.86   91.89
  -1  -1  -2 2347.97   90.49
   1  -2   2 2077.19   90.59
   1  -2   2 2376.86   91.79
   1  -2   2 2110.39   91.29
  -2   1   2 2369.16   92.59
  -2   1   2 2196.38   90.49
   3  -2  -2 1784.02   73.49
  -2  -1  -2 1918.91   73.49
   3  -2  -2 1908.11   75.19
  -2  -1  -2 1854.91   73.49
  -3   2   2 1769.12   73.29
   1  -3   2 1859.91   74.39
  -3   2   2 1896.91   75.79
   1  -3   2 1804.62   73.59
  -2   0  -2  926.51   39.00
   2  -2  -2  993.40   40.20
   0   2  -2  958.60   39.40
  -2   0  -2 1049.59   38.90
   0  -2   2  969.30   40.10
   0  -2   2  904.71   38.90
  -2   2   2 1013.20   40.80
   1   1  -2  341.77   14.40
   1  -2  -2  336.07   14.50
  -1  -1   2  338.87   15.20
  -1  -1   2  315.87   13.60
   2   0  -2 3382.16  139.49
   2   0  -2 3662.33  140.69
   0  -2  -2 3368.06  139.79
   2  -2   2 3413.06  139.59
   0   2   2 3580.54  140.69
  -2   0   2 3796.62  142.39
   2  -2   2 3479.95  139.39
  -2   0   2 3459.85  139.49
  -1  -2  -2  478.05   19.40
  -1  -2  -2  495.65   19.20
  -1  -2  -2  469.35   19.20
   3  -1  -2  483.75   21.10
  -1  -2  -2  473.55   19.90
   3  -1  -2  455.15   19.60
  -3   1   2  462.75   19.30
  -3   1   2  512.75   21.90
   2  -3   2  477.25   19.50
  -2  -2  -2 1565.94   59.79
   4  -2  -2 1530.55   61.99
  -4   2   2 1398.66   59.79
  -4   2   2 1527.85   62.69
   2  -4   2 1485.15   59.99
   5  -3  -2 2949.60  122.49
  -3  -2  -2 3219.48  118.39
  -5   3   2 2786.02  124.59
   2  -5   2 3053.49  118.59
  -5   3   2 2886.71  118.29
   4  -3  -2  269.07   13.10
  -3  -1  -2  268.67   10.80
  -1   4  -2  242.58   12.00
   1  -4   2  256.87   10.90
  -4   3   2  242.18   10.50
  -4   3   2  268.47   13.40
   3  -3  -2 1218.28   50.29
  -3   0  -2 1244.58   48.60
   0   3  -2 1165.68   49.30
   0  -3   2 1215.88   48.60
   0  -3   2 1198.38   49.60
  -3   3   2 1249.57   50.69
   1   2  -2 4590.14  182.88
  -1  -2   2 4622.04  183.58
  -1  -2   2 4414.06  181.98
  -2   3   2 4761.82  183.78
   2   1  -2  627.84   25.90
   1  -3  -2  601.44   25.60
  -2  -1   2  621.14   26.60
  -2  -1   2  594.54   24.60
  -1   3   2  603.54   26.00
   3   0  -2  533.15   23.20
  -3   0   2  521.25   21.50
  -3   0   2  539.95   24.00
   4  -1  -2  520.15   23.40
  -4   1   2  481.25   21.10
   3  -4   2  541.25   21.50
  -4   1   2  542.55   24.30
   5  -2  -2 3173.08  128.09
  -2  -3  -2 3312.57  125.29
  -5   2   2 2987.10  125.39
   3  -5   2 3166.08  125.69
   6  -3  -2 1218.88   52.09
   3  -6   2 1238.08   49.20
  -6   3   2 1158.98   52.79
  -6   3   2 1128.09   48.90
   3  -6   2 1347.07   51.29
  -4  -3  -2 1441.56   53.99
   7  -4  -2 1294.57   57.69
   7  -4  -2 1322.97   55.29
  -4  -3  -2 1297.97   57.99
   3  -7   2 1364.66   56.29
  -7   4   2 1273.17   58.39
   3  -7   2 1396.26   54.49
  -4  -2  -2  148.39   10.40
  -4  -2  -2  151.28    6.70
   6  -4  -2  156.18    9.70
   6  -4  -2  135.89    7.60
  -6   4   2  144.89    9.70
   2  -6   2  156.28    7.00
   2  -6   2  126.59    9.10
   5  -4  -2 1479.35   62.19
  -4  -1  -2 1489.15   59.49
   1  -5   2 1487.55   59.59
   4  -4  -2 1428.56   59.99
  -4   0  -2 1463.45   57.69
   0  -4   2 1443.56   57.79
  -4   4   2 1466.65   60.09
   0  -4   2 1406.46   58.39
   1   3  -2 1102.99   46.90
   3  -4  -2 1204.88   47.90
  -4   1  -2 1140.69   46.00
  -3   4   2 1126.59   47.70
  -1  -3   2 1144.09   47.40
  -1  -3   2 1147.39   46.00
  -4   2  -2  580.44   24.30
   2  -4  -2  619.24   25.80
   2   2  -2  590.24   25.30
  -2   4   2  595.44   25.60
  -2  -2   2  580.54   26.00
   3   1  -2  611.04   26.60
   1  -4  -2  617.84   25.80
   4  -3   2  608.94   25.10
  -3  -1   2  622.84   27.20
  -3  -1   2  603.54   24.60
   4  -3   2  568.74   24.70
   4   0  -2  362.56   17.00
  -4   0   2  342.27   14.90
  -4   0   2  370.66   18.00
   5  -1  -2  518.05   25.70
   5  -1  -2  638.94   26.80
  -5   1   2  591.54   24.10
  -5   1   2  599.04   27.70
  -2  -4  -2  227.18    9.40
   6  -2  -2  219.48   12.60
   6  -2  -2  224.18   10.90
  -6   2   2  219.78   13.40
  -6   2   2  219.78    9.80
   7  -3  -2   39.20    4.90
  -3  -4  -2   31.50    2.20
   7  -3  -2   32.90    3.80
  -3  -4  -2   41.60    6.10
   4  -7   2   38.20    4.20
   4  -7   2   35.00    2.90
  -7   3   2   23.10    4.70
  -4  -4  -2  130.89   11.30
   8  -4  -2  114.89    7.70
  -4  -4  -2  109.19    7.30
   8  -4  -2  137.59    9.30
  -4   8  -2  136.59   10.30
   4   4   2  137.89   10.90
   4  -8   2  157.78   11.50
   4   4   2  132.39    6.90
   4  -8   2  136.89    8.60
  -8   4   2  144.89    7.60
   4  -8   2  135.79    8.60
  -4   9  -2  334.87   16.10
  -5  -4  -2  338.67   16.60
  -5  -4  -2  347.17   20.60
   9  -5  -2  326.47   17.10
   9  -5  -2  366.16   16.90
  -4   9  -2  388.66   19.70
   4  -9   2  343.67   17.80
   5   4   2  439.36   28.20
   4  -9   2  340.87   17.60
  -9   5   2  386.76   16.90
   5   4   2  374.36   16.30
   4  -9   2  371.86   18.90
   8  -5  -2    2.20    1.70
   8  -5  -2    5.40    2.20
  -3   8  -2    6.20    1.80
  -5  -3  -2    5.30    4.00
  -3   8  -2    4.10    3.10
   3  -8   2    5.90    2.60
  -8   5   2    5.20    1.70
   3  -8   2    3.90    2.40
   3  -8   2    3.50    3.10
   5   3   2    6.30    3.50
   5   3   2    6.20    1.60
  -2   7  -2  599.74   33.20
  -5  -2  -2  567.74   27.20
   7  -5  -2  527.15   24.40
  -5  -2  -2  564.94   23.90
   5   2   2  591.64   29.10
   2  -7   2  573.44   26.30
  -7   5   2  522.35   27.10
  -5  -1  -2  291.17   12.30
   6  -5  -2  308.57   17.00
  -5  -1  -2  282.77   15.40
   6  -5  -2  259.87   13.10
  -6   5   2  280.07   15.20
   1  -6   2  292.47   12.40
   1  -6   2  275.07   15.10
  -5   0  -2  321.87   16.20
   5  -5  -2  336.57   16.60
   0  -5   2  282.27   16.50
  -5   5   2  324.97   18.00
   0  -5   2  333.97   13.80
   4  -5  -2  672.93   28.90
   1   4  -2  642.74   27.50
  -5   1  -2  648.94   26.40
  -5   1  -2  594.14   28.10
  -1  -4   2  657.03   26.40
  -4   5   2  637.94   28.30
  -1  -4   2  648.14   27.40
   2   3  -2   18.80    3.90
   3  -5  -2   20.50    3.30
  -5   2  -2   22.00    2.10
  -2  -3   2   21.50    1.90
  -2  -3   2   19.70    3.20
  -3   5   2   23.20    2.90
  -5   3  -2  420.26   16.90
   2  -5  -2  406.46   18.50
   3   2  -2  410.06   18.10
   5  -3   2  388.86   17.00
  -3  -2   2  383.56   16.60
  -3  -2   2  389.16   19.10
  -2   5   2  403.86   17.70
   4   1  -2  774.42   32.40
   4   1  -2  687.53   31.10
  -4  -1   2  760.62   30.50
   5  -4   2  776.42   31.50
   5   0  -2   28.90    3.80
  -5   5  -2   26.80    2.60
   5  -5   2   35.00    3.30
  -5   0   2   28.60    4.90
  -5   0   2   29.20    2.20
   6  -1  -2  403.36   19.70
   6  -1  -2  410.66   18.00
  -6   1   2  396.86   16.90
   5  -6   2  388.56   17.80
  -2  -5  -2   35.60    5.60
  -2  -5  -2   30.90    2.00
   7  -2  -2   31.70    3.80
  -7   2   2   31.80    3.40
   2   5   2   37.20    5.70
   5  -7   2   31.00    4.10
  -5   8  -2   26.30    3.30
   8  -3  -2   31.10    4.10
  -3  -5  -2   18.60    5.80
   5  -8   2   27.40    3.90
   3   5   2   26.40    3.20
  -8   3   2   30.50    3.50
   5  -8   2   21.40    3.60
   5  -8   2   24.70    3.70
   3   5   2   24.40    5.30
  -4  -5  -2  635.24   31.50
  -4  -5  -2  595.34   27.20
  -5   9  -2  676.33   30.50
   9  -4  -2  607.44   28.00
  -5   9  -2  586.84   26.80
   9  -4  -2  628.94   27.40
   5  -9   2  608.44   28.30
   5  -9   2  629.74   28.70
  -9   4   2  652.73   28.40
   5  -9   2  623.74   28.60
   4   5   2  632.44   26.60
   4   5   2  682.33   36.80
  10  -5  -2   84.79    6.50
  -5  10  -2   91.69    7.60
  -5  -5  -2   78.79    5.70
  -5  -5  -2   86.49   10.50
  10  -5  -2   86.89    6.10
   5   5   2   86.19    9.40
   5 -10   2   95.09    6.80
   5 -10   2   94.29    8.40
   5   5   2   86.59    5.10
 -10   5   2   89.49    5.70
  -6  -5  -2  124.89   11.40
  -5  11  -2  118.19    8.00
  -6  -5  -2  117.99    6.80
  11  -6  -2  118.99    7.60
   6   5   2  114.09    5.90
   5 -11   2   97.89   10.30
   6   5   2  114.49   10.20
  10  -6  -2   94.09    6.90
  10  -6  -2  111.79    6.90
  -6  -4  -2   97.09    6.40
  -4  10  -2  106.69    8.40
  -6  -4  -2  101.49   10.10
   6   4   2  101.39    5.90
   6   4   2  103.59   10.20
   4 -10   2  105.19    9.70
  -6  -3  -2  196.78   16.90
  -3   9  -2  175.98    9.70
  -3   9  -2  182.78   13.30
   9  -6  -2  181.98    9.70
   6   3   2  180.68    9.50
   3  -9   2  170.38   12.40
   3  -9   2  150.68   10.70
   6   3   2  180.58   13.70
  -2   8  -2  433.96   20.00
   8  -6  -2  433.96   20.30
   8  -6  -2  434.86   20.70
  -2   8  -2  494.45   24.00
  -6  -2  -2  434.96   20.50
   2  -8   2  465.25   22.10
   6   2   2  483.25   25.60
   2  -8   2  461.15   23.20
   6   2   2  480.75   20.50
   7  -6  -2    9.70    2.20
  -1   7  -2   14.20    2.30
  -6  -1  -2   14.40    2.10
  -1   7  -2   15.40    4.20
  -6  -1  -2    9.70    2.00
  -7   6   2    5.20    3.00
   6   1   2   13.60    4.10
   1  -7   2   17.30    2.50
   6   1   2   11.10    2.10
   6  -6  -2  655.73   29.70
  -6   0  -2  725.03   29.20
  -6   0  -2  714.63   31.50
   6  -6  -2  731.03   33.00
   0  -6   2  713.93   33.10
   0  -6   2  719.93   29.30
  -6   6   2  693.63   32.00
   5  -6  -2  161.28   10.10
  -6   1  -2  151.18    7.30
  -6   1  -2  149.79    9.00
  -1  -5   2  153.78    7.20
  -1  -5   2  158.28   11.40
  -5   6   2  147.19    8.90
  -6   2  -2  145.39    7.00
   2   4  -2  150.88    8.20
   4  -6  -2  156.58    9.50
  -6   2  -2  147.09    8.10
   2   4  -2  124.99    7.40
  -2  -4   2  158.58   10.80
  -4   6   2  147.99    8.30
  -2  -4   2  137.59    8.30
  -2  -4   2  146.79    6.90
  -6   3  -2  116.79    5.80
   3   3  -2  120.39    7.00
  -6   3  -2  112.39    6.40
   3   3  -2  107.69    6.30
   3  -6  -2  115.39    7.70
  -3  -3   2  110.59    7.70
   4   2  -2  190.58    9.60
   4   2  -2  189.48   10.30
  -6   4  -2  197.48    9.00
  -6   4  -2  196.98    9.20
   2  -6  -2  203.48   10.70
   6  -4   2  188.68    9.50
  -4  -2   2  186.48   11.60
  -4  -2   2  199.78    9.00
  -6   5  -2  301.87   12.90
   5   1  -2  296.37   13.60
  -6   5  -2  276.37   12.80
   5   1  -2  296.07   14.60
   6  -5   2  274.07   13.10
  -5  -1   2  298.07   14.10
  -5  -1   2  283.27   16.00
   6  -5   2  293.37   14.00
   6   0  -2  181.88   10.90
   6   0  -2  190.88    9.80
  -6   0   2  189.58    8.70
   6  -6   2  189.58   10.50
  -6   0   2  188.38   12.40
   6  -6   2  185.38    9.40
  -6   7  -2  800.82   36.10
   7  -1  -2  874.81   36.40
  -1  -6  -2  822.32   37.80
   6  -7   2  900.11   36.90
  -7   1   2  837.42   35.10
   6  -7   2  818.22   37.40
   6  -7   2  868.21   36.20
   1   6   2  921.91   40.20
   6  -7   2  843.12   39.70
   8  -2  -2  542.85   23.20
  -6   8  -2  469.65   26.70
  -2  -6  -2  473.55   25.80
  -6   8  -2  509.65   22.80
  -8   2   2  544.65   23.50
   2   6   2  529.25   27.00
   6  -8   2  504.65   23.70
   6  -8   2  524.45   23.40
   6  -8   2  521.75   23.60
   9  -3  -2  391.36   19.20
   9  -3  -2  391.46   18.60
  -3  -6  -2  380.86   18.40
  -6   9  -2  465.15   20.20
  -3  -6  -2  385.06   22.40
   3   6   2  411.66   18.00
   6  -9   2  405.26   21.70
  -9   3   2  428.76   19.10
   6  -9   2  391.16   19.60
   6  -9   2  398.66   19.50
   3   6   2  425.26   23.20
  10  -4  -2   49.20    4.60
  -4  -6  -2   37.30    7.50
  -4  -6  -2   46.40    4.00
  10  -4  -2   46.50    5.00
   6 -10   2   45.10    4.80
   4   6   2   43.70    3.10
 -10   4   2   48.60    4.30
   4   6   2   54.79    7.50
   6 -10   2   47.40    6.10
  11  -5  -2  195.48   10.50
  -5  -6  -2  188.98    9.70
   5   6   2  191.68   13.70
   5   6   2  180.98    8.20
   6 -11   2  189.08   12.50
  12  -6  -2    3.70    1.50
  -6  -6  -2    4.80    1.50
  -6  -6  -2    6.40    3.80
   6 -12   2    3.00    4.50
   6   6   2    5.50    3.00
  -7  -6  -2   10.40    2.30
  -7  -6  -2   12.10    1.60
  13  -7  -2   11.00    2.00
   7   6   2   10.20    2.80
  -7  -5  -2  113.89    8.10
  -7  -5  -2  111.39    6.30
   7   5   2  108.39   10.60
   5 -12   2  114.49   10.60
  -7  -4  -2    4.10    3.50
  -4  11  -2    6.90    2.80
  -7  -4  -2    9.50    2.10
   4 -11   2    1.50    4.60
   7   4   2    5.80    1.50
   7   4   2    4.80    3.30
  10  -7  -2  191.78   10.70
  -7  -3  -2  195.18   12.50
  -3  10  -2  204.68   12.80
  -7  -3  -2  201.68   10.50
   7   3   2  197.18   14.40
   7   3   2  194.58    9.90
   3 -10   2  200.48   14.30
   9  -7  -2 1434.66   62.69
   9  -7  -2 1548.15   62.49
  -2   9  -2 1587.54   66.39
  -7  -2  -2 1447.96   62.59
  -7  -2  -2 1548.84   64.39
   2  -9   2 1493.95   66.19
   7   2   2 1531.75   67.99
   7   2   2 1559.74   62.49
  -7  -1  -2  647.84   28.40
  -1   8  -2  616.54   27.60
   8  -7  -2  598.04   28.10
   8  -7  -2  639.14   28.00
  -7  -1  -2  646.64   29.80
  -1   8  -2  699.93   32.10
   7   1   2  683.23   33.40
   7   1   2  670.73   28.30
   1  -8   2  644.84   31.90
   1  -8   2  654.53   30.00
   0   7  -2  233.28   11.90
   7  -7  -2  235.98   11.80
   0   7  -2  275.67   15.80
  -7   0  -2  243.08   12.40
  -7   0  -2  254.27   13.70
   0  -7   2  261.47   15.60
   0  -7   2  225.08   16.00
   7   0   2  268.37   16.70
   7   0   2  247.08   12.40
  -7   1  -2  454.25   19.40
   6  -7  -2  414.96   19.40
   1   6  -2  431.46   19.90
  -7   1  -2  480.15   21.00
  -7   1  -2  449.76   20.40
   7  -1   2  465.65   20.90
   7  -1   2  482.75   25.00
  -1  -6   2  453.55   19.30
  -1  -6   2  430.46   23.80
  -7   2  -2   21.40    3.00
   5  -7  -2   34.40    4.60
   2   5  -2   24.20    4.30
  -7   2  -2   32.20    3.80
  -7   2  -2   25.00    2.60
  -2  -5   2   23.80    5.80
  -2  -5   2   24.40    2.40
   7  -2   2   21.10    2.80
   4  -7  -2   73.29    6.50
  -7   3  -2   69.89    4.10
  -7   3  -2   61.09    4.70
   3   4  -2   63.29    4.90
   3   4  -2   61.79    5.10
  -3  -4   2   65.19    3.80
  -3  -4   2   65.79    7.50
   4   3  -2  336.17   15.50
  -7   4  -2  334.07   14.80
  -7   4  -2  361.46   15.10
   4   3  -2  346.57   16.50
  -4  -3   2  345.77   14.80
  -4  -3   2  318.27   17.60
  -7   5  -2  493.85   21.20
   5   2  -2  511.25   22.20
  -7   5  -2  486.45   22.50
  -7   5  -2  529.95   21.60
   5   2  -2  479.55   22.00
  -5  -2   2  505.35   21.20
   7  -5   2  484.45   21.60
  -5  -2   2  552.04   27.10
   7  -5   2  524.05   22.70
  -5  -2   2  489.05   25.70
   6   1  -2  368.76   17.40
   6   1  -2  374.16   18.50
  -7   6  -2  353.96   17.00
  -7   6  -2  350.16   16.00
   7  -6   2  373.86   19.20
  -6  -1   2  342.77   16.30
   7  -6   2  374.16   17.30
  -6  -1   2  375.26   17.70
   7  -6   2  357.26   16.40
  -6  -1   2  363.56   15.70
   7   0  -2  426.16   20.30
   7   0  -2  401.36   19.30
   7   0  -2  428.96   19.40
  -7   7  -2  404.76   19.40
   0  -7  -2  443.56   25.00
  -7   0   2  402.76   18.40
   7  -7   2  426.56   19.30
  -7   0   2  464.85   20.50
   0   7   2  468.45   22.90
  -7   0   2  380.86   19.70
   7  -7   2  472.65   20.70
   7  -7   2  439.36   20.30
  -1  -7  -2   70.99    8.50
   8  -1  -2   83.79    5.90
  -7   8  -2   67.29    5.50
  -8   1   2   79.09    6.10
   7  -8   2   72.49    6.00
   1   7   2   87.09    8.20
   7  -8   2   74.99    6.10
  -8   1   2   78.49    5.40
   7  -8   2   79.39    6.30
  -7   9  -2   18.60    2.70
   9  -2  -2   16.20    2.90
  -2  -7  -2   10.60    5.40
   7  -9   2   23.40    3.80
   7  -9   2   18.90    3.40
   7  -9   2   22.90    3.70
   2   7   2   26.50    5.80
  -9   2   2   14.00    2.80
  10  -3  -2    3.30    2.30
  -3  -7  -2    4.30    1.90
  -3  -7  -2    5.30    4.80
  10  -3  -2    4.00    1.90
 -10   3   2    6.80    2.20
   7 -10   2    6.90    3.20
   7 -10   2    3.20    2.40
   3   7   2    3.90    3.70
   7 -10   2    7.50    4.00
  11  -4  -2  164.08    9.90
  -4  -7  -2  150.28    8.10
  -4  -7  -2  174.68   12.90
   4   7   2  158.98   12.10
   7 -11   2  150.48    8.90
 -11   4   2  158.68    8.40
   7 -11   2  154.68   10.70
  -5  -7  -2   81.79    4.70
  -5  -7  -2   76.99    8.30
   5   7   2   67.69    7.40
   7 -12   2   79.39    8.00
  -6  -7  -2   82.19    4.30
  13  -6  -2   81.09    4.40
   6   7   2   76.39    6.40
  13  -8  -2   18.30    2.40
  -8  -5  -2   22.50    2.10
   8   5   2   16.70    3.30
  -8  -4  -2   29.80    3.10
  12  -8  -2   31.60    3.60
  -4  12  -2   23.00    3.50
   8   4   2   35.40    2.30
   8   4   2   29.20    4.90
  -8  -3  -2   42.60    3.90
  -3  11  -2   38.90    4.90
  11  -8  -2   46.00    4.10
  -8  -3  -2   39.70    5.30
   3 -11   2   34.70    6.60
   8   3   2   37.90    3.30
   8   3   2   37.20    6.20
  -8  -2  -2  317.77   16.20
  -2  10  -2  313.47   19.80
  -8  -2  -2  314.97   16.60
   2 -10   2  312.07   19.30
   8   2   2  337.77   15.30
  -8  -1  -2   22.20    3.90
  -1   9  -2   23.40    4.80
  -8  -1  -2   24.90    3.50
   1  -9   2   16.10    6.40
   8   1   2   20.80    3.00
   1  -9   2   16.50    4.30
   8   1   2   19.00    5.20
  -8   0  -2  225.58   12.10
   0   8  -2  240.18   15.00
  -8   0  -2  234.78   12.80
   8   0   2  247.08   16.50
   0  -8   2  239.08   16.90
   8   0   2  247.18   12.30
  -8   1  -2 1001.20   41.20
  -8   1  -2  955.80   41.20
   1   7  -2  947.81   44.40
   1   7  -2  952.80   40.50
   8  -1   2 1022.80   46.60
   8  -1   2  988.70   41.50
  -1  -7   2  950.60   42.90
  -1  -7   2  955.20   45.20
  -8   2  -2  219.98   11.30
   2   6  -2  212.58   11.00
  -8   2  -2  213.08   11.40
   2   6  -2  228.38   14.20
   8  -2   2  224.68   11.60
  -2  -6   2  237.98   15.70
  -2  -6   2  209.68   12.70
  -8   3  -2 1165.98   47.50
   3   5  -2 1208.48   51.79
  -8   3  -2 1124.79   48.40
   3   5  -2 1130.09   47.80
  -3  -5   2 1159.78   49.99
  -3  -5   2 1163.08   51.39
   8  -3   2 1150.28   48.30
   8  -3   2 1139.79   48.70
  -8   4  -2   39.70    4.00
  -8   4  -2   42.30    3.30
   4   4  -2   46.80    5.40
   4   4  -2   41.60    3.90
   8  -4   2   42.60    4.20
  -4  -4   2   41.10    6.60
   8  -4   2   39.90    4.10
  -4  -4   2   41.70    4.10
  -4  -4   2   43.50    5.20
   5   3  -2   27.90    3.70
  -8   5  -2   37.50    3.30
   5   3  -2   33.20    4.90
  -8   5  -2   29.80    3.70
  -5  -3   2   34.20    3.60
   8  -5   2   36.70    3.90
   8  -5   2   31.80    4.10
  -5  -3   2   39.80    4.30
   6   2  -2  522.85   23.60
  -8   6  -2  544.35   24.10
   6   2  -2  504.15   26.00
   2  -8  -2  496.35   23.50
   6   2  -2  572.74   23.60
  -6  -2   2  555.14   25.00
   8  -6   2  506.85   23.20
  -6  -2   2  545.55   23.70
   8  -6   2  569.34   24.50
   8  -6   2  556.24   24.50
  -8   7  -2  227.58   11.60
   7   1  -2  219.98   11.60
   1  -8  -2  213.98   12.20
   7   1  -2  239.18   11.50
   7   1  -2  244.28   12.50
   8  -7   2  208.88   11.30
  -7  -1   2  213.78   11.20
  -1   8   2  239.48   14.50
  -7  -1   2  226.68   12.50
   8  -7   2  238.78   12.40
   8  -7   2  234.38   12.40
   0  -8  -2  312.67   17.20
   8   0  -2  277.67   18.60
  -8   8  -2  301.87   14.60
   8   0  -2  309.37   14.20
   8  -8   2  313.77   16.20
   0   8   2  312.27   17.70
   8  -8   2  312.27   15.30
   8  -8   2  285.07   14.60
  -8   0   2  266.57   15.10
  -8   0   2  309.77   15.30
  -1  -8  -2  177.38   13.90
  -8   9  -2  187.48    9.50
   9  -1  -2  179.88   10.20
   9  -1  -2  186.88   10.60
   9  -1  -2  200.68    9.80
  -9   1   2  187.78   10.40
   8  -9   2  177.78   10.50
   8  -9   2  189.58   10.70
   8  -9   2  186.78   10.90
   1   8   2  199.88   13.40
  10  -2  -2  104.09    6.00
  -2  -8  -2  108.09   10.60
  -2  -8  -2   88.89    6.40
  10  -2  -2   99.89    6.70
 -10   2   2   97.19    6.40
   8 -10   2  102.89    7.50
   8 -10   2   85.79    6.70
   2   8   2   93.29   11.50
   8 -10   2   81.99    8.10
  -3  -8  -2  102.09   10.90
  11  -3  -2  118.19    7.20
   8 -11   2  112.29    8.60
   8 -11   2  105.79    7.00
 -11   3   2  111.39    6.50
   3   8   2  104.49    9.30
  12  -4  -2   22.20    3.10
  -4  -8  -2   16.20    2.40
   4   8   2   17.00    3.90
   8 -12   2   16.20    3.10
  -5  -8  -2   51.59    4.70
  13  -5  -2   38.90    3.00
   5   8   2   38.90    4.70
  13  -9  -2   47.70    3.20
  -9  -4  -2   54.29    3.20
  12  -9  -2  282.77   12.80
  -9  -3  -2  271.37   12.30
  -9  -3  -2  281.37   12.50
  12  -9  -2  289.57   12.40
  -3  12  -2  247.08   13.20
   9   3   2  268.57   11.70
  -9  -2  -2   11.60    2.20
  -2  11  -2   10.30    2.90
  11  -9  -2   12.20    2.10
  -9  -2  -2    8.10    2.30
   2 -11   2    8.30    5.40
   9   2   2    9.10    3.50
   9   2   2    9.60    1.80
  -9  -1  -2   91.39    6.00
  -9  -1  -2   92.29    7.20
  -1  10  -2   80.59    7.70
   1 -10   2   82.59   10.30
   9   1   2   84.09    8.60
   9   1   2   87.49    5.70
  -9   0  -2  346.37   16.10
  -9   0  -2  320.37   17.50
   9  -9  -2  336.07   15.50
   0   9  -2  353.46   19.40
   0  -9   2  297.47   18.20
   0  -9   2  333.37   20.30
   9   0   2  360.76   20.60
   9   0   2  363.16   16.30
   1   8  -2  325.77   18.10
   8  -9  -2  303.07   13.90
  -9   1  -2  308.07   14.60
  -9   1  -2  302.07   14.80
   1   8  -2  300.57   13.90
  -1  -8   2  268.87   15.90
  -1  -8   2  288.77   19.20
   9  -1   2  314.27   15.00
   2   7  -2   37.30    4.10
   2   7  -2   43.50    6.30
   7  -9  -2   42.00    3.60
  -9   2  -2   37.50    4.20
  -9   2  -2   40.50    4.40
  -2  -7   2   37.40    7.80
  -2  -7   2   43.80    5.70
   9  -2   2   48.40    4.60
  -9   3  -2  309.77   14.00
  -9   3  -2  308.97   15.30
   6  -9  -2  289.97   13.70
   3   6  -2  314.87   18.10
   9  -3   2  322.77   15.60
  -3  -6   2  304.67   15.30
  -3  -6   2  298.97   19.10
  -3  -6   2  320.77   19.70
   9  -3   2  305.77   16.90
  -9   4  -2  734.63   32.00
   4   5  -2  753.72   33.00
  -9   4  -2  785.62   35.50
   4   5  -2  770.22   37.60
   5  -9  -2  749.03   32.20
   9  -4   2  812.32   34.30
  -4  -5   2  778.92   35.00
  -4  -5   2  792.42   36.10
  -4  -5   2  811.92   36.50
   9  -4   2  783.02   33.70
   4  -9  -2  510.15   22.80
   5   4  -2  517.45   26.60
  -9   5  -2  558.24   26.30
   5   4  -2  538.05   23.90
   9  -5   2  541.05   24.70
   9  -5   2  558.44   24.70
  -5  -4   2  520.25   25.30
  -5  -4   2  542.45   25.20
  -9   6  -2  192.08   10.70
   6   3  -2  198.88   10.40
   3  -9  -2  194.38    9.90
   9  -6   2  201.38   12.50
  -6  -3   2  181.88   11.70
  -6  -3   2  181.38   10.70
   9  -6   2  202.18   11.00
   7   2  -2  265.07   13.00
  -9   7  -2  270.57   13.00
   2  -9  -2  258.27   14.60
   7   2  -2  242.68   15.40
   7   2  -2  260.27   13.70
  -7  -2   2  253.67   12.70
   9  -7   2  268.97   13.80
  -7  -2   2  256.67   13.90
   9  -7   2  261.57   13.70
   1  -9  -2  108.49    9.50
   8   1  -2  117.19    7.80
   8   1  -2  122.19    6.90
  -9   8  -2  127.49    7.40
  -8  -1   2  119.49    7.10
  -8  -1   2  128.19    8.20
   9  -8   2  125.69    7.90
  -1   9   2  127.29    9.40
   9  -8   2  124.99    8.10
   9  -8   2  109.79    7.60
   0  -9  -2  108.89   11.00
  -9   9  -2  127.59    8.10
   9   0  -2  123.99    9.40
   9   0  -2  127.29    6.90
   9   0  -2  132.89    7.80
   9  -9   2  124.89    8.40
   0   9   2  142.69   12.90
  -9   0   2  116.39    8.10
  -9   0   2  126.19    8.00
   9  -9   2  118.19    7.90
  -1  -9  -2  196.28   14.10
  10  -1  -2  202.58   11.00
  10  -1  -2  223.18   11.00
 -10   1   2  202.68   10.80
   9 -10   2  212.88   11.50
   9 -10   2  211.48   11.60
   9 -10   2  204.28   11.50
   1   9   2  216.08   13.40
  -2  -9  -2   12.40    5.00
  11  -2  -2   12.10    2.50
  11  -2  -2    8.20    2.20
   9 -11   2    9.10    2.40
   2   9   2    5.40    2.90
 -11   2   2    5.70    1.80
  -3  -9  -2   82.69    8.20
  12  -3  -2   67.49    4.30
  12  -3  -2   94.39    5.30
   3   9   2   80.69    6.70
   9 -12   2   82.99    5.40
   4   9   2   31.30    3.40
  -2  12  -2   82.69    5.90
  12 -10  -2  102.69    5.50
  12 -10  -2  104.49    5.40
 -10  -2  -2  102.09    5.60
  10   2   2   99.49    5.30
  11 -10  -2  169.18    8.20
  -1  11  -2  155.18    9.90
  11 -10  -2  156.18    8.20
 -10  -1  -2  148.39    7.50
 -10  -1  -2  167.98    9.90
   1 -11   2  177.78   11.60
  10   1   2  154.98    7.90
 -10   0  -2    7.40    1.80
 -10   0  -2    6.50    1.80
  10 -10  -2    4.60    1.70
   0  10  -2    7.10    2.90
  10 -10  -2    7.20    2.00
   0 -10   2    3.90    5.20
  10   0   2    6.00    1.90
   1   9  -2   49.50    6.20
 -10   1  -2   44.80    4.30
   9 -10  -2   48.00    4.80
 -10   1  -2   43.20    3.70
   9 -10  -2   45.70    3.90
  10  -1   2   44.60    4.30
  -1  -9   2   41.30    6.70
 -10   2  -2    6.00    2.00
   2   8  -2    5.20    3.10
   8 -10  -2    5.80    1.80
 -10   2  -2    3.70    1.40
   8 -10  -2    4.50    1.50
  -2  -8   2   10.10    5.40
  -2  -8   2    1.90    2.20
  -2  -8   2    5.70    2.20
  10  -2   2    5.00    2.20
 -10   3  -2  327.37   14.90
 -10   3  -2  362.56   16.60
   7 -10  -2  345.07   15.50
   3   7  -2  326.77   16.20
   3   7  -2  382.36   25.40
  -3  -7   2  331.57   17.50
  -3  -7   2  344.37   16.50
  -3  -7   2  341.57   19.80
  10  -3   2  351.26   16.90
   4   6  -2   54.59    4.70
   4   6  -2   52.39    6.50
   6 -10  -2   53.69    4.00
 -10   4  -2   53.89    5.10
  -4  -6   2   54.09    5.00
  -4  -6   2   72.49    9.60
  10  -4   2   51.79    4.80
  10  -4   2   49.30    5.00
  -4  -6   2   50.09    5.50
   5   5  -2   79.09    7.70
   5 -10  -2   71.89    5.00
   5   5  -2   67.79    5.30
 -10   5  -2   79.09    5.70
  10  -5   2   77.29    5.90
  10  -5   2   68.79    5.90
  -5  -5   2   70.59    5.70
  -5  -5   2   72.59    6.40
 -10   6  -2  138.39    8.00
   4 -10  -2  122.79    7.60
   6   4  -2  126.49   10.00
  -6  -4   2  126.99    8.70
  -6  -4   2  138.59    7.90
  10  -6   2  124.19    8.20
  10  -6   2  131.99    8.20
   7   3  -2  206.08   11.20
 -10   7  -2  212.48   10.70
   7   3  -2  192.68   12.70
   3 -10  -2  207.18   11.20
  -7  -3   2  219.88   11.80
  10  -7   2  201.08   11.40
  -7  -3   2  204.88   10.60
  10  -7   2  207.18   11.50
   8   2  -2  776.92   33.90
   2 -10  -2  785.42   34.90
 -10   8  -2  780.52   32.70
   8   2  -2  700.93   34.70
  -8  -2   2  736.73   32.90
  -8  -2   2  821.42   36.10
  10  -8   2  801.12   34.30
  10  -8   2  789.72   34.00
   1 -10  -2  594.14   28.30
   9   1  -2  557.74   25.60
   9   1  -2  602.14   25.30
  10  -9   2  573.74   26.00
  10  -9   2  578.04   26.30
  -9  -1   2  587.74   25.80
  -9  -1   2  552.44   24.50
  10   0  -2  152.58    8.00
   0 -10  -2  150.08   11.70
  10   0  -2  131.39    8.90
  10 -10   2  140.49    8.50
   0  10   2  150.18    9.60
 -10   0   2  143.19    8.10
  10 -10   2  133.39    8.60
  11  -1  -2   30.30    3.20
  11  -1  -2   28.90    3.40
  10 -11   2   32.80    3.80
   1  10   2   31.50    4.20
 -11   1   2   32.50    3.40
  12  -2  -2   25.90    2.70
  -2 -10  -2   18.30    4.00
   2  10   2   17.70    3.00
  10 -12   2   16.90    2.50
 -11  -1  -2  192.28    8.00
  -1  12  -2  152.18    9.60
  11   1   2  156.18    7.50
   1 -12   2  186.78    8.00
 -11   0  -2   10.10    1.80
  11 -11  -2    8.40    1.60
   0  11  -2    7.70    2.50
  11 -11  -2    9.10    1.80
  11   0   2    9.30    1.60
   0 -11   2    9.90    1.80
  10 -11  -2   38.10    3.20
  10 -11  -2   44.30    3.60
   1  10  -2   43.30    5.30
  11  -1   2   42.60    4.40
 -11   2  -2  164.68    8.80
   9 -11  -2  171.68    8.60
   2   9  -2  164.58   11.20
  11  -2   2  168.88    9.00
  -2  -9   2  169.98    9.00
   3   8  -2   87.29    8.10
   8 -11  -2   87.89    5.30
 -11   3  -2   86.19    5.90
  -3  -8   2   74.99    6.20
  11  -3   2   90.19    6.00
  -3  -8   2   88.29    6.00
 -11   4  -2  237.98   11.80
   4   7  -2  241.88   14.70
   7 -11  -2  242.58   11.40
  -4  -7   2  216.18   12.30
  11  -4   2  222.78   11.60
  -4  -7   2  249.58   12.00
  11  -4   2  233.98   12.30
 -11   5  -2   65.49    4.90
   5   6  -2   60.79    6.90
   6 -11  -2   62.09    4.60
  11  -5   2   59.29    5.30
  11  -5   2   60.79    5.00
  -5  -6   2   66.09    5.10
  -5  -6   2   54.59    5.40
   6   5  -2    2.70    1.50
 -11   6  -2    5.10    1.90
   5 -11  -2    3.60    1.50
   6   5  -2    3.80    3.00
  -6  -5   2    5.80    1.90
  11  -6   2    5.20    2.30
  11  -6   2    6.70    2.20
  -6  -5   2    8.40    2.50
   4 -11  -2   67.19    5.70
 -11   7  -2   77.09    5.00
   7   4  -2   68.59    5.20
   7   4  -2   65.49    4.70
   7   4  -2   63.79    6.40
  11  -7   2   63.99    5.50
  -7  -4   2   62.79    5.60
  11  -7   2   74.09    5.70
  -7  -4   2   67.79    4.90
   3 -11  -2  142.99    9.60
   8   3  -2  133.19    7.90
 -11   8  -2  142.79    7.50
   8   3  -2  143.29    7.50
  11  -8   2  124.29    8.00
  -8  -3   2  147.39    8.50
  11  -8   2  148.09    8.70
  -8  -3   2  129.19    7.30
   9   2  -2   98.29    5.80
   2 -11  -2   97.49    9.10
   9   2  -2   83.09    5.80
  -9  -2   2  102.99    5.50
  11  -9   2   92.39    6.20
  11  -9   2   99.09    6.80
  -9  -2   2   88.79    6.10
   1 -11  -2   15.70    4.50
  10   1  -2   13.70    2.20
  10   1  -2   14.00    2.10
 -10  -1   2   13.80    2.30
  11 -10   2   16.40    3.20
  11 -10   2   10.10    2.50
   0 -11  -2   22.10    4.20
  11   0  -2   17.00    2.20
  11   0  -2   15.90    2.40
 -11   0   2   15.90    2.10
  11 -11   2   16.30    2.80
  11 -12   2   16.70    2.50
 -12   1  -2    9.00    1.30
   1  11  -2    6.70    2.10
  -1 -11   2    7.80    1.30
  12  -1   2   10.80    1.40
  10 -12  -2    3.80    1.40
   2  10  -2    4.40    2.30
 -12   2  -2    2.90    1.20
  -2 -10   2    4.10    1.40
  12  -2   2    6.10    1.40
   9 -12  -2  100.09    5.70
   3   9  -2   98.59    7.50
 -12   3  -2   96.19    5.50
  -3  -9   2   98.49    5.60
  12  -3   2   95.69    5.70
 -12   4  -2  400.66   17.40
   8 -12  -2  407.36   17.60
   4   8  -2  392.46   20.20
  12  -4   2  401.76   17.90
  -4  -8   2  416.56   17.70
  -4  -8   2  361.16   17.90
   5   7  -2  124.29    9.60
 -12   5  -2  136.69    7.20
  12  -5   2  155.08    9.00
  12  -5   2  123.39    7.30
  -5  -7   2  131.39    7.70
  -5  -7   2  143.29    9.60
   6   6  -2   29.40    3.20
 -12   6  -2   28.40    3.00
   6   6  -2   23.10    4.10
  -6  -6   2   23.90    3.20
  12  -6   2   24.40    3.10
  12  -6   2   29.00    3.40
  -6  -6   2   30.60    4.30
   7   5  -2    0.20    1.90
   7   5  -2    1.80    2.50
 -12   7  -2    2.90    1.20
   5 -12  -2    1.40    2.50
  12  -7   2    1.90    1.60
  -7  -5   2    1.30    1.50
  12  -7   2    2.80    1.90
  -7  -5   2    2.40    1.40
   8   4  -2   40.70    3.60
   4 -12  -2   41.50    5.30
   8   4  -2   34.00    3.30
  12  -8   2   36.30    3.80
  -8  -4   2   33.90    3.00
  12  -8   2   28.70    3.30
  -8  -4   2   33.40    3.30
   9   3  -2  254.27   12.10
   3 -12  -2  255.17   14.60
   9   3  -2  275.67   11.40
  -9  -3   2  272.17   11.70
  -9  -3   2  264.47   12.30
  12  -9   2  268.97   12.80
  12  -9   2  233.38   12.90
   2 -12  -2   17.40    4.90
  10   2  -2   12.00    1.80
 -10  -2   2   13.70    1.90
  12 -10   2   14.00    2.50
  12 -10   2    9.40    2.00
  11   1  -2   58.09    3.50
 -11  -1   2   60.79    3.50
  12 -11   2   62.59    4.30
   4   9  -2  120.39    5.80
   4   9  -2  116.39    7.20
  -4  -9   2  133.79    5.90
  13  -4   2  119.59    6.60
   5   8  -2  113.09    7.30
   5   8  -2  114.09    6.80
  -5  -8   2  137.89    6.10
  13  -5   2  121.89    6.40
   6   7  -2   33.90    2.70
   6   7  -2   26.90    3.30
   7 -13  -2   37.20    5.70
  13  -6   2   32.10    2.90
  -6  -7   2   37.70    2.80
   7   6  -2    9.60    2.50
  -7  -6   2   16.00    2.10
  13  -7   2    6.10    1.70
  13  -7   2   10.70    1.80
  -7  -6   2   12.90    1.80
   8   5  -2   37.80    2.70
  -8  -5   2   43.40    3.50
  13  -8   2   30.00    2.90
  13  -8   2   29.10    2.70
  -8  -5   2   32.60    2.90
   9   4  -2  107.79    5.50
  13  -9   2  109.39    5.90
  -9  -4   2  110.09    5.70
   0   0  -3  205.38    8.70
   0   0  -3  194.08    8.80
   0   0   3  216.98   10.70
   1  -1  -3 2776.02  112.79
   1  -1  -3 2850.91  113.79
  -1   0  -3 2815.92  112.89
   0   1  -3 2784.92  113.39
   0  -1   3 2922.91  112.99
  -1   1   3 2853.11  115.39
   0  -1   3 2924.61  115.19
   1   0  -3  809.62   35.10
   1   0  -3  880.61   34.30
   0  -1  -3  916.41   33.90
   0  -1  -3  813.42   34.20
  -1   0   3  805.02   33.90
   1  -1   3  845.22   35.90
  -1   0   3  855.71   36.50
   0   1   3  869.91   36.30
   2  -1  -3  246.28   10.60
   2  -1  -3  255.87   12.00
  -1  -1  -3  253.87   10.30
   1  -2   3  253.57   10.60
   1  -2   3  252.17   12.20
  -2   1   3  242.58   12.90
  -2  -1  -3   76.99    3.60
   3  -2  -3   74.79    5.50
  -3   2   3   70.19    6.00
   1  -3   3   75.29    3.90
   0   2  -3 2880.01  116.69
   2  -2  -3 2966.70  117.49
  -2   2   3 2976.60  118.69
   0  -2   3 2963.60  118.09
   0  -2   3 2820.82  115.99
   1   1  -3 1176.08   47.40
   1  -2  -3 1149.78   47.40
  -1   2   3 1209.78   49.00
  -1  -1   3 1115.89   46.50
  -1  -1   3 1162.58   48.90
   2   0  -3  204.08   10.10
  -2   0   3  200.18   11.20
  -2   0   3  199.98    8.60
   0   2   3  216.28   10.70
   3  -1  -3   85.59    5.60
  -3   1   3   76.99    6.30
  -3   1   3   75.29    3.50
   2  -3   3   76.19    4.00
   4  -2  -3  521.35   23.30
  -2  -2  -3  488.35   20.20
  -2   4  -3  496.35   21.30
   2  -4   3  490.05   20.70
  -4   2   3  505.85   24.10
  -3  -2  -3   62.49    3.20
   5  -3  -3   66.19    5.80
   5  -3  -3   50.99    4.30
  -2   5  -3   64.89    4.30
  -5   3   3   64.29    6.30
   2  -5   3   68.39    3.80
  -3  -1  -3  198.28    8.50
   4  -3  -3  198.28   10.90
   1  -4   3  198.48    8.80
  -4   3   3  189.98   11.50
   3  -3  -3  668.73   28.60
  -3   0  -3  665.53   26.40
   0   3  -3  645.14   27.40
   0   3  -3  611.14   27.00
   0  -3   3  647.04   26.50
  -3   3   3  645.24   29.20
   0  -3   3  666.23   28.30
   2  -3  -3  120.19    6.80
   1   2  -3  114.39    6.30
  -1  -2   3  118.79    7.40
  -2   3   3  123.39    9.10
  -1  -2   3  112.49    5.30
   2   1  -3  223.58   10.60
   1  -3  -3  217.48   10.70
  -1   3   3  224.58   14.30
  -2  -1   3  207.38   11.70
  -2  -1   3  203.38    9.10
  -3   3  -3  184.58    8.90
   3   0  -3  209.58   12.30
  -3   0   3  162.98    7.70
  -3   0   3  172.28   10.60
   4  -1  -3   25.10    2.80
   4  -1  -3   28.00    3.70
  -4   1   3   26.70    4.30
   5  -2  -3  232.78   12.70
  -3   5  -3  227.68   10.50
   5  -2  -3  217.88   10.70
   3  -5   3  225.38   10.20
  -5   2   3  215.58   13.40
   6  -3  -3  463.65   27.60
   6  -3  -3  486.45   21.70
  -3   6  -3  493.85   21.20
  -3   6  -3  483.45   22.00
  -3  -3  -3  475.85   20.00
  -3  -3  -3  461.15   23.80
   3  -6   3  488.65   20.90
   3  -6   3  485.45   23.40
   3   3   3  538.35   26.50
   3  -6   3  536.15   23.90
  -3   7  -3 3019.50  126.49
  -3   7  -3 2992.60  127.19
   7  -4  -3 3082.59  127.19
  -3   7  -3 3478.25  132.19
  -4  -3  -3 2983.70  129.29
   4   3   3 3314.17  132.99
   3  -7   3 3120.29  128.29
  -7   4   3 3412.06  126.59
   3  -7   3 3130.79  128.99
   3  -7   3 3037.20  129.39
  -2   6  -3  873.01   37.40
   6  -4  -3  742.23   32.40
  -2   6  -3  747.93   32.10
  -4  -2  -3  742.63   31.10
  -2   6  -3  728.43   32.70
   4   2   3  739.33   37.10
   2  -6   3  791.92   33.70
   2  -6   3  771.32   31.70
   5  -4  -3  296.77   15.30
  -1   5  -3  283.57   13.10
  -4  -1  -3  270.37   14.80
  -4  -1  -3  288.27   12.20
  -5   4   3  280.07   15.60
   1  -5   3  286.57   12.50
  -4   0  -3  424.26   17.30
   4  -4  -3  427.56   20.00
  -4   0  -3  459.05   20.50
   0   4  -3  407.96   18.20
  -4   4   3  405.86   20.20
   0  -4   3  404.36   17.40
   0  -4   3  388.56   18.80
   3  -4  -3  372.96   17.50
  -4   1  -3  378.06   15.40
   1   3  -3  356.96   16.40
  -4   1  -3  340.67   16.30
  -1  -3   3  362.36   17.40
  -1  -3   3  358.86   15.30
  -3   4   3  372.16   17.90
   2   2  -3 1911.41   75.99
  -4   2  -3 1782.72   75.19
   2  -4  -3 1909.11   76.39
   2   2  -3 1867.11   75.49
  -2   4   3 1875.61   76.89
  -2  -2   3 1850.71   74.49
  -2  -2   3 1856.11   77.39
   3   1  -3  488.75   21.70
   1  -4  -3  458.15   21.10
  -3  -1   3  468.85   19.90
  -3  -1   3  512.65   23.30
  -4   4  -3   37.80    2.90
   4   0  -3   40.40    4.10
   4   0  -3   36.60    3.40
  -4   0   3   34.30    2.30
  -4   0   3   35.10    4.80
  -4   5  -3   50.89    3.60
   5  -1  -3   52.99    4.30
   5  -1  -3   48.60    5.20
  -5   1   3   45.10    6.30
  -4   6  -3  337.07   16.30
  -4   6  -3  335.97   15.40
   6  -2  -3  328.87   16.10
  -6   2   3  370.86   16.30
   2   4   3  354.76   20.00
   4  -6   3  350.06   16.80
   4  -6   3  359.76   17.40
  -4   7  -3  422.36   22.40
  -3  -4  -3  378.56   21.20
  -4   7  -3  408.06   18.40
   7  -3  -3  412.36   19.00
  -4   7  -3  393.46   19.00
  -7   3   3  419.06   18.60
   3   4   3  428.96   23.40
   4  -7   3  413.66   20.20
   4  -7   3  421.76   19.60
  -4   8  -3   71.59    5.60
  -4  -4  -3   70.09    8.90
  -4   8  -3   88.99    8.30
   8  -4  -3   67.89    5.30
   8  -4  -3   79.19    6.30
   4  -8   3   77.09    6.80
   4  -8   3   70.69    6.10
  -8   4   3   77.59    5.00
   4  -8   3  100.29    9.30
   4   4   3   73.09    9.10
  -4   9  -3  147.39   10.70
  -5  -4  -3  120.29    7.40
  -4   9  -3  131.69    7.50
   9  -5  -3  136.49    8.00
   9  -5  -3  131.39    8.00
  -5  -4  -3  133.29   10.70
   5   4   3  142.19   12.00
   4  -9   3  128.29    9.30
   5   4   3  116.89    6.50
   4  -9   3  117.69    8.30
  -5  -3  -3 1224.58   52.49
   8  -5  -3 1235.28   50.39
  -3   8  -3 1135.09   52.99
   8  -5  -3 1106.49   49.99
  -5  -3  -3 1195.18   49.99
   3  -8   3 1174.38   52.79
   3  -8   3 1225.68   51.39
   5   3   3 1297.17   66.29
   3  -8   3 1234.08   52.29
   5   3   3 1211.18   49.10
  -2   7  -3  279.97   13.50
   7  -5  -3  262.67   13.40
  -5  -2  -3  270.27   13.40
  -2   7  -3  309.87   17.50
  -5  -2  -3  267.17   15.60
   5   2   3  282.57   12.80
   2  -7   3  269.47   15.20
   2  -7   3  225.78   17.20
   2  -7   3  291.57   14.50
   5   2   3  286.57   18.10
   6  -5  -3  131.29    7.60
  -1   6  -3  123.79    7.50
  -5  -1  -3  136.29    6.60
   1  -6   3  139.89    9.60
   5   1   3  148.79    7.40
   1  -6   3  143.79    7.00
   1  -6   3  142.69    8.60
  -5   0  -3  182.88   10.60
   0   5  -3  183.68    9.30
   5  -5  -3  194.98   11.50
  -5   0  -3  179.28    8.30
   0  -5   3  183.88    8.50
  -5   5   3  176.68   11.30
   4  -5  -3   48.70    5.40
  -5   1  -3   55.99    3.40
   1   4  -3   49.99    4.30
   1   4  -3   56.49    4.40
  -5   1  -3   55.59    5.00
  -1  -4   3   49.99    4.60
  -4   5   3   53.29    5.20
  -1  -4   3   54.49    3.20
   2   3  -3    8.60    2.00
   2   3  -3    8.50    2.00
  -5   2  -3   16.20    2.50
   3  -5  -3   13.30    2.90
  -5   2  -3    9.50    2.40
  -2  -3   3   12.60    1.80
  -3   5   3    9.70    2.70
  -2  -3   3    6.00    2.30
   3   2  -3   55.19    4.50
  -5   3  -3   54.89    3.90
  -5   3  -3   60.39    3.70
   2  -5  -3   52.29    5.30
   3   2  -3   57.49    4.30
  -3  -2   3   55.59    5.70
  -3  -2   3   58.09    3.40
   4   1  -3  336.47   16.50
   1  -5  -3  333.87   15.80
   4   1  -3  331.67   15.20
  -5   4  -3  335.37   14.40
  -4  -1   3  324.07   14.10
  -4  -1   3  318.37   17.60
  -5   5  -3  648.74   27.70
   5   0  -3  649.04   30.00
   5   0  -3  670.03   28.50
   5  -5   3  780.02   32.80
  -5   0   3  606.14   31.60
   6  -1  -3  586.54   26.60
  -5   6  -3  592.74   25.90
   5  -6   3  644.64   27.50
  -6   1   3  623.54   27.70
   1   5   3  631.14   30.70
  -5   7  -3  109.99    9.70
  -2  -5  -3  100.09    9.70
   7  -2  -3   92.49    6.50
  -5   7  -3   96.09    6.60
  -5   7  -3   83.69    5.80
  -7   2   3  107.79    6.50
   5  -7   3  107.79    7.60
   2   5   3  105.29    9.70
   5  -7   3  100.99    7.00
   8  -3  -3  457.45   21.20
  -5   8  -3  534.35   26.50
  -5   8  -3  432.56   24.00
  -3  -5  -3  429.56   23.70
   5  -8   3  459.05   22.00
  -8   3   3  457.25   23.70
   5  -8   3  454.35   24.30
  -4  -5  -3   85.59    9.50
  -5   9  -3   94.19    8.50
  -5   9  -3   94.79    6.10
   9  -4  -3   89.69    6.50
   9  -4  -3   92.39    6.60
  -9   4   3   99.69    5.90
   5  -9   3   88.49    6.80
   5  -9   3   92.29    7.50
   4   5   3   91.99    9.80
  -5  -5  -3   10.00    2.10
  -5  10  -3   15.70    3.60
  -5  10  -3   13.20    2.10
  10  -5  -3   12.40    2.80
  -5  -5  -3   11.50    4.60
  10  -5  -3    9.10    2.40
   5 -10   3    9.40    2.40
   5 -10   3   11.80    3.20
   5   5   3    8.20    3.90
  -6  -5  -3   67.49    4.50
  11  -6  -3   72.69    5.60
  -6  -5  -3   77.29    7.00
  -5  11  -3   67.79    5.80
   6   5   3   71.09    7.70
   5 -11   3   58.79    5.00
  10  -6  -3  367.36   17.10
  -6  -4  -3  392.56   18.80
  -4  10  -3  354.56   15.90
  -6  -4  -3  354.96   16.50
  -4  10  -3  388.06   19.50
   6   4   3  370.06   21.40
   4 -10   3  353.76   18.00
   4 -10   3  336.27   18.80
   9  -6  -3  140.09    7.90
  -6  -3  -3  126.19    7.50
   9  -6  -3  120.59    7.70
  -3   9  -3  132.79   10.20
  -6  -3  -3  139.59   10.10
  -3   9  -3  130.09    7.30
   3  -9   3  119.49    9.00
   6   3   3  129.69   11.60
   6   3   3  128.89    6.60
   3  -9   3  121.19    8.60
  -2   8  -3   79.79    5.90
  -6  -2  -3   92.89   10.40
   8  -6  -3   88.99    6.20
  -6  -2  -3   79.69    5.80
  -2   8  -3   92.89    9.10
   2  -8   3   73.39    8.80
   2  -8   3   80.89    6.90
   6   2   3   86.19    9.40
   2  -8   3  101.69   11.50
   6   2   3   87.79    5.30
  -1   7  -3  443.66   20.20
  -6  -1  -3  466.85   21.80
  -1   7  -3  493.45   24.70
   7  -6  -3  427.76   20.10
  -6  -1  -3  428.26   20.30
   6   1   3  458.45   19.90
   1  -7   3  465.45   21.90
   6   1   3  471.95   25.70
   1  -7   3  381.56   22.00
  -6   0  -3   12.20    2.40
   0   6  -3   17.10    2.80
  -6   0  -3   16.70    3.50
   0   6  -3   13.60    4.10
   6  -6  -3   14.00    2.50
   0  -6   3   16.00    3.10
   0  -6   3   15.40    4.00
   6   0   3   14.00    2.30
   6   0   3   19.10    5.40
   1   5  -3  131.69    7.80
  -6   1  -3  143.29    7.00
  -6   1  -3  141.59   11.10
  -6   1  -3  135.09    8.10
  -5   6   3  134.99    9.40
  -1  -5   3  155.58    9.20
  -1  -5   3  138.09    7.00
   6  -1   3  142.69    8.40
   2   4  -3    1.90    2.70
   2   4  -3    0.10    1.40
  -6   2  -3   -1.00    1.40
  -6   2  -3    2.90    2.00
   2   4  -3   -1.10    1.70
  -6   2  -3    2.50    1.60
   4  -6  -3    2.10    2.30
  -2  -4   3    3.10    2.10
  -2  -4   3    1.80    1.30
   6  -2   3    1.90    1.40
  -4   6   3    0.40    2.10
   3   3  -3  187.08   10.10
   3   3  -3  190.38    9.80
  -6   3  -3  201.78    9.10
   3  -6  -3  162.18   10.90
  -6   3  -3  200.58    9.40
  -6   3  -3  174.98    9.90
   3   3  -3  192.98   12.40
  -3  -3   3  206.88   11.00
  -3  -3   3  181.58   11.30
  -3  -3   3  176.58    8.60
   6  -3   3  198.08   10.00
   4   2  -3   56.79    4.30
   2  -6  -3   46.40    5.20
  -6   4  -3   59.19    4.10
   4   2  -3   62.09    5.00
  -6   4  -3   52.59    4.70
  -6   4  -3   65.09    3.90
  -4  -2   3   68.99    5.50
  -4  -2   3   61.09    3.70
   6  -4   3   63.79    4.60
   6  -4   3   64.59    5.20
  -4  -2   3   40.90    6.00
  -6   5  -3  129.09    6.90
   5   1  -3  131.59    8.80
   5   1  -3  134.79    7.90
   6  -5   3  131.99    8.00
  -5  -1   3  127.09    9.80
  -6   6  -3  545.35   24.60
   6   0  -3  591.74   25.80
   6   0  -3  568.34   25.60
  -6   6  -3  548.95   25.80
   6  -6   3  597.84   26.30
  -6   0   3  611.74   28.20
   6  -6   3  595.74   26.90
  -6   0   3  607.84   26.30
   0   6   3  611.34   32.70
  -6   7  -3   79.09    5.30
   7  -1  -3   85.29    6.40
  -6   7  -3   88.09    6.30
   7  -1  -3   86.79    6.10
   6  -7   3   95.29    7.10
  -7   1   3   90.49    6.40
   1   6   3   87.59    8.70
   6  -7   3   90.69    6.50
  -2  -6  -3   41.00    6.30
   8  -2  -3   35.90    5.40
   8  -2  -3   36.40    4.30
  -6   8  -3   41.10    4.50
  -6   8  -3   53.59    6.70
  -8   2   3   41.10    4.20
   6  -8   3   43.70    5.20
   6  -8   3   40.80    4.60
   2   6   3   36.30    6.40
   9  -3  -3  179.98    9.80
  -6   9  -3  172.58    9.30
   9  -3  -3  169.78    9.80
  -6   9  -3  187.18   12.10
  -3  -6  -3  168.28   13.00
   6  -9   3  165.48   10.20
   3   6   3  176.08   13.20
   6  -9   3  178.28   10.90
  -9   3   3  172.08    9.10
  10  -4  -3   89.49    6.20
  -6  10  -3   80.99    5.30
  -4  -6  -3   80.49    9.90
  -6  10  -3   88.59    7.10
  10  -4  -3   87.79    5.90
 -10   4   3   84.99    5.10
   6 -10   3   74.79    6.50
   6 -10   3   73.79    6.10
   4   6   3   92.69    9.10
  -5  -6  -3   66.09    4.40
  -6  11  -3   56.89    5.20
  11  -5  -3   69.39    5.00
  -5  -6  -3   73.69    7.70
  11  -5  -3   68.69    4.70
   6 -11   3   58.29    5.10
   6 -11   3   67.79    5.60
   5   6   3   62.19    7.20
  -6  -6  -3   23.00    3.10
   6   6   3   23.70    4.30
  -7  -5  -3   43.90    3.00
  -7  -5  -3   40.50    4.10
  12  -7  -3   40.90    3.20
   7   5   3   32.90    4.70
  -7  -4  -3  134.79    6.90
  -7  -4  -3  135.79    8.40
  -4  11  -3  128.89    8.40
   4 -11   3  126.09    7.90
   7   4   3  126.19   10.20
  10  -7  -3  165.78    9.50
  -3  10  -3  188.08   11.90
  10  -7  -3  180.48   12.20
  -7  -3  -3  192.38    9.60
   7   3   3  190.68   15.70
   7   3   3  191.48    8.50
   3 -10   3  174.68   10.50
   9  -7  -3  162.88    8.70
  -7  -2  -3  164.38   10.20
  -2   9  -3  165.78   11.70
  -2   9  -3  149.69    8.30
  -7  -2  -3  153.68    8.70
   7   2   3  153.88    8.10
   7   2   3  154.28   12.80
   2  -9   3  155.48    9.90
  -1   8  -3  275.77   16.20
  -7  -1  -3  253.37   13.50
  -7  -1  -3  232.98   12.40
   8  -7  -3  237.38   12.20
  -1   8  -3  240.08   12.00
   7   1   3  254.67   17.40
   7   1   3  248.78   12.10
   1  -8   3  248.48   13.80
   7  -7  -3  130.19    7.40
  -7   0  -3  142.89    9.00
  -7   0  -3  128.19    8.40
   7   0   3  132.19    9.30
   0  -7   3  134.79    9.20
   1   6  -3   29.60    3.40
  -7   1  -3   24.30    3.50
  -7   1  -3   26.70    3.70
   6  -7  -3   22.10    2.80
   7  -1   3   29.00    3.40
  -1  -6   3   22.40    4.00
  -7   2  -3  261.77   13.50
  -7   2  -3  281.27   13.30
   2   5  -3  280.17   16.20
   2   5  -3  269.87   13.10
   2   5  -3  260.47   13.00
   7  -2   3  269.77   13.90
   7  -2   3  266.27   13.30
  -2  -5   3  241.68   16.60
  -2  -5   3  273.47   14.60
   3   4  -3  118.59    7.00
   3   4  -3  120.99    9.30
  -7   3  -3  120.09    6.90
  -7   3  -3  117.59    7.40
   3   4  -3  122.39    7.40
  -3  -4   3  104.09   12.00
   7  -3   3  118.09    7.70
  -3  -4   3  125.69    8.50
   7  -3   3  127.99    7.60
  -3  -4   3  106.89    7.00
  -7   4  -3  947.41   38.50
   4   3  -3  916.71   39.30
  -7   4  -3  908.81   41.40
   4   3  -3  865.51   41.80
   4   3  -3  932.81   39.40
   7  -4   3  994.40   40.10
   7  -4   3  966.10   40.40
  -4  -3   3  918.81   38.80
  -4  -3   3  901.11   39.00
  -4  -3   3  981.80   40.90
   5   2  -3  149.99    8.30
   5   2  -3  143.79   10.00
  -7   5  -3  153.88    7.70
  -7   5  -3  152.38    8.90
   5   2  -3  157.58    8.90
  -5  -2   3  165.08    9.60
   7  -5   3  155.38    9.40
   7  -5   3  163.38    9.10
  -5  -2   3  150.88   10.90
  -5  -2   3  135.09    8.00
   6   1  -3  126.39    7.60
  -7   6  -3  122.39    6.80
   6   1  -3  123.29    7.90
  -7   6  -3  118.09    7.60
  -6  -1   3  133.09    8.40
   7  -6   3  136.49    8.20
   7  -6   3  128.69    8.60
   7   0  -3  304.67   14.70
   7  -7   3  276.47   19.40
   0   7   3  298.37   17.30
   7  -7   3  297.97   15.80
   8  -1  -3  140.39    8.70
  -1  -7  -3  139.99   11.40
  -7   8  -3  157.78   11.20
   8  -1  -3  152.08    8.90
  -7   8  -3  147.09    8.70
   7  -8   3  144.69    9.10
   1   7   3  139.09   11.30
  -8   1   3  159.88    9.00
   7  -8   3  155.68   10.00
  -2  -7  -3  274.57   16.60
   9  -2  -3  274.17   13.80
  -7   9  -3  285.77   13.70
   9  -2  -3  291.37   14.00
  -9   2   3  290.87   13.90
   7  -9   3  288.17   15.40
   2   7   3  289.87   17.50
   7  -9   3  282.37   14.70
  10  -3  -3   76.59    5.70
  -7  10  -3   70.29    4.60
  -3  -7  -3   61.99    8.60
  -7  10  -3   60.99    6.00
   3   7   3   68.49    7.70
 -10   3   3   73.89    4.80
   7 -10   3   67.09    6.20
   7 -10   3   68.19    5.60
  11  -4  -3   15.80    2.60
  -4  -7  -3   11.70    4.00
  11  -4  -3   13.70    2.20
   7 -11   3   10.70    2.30
   7 -11   3   14.60    3.10
   4   7   3   10.00    3.70
  12  -5  -3   15.10    2.20
  12  -5  -3   24.10    2.90
  -5  -7  -3   13.60    2.80
   5   7   3   13.20    3.50
   7 -12   3    8.00    2.90
  -4  12  -3   11.00    2.60
  12  -8  -3   19.40    2.30
  -8  -4  -3   13.80    2.10
  -8  -4  -3   16.20    2.30
  -8  -3  -3   11.00    1.90
  -3  11  -3   10.70    2.90
  -8  -3  -3   10.90    2.50
  11  -8  -3   11.10    2.20
   3 -11   3   10.20    2.60
  -8  -2  -3    2.40    1.50
  -8  -2  -3    3.90    2.40
  -2  10  -3    1.20    2.40
   2 -10   3    5.50    2.20
   8   2   3    2.90    1.30
   8   2   3    4.00    3.70
  -8  -1  -3  186.38   10.30
  -8  -1  -3  183.78    9.90
  -1   9  -3  207.78   16.20
   9  -8  -3  169.58    9.20
  -1   9  -3  187.78    9.20
   8   1   3  189.98    9.50
   1  -9   3  162.88   10.70
   0   8  -3  224.98   11.20
   0   8  -3  228.78   14.80
  -8   0  -3  229.38   11.90
  -8   0  -3  240.08   12.20
   8  -8  -3  224.18   11.10
   0  -8   3  217.58   13.00
   8   0   3  231.48   11.50
  -8   1  -3  636.94   26.90
  -8   1  -3  601.74   27.00
   7  -8  -3  594.34   25.90
   1   7  -3  631.64   30.70
   1   7  -3  591.84   26.40
  -1  -7   3  608.84   28.70
   8  -1   3  615.64   27.00
   2   6  -3  154.78   11.60
   2   6  -3  150.18    8.50
   6  -8  -3  146.29    7.90
  -8   2  -3  152.98    9.10
  -8   2  -3  169.98   12.10
   8  -2   3  155.88    8.90
  -2  -6   3  154.28   10.10
   3   5  -3 1155.38   47.30
  -8   3  -3 1151.98   47.00
   3   5  -3 1151.68   58.99
  -3  -5   3 1129.89   50.99
   8  -3   3 1158.18   48.60
  -3  -5   3 1105.99   51.19
   4   4  -3  215.28   11.10
  -8   4  -3  217.38   10.20
   4   4  -3  220.08   13.80
   4   4  -3  222.78   11.40
  -8   4  -3  204.08   11.80
  -4  -4   3  208.88   11.00
   8  -4   3  206.68   11.80
  -4  -4   3  214.38   12.50
   8  -4   3  227.98   11.80
  -8   5  -3  364.46   15.40
   5   3  -3  353.76   16.30
   5   3  -3  336.07   18.60
   8  -5   3  347.47   19.60
   8  -5   3  361.66   20.40
  -5  -3   3  322.57   17.90
  -5  -3   3  334.87   16.00
   6   2  -3  232.28   11.80
   6   2  -3  217.18   11.50
  -8   6  -3  213.68   11.80
  -8   6  -3  223.48   10.50
   8  -6   3  234.08   12.80
   8  -6   3  227.78   12.20
  -6  -2   3  216.28   11.20
  -8   7  -3  789.72   34.80
   7   1  -3  798.92   34.70
   7   1  -3  817.42   34.80
   8  -7   3  808.82   35.50
   8  -7   3  800.22   36.10
  -7  -1   3  843.22   35.60
   0  -8  -3  413.66   21.40
  -8   8  -3  399.06   18.60
  -8   8  -3  340.67   20.50
   8   0  -3  413.16   18.70
   8   0  -3  414.46   18.70
   8  -8   3  416.56   20.10
   8  -8   3  412.86   19.40
   0   8   3  411.36   21.30
  -8   0   3  413.06   19.10
  -8   9  -3  152.58    8.20
   9  -1  -3  149.88    8.30
   1   8   3  141.69   10.80
   8  -9   3  166.48   11.50
   8  -9   3  154.58    9.30
  10  -2  -3   24.90    3.30
  10  -2  -3   23.80    3.50
  -2  -8  -3   19.80    5.10
 -10   2   3   22.20    2.80
   8 -10   3   21.40    3.80
   8 -10   3   20.80    3.10
   2   8   3   26.80    4.80
 -11   3   3  172.78    8.30
   8 -11   3  164.38    9.20
   8 -11   3  177.28    9.80
   3   8   3  180.98   11.30
  -4  -8  -3   95.89    6.70
  12  -4  -3  107.09    5.60
   4   8   3   91.29    8.10
  12  -9  -3   20.50    2.20
  12  -9  -3   24.10    2.40
  -9  -3  -3   21.80    2.10
  -3  12  -3   17.70    2.50
  -2  11  -3  169.28   10.20
  11  -9  -3  193.18    8.80
  -9  -2  -3  195.38    8.90
  -9  -2  -3  194.58    9.00
   2 -11   3  146.99    9.10
  -9  -1  -3   11.00    2.20
  -9  -1  -3    8.80    2.00
  10  -9  -3    8.10    1.90
  -1  10  -3    9.40    3.10
   1 -10   3    6.80    2.30
   9   1   3   10.30    1.80
   0   9  -3  108.99    5.80
   0   9  -3  109.99    8.90
   9  -9  -3  104.09    6.00
  -9   0  -3  105.89    6.70
  -9   0  -3  105.69    6.60
   0  -9   3   91.69    7.20
   9   0   3  103.89    6.20
   1   8  -3   76.99   10.80
  -9   1  -3   76.69    5.60
  -9   1  -3   91.49    8.80
   1   8  -3   82.99    5.30
   9  -1   3   73.99    7.80
  -1  -8   3   75.49    6.80
   2   7  -3  531.65   26.80
  -9   2  -3  532.35   23.30
   2   7  -3  505.65   22.50
  -9   2  -3  499.05   22.20
   9  -2   3  521.95   23.30
  -2  -7   3  502.45   24.60
  -2  -7   3  507.15   23.10
  -9   3  -3  473.95   21.40
  -9   3  -3  462.65   19.90
   3   6  -3  454.35   20.60
   3   6  -3  465.95   24.30
   9  -3   3  463.95   21.40
  -3  -6   3  461.65   20.90
  -3  -6   3  458.55   22.50
   9  -3   3  455.05   21.30
   4   5  -3  204.18   10.50
  -9   4  -3  192.08    9.50
  -9   4  -3  205.28   11.00
   4   5  -3  199.38   13.00
   9  -4   3  202.48   11.10
  -4  -5   3  203.58   11.90
  -4  -5   3  206.28   10.60
   9  -4   3  198.18   11.30
  -9   5  -3  152.98    7.60
   5   4  -3  150.08   10.60
  -9   5  -3  158.38    9.10
   5   4  -3  153.78    8.60
   9  -5   3  153.68    9.10
  -5  -4   3  156.48    9.90
   9  -5   3  159.28    9.60
  -5  -4   3  149.59    8.40
   6   3  -3   61.39    5.50
  -9   6  -3   74.89    5.90
   6   3  -3   76.29    5.60
   6   3  -3   67.99    6.80
   9  -6   3   78.19    6.20
   9  -6   3   75.09    6.40
  -6  -3   3   70.59    5.00
  -6  -3   3   74.99    6.30
  -9   7  -3  470.25   20.60
   7   2  -3  461.65   20.40
   7   2  -3  421.56   20.90
   7   2  -3  460.05   19.90
  -7  -2   3  455.95   21.30
   9  -7   3  451.75   21.10
   9  -7   3  412.86   21.30
   8   1  -3  318.07   16.10
  -9   8  -3  358.46   15.90
   1  -9  -3  342.67   18.20
   9  -8   3  323.27   20.80
   9  -8   3  331.27   16.60
   9   0  -3   13.90    2.40
   0  -9  -3   18.50    4.60
   9   0  -3   23.50    3.40
  -9   9  -3   23.40    3.20
   9  -9   3   20.20    3.30
  -9   0   3   20.10    3.00
   0   9   3   24.80    4.30
   9  -9   3   21.10    3.90
  10  -1  -3    5.00    1.80
  -1  -9  -3    5.50    4.30
 -10   1   3    6.80    1.80
   9 -10   3    4.60    1.80
   9 -10   3    8.50    2.70
   1   9   3    6.60    2.90
  11  -2  -3   68.49    4.60
  -2  -9  -3   62.79    7.00
   9 -11   3   57.39    5.20
   2   9   3   55.89    5.30
 -11   2   3   61.29    3.80
   9 -11   3   59.19    5.00
  12  -3  -3    5.40    1.70
  -1  11  -3  237.08   13.00
 -10  -1  -3  270.57   11.70
  11 -10  -3  244.08   11.40
  11 -10  -3  266.37   11.60
   1 -11   3  270.77   11.70
   0  10  -3   36.70    4.60
  10 -10  -3   37.40    3.10
 -10   0  -3   41.10    2.90
 -10   0  -3   38.70    3.40
  10 -10  -3   35.00    3.00
   0 -10   3   37.10    3.50
   0 -10   3   32.80    4.30
  10   0   3   42.10    2.90
   1   9  -3   32.90    5.00
 -10   1  -3   34.70    3.60
 -10   1  -3   35.00    3.00
   9 -10  -3   37.00    3.10
   9 -10  -3   31.50    2.90
  -1  -9   3   38.10    3.60
  -1  -9   3   26.30    3.60
  10  -1   3   33.80    3.20
 -10   2  -3   90.19    5.00
   2   8  -3   91.89    5.50
 -10   2  -3   95.59    6.20
   8 -10  -3   90.19    5.10
   2   8  -3   92.69    8.20
  10  -2   3   95.89    6.00
  -2  -8   3   87.29    5.90
  -2  -8   3   87.09    6.50
 -10   3  -3  102.89    5.40
   3   7  -3  105.89    6.20
   7 -10  -3   94.69    5.60
 -10   3  -3  108.69    6.80
   3   7  -3  104.29    8.80
  -3  -7   3   96.29    7.30
  -3  -7   3  105.29    6.50
  10  -3   3  105.09    6.80
 -10   4  -3  353.26   16.50
   4   6  -3  349.87   15.80
   6 -10  -3  374.76   15.40
 -10   4  -3  326.47   14.90
   4   6  -3  345.17   18.80
  10  -4   3  326.87   16.50
  -4  -6   3  342.17   17.30
  -4  -6   3  350.36   16.10
  10  -4   3  353.16   16.70
   5 -10  -3  114.49    6.40
   5   5  -3  121.99    7.10
 -10   5  -3  124.09    7.40
   5   5  -3  108.49    8.80
  10  -5   3  114.49    7.80
  -5  -5   3  114.89    8.00
  -5  -5   3  116.69    7.00
  10  -5   3  122.69    7.60
 -10   6  -3  312.07   14.60
   6   4  -3  298.67   14.20
   6   4  -3  289.57   16.30
  -6  -4   3  313.57   15.40
  10  -6   3  290.17   15.10
  -6  -4   3  295.37   13.80
  10  -6   3  302.87   15.40
   7   3  -3  138.89    8.40
   7   3  -3  154.68    8.30
 -10   7  -3  147.09    8.20
   3 -10  -3  131.19    9.70
  10  -7   3  147.49    9.20
  10  -7   3  148.69    8.80
  -7  -3   3  142.39    7.40
  -7  -3   3  146.29    8.90
   8   2  -3    2.70    1.70
   2 -10  -3    2.00    4.30
 -10   8  -3    4.90    1.70
   8   2  -3    4.00    1.80
  10  -8   3    4.40    1.90
  10  -8   3    4.00    2.50
  -8  -2   3    1.90    1.50
 -10   9  -3   24.60    2.90
   9   1  -3   25.00    3.20
   1 -10  -3   14.70    5.00
   9   1  -3   22.90    3.00
  -9  -1   3   19.90    2.80
  10  -9   3   17.20    3.00
  10  -9   3   19.90    3.50
  10   0  -3   29.10    3.10
   0 -10  -3   27.20    4.70
 -10   0   3   24.50    2.80
  10 -10   3   22.10    3.00
  11  -1  -3   46.70    3.50
  10 -11   3   40.90    4.00
 -11   1   3   44.10    2.90
  10 -11   3   37.10    3.40
   0  11  -3   40.80    3.80
 -11   0  -3   55.69    3.20
   0 -11   3   52.39    3.00
 -11   1  -3   34.80    3.00
   1  10  -3   31.60    4.00
  -1 -10   3   28.40    3.20
  -1 -10   3   31.50    2.80
  11  -1   3   31.00    2.40
   2   9  -3   52.79    5.30
   9 -11  -3   53.09    3.50
 -11   2  -3   56.69    4.00
  -2  -9   3   37.00    4.20
  11  -2   3   53.79    3.60
  -2  -9   3   54.49    3.90
 -11   3  -3   62.79    4.80
   3   8  -3   52.09    7.60
   8 -11  -3   60.09    3.80
  -3  -8   3   57.59    4.20
  -3  -8   3   49.10    4.30
  11  -3   3   59.69    4.30
   7 -11  -3   15.60    2.10
 -11   4  -3   20.50    2.90
   4   7  -3   20.00    4.00
  -4  -7   3   15.60    2.90
  11  -4   3   19.10    2.70
   5   6  -3   23.80    3.40
   5   6  -3   16.40    3.60
 -11   5  -3   16.30    2.50
   6 -11  -3   13.80    2.40
  11  -5   3   22.00    3.20
  -5  -6   3   19.20    3.10
  -5  -6   3   14.10    2.60
   6   5  -3   14.40    3.30
 -11   6  -3   19.20    2.90
   6   5  -3   20.70    2.90
   5 -11  -3   21.10    3.00
  11  -6   3   22.40    4.10
  -6  -5   3   20.10    2.70
  11  -6   3   18.80    3.00
  -6  -5   3   15.20    2.80
 -11   7  -3  104.29    6.70
   7   4  -3   93.09    6.00
   4 -11  -3   90.79    7.40
  -7  -4   3  101.69    5.40
  -7  -4   3  104.69    6.70
  11  -7   3   97.69    6.70
  11  -7   3   93.19    6.30
 -11   8  -3  136.49    6.80
   3 -11  -3  140.99    9.50
   8   3  -3  120.29    7.00
   8   3  -3  133.79    6.90
  11  -8   3  126.49    7.50
  11  -8   3  128.29    8.80
  -8  -3   3  115.49    8.10
 -11   9  -3   63.89    3.50
   9   2  -3   62.09    4.10
   2 -11  -3   59.19    7.50
   9   2  -3   56.49    4.70
  11  -9   3   56.99    4.50
  -9  -2   3   53.49    5.50
  11  -9   3   59.49    5.10
  10   1  -3  106.29    5.30
  11 -10   3   94.09    6.30
  11 -10   3   85.59    5.50
 -10  -1   3   95.29    5.20
  11   0  -3    6.00    1.10
  11 -11   3    4.30    1.70
 -11   0   3    4.00    0.90
   3   9  -3   71.69    5.50
 -12   3  -3   81.19    4.40
  12  -3   3   77.39    4.20
  -3  -9   3   74.39    3.90
   4   8  -3   10.80    2.60
 -12   4  -3   18.70    2.30
  -4  -8   3   12.20    2.00
  -4  -8   3   13.00    1.90
  12  -4   3   10.30    1.70
   5   7  -3   33.00    3.10
 -12   5  -3   40.80    3.10
   5   7  -3   32.00    4.30
  -5  -7   3   38.90    3.70
  -5  -7   3   40.10    2.80
  12  -5   3   39.10    3.20
   6   6  -3   37.00    3.10
   6   6  -3   31.10    3.50
 -12   6  -3   37.50    2.90
  -6  -6   3   34.60    3.30
  12  -6   3   28.00    3.30
  -6  -6   3   36.90    2.70
  12  -6   3   36.60    3.10
 -12   7  -3    4.20    1.30
   7   5  -3    1.20    1.20
   7   5  -3    0.50    1.10
  12  -7   3   -2.60    1.60
  -7  -5   3    0.70    1.30
  12  -7   3    2.00    1.30
   8   4  -3   14.10    2.00
   8   4  -3   19.60    2.00
  12  -8   3   12.20    2.20
  12  -8   3   11.20    2.90
  -8  -4   3   12.70    1.90
   9   3  -3   51.59    3.90
  12  -9   3   55.79    3.80
  12  -9   3   60.09    4.40
  -9  -3   3   61.59    3.70
  12 -10   3   33.40    3.10
   0   0  -4   -2.00    1.30
   0   0   4   -0.10    1.20
   0   1  -4  581.04   23.90
  -1   0  -4  541.05   23.90
  -1   1   4  579.44   26.70
   0  -1   4  598.84   26.50
   1   0  -4   66.29    4.00
   1   0  -4   64.19    4.00
  -1   1  -4   72.99    4.10
  -1   0   4   69.19    5.80
   2  -1  -4  393.26   17.60
  -1   2  -4  411.26   17.00
   2  -1  -4  375.66   16.70
   3  -2  -4    2.30    1.90
  -3   2   4    2.50    2.10
  -2   0  -4  558.84   21.20
   0   2  -4  548.05   22.00
  -2   0  -4  475.25   22.80
   2  -2  -4  465.85   23.20
  -2   2   4  502.75   24.50
   0  -2   4  535.05   24.00
   1   1  -4  553.94   24.30
  -2   1  -4  572.04   23.90
   1   1  -4  582.24   24.10
  -1  -1   4  579.14   26.70
  -2   2  -4  262.97   11.60
   2   0  -4  261.17   11.80
   2   0  -4  251.87   12.40
  -2   0   4  268.67   17.40
   3  -1  -4  327.07   14.70
   3  -1  -4  326.37   15.80
  -2   3  -4  335.97   14.60
  -2   4  -4    5.10    2.40
   4  -2  -4   -2.50    2.00
   4  -2  -4    3.50    1.80
  -2   4  -4    3.10    1.80
   2  -4   4    1.30    1.60
  -4   2   4   10.10    4.30
   2  -4   4    1.20    2.40
  -2   5  -4   11.00    2.50
  -2   5  -4   12.30    2.50
   5  -3  -4   13.80    2.60
  -5   3   4   15.50    4.00
   2  -5   4   14.60    2.90
   2  -5   4   17.00    4.10
  -1   4  -4  210.98   10.00
  -1   4  -4  196.28   10.50
   4  -3  -4  181.78   11.40
  -3  -1  -4  173.08    8.40
  -3  -1  -4  192.38   10.40
   1  -4   4  212.98   12.70
  -4   3   4  243.18   13.60
   1  -4   4  202.08   12.70
   0   3  -4  508.85   22.00
  -3   0  -4  477.25   22.20
   3  -3  -4  481.15   23.20
  -3   0  -4  499.25   21.10
   0  -3   4  562.44   23.30
   0  -3   4  551.74   25.70
   1   2  -4  461.45   20.80
   1   2  -4  486.85   20.60
  -3   1  -4  482.75   19.80
  -3   1  -4  455.25   20.40
  -2   3   4  492.75   23.20
  -1  -2   4  466.35   25.40
  -3   2  -4  428.96   18.00
   2   1  -4  408.86   18.80
   2   1  -4  430.76   18.40
  -2  -1   4  406.66   20.90
  -3   3  -4  529.85   22.50
   3   0  -4  519.15   23.80
   3   0  -4  509.25   22.80
   3  -3   4  552.64   25.10
  -3   0   4  494.55   26.50
  -3   0   4  555.94   27.10
   3  -3   4  562.64   23.60
  -3   4  -4   66.19    4.60
  -3   4  -4   66.09    5.20
   4  -1  -4   61.79    5.50
   4  -1  -4   66.19    5.00
   3  -4   4   63.39    5.50
  -4   1   4   79.89    4.90
   3  -4   4   71.59    9.10
  -3   5  -4  570.94   24.70
   5  -2  -4  539.65   24.80
  -3   5  -4  569.44   25.60
   3  -5   4  611.44   27.60
  -5   2   4  602.84   28.80
  -5   2   4  554.94   25.00
   3  -5   4  574.44   25.90
   2   3   4  575.44   29.70
  -3   6  -4  168.78    9.80
   6  -3  -4  164.48    9.50
  -3  -3  -4  160.28   11.00
  -3   6  -4  173.68    9.20
  -3   6  -4  198.08   13.70
  -6   3   4  176.08    8.40
   3  -6   4  182.68   12.10
   3   3   4  184.88   13.80
   3  -6   4  180.58   10.30
  -4  -3  -4  162.88   10.50
  -3   7  -4  155.98    8.80
  -3   7  -4  155.88    9.10
   7  -4  -4  157.58    9.10
  -3   7  -4  168.78   12.50
   3  -7   4  163.18   11.40
   3  -7   4  176.18   10.10
   4   3   4  155.28   13.30
  -2   6  -4  101.79    9.90
  -2   6  -4   96.49    6.60
   6  -4  -4   94.59    6.40
  -2   6  -4   95.69    6.40
  -4  -2  -4   98.09    7.60
   2  -6   4   92.89    8.50
   4   2   4   90.99   10.00
   2  -6   4  103.29    7.00
  -1   5  -4  458.05   23.80
  -4  -1  -4  404.16   19.30
  -1   5  -4  412.06   18.80
   1  -5   4  435.86   22.10
   1  -5   4  432.16   20.00
   4   1   4  376.86   17.80
  -4   0  -4  207.78    9.50
   0   4  -4  214.98   11.00
   0   4  -4  221.48   14.20
   0   4  -4  209.98   10.70
  -4   0  -4  202.18   11.00
   0  -4   4  233.08   12.00
   0  -4   4  214.88   13.50
   4   0   4  209.58   10.20
   1   3  -4  803.92   31.30
  -4   1  -4  750.32   30.20
   1   3  -4  681.23   31.50
   1   3  -4  747.33   35.10
  -4   1  -4  636.84   32.40
   1   3  -4  730.23   31.50
  -1  -3   4  824.92   33.10
  -1  -3   4  665.13   32.90
   4  -1   4  742.93   31.00
  -1  -3   4  756.82   34.90
   2   2  -4  149.79    8.40
   2   2  -4  141.49    8.40
  -4   2  -4  126.29    8.70
  -4   2  -4  154.68    7.40
   4  -2   4  178.48   10.10
  -2  -2   4  158.78   11.50
  -2  -2   4  150.68   10.20
   4  -2   4  165.48    8.40
  -2  -2   4  171.58    9.10
  -4   3  -4  806.22   36.40
   3   1  -4  884.01   36.10
   3   1  -4  807.22   35.80
   3   1  -4  798.82   36.50
  -4   3  -4  831.12   36.20
  -3  -1   4  844.62   41.80
   4  -3   4  900.61   37.80
  -3  -1   4  904.81   36.70
   4  -3   4  889.61   36.30
  -4   4  -4  370.26   18.10
   4   0  -4  369.06   17.60
  -4   4  -4  367.86   17.00
   4   0  -4  382.86   17.70
  -4   0   4  444.06   25.40
   4  -4   4  409.86   18.30
  -4   0   4  403.66   18.20
   4  -4   4  405.76   19.70
   5  -1  -4  446.06   20.00
  -4   5  -4  432.46   19.30
   5  -1  -4  410.26   19.60
  -4   5  -4  420.86   20.30
   1   4   4  447.56   24.00
   4  -5   4  457.45   22.10
   4  -5   4  454.35   20.70
  -5   1   4  462.85   20.00
  -5   1   4  452.95   23.40
  -4   6  -4 1427.56   58.79
   6  -2  -4 1382.86   58.19
  -4   6  -4 1367.96   57.59
   6  -2  -4 1301.47   57.89
   2   4   4 1443.16   63.39
   4  -6   4 1467.65   59.39
  -6   2   4 1443.26   57.69
  -6   2   4 1439.56   61.39
   7  -3  -4  246.98   12.60
  -4   7  -4  248.18   16.00
   7  -3  -4  217.18   12.00
  -4   7  -4  244.08   12.40
  -3  -4  -4  232.88   15.60
  -4   7  -4  235.68   11.80
   3   4   4  249.38   16.70
   4  -7   4  237.78   14.60
   4  -7   4  256.57   13.30
  -7   3   4  245.28   11.10
  -4   8  -4  139.89    8.10
  -4  -4  -4  125.49    9.30
   8  -4  -4  135.09    8.50
  -4   8  -4  149.79   11.40
   8  -4  -4  131.89    7.80
   4   4   4  151.68   12.40
   4  -8   4  134.59   10.10
   4  -8   4  136.29    8.80
  -5  -4  -4  274.47   14.30
   9  -5  -4  275.17   13.40
  -4   9  -4  296.77   16.70
  -4   9  -4  282.47   13.30
   4  -9   4  268.87   14.50
   4  -9   4  287.87   15.60
   5   4   4  283.97   17.90
  -3   8  -4  318.87   15.40
  -3   8  -4  343.37   19.50
   8  -5  -4  317.67   15.60
  -5  -3  -4  305.97   16.10
   3  -8   4  330.47   17.90
   3  -8   4  321.87   16.60
   5   3   4  335.87   20.60
   7  -5  -4  122.39    7.80
  -5  -2  -4  136.29    8.70
  -2   7  -4  132.99    7.90
  -2   7  -4  150.38   11.40
  -2   7  -4  125.39    7.50
  -5  -2  -4  123.39    7.60
   2  -7   4  124.29    8.70
   2  -7   4  134.49   10.30
  -5  -1  -4  415.56   19.30
   6  -5  -4  396.76   18.80
  -5  -1  -4  428.16   19.70
  -1   6  -4  419.36   19.00
   1  -6   4  407.06   22.10
   1  -6   4  464.15   21.80
   5   1   4  415.16   18.10
   0   5  -4  364.06   20.30
   0   5  -4  328.97   16.00
  -5   0  -4  300.87   15.90
  -5   0  -4  341.77   16.20
   0   5  -4  346.97   16.00
   0  -5   4  334.47   18.90
   5   0   4  345.87   15.40
   0  -5   4  370.46   17.40
  -5   1  -4   28.30    3.90
   1   4  -4   32.00    4.20
   1   4  -4   33.40    5.70
   1   4  -4   32.80    3.60
  -5   1  -4   29.70    3.50
   5  -1   4   36.90    3.40
  -1  -4   4   33.70    4.30
   5  -1   4   30.30    6.10
  -1  -4   4   25.60    5.20
   2   3  -4  225.48   11.20
  -5   2  -4  227.98   10.80
  -5   2  -4  198.78   11.20
   2   3  -4  198.58   13.60
   2   3  -4  213.18   11.10
   5  -2   4  236.08   11.20
  -2  -3   4  215.18   14.40
   5  -2   4  222.58   12.50
  -2  -3   4  232.98   12.10
  -5   3  -4  230.18   10.70
   3   2  -4  214.98   11.40
   3   2  -4  212.98   11.10
  -5   3  -4  204.18   11.50
  -3  -2   4  244.18   12.40
  -3  -2   4  247.18   15.30
   5  -3   4  230.68   11.50
   5  -3   4  236.08   12.90
  -5   4  -4   52.89    4.80
   4   1  -4   56.89    4.40
   4   1  -4   57.29    5.10
  -5   4  -4   53.49    4.10
  -4  -1   4   55.89    7.70
   5  -4   4   53.59    4.60
  -4  -1   4   50.99    4.90
   5  -4   4   53.19    5.70
   5   0  -4  362.76   17.00
  -5   5  -4  361.26   16.30
  -5   5  -4  354.26   17.30
   5   0  -4  360.46   17.00
  -5   0   4  379.56   17.20
   5  -5   4  378.56   17.60
  -5   0   4  356.06   20.40
   5  -5   4  363.36   18.70
   6  -1  -4  329.37   16.20
  -5   6  -4  346.97   15.60
   6  -1  -4  317.47   16.40
   5  -6   4  360.76   22.20
   1   5   4  338.07   19.90
  -6   1   4  379.96   23.50
  -6   1   4  364.96   16.50
  -5   7  -4  865.01   38.90
   7  -2  -4  799.72   34.20
   7  -2  -4  753.22   33.90
  -5   7  -4  729.13   33.10
  -5   7  -4  784.42   34.40
   5  -7   4  797.92   36.30
   5  -7   4  797.62   35.10
  -7   2   4  794.72   33.50
   2   5   4  819.42   38.80
  -5   8  -4   65.89    7.40
   8  -3  -4   62.49    5.80
  -3  -5  -4   62.19    7.00
  -5   8  -4   64.39    5.20
   5  -8   4   64.49    5.60
   5  -8   4   59.69    6.80
   3   5   4   61.29    7.90
  -8   3   4   67.89    4.20
  -5   9  -4   13.10    2.50
   9  -4  -4   10.60    2.30
  -5   9  -4   15.00    4.00
   4   5   4   15.40    4.70
   5  -9   4   13.80    3.80
   5  -9   4   13.80    2.80
  -5  -5  -4  278.17   13.50
  10  -5  -4  266.57   12.80
  10  -5  -4  297.27   13.00
  -5  10  -4  289.77   16.80
  -5  10  -4  276.07   12.30
   5 -10   4  261.37   15.20
   5 -10   4  249.38   14.10
  -5  11  -4   86.99    5.80
  -6  -5  -4   90.79    5.40
   5 -11   4   88.49    5.90
  -4  10  -4   64.49    7.50
  -4  10  -4   77.39    4.40
  -6  -4  -4   72.59    5.60
  10  -6  -4   77.09    5.10
  10  -6  -4   64.09    4.60
   4 -10   4   71.09    6.20
   4 -10   4   61.59    5.30
  -3   9  -4  248.98   11.80
  -6  -3  -4  252.37   11.90
  -3   9  -4  243.68   14.70
   9  -6  -4  245.88   12.00
  -6  -3  -4  238.28   12.50
   3  -9   4  230.88   13.60
   3  -9   4  249.58   13.10
  -6  -2  -4    3.20    2.50
   8  -6  -4    4.50    2.20
  -2   8  -4    3.90    3.10
  -6  -2  -4    7.00    1.90
  -2   8  -4    2.30    1.60
   2  -8   4    5.30    3.90
   2  -8   4    2.20    2.10
  -1   7  -4  222.78   14.50
   7  -6  -4  190.28   10.40
  -6  -1  -4  200.98   10.50
  -1   7  -4  200.88   10.60
  -6  -1  -4  201.38   11.00
   6   1   4  187.38    9.30
   1  -7   4  194.68   12.90
  -6   0  -4   61.59    5.30
  -6   0  -4   72.39    7.00
   0   6  -4   64.89    8.10
   0   6  -4   65.59    5.30
   6   0   4   64.29    4.40
   0  -6   4   68.39    6.20
   0  -6   4   65.39    7.60
  -6   1  -4  165.58    8.80
  -6   1  -4  136.29    8.60
   1   5  -4  144.99   14.50
   1   5  -4  143.09    8.50
  -1  -5   4  136.79   11.60
   6  -1   4  157.98    8.20
  -6   2  -4   28.10    3.70
   2   4  -4   25.20    5.10
  -6   2  -4   24.10    3.70
   2   4  -4   28.10    3.60
  -2  -4   4   26.80    4.10
   6  -2   4   26.10    3.30
   6  -2   4   29.10    4.70
  -2  -4   4   16.60    5.20
  -6   3  -4  153.38    7.90
   3   3  -4  151.58    8.70
   3   3  -4  151.48   11.00
  -6   3  -4  141.39    8.80
   3   3  -4  162.98    9.10
   6  -3   4  157.18   10.00
  -3  -3   4  160.28    9.80
  -3  -3   4  145.39   12.10
   6  -3   4  165.68    9.00
  -6   4  -4  119.09    7.70
   4   2  -4  118.39    7.10
  -6   4  -4  116.99    6.40
   4   2  -4   99.89    8.60
   4   2  -4  117.69    7.50
   6  -4   4  121.49    8.50
   6  -4   4  118.29    7.30
  -4  -2   4  113.19   10.40
  -4  -2   4  119.79    7.90
  -6   5  -4   78.79    7.70
   5   1  -4   86.89    6.40
   5   1  -4   80.99    6.40
  -6   5  -4   77.89    5.10
   6  -5   4   83.49    7.90
  -5  -1   4   64.99    8.60
   6  -5   4   85.89    9.10
  -5  -1   4   76.89    7.30
   6   0  -4  630.34   28.00
  -6   6  -4  597.04   27.60
  -6   6  -4  605.84   29.10
   6   0  -4  623.54   27.30
   6  -6   4  644.94   28.20
  -6   0   4  634.24   27.60
   6  -6   4  649.64   29.60
  -6   0   4  602.04   30.00
   7  -1  -4  283.17   14.00
   7  -1  -4  284.37   14.40
  -6   7  -4  295.27   17.80
  -6   7  -4  281.47   14.40
  -6   7  -4  268.77   13.20
   6  -7   4  307.17   16.30
  -7   1   4  284.37   13.80
   6  -7   4  306.37   15.00
   1   6   4  297.57   17.60
   8  -2  -4  204.58   11.10
  -6   8  -4  192.98   10.60
  -6   8  -4  218.38   14.70
   2   6   4  197.78   17.00
  -8   2   4  208.78   10.10
   6  -8   4  191.98   12.40
   6  -8   4  208.28   11.60
  -6   9  -4   31.90    5.00
   9  -3  -4   32.70    3.80
   9  -3  -4   32.00    4.30
  -3  -6  -4   24.80    4.40
  -6   9  -4   29.40    3.60
  -9   3   4   33.20    2.70
   6  -9   4   35.60    5.30
   6  -9   4   29.00    3.70
   3   6   4   29.80    5.80
  10  -4  -4   16.90    2.60
  10  -4  -4   14.70    2.30
  -6  10  -4   18.70    2.60
  -6  10  -4   16.70    3.30
  -4  -6  -4   11.90    3.20
   6 -10   4   11.70    2.80
   6 -10   4   16.30    3.50
  -5  -6  -4  158.28    7.90
  -6  11  -4  136.09    7.90
  11  -5  -4  168.78    8.00
  11  -5  -4  171.78    7.50
   6 -11   4  128.29    8.60
   6 -11   4  152.58    8.40
  -4  11  -4   33.30    3.50
  -7  -4  -4   32.00    3.40
   4 -11   4   26.10    3.00
  -7  -3  -4    8.30    3.00
  -7  -3  -4    9.10    1.60
  10  -7  -4    8.10    2.00
  -3  10  -4    9.80    1.60
  -3  10  -4    5.50    2.40
   3 -10   4    9.70    2.30
  -2   9  -4  171.18   11.60
   9  -7  -4  174.38    8.70
  -2   9  -4  174.18    8.60
  -7  -2  -4  164.98    8.60
  -7  -2  -4  176.88   10.00
   2  -9   4  168.98    9.90
   2  -9   4  135.29   10.40
  -1   8  -4  109.09    9.20
  -7  -1  -4  112.99    8.70
  -7  -1  -4  107.29    6.60
  -1   8  -4  113.19    6.50
   1  -8   4  109.79    7.80
   1  -8   4   88.59    8.10
   7   1   4   97.79    5.40
   0   7  -4   53.69    4.50
  -7   0  -4   54.69    4.60
   0   7  -4   48.90    6.60
  -7   0  -4   55.09    5.10
   7  -7  -4   38.60    4.00
   7   0   4   49.40    3.80
   0  -7   4   52.99    6.70
   0  -7   4   50.99    5.40
  -7   1  -4  211.38   10.60
   1   6  -4  209.78   13.90
   1   6  -4  198.78   10.50
   1   6  -4  198.58   10.50
  -7   1  -4  197.38   10.90
  -1  -6   4  212.68   12.20
  -1  -6   4  202.88   10.40
   7  -1   4  199.28   10.30
  -1  -6   4  202.18   13.40
   2   5  -4  124.89    7.60
  -7   2  -4  134.39    8.10
   2   5  -4  126.69    7.70
  -7   2  -4  138.39    7.50
   2   5  -4  126.89   10.10
  -2  -5   4  119.09    7.30
   7  -2   4  117.89    9.20
  -2  -5   4  130.89    9.00
   7  -2   4  133.19    7.60
  -2  -5   4  117.19   10.50
   3   4  -4  167.68    9.30
  -7   3  -4  167.98    8.40
   3   4  -4  165.68   11.60
   3   4  -4  161.58    9.00
  -7   3  -4  162.28    9.50
  -3  -4   4  171.48   10.60
   7  -3   4  160.48   10.30
   7  -3   4  168.88    9.40
  -3  -4   4  151.78   12.20
  -7   4  -4   13.20    2.30
  -7   4  -4   12.60    2.70
   4   3  -4   12.20    2.70
   4   3  -4   14.50    3.10
   4   3  -4   13.50    3.50
   7  -4   4   11.20    3.60
   7  -4   4   11.90    2.60
  -4  -3   4   12.90    4.90
  -4  -3   4   10.70    3.10
  -7   5  -4  154.58    9.60
   5   2  -4  172.28    9.70
  -7   5  -4  155.98    8.20
   5   2  -4  164.08    9.00
  -5  -2   4  164.98    9.70
   7  -5   4  169.88    9.50
   7  -5   4  161.68   10.50
  -5  -2   4  152.88   11.70
   6   1  -4  654.93   28.20
  -7   6  -4  615.84   28.40
   6   1  -4  642.54   28.40
  -7   6  -4  622.64   27.20
  -6  -1   4  675.63   28.80
  -6  -1   4  643.34   30.60
   7  -6   4  651.73   28.90
   7  -6   4  661.53   30.20
  -7   7  -4    3.20    1.70
   7   0  -4    8.70    2.50
   7   0  -4    6.80    2.50
  -7   7  -4    3.70    2.00
   7  -7   4    3.80    2.70
  -7   0   4    8.10    2.30
   7  -7   4    6.80    2.40
  -7   8  -4  123.69    9.60
   8  -1  -4  112.19    7.60
  -7   8  -4  110.49    7.20
   7  -8   4  111.79    7.60
   7  -8   4  119.39    8.90
  -8   1   4  120.39    6.90
  -7   9  -4   30.30    4.60
  -2  -7  -4   28.30    4.70
   9  -2  -4   33.60    4.20
   9  -2  -4   32.00    3.50
  -7   9  -4   34.30    3.50
  -9   2   4   31.60    2.70
   7  -9   4   33.90    5.00
   7  -9   4   30.80    3.90
  10  -3  -4   46.30    3.90
  -7  10  -4   41.70    4.30
  10  -3  -4   49.90    4.10
  -3  -7  -4   42.30    5.20
  -7  10  -4   46.90    3.30
   7 -10   4   39.20    3.90
   7 -10   4   51.09    5.10
  -4  -7  -4  119.39    6.40
   7 -11   4  108.69    6.50
   7 -11   4  114.49    6.90
  -3  11  -4   63.79    4.80
  -8  -3  -4   64.79    4.30
   3 -11   4   70.69    3.70
   3 -11   4   54.89    4.20
  -8  -2  -4   25.50    2.80
  -2  10  -4   29.00    4.20
   2 -10   4   24.50    3.30
  -8  -1  -4   23.50    3.50
  -8  -1  -4   30.10    3.80
  -1   9  -4   26.70    4.50
   1  -9   4   24.00    3.60
  -8   0  -4  418.76   18.40
   0   8  -4  428.26   18.40
   0   8  -4  428.46   21.90
   8  -8  -4  397.66   17.90
  -8   0  -4  415.56   18.70
   0  -8   4  389.96   19.80
   8   0   4  401.96   17.90
   0  -8   4  420.86   18.50
   1   7  -4   90.09    8.30
  -8   1  -4   92.49    6.00
  -8   1  -4   96.19    6.30
   7  -8  -4   84.49    5.20
   1   7  -4   95.99    6.00
   8  -1   4   93.69    5.60
  -1  -7   4   87.49    5.80
  -1  -7   4   84.09    7.10
  -8   2  -4  202.18   10.70
   2   6  -4  198.38   10.40
  -8   2  -4  208.68    9.90
   2   6  -4  198.78   13.10
  -2  -6   4  194.08   10.60
   8  -2   4  200.18   10.40
  -2  -6   4  194.98   12.70
  -2  -6   4  205.58   12.10
   3   5  -4  147.59    8.30
   3   5  -4  139.19   10.20
  -8   3  -4  144.99    8.70
   3   5  -4  148.49    8.40
  -8   3  -4  147.19    7.60
  -3  -5   4  127.09    9.60
   8  -3   4  150.28    8.50
  -3  -5   4  147.09    9.50
  -3  -5   4  136.79   11.10
   8  -3   4  148.59   10.00
   4   4  -4    8.10    3.30
  -8   4  -4    8.40    2.30
  -8   4  -4    7.80    1.80
   4   4  -4    9.80    2.50
   4   4  -4    8.00    2.20
   8  -4   4    7.50    3.00
   8  -4   4    6.40    2.10
  -4  -4   4   11.50    3.00
  -4  -4   4   11.90    4.20
   5   3  -4  140.79    8.30
  -8   5  -4  140.19    7.20
  -8   5  -4  142.19    8.40
   5   3  -4  126.29   11.90
   5   3  -4  148.79    8.10
  -5  -3   4  141.49    8.90
  -5  -3   4  114.99    9.40
   8  -5   4  130.69    9.20
   8  -5   4  136.19    8.40
   6   2  -4   67.99    5.80
  -8   6  -4   73.09    5.70
  -8   6  -4   69.49    4.70
   6   2  -4   68.29    7.50
   8  -6   4   69.89    6.80
  -6  -2   4   71.89    5.80
   8  -6   4   68.39    5.70
  -8   7  -4  343.97   16.20
   7   1  -4  344.67   16.00
   7   1  -4  353.46   16.10
  -7  -1   4  327.87   16.10
   8  -7   4  307.57   17.50
   8  -7   4  343.07   16.60
  -8   8  -4   56.59    4.70
   8   0  -4   52.79    4.80
   8   0  -4   50.79    4.60
  -8   8  -4   51.19    6.00
   8  -8   4   49.10    5.90
   8  -8   4   49.10    4.80
  -8   0   4   49.40    4.30
   9  -1  -4  152.88    7.80
   9  -1  -4  152.98    7.90
  -8   9  -4  133.89    8.70
  -8   9  -4  145.99    7.60
   8  -9   4  139.39    8.40
   8  -9   4  146.19    9.60
  -9   1   4  133.89    7.30
  -8  10  -4    1.80    1.20
  10  -2  -4    3.50    1.60
  10  -2  -4    3.60    1.50
   8 -10   4    2.60    1.50
 -10   2   4    3.30    1.00
   8 -10   4    4.00    2.60
  11  -3  -4   52.79    3.50
   8 -11   4   43.90    3.50
   8 -11   4   44.70    4.10
  -2  11  -4   41.60    3.30
  11  -9  -4   34.20    2.40
  -9  -1  -4    0.00    1.10
  -9  -1  -4    0.70    1.00
  -1  10  -4   -0.40    1.50
  10  -9  -4    2.10    1.10
   1 -10   4   -0.70    1.00
   1 -10   4    0.00    1.90
   0   9  -4    5.50    1.50
  -9   0  -4    4.10    1.40
  -9   0  -4    3.30    1.50
   9  -9  -4    3.80    1.30
   0   9  -4    4.10    2.50
   0  -9   4    3.60    1.80
   0  -9   4    5.80    1.50
   1   8  -4   73.59    8.30
  -9   1  -4   72.29    4.60
  -9   1  -4   76.59    5.30
   1   8  -4   78.69    4.80
  -1  -8   4   74.79    5.90
  -1  -8   4   80.49    5.20
   9  -1   4   74.19    4.60
  -9   2  -4   80.99    4.80
  -9   2  -4   81.49    5.60
   2   7  -4   80.99    7.60
   2   7  -4   76.49    5.10
   9  -2   4   83.79    5.20
  -2  -7   4   79.89    5.00
  -2  -7   4   72.99    6.20
  -9   3  -4  350.76   16.00
   3   6  -4  329.37   18.00
   3   6  -4  344.77   15.50
  -9   3  -4  338.37   14.70
   9  -3   4  338.07   15.80
  -3  -6   4  325.17   14.90
  -3  -6   4  324.17   16.70
  -9   4  -4  243.18   12.50
  -9   4  -4  236.48   10.80
   4   5  -4  243.48   11.70
   4   5  -4  229.08   13.80
  -4  -5   4  244.78   12.80
   9  -4   4  230.98   12.00
   9  -4   4  217.68   12.50
   5   4  -4  285.87   12.30
   5   4  -4  267.87   12.80
  -9   5  -4  275.27   13.20
   5   4  -4  243.88   14.30
  -9   5  -4  256.97   11.80
  -5  -4   4  275.87   13.80
   9  -5   4  251.77   13.10
   9  -5   4  250.87   13.90
  -9   6  -4   40.00    4.20
   6   3  -4   30.30    4.20
   6   3  -4   40.90    4.10
  -9   6  -4   35.50    3.40
  -6  -3   4   40.00    4.30
   9  -6   4   32.60    4.70
   9  -6   4   38.00    4.00
   7   2  -4  120.29    7.00
   7   2  -4  123.69    7.20
  -9   7  -4  123.59    7.30
  -9   7  -4  108.39   10.30
   9  -7   4  119.49    8.50
   9  -7   4  117.49    7.40
  -7  -2   4  127.69    7.50
  -9   8  -4   79.19    5.10
   8   1  -4   70.79    4.90
  -9   8  -4   69.59    5.70
  -8  -1   4   78.09    5.20
   9  -8   4   72.19    6.30
   9  -8   4   74.49    5.50
  -9   9  -4   30.40    3.00
   9   0  -4   30.30    3.10
   9   0  -4   31.50    3.50
   9  -9   4   23.00    4.20
   9  -9   4   26.40    3.30
  -9   0   4   22.20    2.60
  10  -1  -4   16.50    3.40
   9 -10   4   17.10    3.30
 -10   1   4   16.80    1.70
   9 -10   4   16.10    2.30
  11  -2  -4   57.79    3.40
   9 -11   4   51.29    4.10
   0  10  -4   51.99    4.40
 -10   0  -4   59.59    3.40
   0 -10   4   47.90    3.60
   1   9  -4   68.09    5.70
 -10   1  -4   73.49    4.40
 -10   1  -4   67.49    4.80
  -1  -9   4   67.19    4.80
  -1  -9   4   74.69    3.90
 -10   2  -4   68.19    3.90
 -10   2  -4   77.79    4.80
   2   8  -4   68.09    6.00
   2   8  -4   71.59    4.30
  -2  -8   4   69.69    5.10
  10  -2   4   71.29    4.10
 -10   3  -4   19.60    2.30
   3   7  -4   22.20    2.80
   3   7  -4   18.40    3.60
  10  -3   4   18.40    3.30
  -3  -7   4   20.60    3.10
  -3  -7   4   17.70    2.40
   4   6  -4   45.30    4.90
   4   6  -4   53.19    4.10
 -10   4  -4   52.29    3.40
 -10   4  -4   59.59    4.50
  -4  -6   4   57.59    4.80
  10  -4   4   52.49    4.00
 -10   5  -4   33.20    3.70
   5   5  -4   37.10    3.60
   5   5  -4   28.60    4.00
  -5  -5   4   33.70    3.80
  10  -5   4   31.00    3.40
  10  -5   4   35.90    4.20
   6   4  -4  532.25   22.20
 -10   6  -4  542.05   22.40
   6   4  -4  488.55   22.60
  10  -6   4  487.25   23.20
  -6  -4   4  520.35   22.90
  10  -6   4  497.75   22.70
   7   3  -4   10.40    2.30
   7   3  -4   11.20    2.50
  -7  -3   4   10.40    2.30
  10  -7   4    9.70    2.70
  10  -7   4    8.90    3.00
 -10   8  -4    2.30    1.30
   8   2  -4    2.20    1.30
  10  -8   4    4.40    2.40
  10  -8   4    1.70    1.40
  -8  -2   4    4.10    1.50
   9   1  -4   47.80    3.70
 -10   9  -4   51.39    3.50
  -9  -1   4   43.10    3.20
  10  -9   4   39.60    4.50
  10  -9   4   42.70    3.70
  10   0  -4   69.19    4.00
  10 -10   4   58.69    4.10
 -10   0   4   66.39    3.30
  10 -10   4   59.39    4.80
   2   9  -4   35.90    3.50
  -2  -9   4   29.90    2.70
   3   8  -4   49.99    4.40
 -11   3  -4   53.19    3.50
  -3  -8   4   45.20    3.50
  11  -3   4   48.20    2.90
   4   7  -4   32.20    2.60
   4   7  -4   32.30    3.70
 -11   4  -4   39.00    3.10
  -4  -7   4   32.20    3.10
  11  -4   4   31.60    2.60
   5   6  -4   17.10    2.80
 -11   5  -4   27.80    2.80
   5   6  -4   18.40    2.50
   5   6  -4   25.50    3.50
  11  -5   4   22.80    2.40
  -5  -6   4   22.20    2.80
   6   5  -4  209.58   11.00
 -11   6  -4  264.17   11.10
  11  -6   4  232.68   11.50
  11  -6   4  247.88   11.30
  -6  -5   4  243.98   11.40
   7   4  -4   44.50    3.10
   7   4  -4   34.00    3.30
 -11   7  -4   42.90    3.10
  11  -7   4   37.70    3.30
  11  -7   4   42.20    4.00
  -7  -4   4   38.80    3.20
 -11   8  -4   86.89    4.20
  11  -8   4   69.99    5.20
  -8  -3   4   73.39    4.40
  11  -8   4   73.69    4.80
   9   2  -4   21.70    2.10
  -9  -2   4   19.70    1.70
  11  -9   4   20.00    2.90
  11  -9   4   19.00    2.20
   0   0  -5    3.50    1.60
   0   0   5   -4.00    3.40
   0   1  -5  332.07   14.90
   1  -1  -5  334.87   14.70
   0   1  -5  309.37   15.40
  -1   0  -5  318.37   14.60
   0  -1   5  331.17   15.20
   1   0   5  336.67   18.60
   0  -1   5  356.76   19.30
  -1   1   5  339.37   19.30
  -1   1  -5   69.49    5.80
   0  -1  -5   87.79    5.20
  -1   1  -5   80.69    5.20
   1   0  -5   94.39    5.70
   1  -1   5   97.19    5.60
  -1   0   5   94.79    5.70
   0   1   5   93.59    9.00
   1  -1   5   95.69    8.80
  -1   0   5   99.29    9.30
  -1   2  -5  312.07   15.40
   2  -1  -5  302.87   14.50
  -1   2  -5  325.17   14.80
  -1  -1  -5  318.07   14.20
  -2   1   5  348.57   19.60
   1   1   5  361.76   18.90
   1  -2   5  324.47   15.20
   1  -2   5  307.27   18.30
   3  -2  -5  167.28    9.00
  -2  -1  -5  165.78    8.60
  -1   3  -5  194.28    9.80
  -1   3  -5  172.08    9.70
   1  -3   5  173.78   12.50
   1  -3   5  174.88    9.80
  -3   2   5  178.98   13.30
   0   2  -5  365.16   18.10
  -2   0  -5  386.66   17.10
   0   2  -5  393.86   17.70
   2  -2  -5  385.46   17.20
   2   0   5  388.36   20.90
   0  -2   5  410.06   18.30
  -2   2   5  423.86   22.30
   0  -2   5  413.26   21.90
   1   1  -5  202.18   11.20
   1   1  -5  217.98   10.80
  -2   1  -5  224.68   10.40
  -2   1  -5  198.18   11.20
  -1   2   5  233.38   15.20
  -1  -1   5  229.58   15.20
   2  -1   5  227.88   10.50
   2  -1   5  237.38   14.00
  -1  -1   5  228.18   11.20
   2   0  -5  665.33   28.70
  -2   2  -5  645.94   28.30
  -2   2  -5  634.84   29.40
   2  -2   5  679.63   29.00
  -2   0   5  684.73   28.50
  -2   0   5  685.83   33.60
   0   2   5  702.73   33.00
   2  -2   5  707.63   32.60
  -1  -2  -5    3.50    2.40
   3  -1  -5    2.50    1.90
  -2   3  -5    1.90    1.80
   2  -3   5    2.20    1.70
  -3   1   5    5.70    4.40
   2  -3   5   -0.80    3.30
  -2  -2  -5  347.47   16.80
   4  -2  -5  354.56   17.20
  -2   4  -5  392.56   19.00
  -2   4  -5  366.86   17.90
   2  -4   5  389.06   18.10
  -4   2   5  403.56   21.40
   2  -4   5  404.26   21.30
  -2   5  -5  349.96   20.90
   5  -3  -5  322.17   15.50
  -3  -2  -5  324.27   15.40
  -2   5  -5  331.97   15.80
  -2   5  -5  324.97   16.10
  -5   3   5  362.16   18.80
   2  -5   5  335.87   16.60
   2  -5   5  330.57   19.00
   4  -3  -5  240.18   15.50
  -1   4  -5  299.87   16.60
  -1   4  -5  266.17   13.80
   1  -4   5  298.47   17.40
  -4   3   5  293.07   16.70
   1  -4   5  284.07   14.40
   0   3  -5  488.55   24.20
  -3   0  -5  505.75   22.30
   0   3  -5  530.05   23.10
   0  -3   5  557.04   27.60
  -3   3   5  501.55   29.30
   0  -3   5  586.64   31.00
   3   0   5  507.05   25.90
   1   2  -5  181.58   13.10
   1   2  -5  196.28   10.00
   1   2  -5  190.58   10.10
  -3   1  -5  181.78   10.20
  -3   1  -5  183.48    9.20
   3  -1   5  206.08   12.60
  -1  -2   5  195.08   10.30
   3  -1   5  187.28    9.20
  -2   3   5  206.88   13.40
  -1  -2   5  173.68   13.70
  -3   2  -5  520.15   24.90
   2   1  -5  560.14   24.60
  -3   2  -5  562.84   24.00
   2   1  -5  503.55   27.60
   2   1  -5  550.64   24.70
   3  -2   5  558.54   24.50
  -1   3   5  618.14   28.50
   3  -2   5  601.84   28.00
  -2  -1   5  571.64   29.30
  -2  -1   5  597.84   24.90
   3   0  -5  258.37   13.00
   3   0  -5  266.27   13.10
  -3   3  -5  254.67   15.40
   3  -3   5  267.37   20.10
  -3   0   5  285.37   12.70
  -3   0   5  298.87   22.30
   4  -1  -5  601.04   27.10
  -3   4  -5  611.14   27.90
   3  -4   5  666.63   28.10
   3  -4   5  640.84   30.80
  -4   1   5  632.84   31.60
  -2  -3  -5  357.16   17.70
  -3   5  -5  404.56   18.20
   5  -2  -5  405.86   18.40
  -3   5  -5  400.66   18.90
   3  -5   5  414.86   19.10
  -5   2   5  423.56   21.90
   3  -5   5  403.16   21.80
  -3   6  -5   10.20    2.40
  -3  -3  -5   10.50    2.30
  -3   6  -5    7.70    2.40
  -3   6  -5   10.20    4.30
   6  -3  -5   12.70    2.70
   3  -6   5   16.40    4.70
   3  -6   5   11.20    2.80
  -3   7  -5   18.20    4.70
  -4  -3  -5   25.30    3.00
  -3   7  -5   20.20    2.80
  -3   7  -5   25.30    3.70
   7  -4  -5   21.60    3.70
   3  -7   5   24.20    5.10
   3  -7   5   22.60    3.70
  -2   6  -5  270.17   17.00
  -2   6  -5  261.37   13.10
  -4  -2  -5  277.17   13.10
   6  -4  -5  265.47   13.30
  -2   6  -5  288.87   13.80
   2  -6   5  286.87   17.00
   2  -6   5  270.97   14.40
  -1   5  -5  409.76   22.60
  -1   5  -5  398.86   18.70
  -1   5  -5  393.36   18.30
  -4  -1  -5  396.96   17.90
   1  -5   5  412.16   19.40
   1  -5   5  373.86   21.80
   0   4  -5  186.98   10.00
  -4   0  -5  150.18    9.70
   0   4  -5  181.68   10.00
  -4   0  -5  187.28    9.20
   0   4  -5  183.48   13.30
   0  -4   5  195.88   13.50
   0  -4   5  196.98   10.70
   1   3  -5  101.79    9.50
   1   3  -5   97.09    6.60
  -4   1  -5   89.29    6.60
   1   3  -5  102.39    9.20
  -1  -3   5  100.89    7.00
  -3   4   5  121.69    9.20
   4  -1   5  109.79    9.30
  -1  -3   5  121.09   10.90
   4  -1   5   97.99    5.80
   2   2  -5  231.78   14.90
  -4   2  -5  222.58   12.20
   2   2  -5  235.18   12.00
  -4   2  -5  243.88   11.90
  -2  -2   5  230.48   16.00
  -2   4   5  275.07   15.10
  -2  -2   5  239.28   12.40
   4  -2   5  243.98   11.70
   4  -2   5  232.58   14.20
  -4   3  -5   32.40    4.30
   3   1  -5   36.10    4.00
  -4   3  -5   45.90    5.80
  -3  -1   5   39.80    4.10
   4  -3   5   39.80    4.00
   4  -3   5   37.20    5.90
  -3  -1   5   36.60    7.00
  -4   4  -5  226.18   12.30
   4   0  -5  231.28   12.10
   4   0  -5  220.68   11.60
  -4   4  -5  237.88   11.60
  -4   0   5  243.88   11.50
   4  -4   5  251.37   12.50
  -4   0   5  232.28   15.90
   4  -4   5  260.97   14.90
   5  -1  -5  127.09    7.70
  -4   5  -5  138.29    7.90
   5  -1  -5  142.39    8.40
  -4   5  -5  144.89    8.70
  -5   1   5  140.59   11.20
  -5   1   5  133.79    6.80
   4  -5   5  149.69   10.90
   4  -5   5  137.59    8.50
  -4   6  -5  108.29    7.10
   6  -2  -5  107.59    7.20
  -4   6  -5  108.39   10.20
   6  -2  -5  105.49    8.60
  -4   6  -5  102.09    6.50
   4  -6   5  100.19    9.40
   4  -6   5  106.29    7.40
  -4   7  -5  108.19    6.90
  -4   7  -5   99.09    9.30
  -3  -4  -5  103.49    6.50
  -4   7  -5  100.59    6.20
   4  -7   5  108.09    7.30
   4  -7   5  108.89    9.20
  -4   8  -5    8.40    3.20
  -4   8  -5    6.80    1.90
  -4  -4  -5    8.80    2.30
   8  -4  -5    9.70    2.30
   4  -8   5    5.50    3.20
   4  -8   5    8.30    2.30
  -4   9  -5   92.69    7.10
   9  -5  -5  109.79    5.80
  -5  -4  -5  103.89    5.50
  -4   9  -5   96.79    5.50
   4  -9   5   89.19    6.10
   4  -9   5   74.39    6.80
   8  -5  -5    7.50    2.20
  -3   8  -5    7.50    2.00
  -5  -3  -5    5.70    2.00
  -3   8  -5    4.80    3.00
   3  -8   5    7.60    3.10
  -2   7  -5  109.49    6.60
   7  -5  -5   98.49    6.50
  -2   7  -5  111.29    9.50
  -5  -2  -5  105.49    6.30
  -2   7  -5   86.19    6.30
   2  -7   5  115.29    7.50
   2  -7   5  102.69    9.00
  -1   6  -5   74.99    5.80
   6  -5  -5   84.69    5.90
  -1   6  -5   84.19    5.90
  -1   6  -5   86.89    8.60
  -5  -1  -5   83.09    5.60
   1  -6   5   88.49   11.10
   1  -6   5   71.89    6.30
   0   5  -5   56.59    5.30
   0   5  -5   56.29    7.20
  -5   0  -5   57.19    4.80
  -5   0  -5   57.69    4.70
   0   5  -5   59.79    5.00
   0  -5   5   53.79    7.50
   0  -5   5   60.79    5.70
   1   4  -5    5.70    3.10
  -5   1  -5    2.90    1.60
   1   4  -5    3.40    2.10
   1   4  -5    2.70    1.70
  -5   1  -5    1.40    1.70
  -1  -4   5    3.60    2.40
  -1  -4   5    4.60    3.90
   5  -1   5    2.90    1.30
   5  -1   5   -3.50    3.60
   2   3  -5   60.19    7.00
   2   3  -5   57.99    5.00
   2   3  -5   66.29    5.70
  -5   2  -5   55.39    5.20
  -5   2  -5   61.19    4.40
   5  -2   5   69.49    7.10
   5  -2   5   65.39    4.60
  -2  -3   5   64.29    5.70
  -2  -3   5   52.09    8.50
  -5   3  -5   68.69    4.80
   3   2  -5   71.69    6.00
   3   2  -5   63.29    6.80
  -5   3  -5   68.29    5.60
   3   2  -5   71.69    5.30
   5  -3   5   72.59    7.50
   5  -3   5   71.59    5.20
  -3  -2   5   71.39    9.40
  -3  -2   5   67.59    5.50
   4   1  -5   39.20    4.10
  -5   4  -5   39.60    3.90
   4   1  -5   46.70    5.20
  -5   4  -5   33.90    4.30
  -4  -1   5   41.30    3.90
   5  -4   5   41.00    6.10
   5  -4   5   44.40    4.10
  -4  -1   5   39.30    7.00
  -5   5  -5   60.59    5.00
   5   0  -5   68.59    6.10
  -5   5  -5   60.79    5.50
   5   0  -5   61.19    4.90
   5  -5   5   66.99    5.50
  -5   0   5   63.29    4.50
  -5   0   5   55.39   10.00
   5  -5   5   69.69    7.40
   6  -1  -5  275.17   13.40
   6  -1  -5  285.87   14.00
  -5   6  -5  288.17   14.30
  -5   6  -5  277.07   13.30
  -6   1   5  273.97   12.40
   5  -6   5  291.67   14.40
   5  -6   5  292.27   16.60
  -5   7  -5  104.39    6.80
  -5   7  -5  116.69    9.70
  -5   7  -5  103.39    6.40
   5  -7   5  121.29    9.40
   5  -7   5  111.29    7.30
  -5   8  -5  225.68   11.10
   8  -3  -5  213.58   10.70
  -3  -5  -5  245.18   12.00
  -5   8  -5  216.48   13.50
   8  -3  -5  239.68   11.50
   5  -8   5  231.18   13.60
   5  -8   5  216.28   11.60
   9  -4  -5   84.09    6.00
   9  -4  -5   73.79    4.70
  -5   9  -5   77.99    6.50
  -5   9  -5   82.49    4.80
  -4  -5  -5   79.79    4.70
   5  -9   5   79.79    6.60
   5  -9   5   82.09    6.70
  -5  10  -5   45.00    3.80
   5 -10   5   51.99    5.20
   5 -10   5   54.19    4.60
  -4  10  -5   28.10    3.10
  10  -6  -5   36.30    2.60
   4 -10   5   29.20    3.00
  -3   9  -5  146.69    9.60
  -3   9  -5  165.48    7.70
  -6  -3  -5  162.28    7.60
   9  -6  -5  166.08    7.80
   3  -9   5  146.09    8.50
   3  -9   5  150.68    9.80
   8  -6  -5  135.89    7.40
  -2   8  -5  142.39    7.50
  -2   8  -5  140.29   10.00
  -6  -2  -5  152.18    7.50
   2  -8   5  142.59    8.60
   2  -8   5  126.59    9.30
   7  -6  -5  252.87   12.50
  -1   7  -5  274.07   16.10
  -1   7  -5  276.47   12.90
  -6  -1  -5  277.07   12.50
   1  -7   5  269.37   13.90
   1  -7   5  243.78   15.30
   0   6  -5   19.90    3.00
  -6   0  -5   22.70    2.70
   0   6  -5   17.40    4.40
   0   6  -5   21.30    3.00
  -6   0  -5   20.20    2.80
   0  -6   5   19.60    3.50
   0  -6   5   23.20    4.90
   1   5  -5   80.49    6.20
  -6   1  -5   80.59    5.70
  -6   1  -5   88.39    5.20
   1   5  -5   82.99    5.70
   1   5  -5   90.59   12.60
  -1  -5   5   84.19    6.80
   6  -1   5   76.59    4.60
  -6   2  -5   68.29    4.50
  -6   2  -5   63.39    5.30
   2   4  -5   66.89    5.30
   2   4  -5   63.49    5.70
   2   4  -5   61.39    6.80
   6  -2   5   70.29    8.20
  -2  -4   5   66.39    8.50
  -2  -4   5   72.89    6.30
   6  -2   5   65.99    4.60
   3   3  -5   16.10    3.10
   3   3  -5   16.20    4.00
  -6   3  -5   17.10    2.90
  -6   3  -5   17.90    2.50
   3   3  -5   18.10    2.90
   6  -3   5   20.60    2.80
  -3  -3   5   17.60    3.30
   6  -3   5   13.90    4.00
  -3  -3   5   18.30    5.50
  -6   4  -5  144.49    7.70
   4   2  -5  150.28    8.40
  -6   4  -5  140.09    8.60
   4   2  -5  151.98    8.70
   6  -4   5  152.78    8.60
   6  -4   5  139.09   10.50
  -4  -2   5  138.89   11.60
  -4  -2   5  142.79    8.50
  -6   5  -5  611.74   26.50
   5   1  -5  639.34   27.60
  -6   5  -5  614.44   27.70
   6  -5   5  649.34   31.50
  -5  -1   5  598.04   31.10
   6  -5   5  635.94   27.70
   6   0  -5  248.88   12.40
  -6   6  -5  261.27   13.00
   6   0  -5  265.77   13.10
  -6   0   5  242.18   11.80
   6  -6   5  263.97   13.30
   6  -6   5  260.47   15.40
  -6   7  -5   68.99    5.30
   7  -1  -5   67.79    5.00
  -6   7  -5   68.49    7.20
  -6   7  -5   60.59    4.70
   7  -1  -5   73.89    5.70
  -7   1   5   61.99    3.70
   6  -7   5   77.99    7.50
   6  -7   5   73.19    5.50
  -6   8  -5   93.19    5.80
   8  -2  -5   96.99    6.20
  -6   8  -5   88.09    7.50
   8  -2  -5   89.19    5.30
   6  -8   5   91.79    6.20
   6  -8   5   89.49    7.60
  -6   9  -5   79.99    4.70
   9  -3  -5   87.99    5.20
   9  -3  -5   79.19    4.90
  -6   9  -5   76.39    6.20
   6  -9   5   71.79    6.60
   6  -9   5   75.19    5.90
  -6  10  -5   26.10    2.70
   6 -10   5   28.00    3.40
   6 -10   5   28.40    2.80
  -3  10  -5   15.90    2.50
   3 -10   5   14.40    2.20
  -2   9  -5   22.30    2.30
  -2   9  -5   16.70    3.20
  -7  -2  -5   21.90    2.40
   9  -7  -5   15.90    2.60
   2  -9   5   19.90    2.80
  -1   8  -5   55.39    4.20
  -7  -1  -5   43.90    3.80
   8  -7  -5   47.00    3.50
  -7  -1  -5   61.99    3.90
  -1   8  -5   52.99    6.20
   1  -8   5   44.90    5.40
   1  -8   5   58.39    5.50
   0   7  -5   54.09    6.00
   7  -7  -5   42.80    3.70
   0   7  -5   56.99    4.30
  -7   0  -5   56.59    4.20
  -7   0  -5   52.89    4.20
   0  -7   5   51.29    4.90
   0  -7   5   44.40    6.40
   1   6  -5   67.99    5.30
  -7   1  -5   68.09    4.40
   1   6  -5   64.69    4.90
   1   6  -5   59.39    6.70
  -7   1  -5   64.79    4.80
  -1  -6   5   68.39    5.80
   7  -1   5   65.29    4.60
  -1  -6   5   53.89    6.60
   2   5  -5  380.56   16.90
   2   5  -5  357.26   16.80
   2   5  -5  346.77   19.20
  -7   2  -5  374.56   17.20
   7  -2   5  366.16   16.30
  -2  -5   5  352.06   19.90
  -2  -5   5  395.06   18.10
  -7   3  -5   58.09    4.80
   3   4  -5   64.49    4.90
  -7   3  -5   55.49    4.20
   3   4  -5   49.10    5.50
   7  -3   5   46.50    6.00
  -3  -4   5   50.49    7.20
  -3  -4   5   69.19    5.40
   7  -3   5   55.19    4.30
   4   3  -5  106.59    6.40
   4   3  -5   88.89    7.40
  -7   4  -5  100.79    6.70
  -7   4  -5  100.39    5.80
  -4  -3   5   99.49    6.60
   7  -4   5  103.69    6.40
   7  -4   5   95.89    8.00
  -4  -3   5   90.89    8.50
   5   2  -5  225.98   11.10
   5   2  -5  221.68   12.40
  -7   5  -5  218.48   11.30
  -7   5  -5  222.88   10.50
  -5  -2   5  227.08   11.20
   7  -5   5  223.38   11.40
   7  -5   5  198.88   13.00
  -5  -2   5  210.68   13.10
  -7   6  -5  240.28   11.80
   6   1  -5  237.28   11.90
  -7   6  -5  223.68   10.70
   6   1  -5  229.18   11.40
   7  -6   5  224.68   13.70
   7  -6   5  236.28   12.00
  -6  -1   5  222.28   11.10
  -7   7  -5  230.98   10.80
   7   0  -5  215.28   10.40
  -7   7  -5  196.18   12.70
  -7   7  -5  184.68    9.80
   7   0  -5  218.48   10.80
  -7   0   5  201.58    9.50
   7  -7   5  212.78   11.00
   7  -7   5  200.98   12.50
   8  -1  -5   -0.70    1.70
   8  -1  -5    0.20    1.10
  -7   8  -5    1.80    2.20
   7  -8   5    0.60    2.90
   7  -8   5    0.00    1.50
   9  -2  -5   58.89    3.80
  -7   9  -5   46.30    6.00
   9  -2  -5   54.29    4.00
  -7   9  -5   54.19    3.70
   7  -9   5   47.60    5.20
  10  -3  -5    9.10    1.40
   7 -10   5    7.10    1.50
   7 -10   5    6.20    2.20
  -8  -1  -5   13.60    1.80
  -1   9  -5   16.40    1.90
  -1   9  -5   17.40    3.00
  -8  -1  -5   18.70    2.00
   1  -9   5   12.20    2.10
  -8   0  -5    3.70    1.30
  -8   0  -5    6.50    1.60
   0   8  -5    3.70    2.10
   0   8  -5    3.60    1.40
   0  -8   5    1.20    1.70
  -8   1  -5   28.40    2.70
  -8   1  -5   22.80    2.80
   1   7  -5   23.70    3.90
  -1  -7   5   20.10    4.80
  -1  -7   5   21.00    3.50
  -8   2  -5   12.70    1.90
   2   6  -5   11.80    2.10
   2   6  -5    9.60    2.80
  -8   2  -5   13.60    2.40
  -2  -6   5   11.40    2.60
   8  -2   5   13.40    1.80
  -2  -6   5    7.20    3.10
   3   5  -5    3.50    1.60
   3   5  -5   -0.40    2.50
  -8   3  -5    3.60    1.40
  -8   3  -5    3.10    1.60
   3   5  -5    0.70    2.30
  -3  -5   5    2.30    1.70
   8  -3   5    4.50    1.50
  -3  -5   5    1.70    2.70
   4   4  -5  254.57   11.70
  -8   4  -5  252.07   12.00
  -8   4  -5  249.48   11.00
   4   4  -5  225.68   12.90
   4   4  -5  249.08   11.70
  -4  -4   5  235.78   13.60
   8  -4   5  228.78   11.60
  -4  -4   5  226.88   12.00
   8  -4   5  245.08   13.80
  -8   5  -5  120.79    6.90
  -8   5  -5  113.49    6.00
   5   3  -5  118.99    6.90
   5   3  -5  118.59    6.90
  -5  -3   5  101.69    6.60
   8  -5   5  105.99    6.60
   8  -5   5  100.19    7.90
  -8   6  -5    5.10    1.70
   6   2  -5    5.20    1.80
  -8   6  -5    3.70    1.60
   6   2  -5    6.10    2.20
   8  -6   5    4.30    1.60
  -6  -2   5    4.80    1.60
  -8   7  -5   43.80    4.90
   7   1  -5   46.90    4.30
  -8   7  -5   41.20    4.90
  -7  -1   5   40.70    3.10
   8  -7   5   41.00    4.10
   8  -7   5   42.80    6.70
  -8   8  -5   19.30    3.20
   8   0  -5   18.90    2.40
  -8   8  -5   20.50    2.60
   8  -8   5   23.00    3.90
  -8   0   5   17.80    2.20
   8  -8   5   18.40    2.60
   9  -1  -5  241.38   10.90
   9  -1  -5  226.98   10.00
  -8   9  -5  229.18   10.80
   8  -9   5  208.58   10.60
   8  -9   5  211.08   11.80
   0   9  -5    6.80    1.80
   0  -9   5    7.10    1.50
  -9   1  -5   42.40    2.90
   1   8  -5   43.00    2.80
   1   8  -5   38.00    4.10
  -1  -8   5   35.80    3.30
   2   7  -5   92.19    6.80
  -9   2  -5  107.09    5.70
   2   7  -5  116.79    5.80
  -9   2  -5  108.19    5.20
  -2  -7   5   95.09    6.10
   3   6  -5   15.40    2.90
   3   6  -5   17.00    2.60
  -9   3  -5   16.60    2.60
  -9   3  -5   19.70    2.10
   9  -3   5   16.20    1.80
  -3  -6   5   13.10    2.40
   4   5  -5   10.10    1.90
   4   5  -5    6.90    2.40
  -9   4  -5    8.10    1.70
  -9   4  -5    8.50    1.50
   9  -4   5    9.60    1.70
  -4  -5   5    9.00    2.10
   5   4  -5  133.19    6.90
  -9   5  -5  119.19    6.20
  -9   5  -5  135.99    7.00
  -5  -4   5  131.09    7.10
   9  -5   5  118.19    7.90
   9  -5   5  126.79    6.80
  -9   6  -5  197.48   11.70
  -9   6  -5  237.88   10.70
   6   3  -5  240.38   10.60
   9  -6   5  209.48   11.80
  -6  -3   5  225.68   10.50
   9  -6   5  219.68   10.70
  -9   7  -5   66.29    5.30
  -9   7  -5   93.89    5.10
  -7  -2   5   80.79    4.40
   9  -7   5   80.19    6.30
   9  -7   5   80.19    5.00
  -9   8  -5  124.49    5.90
   8   1  -5  124.39    5.90
  -8  -1   5   98.69    4.90
   9  -8   5  100.99    6.00
   9  -8   5  107.29    7.20
   9   0  -5  106.99    5.20
  -9   9  -5  112.79    5.40
   9  -9   5   94.89    6.30
   9  -9   5   91.29    5.30
   3   7  -5   44.20    2.70
   3   7  -5   35.20    3.60
 -10   3  -5   46.90    2.90
  -3  -7   5   43.80    3.10
 -10   4  -5   49.40    4.00
   4   6  -5   42.40    3.00
 -10   5  -5  246.38   10.90
  10  -5   5  232.68   10.40
  -5  -5   5  236.08   11.30
   6   4  -5   10.60    2.60
  10  -6   5   10.00    1.50
  -6  -4   5    9.90    1.60
 -10   7  -5   19.90    2.00
  10  -7   5   15.00    1.80
  -7  -3   5   17.00    1.60
  10  -7   5   18.40    3.60
   0   0  -6 1125.79   45.40
   0   0   6 1062.99   49.50
   0   1  -6    3.30    1.70
   1  -1  -6    1.90    1.90
   0   1  -6    6.40    2.40
  -1   0  -6    7.50    2.20
   1   0   6    7.40    4.20
   0  -1   6    9.30    4.10
  -1   1   6    9.90    4.50
  -1   1  -6    5.70    1.90
   1   0  -6    5.20    3.20
   1   0  -6   11.10    2.30
  -1   1  -6    5.50    2.30
   0  -1  -6    6.10    1.90
   0   1   6   10.50    6.10
  -1   0   6   11.00    4.40
   1  -1   6   12.60    4.70
   2  -1  -6  474.45   20.60
  -1   2  -6  460.75   20.80
  -1  -1  -6  460.35   19.90
  -1   2  -6  469.75   20.60
   1  -2   6  456.45   19.70
   1  -2   6  482.55   25.00
   1   1   6  450.25   23.40
  -2   1   6  464.85   28.90
  -1   3  -6  778.82   38.20
   3  -2  -6  838.52   35.20
  -1   3  -6  791.12   34.40
  -1   3  -6  840.52   34.40
   1  -3   6  796.12   34.00
   1  -3   6  791.12   38.40
  -3   2   6  821.32   37.20
   0   2  -6   39.70    4.00
   0   2  -6   41.90    4.50
   0   2  -6   38.50    5.80
   2  -2  -6   39.80    4.00
  -2   0  -6   43.20    3.80
   0  -2   6   45.30    8.10
   0  -2   6   44.00    3.30
   2   0   6   51.29    6.90
  -2   2   6   51.29    6.50
   1   1  -6  410.86   22.50
  -2   1  -6  408.06   19.50
   1   1  -6  473.05   20.10
   1  -2  -6  451.35   19.40
   1   1  -6  427.66   19.50
  -2   1  -6  462.75   19.40
   2  -1   6  450.65   24.90
  -1  -1   6  429.96   23.90
  -1   2   6  455.45   22.50
  -2   2  -6  140.99    8.20
  -2   2  -6  156.28    8.40
   2   0  -6  160.88    8.70
   0   2   6  145.69   10.70
   2  -2   6  150.28   17.10
  -2   0   6  154.88   15.00
   3  -1  -6   88.39    6.40
  -1  -2  -6   92.89    5.20
  -2   3  -6   92.59    6.00
  -2   3  -6   90.39    6.10
   2  -3   6   89.19    9.10
  -3   1   6   84.19    8.70
   2  -3   6   91.29    5.50
  -2   4  -6   33.80    3.70
  -2  -2  -6   20.00    2.70
  -2   4  -6   29.70    5.90
   4  -2  -6   25.10    3.30
  -2   4  -6   31.60    4.70
   2  -4   6   32.10    6.00
   2  -4   6   25.70    3.20
  -4   2   6   29.30    4.50
  -2   5  -6  114.89    6.60
  -2   5  -6  113.29    6.60
   5  -3  -6  112.19    6.70
  -2   5  -6  105.49    8.90
  -3  -2  -6  109.59    5.70
   2  -5   6  101.49    6.60
   2  -5   6  116.09    9.70
  -1   4  -6   21.20    3.20
  -1   4  -6   18.00    4.20
  -3  -1  -6   16.60    2.20
   4  -3  -6   15.60    2.50
  -1   4  -6   15.80    2.90
   1  -4   6   22.00    3.10
   1  -4   6   12.90    4.60
   3  -3  -6   61.69    4.80
   0   3  -6   53.19    4.60
   0   3  -6   56.69    5.10
   0   3  -6   51.59    6.40
   0  -3   6   57.09    8.10
  -3   3   6   52.19    6.00
   0  -3   6   53.69    4.30
  -3   1  -6  121.79    7.30
   1   2  -6  135.29    7.50
   1   2  -6  126.29    9.70
  -3   1  -6  131.69    7.10
   2  -3  -6  127.09    7.20
  -2   3   6  137.69    9.20
  -1  -2   6  130.59    6.60
   3  -1   6  122.69   10.00
  -1  -2   6  123.19   11.20
  -3   2  -6  333.67   14.70
   2   1  -6  346.37   15.40
  -3   2  -6  310.67   15.00
   2   1  -6  313.07   14.70
  -2  -1   6  326.87   19.00
  -1   3   6  270.17   18.90
   3  -2   6  315.07   18.10
  -3   3  -6   10.70    2.40
   3   0  -6    8.70    2.80
   3   0  -6    6.40    1.90
  -3   3  -6    8.40    2.10
  -3   0   6    9.60    4.30
   3  -3   6   12.60    4.30
   3  -3   6   13.80    2.00
  -3   4  -6   11.70    4.40
  -3   4  -6   12.40    2.40
   4  -1  -6   13.00    2.60
  -3   4  -6   11.70    2.70
   3  -4   6   14.20    2.40
  -4   1   6   16.10    4.40
   3  -4   6   17.00    4.60
  -3   5  -6   20.10    3.00
  -3   5  -6   18.60    2.80
   5  -2  -6   20.90    2.80
   3  -5   6   18.00    4.70
   3  -5   6   17.20    2.70
   6  -3  -6   83.29    5.40
  -3  -3  -6   76.09    4.30
  -3   6  -6   77.69    5.10
  -3   6  -6   75.29    7.20
   3  -6   6   87.39    7.90
   3  -6   6   77.59    5.30
  -3   7  -6   81.59    6.70
   7  -4  -6   82.59    5.10
  -3   7  -6   86.39    5.00
   3  -7   6   78.59    7.00
   3  -7   6   84.79    5.30
  -2   6  -6  141.69    7.60
  -2   6  -6  151.18    8.40
   6  -4  -6  140.99    7.70
  -4  -2  -6  149.59    7.00
  -2   6  -6  142.89   10.20
   2  -6   6  141.79    9.30
   2  -6   6  158.18   11.20
  -4  -1  -6  116.59    6.10
  -1   5  -6  129.19    7.00
  -1   5  -6  110.39    6.80
  -1   5  -6  121.89    9.40
   1  -5   6  116.99    7.10
   0   4  -6   14.80    3.90
   0   4  -6   24.90    3.40
   0   4  -6   18.60    2.70
  -4   0  -6   21.60    2.90
   0  -4   6   25.70    5.70
   0  -4   6   18.60    3.00
   1   3  -6   60.59    4.50
  -4   1  -6   67.69    4.50
  -4   1  -6   50.09    4.60
   1   3  -6   66.19    5.30
   1   3  -6   57.29    6.20
  -1  -3   6   66.19    8.10
   4  -1   6   59.99    6.90
  -1  -3   6   63.79    4.40
  -4   2  -6   33.30    3.70
  -4   2  -6   35.70    3.80
   2   2  -6   35.80    3.70
   2   2  -6   40.60    5.50
   2   2  -6   29.50    4.50
  -2  -2   6   34.70    6.30
  -2  -2   6   34.80    2.80
   4  -2   6   35.40    5.80
  -4   3  -6  103.89    6.60
   3   1  -6  123.79    7.90
  -4   3  -6  116.79    6.50
   3   1  -6  101.59    6.30
   4  -3   6   94.79    8.80
  -3  -1   6  107.69    9.80
   4  -3   6  109.39    5.70
  -4   4  -6   30.20    3.60
  -4   4  -6   31.80    3.50
   4   0  -6   22.10    3.00
   4   0  -6   28.90    3.70
  -4   0   6   27.80    5.40
   4  -4   6   28.70    5.40
   4  -4   6   29.80    3.00
  -4   5  -6   85.79    8.20
   5  -1  -6   89.29    6.20
  -4   5  -6   94.99    5.70
  -4   5  -6   88.79    5.80
   4  -5   6   78.29    5.50
   4  -5   6   95.39    8.40
  -4   6  -6    8.10    2.40
  -4   6  -6    7.60    1.90
  -4   6  -6    8.10    3.10
   6  -2  -6    7.10    2.20
   4  -6   6   14.50    3.80
   7  -3  -6  116.19    6.40
  -4   7  -6  114.69    6.10
  -4   7  -6  102.69    7.90
   4  -7   6  109.59    8.20
   4  -7   6  113.59    6.40
   8  -4  -6   50.69    4.00
   4  -8   6   59.99    4.40
   4  -8   6   60.39    5.30
  -3   8  -6  345.47   14.10
  -3   8  -6  302.67   15.80
   3  -8   6  323.27   15.60
   3  -8   6  330.47   14.60
  -5  -2  -6  107.39    5.20
   7  -5  -6   96.39    5.50
  -2   7  -6  110.89    5.70
   2  -7   6  108.19    6.20
   2  -7   6  109.69    8.00
  -1   6  -6   51.89    4.30
  -1   6  -6   61.19    4.10
   6  -5  -6   44.00    4.10
  -5  -1  -6   70.19    3.80
  -1   6  -6   58.19    5.90
   1  -6   6   59.49    6.40
   1  -6   6   54.19    4.40
   0   5  -6   64.19    4.40
  -5   0  -6   60.09    4.10
   0   5  -6   52.79    6.20
   0   5  -6   55.49    4.70
   0  -5   6   55.19    4.40
   0  -5   6   56.09    7.00
   1   4  -6   22.30    3.20
  -5   1  -6   20.20    2.50
   1   4  -6   14.80    3.50
   1   4  -6   23.90    3.30
  -5   1  -6   17.80    2.40
  -1  -4   6   25.30    5.40
  -1  -4   6   17.80    2.50
   2   3  -6    8.80    1.90
   2   3  -6    8.50    2.40
  -5   2  -6    7.10    2.00
   2   3  -6    5.90    2.30
  -2  -3   6   14.30    4.30
   5  -2   6    8.00    3.80
  -2  -3   6   10.50    1.90
  -5   3  -6   16.60    2.60
  -5   3  -6   23.20    3.10
   3   2  -6   18.00    2.60
   3   2  -6   19.00    2.90
  -3  -2   6   23.90    5.30
   5  -3   6   20.00    4.40
   5  -3   6   16.50    2.00
  -5   4  -6   23.40    3.10
   4   1  -6   20.30    2.80
  -5   4  -6   19.80    2.70
   4   1  -6   23.10    3.20
   5  -4   6   22.90    4.60
   5  -4   6   25.10    2.50
  -4  -1   6   21.30    4.40
  -5   5  -6  110.89    6.30
  -5   5  -6  114.09    9.30
   5   0  -6  117.09    7.00
  -5   5  -6  112.29    6.70
   5   0  -6  105.39    6.00
   5  -5   6  106.39    6.70
   5  -5   6  114.49    8.70
  -5   6  -6   22.40    2.90
  -5   6  -6   24.00    4.60
  -5   6  -6   22.40    2.90
   6  -1  -6   16.70    2.60
   5  -6   6   21.90    4.50
   5  -6   6   21.50    2.70
   7  -2  -6    9.20    2.00
  -5   7  -6   14.90    2.30
  -5   7  -6   11.40    2.80
   5  -7   6   13.20    2.10
   5  -7   6   14.30    3.50
  -5   8  -6  113.19    5.90
   8  -3  -6  126.29    5.90
  -5   8  -6  100.19    6.90
   5  -8   6  122.19    7.70
   5  -8   6  116.09    6.00
  -2   8  -6   54.69    4.30
  -2   8  -6   68.79    3.60
   2  -8   6   61.49    3.80
  -1   7  -6   30.90    2.80
  -6  -1  -6   35.10    2.50
  -1   7  -6   30.70    3.70
   1  -7   6   28.10    2.90
   1  -7   6   31.90    4.30
   0   6  -6    9.70    2.60
  -6   0  -6    9.90    1.60
   0   6  -6    9.50    1.80
   0  -6   6   13.40    3.50
   0  -6   6    7.40    1.90
  -6   1  -6  414.66   17.40
   1   5  -6  333.17   18.60
   1   5  -6  423.96   17.40
   1   5  -6  408.46   17.30
  -1  -5   6  365.16   19.70
  -1  -5   6  397.06   17.40
  -6   2  -6   93.79    5.30
   2   4  -6   81.29    6.30
  -6   2  -6   92.89    5.40
   2   4  -6   96.29    5.90
  -2  -4   6   94.59    5.40
  -2  -4   6   90.19    9.40
  -6   3  -6   99.19    5.40
   3   3  -6   96.79    6.20
  -6   3  -6   83.89    5.60
  -3  -3   6   85.49    7.80
  -3  -3   6   88.79    4.90
   6  -3   6   84.59    7.30
  -6   4  -6   39.10    3.60
   4   2  -6   41.60    3.50
   4   2  -6   42.80    4.40
  -6   4  -6   37.40    3.70
   6  -4   6   40.90    2.80
  -4  -2   6   37.00    5.60
   6  -4   6   47.30    5.50
   5   1  -6    0.70    1.30
   5   1  -6    3.30    2.00
  -6   5  -6   -0.10    1.80
  -6   5  -6    1.20    1.30
   6  -5   6    2.90    2.60
   6  -5   6    2.00    1.20
  -6   6  -6    7.60    1.70
  -6   6  -6   11.10    3.10
   6   0  -6    9.60    1.70
   6   0  -6    9.20    2.20
  -6   6  -6    9.80    1.80
   6  -6   6   11.40    3.30
   6  -6   6    9.80    1.70
  -6   7  -6   38.60    4.30
   7  -1  -6   43.40    3.60
  -6   7  -6   40.10    3.10
   7  -1  -6   39.80    2.80
   6  -7   6   33.50    2.90
   6  -7   6   36.60    4.70
  -6   8  -6  158.58    8.70
  -6   8  -6  177.28    7.60
   6  -8   6  168.88    9.50
   6  -8   6  162.48    7.80
   0   7  -6   28.80    3.10
   0   7  -6   31.80    2.60
  -7   0  -6   30.90    2.30
   0  -7   6   29.20    2.60
  -7   1  -6   49.80    3.00
   1   6  -6   39.10    3.90
   1   6  -6   49.40    3.40
  -1  -6   6   46.10    3.30
  -1  -6   6   39.80    4.20
   2   5  -6   95.59    6.60
   2   5  -6  122.69    6.10
  -7   2  -6  114.79    6.40
  -7   2  -6  123.59    5.80
  -2  -5   6  107.39    7.30
  -2  -5   6  111.09    5.90
  -7   3  -6  190.78    8.90
  -7   3  -6  189.98    8.50
   3   4  -6  186.28    8.70
   3   4  -6  182.58    8.80
  -3  -4   6  161.68    9.80
  -3  -4   6  164.38    8.30
   4   3  -6  542.25   23.30
  -7   4  -6  579.14   23.50
  -7   4  -6  561.94   22.90
   4   3  -6  565.74   23.30
   7  -4   6  485.15   24.30
  -4  -3   6  557.04   24.70
  -7   5  -6    8.10    1.70
  -7   5  -6    9.40    1.70
   5   2  -6   12.20    2.10
   5   2  -6   10.20    1.80
   7  -5   6   12.40    1.90
   7  -5   6   12.70    3.20
   6   1  -6  196.88    8.90
  -7   6  -6  166.88   10.10
  -7   6  -6  191.38    8.80
   7  -6   6  174.38    8.90
   7  -6   6  177.78   10.20
   7   0  -6   34.20    2.50
  -7   7  -6   31.80    3.50
   7   0  -6   33.90    3.30
  -7   7  -6   37.70    3.20
   7  -7   6   31.00    4.20
   7  -7   6   30.30    2.40
   2   6  -6   38.90    2.70
  -2  -6   6   39.40    2.50
  -8   3  -6  213.98    9.30
   3   5  -6  219.68   10.20
  -3  -5   6  187.38    8.90
  -8   4  -6  332.07   14.40
   5   3  -6  174.98    7.80
  -8   5  -6  178.28    7.90
  -8   5  -6  140.59    8.80
  -8   6  -6   33.30    2.40
  -8   6  -6   28.00    3.00
   8  -6   6   28.80    3.30
   0   0  -7   -1.60    1.50
   0   0   7    4.20    2.40
  -1   0  -7   31.30    3.90
   0   1  -7   39.40    3.70
   1  -1  -7   33.80    3.60
  -1   0  -7   39.30    3.40
  -1   1   7   36.10    4.00
   0  -1   7   34.90    4.90
   1   0   7   40.20    5.70
   0  -1  -7   23.70    2.90
  -1   1  -7   17.60    2.40
   1   0  -7   16.50    2.40
  -1   1  -7   17.10    3.70
  -1   0   7   16.40    3.60
   1  -1   7   17.00    3.50
   0   1   7   15.20    2.80
  -1   2  -7   33.20    2.80
  -1   2  -7   37.30    4.70
   2  -1  -7   38.60    3.60
  -1  -1  -7   33.50    3.10
  -2   1   7   40.40    4.20
   1  -2   7   36.70    4.90
  -1   3  -7  248.78   11.00
  -1   3  -7  264.07   11.50
  -1   3  -7  219.18   12.80
   3  -2  -7  267.17   11.60
   1  -3   7  244.18   13.70
  -2   0  -7   72.29    4.30
   0   2  -7   73.19    4.80
   0   2  -7   67.99    3.90
  -2   0  -7   64.09    6.40
   0   2  -7   62.39    5.00
   0  -2   7   72.79    6.50
  -2   1  -7  207.38    9.50
   1  -2  -7  202.48   10.20
   1   1  -7  219.18    9.90
  -2   1  -7  187.68   11.20
  -1  -1   7  197.48   11.40
   2  -1   7  183.58   12.70
  -2   2  -7   89.79    6.70
   0  -2  -7   93.29    5.20
   2   0  -7  112.19    5.90
  -2   2  -7   94.99    4.80
  -2   2  -7   85.69    6.80
   2  -2   7   87.19    7.20
  -2   0   7   99.19    6.80
  -2   3  -7  241.78   13.20
   3  -1  -7  260.47   11.40
  -2   3  -7  244.48   11.10
  -2   3  -7  267.77   11.60
   2  -3   7  243.68   13.70
  -2   4  -7   98.19    5.10
  -2   4  -7   91.49    6.60
  -2   4  -7  104.59    5.60
   2  -4   7  115.09    7.80
  -2   5  -7   16.30    1.80
  -2   5  -7   14.00    2.40
   2  -5   7   15.00    3.20
  -1   4  -7    1.40    0.90
  -1   4  -7    1.80    1.60
   1  -4   7    1.00    2.40
   0   3  -7   78.19    4.40
   0   3  -7   73.49    5.30
  -3   0  -7   84.99    4.50
   0   3  -7   86.89    5.00
   0  -3   7   88.49    6.90
  -3   1  -7   38.00    3.20
   1   2  -7   42.60    3.80
   1   2  -7   37.00    2.80
  -1  -2   7   44.70    5.00
   2   1  -7  119.09    6.10
  -3   2  -7   98.49    7.30
   3  -2   7   98.19    7.00
  -2  -1   7   96.19    7.10
  -3   3  -7  126.79    6.40
  -3   3  -7  149.59    7.00
  -3   3  -7  126.69    8.50
   3   0  -7  142.89    7.00
   3  -3   7  122.29    9.10
  -3   4  -7   69.69    3.80
   4  -1  -7   68.09    4.30
  -3   4  -7   62.89    5.90
  -3   5  -7   16.40    1.70
  -3   5  -7   13.70    2.50
   3  -5   7   17.10    3.10
  -1   5  -7   58.79    3.20
   1  -5   7   51.19    4.60
   0   4  -7   21.80    2.10
   0  -4   7   15.80    3.80
   1   3  -7  141.39    7.60
   1   3  -7  132.09    6.40
  -1  -3   7  132.49    8.40
  -4   2  -7  169.98    7.90
  -4   2  -7  149.09   10.40
   2   2  -7  174.78    8.20
  -2  -2   7  171.38    9.50
  -4   3  -7   26.00    4.30
   3   1  -7   29.80    3.10
  -4   3  -7   32.40    2.90
  -3  -1   7   28.20    3.60
   4  -3   7   29.10    3.70
  -4   4  -7   20.50    2.00
  -4   4  -7   17.00    2.90
   4   0  -7   26.20    3.00
  -4   4  -7   22.90    2.50
   4  -4   7   17.50    3.40
  -4   5  -7   71.29    4.00
  -4   5  -7   66.69    4.80
   4  -5   7   58.39    5.00
  -1  -4   7   50.09    4.00
   2   3  -7   66.89    4.00
  -5   2  -7   51.99    4.60
  -2  -3   7   58.89    4.40
  -5   3  -7  131.49    7.80
   0   0   0    0.00    0.00

_computing_structure_solution     'SHELXT 2014/5 (Sheldrick, 2014)'
;
_shelx_hkl_checksum              69246
_olex2_submission_special_instructions 'No special instructions were received'
loop_
_space_group_symop_operation_xyz
'x, y, z'
'-y, x-y, z+2/3'
'-x+y, -x, z+1/3'
loop_
_atom_site_label
_atom_site_type_symbol
_atom_site_fract_x
_atom_site_fract_y
_atom_site_fract_z
_atom_site_U_iso_or_equiv
_atom_site_adp_type
_atom_site_occupancy
_atom_site_site_symmetry_order
_atom_site_calc_flag
_atom_site_refinement_flags_posn
O1 O 0.56275(13) 0.23754(13) 0.5480(2) 0.0217(3) Uani 1 1 d .
H1 H 0.595(3) 0.304(3) 0.642(5) 0.039(7) Uiso 1 1 d .
O2 O 0.10271(13) 0.07908(14) 0.6996(2) 0.0271(3) Uani 1 1 d .
H2 H 0.072(3) 0.022(3) 0.806(5) 0.037(7) Uiso 1 1 d .
C1 C 0.41500(18) 0.18047(18) 0.5355(3) 0.0197(4) Uani 1 1 d .
C2 C 0.34625(19) 0.1444(2) 0.7651(3) 0.0226(4) Uani 1 1 d .
H2A H 0.302981 0.044019 0.792872 0.027 Uiso 1 1 calc R
H2B H 0.415998 0.194277 0.880387 0.027 Uiso 1 1 calc R
C3 C 0.23592(18) 0.18862(18) 0.7664(3) 0.0222(4) Uani 1 1 d .
H3 H 0.231134 0.226628 0.912286 0.027 Uiso 1 1 calc R
C4 C 0.25099(19) 0.3992(2) 0.5532(3) 0.0259(4) Uani 1 1 d .
H4 H 0.188350 0.408160 0.647491 0.031 Uiso 1 1 calc R
C5 C 0.3084(2) 0.4862(2) 0.3738(4) 0.0292(4) Uani 1 1 d .
H5 H 0.285144 0.555692 0.345926 0.035 Uiso 1 1 calc R
C6 C 0.39964(19) 0.47279(19) 0.2346(3) 0.0255(4) Uani 1 1 d .
H6 H 0.435687 0.531146 0.110189 0.031 Uiso 1 1 calc R
C7 C 0.43829(18) 0.37480(18) 0.2761(3) 0.0210(4) Uani 1 1 d .
H7 H 0.501994 0.366642 0.183290 0.025 Uiso 1 1 calc R
C1' C 0.3609(2) 0.05659(19) 0.3824(3) 0.0260(4) Uani 1 1 d .
H1'A H 0.403404 0.087091 0.237774 0.039 Uiso 1 1 calc GR
H1'B H 0.260462 0.013642 0.369099 0.039 Uiso 1 1 calc GR
H1'C H 0.384113 -0.010648 0.442003 0.039 Uiso 1 1 calc GR
C3A C 0.28729(17) 0.29871(18) 0.5916(3) 0.0211(4) Uani 1 1 d .
C7A C 0.38186(18) 0.28920(17) 0.4561(3) 0.0187(4) Uani 1 1 d .
loop_
_atom_site_aniso_label
_atom_site_aniso_U_11
_atom_site_aniso_U_22
_atom_site_aniso_U_33
_atom_site_aniso_U_23
_atom_site_aniso_U_13
_atom_site_aniso_U_12
O1 0.0202(6) 0.0258(6) 0.0216(6) -0.0010(5) -0.0010(5) 0.0135(5)
O2 0.0188(6) 0.0280(7) 0.0247(6) 0.0082(6) -0.0022(5) 0.0042(5)
C1 0.0204(8) 0.0205(8) 0.0185(8) 0.0016(6) -0.0010(6) 0.0104(7)
C2 0.0223(9) 0.0253(9) 0.0194(8) 0.0027(6) -0.0014(6) 0.0113(7)
C3 0.0183(8) 0.0242(9) 0.0202(8) 0.0002(7) -0.0018(7) 0.0077(7)
C4 0.0196(8) 0.0257(9) 0.0342(10) 0.0023(7) 0.0057(8) 0.0127(8)
C5 0.0243(9) 0.0237(9) 0.0436(11) 0.0072(8) 0.0057(8) 0.0149(8)
C6 0.0226(9) 0.0221(9) 0.0299(9) 0.0087(7) 0.0031(7) 0.0097(7)
C7 0.0189(8) 0.0208(8) 0.0225(9) 0.0006(6) 0.0010(6) 0.0093(7)
C1' 0.0324(10) 0.0211(9) 0.0246(9) -0.0018(7) -0.0037(7) 0.0134(8)
C3A 0.0160(8) 0.0214(8) 0.0226(8) -0.0005(7) -0.0004(6) 0.0070(7)
C7A 0.0186(8) 0.0183(8) 0.0187(8) -0.0014(6) -0.0033(6) 0.0090(7)
loop_
_atom_type_symbol
_atom_type_description
_atom_type_scat_dispersion_real
_atom_type_scat_dispersion_imag
_atom_type_scat_source
C C 0.0181 0.0091 'International Tables Vol C Tables 4.2.6.8 and 6.1.1.4'
H H 0.0000 0.0000 'International Tables Vol C Tables 4.2.6.8 and 6.1.1.4'
O O 0.0492 0.0322 'International Tables Vol C Tables 4.2.6.8 and 6.1.1.4'
loop_
_geom_angle_atom_site_label_1
_geom_angle_atom_site_label_2
_geom_angle_atom_site_label_3
_geom_angle
C1 O1 H1 107.9(19)
C3 O2 H2 106.2(18)
O1 C1 C2 112.06(14)
O1 C1 C1' 106.27(15)
O1 C1 C7A 110.27(14)
C1' C1 C2 113.44(15)
C7A C1 C2 102.08(14)
C7A C1 C1' 112.83(14)
C1 C2 H2A 110.3
C1 C2 H2B 110.3
H2A C2 H2B 108.6
C3 C2 C1 107.03(14)
C3 C2 H2A 110.3
C3 C2 H2B 110.3
O2 C3 C2 112.35(15)
O2 C3 H3 111.2
O2 C3 C3A 107.74(14)
C2 C3 H3 111.2
C3A C3 C2 102.65(14)
C3A C3 H3 111.2
C5 C4 H4 120.7
C5 C4 C3A 118.59(16)
C3A C4 H4 120.7
C4 C5 H5 119.6
C4 C5 C6 120.79(17)
C6 C5 H5 119.6
C5 C6 H6 119.7
C7 C6 C5 120.54(18)
C7 C6 H6 119.7
C6 C7 H7 120.8
C7A C7 C6 118.47(16)
C7A C7 H7 120.8
C1 C1' H1'A 109.5
C1 C1' H1'B 109.5
C1 C1' H1'C 109.5
H1'A C1' H1'B 109.5
H1'A C1' H1'C 109.5
H1'B C1' H1'C 109.5
C4 C3A C3 129.20(16)
C7A C3A C3 110.66(15)
C7A C3A C4 120.14(16)
C7 C7A C1 126.73(16)
C7 C7A C3A 121.42(16)
C3A C7A C1 111.82(16)
loop_
_geom_bond_atom_site_label_1
_geom_bond_atom_site_label_2
_geom_bond_distance
O1 H1 0.86(3)
O1 C1 1.446(2)
O2 H2 0.85(3)
O2 C3 1.436(2)
C1 C2 1.552(2)
C1 C1' 1.524(2)
C1 C7A 1.517(2)
C2 H2A 0.9900
C2 H2B 0.9900
C2 C3 1.542(2)
C3 H3 1.0000
C3 C3A 1.509(2)
C4 H4 0.9500
C4 C5 1.391(3)
C4 C3A 1.393(3)
C5 H5 0.9500
C5 C6 1.393(3)
C6 H6 0.9500
C6 C7 1.388(3)
C7 H7 0.9500
C7 C7A 1.385(2)
C1' H1'A 0.9800
C1' H1'B 0.9800
C1' H1'C 0.9800
C3A C7A 1.389(2)
loop_
_geom_hbond_atom_site_label_D
_geom_hbond_atom_site_label_H
_geom_hbond_atom_site_label_A
_geom_hbond_distance_DH
_geom_hbond_distance_HA
_geom_hbond_distance_DA
_geom_hbond_angle_DHA
_geom_hbond_site_symmetry_A
O1 H1 O1 0.86(3) 1.95(3) 2.8115(15) 171(3) 3_665
O2 H2 O2 0.85(3) 1.88(3) 2.7206(15) 170(3) 3
