#------------------------------------------------------------------------------
#$Date: 2017-11-07 02:47:35 +0200 (Tue, 07 Nov 2017) $
#$Revision: 202703 $
#$URL: file:///home/coder/svn-repositories/cod/cif/4/03/28/4032851.cif $
#------------------------------------------------------------------------------
#
# This file is available in the Crystallography Open Database (COD),
# http://www.crystallography.net/
#
# All data on this site have been placed in the public domain by the
# contributors.
#
data_4032851
loop_
_publ_author_name
'Dolfen, Jeroen'
'Boydas, Esma Birsen'
'Van Speybroeck, Veronique'
'Catak, Saron'
'Van Hecke, Kristof'
'D'hooghe, Matthias'
_publ_section_title
;
 Asymmetric Synthesis of 3,4-Disubstituted 2-(Trifluoromethyl)pyrrolidines
 through Rearrangement of Chiral
 2-(2,2,2-Trifluoro-1-hydroxyethyl)azetidines.
;
_journal_issue                   19
_journal_name_full               'The Journal of organic chemistry'
_journal_page_first              10092
_journal_page_last               10109
_journal_paper_doi               10.1021/acs.joc.7b01241
_journal_volume                  82
_journal_year                    2017
_chemical_absolute_configuration ad
_chemical_formula_moiety         'C14 H16 F3 N O3'
_chemical_formula_sum            'C14 H16 F3 N O3'
_chemical_formula_weight         303.28
_chemical_name_systematic
;
 ?
;
_space_group_crystal_system      monoclinic
_space_group_IT_number           4
_space_group_name_Hall           'P 2yb'
_space_group_name_H-M_alt        'P 1 21 1'
_symmetry_space_group_name_Hall  'P 2yb'
_symmetry_space_group_name_H-M   'P 1 21 1'
_atom_sites_solution_hydrogens   geom
_atom_sites_solution_primary     direct
_audit_creation_date             2016-05-26
_audit_creation_method
;
Olex2 1.2
(compiled Feb 16 2016 13:09:46 for OlexSys, GUI svn.r5155)
;
_cell_angle_alpha                90
_cell_angle_beta                 98.240(6)
_cell_angle_gamma                90
_cell_formula_units_Z            2
_cell_length_a                   5.9265(3)
_cell_length_b                   11.8003(6)
_cell_length_c                   10.0928(6)
_cell_measurement_reflns_used    3315
_cell_measurement_temperature    100.0(1)
_cell_measurement_theta_max      75.1520
_cell_measurement_theta_min      4.4080
_cell_volume                     698.55(7)
_computing_cell_refinement       'CrysAlisPro 1.171.38.41 (Rigaku OD, 2015)'
_computing_data_collection       'CrysAlisPro 1.171.38.41 (Rigaku OD, 2015)'
_computing_data_reduction        'CrysAlisPro 1.171.38.41 (Rigaku OD, 2015)'
_computing_molecular_graphics    'Olex2 (Dolomanov et al., 2009)'
_computing_publication_material  'Olex2 (Dolomanov et al., 2009)'
_computing_structure_refinement  'ShelXL (Sheldrick, 2015)'
_computing_structure_solution    'ShelXS (Sheldrick, 2008)'
_diffrn_ambient_environment      N~2~
_diffrn_ambient_temperature      100.0(1)
_diffrn_detector                 'CCD plate'
_diffrn_detector_area_resol_mean 10.4839
_diffrn_detector_type            Atlas
_diffrn_measured_fraction_theta_full 0.999
_diffrn_measured_fraction_theta_max 0.962
_diffrn_measurement_details
;
List of Runs (angles in degrees, time in seconds):

  # Type    Start    End  Width  t~exp~   \w     \q     \k     \f   Frames
--------------------------------------------------------------------------
  1  \w   -116.00 -17.00   1.00    1.00    --  -41.55 -39.00-141.00   99
  2  \w    -66.00  33.00   1.00    1.00    --  -41.55  39.00  13.00   99
  3  \w    -33.00  66.00   1.00    1.00    --   41.55 -39.00-141.00   99
  4  \w     17.00 116.00   1.00    1.00    --   41.55  39.00  13.00   99
  5  \w     86.00 178.00   1.00    4.00    --  110.38  39.00  13.00   92
  6  \w     36.00 135.00   1.00    4.00    --  110.38 -39.00-141.00   99
  7  \w    -96.00  -2.00   1.00    1.00    --  -41.55 125.00-180.00   94
  8  \w     23.00  98.00   1.00    1.00    --   41.55-125.00  90.00   75
  9  \w     37.00 136.00   1.00    4.00    --  110.38 -45.00 120.00   99
 10  \w     37.00 121.00   1.00    4.00    --  110.38-125.00  60.00   84
 11  \w     94.00 178.00   1.00    4.00    --  110.38 125.00 -90.00   84
 12  \w     28.00 109.00   1.00    4.00    --  110.38 -94.00-120.00   81
 13  \w     37.00 121.00   1.00    4.00    --  110.38-125.00-150.00   84
 14  \w   -118.00  -9.00   1.00    1.00    --  -41.55 -77.00  60.00  109
 15  \w   -114.00 -13.00   1.00    1.00    --  -41.55 -57.00 120.00  101
 16  \w   -118.00  -9.00   1.00    1.00    --  -41.55 -77.00-120.00  109
 17  \w   -118.00  -9.00   1.00    1.00    --  -41.55 -77.00 -30.00  109
 18  \w    -33.00  62.00   1.00    1.00    --   41.55 -38.00  90.00   95
 19  \w    -33.00  66.00   1.00    1.00    --   41.55 -38.00  60.00   99
;
_diffrn_measurement_device       'four-circle diffractometer'
_diffrn_measurement_device_type  'SuperNova, Dual, Cu at zero, Atlas'
_diffrn_measurement_method       '\w scans'
_diffrn_orient_matrix_type
'CrysAlisPro convention (1999,Acta A55,543-557)'
_diffrn_orient_matrix_UB_11      -0.2242026000
_diffrn_orient_matrix_UB_12      0.0283394000
_diffrn_orient_matrix_UB_13      -0.0910896000
_diffrn_orient_matrix_UB_21      0.0899051000
_diffrn_orient_matrix_UB_22      -0.0590566000
_diffrn_orient_matrix_UB_23      -0.1181620000
_diffrn_orient_matrix_UB_31      -0.1030003000
_diffrn_orient_matrix_UB_32      -0.1129611000
_diffrn_orient_matrix_UB_33      0.0390387000
_diffrn_radiation_monochromator  mirror
_diffrn_radiation_probe          x-ray
_diffrn_radiation_type           CuK\a
_diffrn_radiation_wavelength     1.54184
_diffrn_reflns_av_R_equivalents  0.0509
_diffrn_reflns_av_unetI/netI     0.0444
_diffrn_reflns_Laue_measured_fraction_full 0.999
_diffrn_reflns_Laue_measured_fraction_max 0.962
_diffrn_reflns_limit_h_max       7
_diffrn_reflns_limit_h_min       -7
_diffrn_reflns_limit_k_max       10
_diffrn_reflns_limit_k_min       -14
_diffrn_reflns_limit_l_max       12
_diffrn_reflns_limit_l_min       -9
_diffrn_reflns_number            6823
_diffrn_reflns_point_group_measured_fraction_full 0.817
_diffrn_reflns_point_group_measured_fraction_max 0.768
_diffrn_reflns_theta_full        67.684
_diffrn_reflns_theta_max         75.949
_diffrn_reflns_theta_min         4.426
_diffrn_source                   'micro-focus sealed X-ray tube'
_diffrn_source_type              'SuperNova (Cu) X-ray Source'
_exptl_absorpt_coefficient_mu    1.102
_exptl_absorpt_correction_T_max  0.963
_exptl_absorpt_correction_T_min  0.807
_exptl_absorpt_correction_type   gaussian
_exptl_absorpt_process_details
;
CrysAlisPro 1.171.38.41 (Rigaku Oxford Diffraction, 2015)
Numerical absorption correction based on gaussian integration over
            a multifaceted crystal model
Empirical absorption correction using spherical harmonics,
 implemented in SCALE3 ABSPACK scaling algorithm.
;
_exptl_crystal_colour            'clear colourless'
_exptl_crystal_colour_lustre     clear
_exptl_crystal_colour_primary    colourless
_exptl_crystal_density_diffrn    1.442
_exptl_crystal_description       plate
_exptl_crystal_F_000             316
_exptl_crystal_size_max          0.405
_exptl_crystal_size_mid          0.199
_exptl_crystal_size_min          0.048
_refine_diff_density_max         0.204
_refine_diff_density_min         -0.265
_refine_diff_density_rms         0.055
_refine_ls_abs_structure_details
;
 Flack x determined using 644 quotients [(I+)-(I-)]/[(I+)+(I-)]
 (Parsons and Flack (2004), Acta Cryst. A60, s61).
;
_refine_ls_abs_structure_Flack   -0.06(15)
_refine_ls_extinction_method     none
_refine_ls_goodness_of_fit_ref   1.062
_refine_ls_hydrogen_treatment    constr
_refine_ls_matrix_type           full
_refine_ls_number_parameters     193
_refine_ls_number_reflns         2254
_refine_ls_number_restraints     1
_refine_ls_restrained_S_all      1.062
_refine_ls_R_factor_all          0.0497
_refine_ls_R_factor_gt           0.0436
_refine_ls_shift/su_max          0.000
_refine_ls_shift/su_mean         0.000
_refine_ls_structure_factor_coef Fsqd
_refine_ls_weighting_details
'w=1/[\s^2^(Fo^2^)+(0.0718P)^2^+0.0400P] where P=(Fo^2^+2Fc^2^)/3'
_refine_ls_weighting_scheme      calc
_refine_ls_wR_factor_gt          0.1134
_refine_ls_wR_factor_ref         0.1192
_reflns_Friedel_coverage         0.520
_reflns_Friedel_fraction_full    0.615
_reflns_Friedel_fraction_max     0.553
_reflns_number_gt                2001
_reflns_number_total             2254
_reflns_threshold_expression     'I > 2\s(I)'
_cod_data_source_file            jo7b01241_si_001.cif
_cod_data_source_block           mdh024
_cod_depositor_comments
'Adding full bibliography for 4032851--4032855.cif.'
_cod_database_code               4032851
_shelxl_version_number           2013-4
_chemical_oxdiff_formula         'C14 H16 F3 N O3'
_chemical_oxdiff_usercomment     JD525
_shelx_space_group_comment
;
The symmetry employed for this shelxl refinement is uniquely defined
by the following loop, which should always be used as a source of
symmetry information in preference to the above space-group names.
They are only intended as comments.
;
_reflns_odcompleteness_completeness 99.92
_reflns_odcompleteness_iscentric 1
_reflns_odcompleteness_theta     66.97
_olex2_refinement_description
;
1. Fixed Uiso
 At 1.2 times of:
  All C(H) groups
 At 1.5 times of:
  All C(H,H,H) groups, All O(H) groups
2.a Ternary CH refined with riding coordinates:
 C1(H1A), C3(H3), C4(H4), C6(H6)
2.b Aromatic/amide H refined with riding coordinates:
 C10(H10), C11(H11), C12(H12), C13(H13), C14(H14)
2.c Idealised Me refined as rotating group:
 C7(H7A,H7B,H7C), C8(H8A,H8B,H8C)
2.d Idealised tetrahedral OH refined as rotating group:
 O1(H1)
;
_shelx_res_file
;
TITL MDH024 in P21 #4
REM reset to P21 #4
CELL 1.54184 5.926475 11.800324 10.092795 90 98.2401 90
ZERR 2 0.000327 0.000567 0.00063 0 0.0056 0
LATT -1
SYMM -X,0.5+Y,-Z
SFAC C H F N O
UNIT 28 32 6 2 6

L.S. 20
PLAN  20
TEMP -173.15
BOND
MORE -1
BOND $H
CONF
fmap 2
acta
OMIT 6 -4 5
REM <olex2.extras>
REM <HklSrc "%">
REM </olex2.extras>

WGHT    0.071800    0.040000
FVAR      14.30171
F1    3    0.477519    0.042363    0.754157    11.00000    0.04889    0.04051 =
         0.04322   -0.00948    0.01841   -0.01001
F2    3    0.245451   -0.011068    0.581735    11.00000    0.01837    0.03647 =
         0.05397    0.01039    0.00649    0.00382
F3    3    0.457559   -0.133951    0.697067    11.00000    0.03522    0.02702 =
         0.05100    0.01411    0.00901    0.00007
O1    5    0.591320   -0.085612    0.451386    11.00000    0.02401    0.01830 =
         0.03584   -0.00105    0.00104   -0.00039
AFIX 147
H1    2    0.677154   -0.142456    0.463253    11.00000   -1.50000
AFIX   0
O2    5    1.125987    0.243623    0.475005    11.00000    0.02288    0.02294 =
         0.05055   -0.00219    0.00748   -0.00596
O3    5    0.902870    0.156285    0.727614    11.00000    0.02847    0.02389 =
         0.03131   -0.00420   -0.00297    0.00642
N1    4    0.810173    0.126999    0.414717    11.00000    0.01740    0.01855 =
         0.03142    0.00174    0.00223   -0.00197
C1    1    0.645855    0.110082    0.510662    11.00000    0.01295    0.01811 =
         0.03124    0.00096    0.00257   -0.00098
AFIX  13
H1A   2    0.490692    0.140218    0.476515    11.00000   -1.20000
AFIX   0
C2    1    0.949128    0.196928    0.492800    11.00000    0.01885    0.01426 =
         0.03775    0.00195   -0.00086   -0.00073
C3    1    0.795009    0.196794    0.602954    11.00000    0.01943    0.01884 =
         0.03210   -0.00089   -0.00191    0.00054
AFIX  13
H3    2    0.716191    0.270963    0.610429    11.00000   -1.20000
AFIX   0
C4    1    0.639646   -0.011368    0.561302    11.00000    0.01780    0.01851 =
         0.03219    0.00083    0.00137    0.00043
AFIX  13
H4    2    0.790731   -0.031257    0.613606    11.00000   -1.20000
AFIX   0
C5    1    0.453596   -0.027617    0.648287    11.00000    0.02468    0.02096 =
         0.03406    0.00479    0.00517   -0.00213
C6    1    0.814454    0.101430    0.272563    11.00000    0.03778    0.02552 =
         0.03030    0.00273    0.00351   -0.00588
AFIX  13
H6    2    0.890062    0.166829    0.233764    11.00000   -1.20000
AFIX   0
C7    1    0.572751    0.093859    0.198210    11.00000    0.04845    0.02731 =
         0.03469   -0.00010   -0.00464    0.00076
AFIX 137
H7A   2    0.497459    0.026554    0.228222    11.00000   -1.50000
H7B   2    0.577753    0.088375    0.101788    11.00000   -1.50000
H7C   2    0.487359    0.161772    0.216728    11.00000   -1.50000
AFIX   0
C8    1    0.955269   -0.003152    0.254275    11.00000    0.03161    0.04053 =
         0.04097   -0.00602    0.01222   -0.00032
AFIX 137
H8A   2    1.106167    0.004455    0.307708    11.00000   -1.50000
H8B   2    0.972102   -0.011287    0.159556    11.00000   -1.50000
H8C   2    0.878579   -0.070237    0.283737    11.00000   -1.50000
AFIX   0
C9    1    0.889741    0.222900    0.840284    11.00000    0.02720    0.01918 =
         0.02912    0.00168    0.00221   -0.00150
C10   1    1.084824    0.227352    0.933626    11.00000    0.02479    0.02832 =
         0.03123    0.00211    0.00054    0.00239
AFIX  43
H10   2    1.216720    0.185672    0.920031    11.00000   -1.20000
AFIX   0
C11   1    1.085289    0.293429    1.047237    11.00000    0.03051    0.03450 =
         0.03227    0.00034   -0.00305    0.00139
AFIX  43
H11   2    1.218489    0.296627    1.111868    11.00000   -1.20000
AFIX   0
C12   1    0.894553    0.354725    1.067748    11.00000    0.04056    0.02858 =
         0.02586    0.00337    0.00389    0.00045
AFIX  43
H12   2    0.897658    0.401762    1.144377    11.00000   -1.20000
AFIX   0
C13   1    0.698357    0.346609    0.974824    11.00000    0.02960    0.02739 =
         0.03746    0.00458    0.01125    0.00552
AFIX  43
H13   2    0.565045    0.386440    0.989854    11.00000   -1.20000
AFIX   0
C14   1    0.694329    0.281091    0.860256    11.00000    0.02255    0.02864 =
         0.03247    0.00216   -0.00012    0.00274
AFIX  43
H14   2    0.559986    0.276238    0.796678    11.00000   -1.20000
AFIX   0
HKLF 4

REM  MDH024 in P21 #4
REM R1 =  0.0436 for    2001 Fo > 4sig(Fo)  and  0.0497 for all    2254 data
REM    193 parameters refined using      1 restraints

END

WGHT      0.0718      0.0400

REM Highest difference peak  0.204,  deepest hole -0.265,  1-sigma level  0.055
Q1    1   0.4311 -0.1353  0.4434  11.00000  0.05    0.20
Q2    1   0.4561  0.1409  0.7437  11.00000  0.05    0.20
Q3    1   0.8884  0.0508  0.7209  11.00000  0.05    0.20
Q4    1   1.2662  0.3397  1.0726  11.00000  0.05    0.20
Q5    1   0.6149  0.1479 -0.0404  11.00000  0.05    0.19
Q6    1   1.2663  0.1678  0.4892  11.00000  0.05    0.18
Q7    1   0.6201  0.1052  0.7666  11.00000  0.05    0.18
Q8    1   0.2428  0.0995  0.5963  11.00000  0.05    0.18
Q9    1   1.0191  0.2609  0.2622  11.00000  0.05    0.18
Q10   1   0.5261  0.2223  0.8338  11.00000  0.05    0.17
Q11   1   0.5675  0.1961  0.2128  11.00000  0.05    0.17
Q12   1   0.7908 -0.0652  0.7800  11.00000  0.05    0.17
Q13   1   0.4428 -0.2429  0.7049  11.00000  0.05    0.17
Q14   1   1.1185  0.1112  0.1375  11.00000  0.05    0.16
Q15   1   0.4515  0.4644  1.1044  11.00000  0.05    0.16
Q16   1   0.8537 -0.1742  0.2317  11.00000  0.05    0.16
Q17   1   0.8470  0.4940  1.2237  11.00000  0.05    0.16
Q18   1   0.4150  0.4434  0.9190  11.00000  0.05    0.16
Q19   1   0.2556 -0.1858  0.6652  11.00000  0.05    0.16
Q20   1   0.1264 -0.0996  0.5719  11.00000  0.05    0.16
;
_shelx_res_checksum              34918
_shelx_hkl_file
;
   0 -14   0 10906.5 886.710  11
   0 -14   1 32006.6 1532.41  11
   0 -14   2 17607.9 1019.55  13
   0 -14   2 22385.7 1311.41  11
   0 -14   3 1613.56 460.958  11
   0 -14   3 1497.27 398.986  13
   0 -14   4 3016.23 436.976  13
   0 -13   0-130.100 526.784  11
   0 -13   1 3936.65 836.699  11
   0 -13  -1 2974.12 646.299  11
   0 -13   1 2621.82 617.352  13
   0 -13   2 223.913 485.292  13
   0 -13   2 1845.18 657.976  11
   0 -13   3-13.9638 441.469  13
   0 -13   3 325.838 520.409  11
   0 -13   4 9350.75 978.856  11
   0 -13   4 9802.39 975.719  13
   0 -13   5 912.592 412.266  13
   0 -13   5 1031.36 437.024  11
   0 -12   0 782.102 685.480  11
   0 -12   0 1667.98 577.611  13
   0 -12   0 1346.78 895.783  10
   0 -12   1 3631.64 1024.93  11
   0 -12   1 3541.47 871.135  13
   0 -12  -1 3188.44 824.686  11
   0 -12   2 311.449 633.866  13
   0 -12   2 637.786 717.103  11
   0 -12   3 1241.42 683.011  13
   0 -12   3 648.484 637.830  11
   0 -12   4 7985.73 1088.55  11
   0 -12   4 7374.60 1048.81  13
   0 -12   5 1173.17 572.306  11
   0 -12   5 1831.18 665.018  13
   0 -12   6 4815.27 739.714  13
   0 -12   6 2342.60 571.116  11
   0 -12   7 3026.51 453.099  13
   0 -11   0-34.5032 627.142  10
   0 -11   0-174.392 674.095  11
   0 -11   0 561.164 624.991  13
   0 -11   1 45113.7 2455.34  10
   0 -11   1 49461.2 2766.43  11
   0 -11  -1 46801.0 2580.82  11
   0 -11   1 41810.5 2438.77  13
   0 -11   2 18636.4 1758.57  10
   0 -11   2 20451.1 1860.35  11
   0 -11   2 18872.5 1762.29  13
   0 -11   3 29648.8 2117.33  13
   0 -11   3 29923.0 2089.14  11
   0 -11   4 17935.5 1614.56  13
   0 -11   4 16919.0 1627.52  11
   0 -11   5 16729.8 1494.17  13
   0 -11   5 14128.4 1411.99  11
   0 -11   6 327.972 466.029  11
   0 -11   6-131.632 603.399  13
   0 -11   7 1837.71 568.239  13
   0 -10   0 12129.4 1491.51  11
   0 -10   0 11555.7 2380.27   8
   0 -10   0 10541.0 1353.18  13
   0 -10   0 11428.3 1306.37  10
   0 -10   1 12708.3 2582.23   8
   0 -10   1 18618.5 1733.05  13
   0 -10   1 23545.0 1835.55  10
   0 -10  -1 19460.9 1796.36  11
   0 -10  -1 13977.9 2610.45   8
   0 -10   1 21889.8 1932.50  11
   0 -10   2 24012.7 1998.04  13
   0 -10   2 26287.3 1968.07  10
   0 -10   2 26854.0 2088.42  11
   0 -10   3 42586.1 2571.99  13
   0 -10   3 43649.7 2558.01  10
   0 -10   3 43239.1 2559.89  11
   0 -10   4 6877.25 1201.52  11
   0 -10   4 6668.41 1146.28  13
   0 -10   5 7318.97 1127.20  13
   0 -10   5 7098.21 1164.72  11
   0 -10   6 106.932 582.357  11
   0 -10   6 464.928 611.411  13
   0 -10   7 2617.94 593.885   9
   0 -10   7 1651.76 639.907  13
   0 -10   8 472.892 361.958  13
   0  -9   0 356.962 617.252  13
   0  -9   0-417.380 712.014  11
   0  -9   0 583.672 629.240  10
   0  -9   0-699.182 835.092   8
   0  -9   1 21032.0 1686.83  10
   0  -9   1 22946.4 1901.89  11
   0  -9  -1 17402.8 1619.18  11
   0  -9   1 19893.9 3001.90   8
   0  -9   1 20519.8 1755.94  13
   0  -9  -1 17321.7 3078.53  19
   0  -9  -1 21177.5 3178.00   8
   0  -9   2 91887.4 3441.59  10
   0  -9   2 91460.1 3604.38  13
   0  -9   2 64467.2 6422.87   7
   0  -9   2 95244.2 3678.08  11
   0  -9  -2 75644.2 6130.04   8
   0  -9  -2 67290.3 6131.16  19
   0  -9   3 154661. 4574.96  10
   0  -9   3 147906. 4567.51  13
   0  -9   3 102618. 8288.95   7
   0  -9  -3 102524. 7916.51  19
   0  -9   3 158176. 4716.76  11
   0  -9  -3 101636. 7462.95   8
   0  -9   4 14556.9 1692.66  10
   0  -9  -4 7694.32 2280.02  19
   0  -9   4 4857.54 2085.99   7
   0  -9   4 12720.0 1512.36  11
   0  -9   4 13051.4 1495.35  13
   0  -9   5 1594.64 740.539  11
   0  -9   5 372.509 524.751   9
   0  -9   5 895.891 798.585  13
   0  -9   6 12869.3 1437.70  12
   0  -9   6 18056.2 1650.81  13
   0  -9   6 17419.2 1463.38   9
   0  -9   6 16181.9 1545.61  11
   0  -9   7 16474.3 1468.72  13
   0  -9   7 16669.0 1363.50   9
   0  -9   7 12754.4 1387.72  12
   0  -9   8 1858.68 567.761   9
   0  -9   8 1338.36 523.316  13
   0  -9   8 1362.27 562.869  12
   0  -9   9 7163.81 747.517   9
   0  -9   9 5581.36 709.792  12
   0  -8   0 167879. 7768.24  18
   0  -8   0 176834. 7994.06   8
   0  -8   0 181009. 8567.95  19
   0  -8   1 36826.0 3883.52  19
   0  -8  -1 36107.0 3800.00   8
   0  -8   1 35062.4 4285.14   7
   0  -8   1 33248.5 3463.08  18
   0  -8   1 34140.3 3638.62   8
   0  -8  -1 35181.5 3853.07  18
   0  -8  -1 36545.0 3980.38  19
   0  -8   2 24342.5 3587.18   7
   0  -8  -2 29238.3 3709.43   8
   0  -8  -2 29455.2 3835.53  19
   0  -8   2 28104.5 3222.94  18
   0  -8   2 28503.1 3449.91  19
   0  -8  -2 25468.7 3459.65  18
   0  -8   2 29078.1 3604.04   8
   0  -8   3 1021.65 1179.44   7
   0  -8  -3 281.873 665.088  18
   0  -8   3 2003.39 760.278  10
   0  -8   3 1694.55 653.016  13
   0  -8   3 963.043 681.432  11
   0  -8  -3 2997.59 1580.91  19
   0  -8   4 5281.66 878.047   9
   0  -8   4 5522.73 1898.51   7
   0  -8   4 5154.60 1119.75  10
   0  -8   4 6389.50 1118.94  13
   0  -8   4 7212.24 1134.27  11
   0  -8  -4 6603.07 2121.47  19
   0  -8  -4 5583.05 1860.90   8
   0  -8  -5 314.192 1051.92  19
   0  -8   5 938.998 683.185  12
   0  -8   5 1931.34 784.643  11
   0  -8   5 1349.46 613.806   9
   0  -8   5 1290.49 747.842  13
   0  -8   6 13794.9 1536.85  13
   0  -8   6 14451.1 1386.02   9
   0  -8   6 12132.9 1479.76  12
   0  -8   6 12843.5 1438.75  11
   0  -8   7 19886.1 1634.99  13
   0  -8   7 17124.6 1724.35  12
   0  -8   7 20219.6 1579.69   9
   0  -8   8 10513.6 1125.61   9
   0  -8   8 8262.96 1192.66  12
   0  -8   9 2734.99 700.629  12
   0  -8   9 4282.63 764.879   9
   0  -8  10 3598.81 600.035  12
   0  -8  10 4493.58 589.423   9
   0  -7   0-1835.79 1019.68  19
   0  -7   0-498.577 1042.13   7
   0  -7   0 252.194 725.250  18
   0  -7   0-260.247 674.741   8
   0  -7   1 78287.7 4712.46  18
   0  -7  -1 80137.3 5198.33  19
   0  -7  -1 75281.5 5004.31   8
   0  -7   1 69544.2 5403.25   7
   0  -7   1 77693.6 4865.35   8
   0  -7  -1 80867.3 5144.46  18
   0  -7   1 85006.3 5225.31  19
   0  -7  -2 48416.9 4221.00  18
   0  -7   2 51692.5 4116.64  19
   0  -7  -2 47351.9 4274.01   8
   0  -7   2 39942.6 4232.58   7
   0  -7  -2 48697.3 4322.75  19
   0  -7   2 43816.9 3862.43   8
   0  -7   2 47643.0 3754.86  18
   0  -7   3 78177.9 6248.23   7
   0  -7   3 81451.4 5236.43  18
   0  -7  -3 77816.9 5772.31  18
   0  -7  -3 89037.7 6178.21   8
   0  -7  -3 93559.9 6537.19  19
   0  -7  -4 4499.94 1839.64   8
   0  -7  -4 5164.35 1660.15  18
   0  -7   4 1381.60 1227.42   7
   0  -7  -4 4601.32 2022.79  19
   0  -7   5 12003.3 1222.21   9
   0  -7   5 16035.7 3542.39   7
   0  -7  -5 10959.7 2630.04  19
   0  -7   5 15265.9 1489.95  13
   0  -7   5 12903.2 1449.81  11
   0  -7  -5 7967.23 2704.84   8
   0  -7   5 10948.6 1375.00  12
   0  -7  -5 9850.81 2748.61  18
   0  -7  -6 35541.1 5432.35  19
   0  -7   6 46841.1 2906.26  12
   0  -7   6 39078.5 5909.15   7
   0  -7   6 53257.6 2690.58  13
   0  -7  -6 26647.1 4722.83  18
   0  -7   6 56459.7 2564.72   9
   0  -7  -6 37310.0 5105.70   8
   0  -7   7 15905.7 1525.32  13
   0  -7   7 14723.6 1743.14  12
   0  -7   7 19366.5 1591.90   9
   0  -7   8 12645.3 1564.33  12
   0  -7   8 15156.9 1413.23   9
   0  -7   9 2072.85 666.827   9
   0  -7   9 2710.97 779.295  12
   0  -7  10 257.587 422.499  12
   0  -7  10 672.293 459.226   9
   0  -7  11 2546.93 434.006  12
   0  -6   0 24218.1 2528.30   8
   0  -6   0 27907.0 2666.02  18
   0  -6   0 25136.2 2591.62  19
   0  -6   0 21860.5 2815.00   7
   0  -6   1 18092.8 2109.58  18
   0  -6  -1 19951.0 2350.69  18
   0  -6   1 20531.6 2717.23   7
   0  -6  -1 20555.0 2488.40  19
   0  -6  -1 20571.0 2424.15   8
   0  -6   1 30090.6 3084.84  19
   0  -6   1 21855.9 2351.07   8
   0  -6   2 22523.2 2312.49  18
   0  -6  -2 21726.6 2721.85  19
   0  -6  -2 22871.5 2741.85   8
   0  -6   2 22175.0 2431.97  19
   0  -6   2 23128.5 2563.70   8
   0  -6  -2 23070.4 2626.19  18
   0  -6   2 18259.4 2723.55   7
   0  -6  -3 147756. 7322.99   8
   0  -6   3 136778. 6019.06  18
   0  -6  -3 140133. 6873.74  18
   0  -6   3 121789. 7075.24   7
   0  -6  -3 141504. 7262.66  19
   0  -6  -4 26879.2 3594.88  19
   0  -6  -4 23027.5 3260.61  18
   0  -6   4 25144.5 3603.87   7
   0  -6  -4 22511.4 3354.91   8
   0  -6   5 22263.8 3789.39   7
   0  -6  -5 15494.5 3516.64   8
   0  -6  -5 21363.3 3543.18  19
   0  -6  -5 16701.8 3300.16  18
   0  -6  -6 18981.7 3734.36  18
   0  -6   6 27485.6 2218.94  12
   0  -6   6 21106.3 1710.48  13
   0  -6   6 28947.5 1846.37   9
   0  -6   6 26775.9 4367.32   7
   0  -6  -6 27619.3 4355.16  19
   0  -6  -7 8092.29 2934.19  19
   0  -6   7 10102.4 1216.98   9
   0  -6  -7 4259.00 2142.18  18
   0  -6   7 8512.92 1398.89  12
   0  -6   8-187.388 677.360  12
   0  -6   8 509.482 569.147   9
   0  -6   9 1182.78 588.329   9
   0  -6   9 557.085 659.903  12
   0  -6  10 1693.81 590.375   9
   0  -6  10 916.994 538.548  12
   0  -6  11 909.191 394.520   9
   0  -6  11 1600.74 437.566  12
   0  -5   0 240.182 690.726  18
   0  -5   0 211.395 671.149  19
   0  -5   0 244.123 692.912   8
   0  -5   0-263.348 880.712   7
   0  -5   1 188178. 5833.58  18
   0  -5   1 187926. 7109.21   7
   0  -5  -1 196427. 6368.03  18
   0  -5  -1 196065. 6539.12   8
   0  -5  -1 200685. 6646.03  19
   0  -5   1 181835. 5976.55   8
   0  -5  -2 121133. 5565.55  19
   0  -5   2 121838. 5077.36  19
   0  -5  -2 107373. 5027.99  18
   0  -5   2 113938. 4664.84  18
   0  -5  -2 110042. 5317.84   8
   0  -5   2 98362.1 5389.24   7
   0  -5   2 105699. 4878.40   8
   0  -5   3 214925. 6844.85  18
   0  -5   3 205638. 8420.88   7
   0  -5  -3 210939. 7647.71  18
   0  -5  -3 203779. 7755.03  19
   0  -5  -3 219773. 8389.92   8
   0  -5   4 56037.5 3836.98   3
   0  -5  -4 55816.5 4015.02  16
   0  -5   4 62652.7 5269.48   7
   0  -5  -4 64230.7 5204.45   8
   0  -5  -4 67260.9 5046.11  19
   0  -5  -4 59288.7 4060.01   1
   0  -5  -5 47378.8 4836.57  19
   0  -5   5 49557.5 5254.34   7
   0  -5  -5 41557.2 4006.11   1
   0  -5   6 9371.71 1093.05   9
   0  -5   6 7471.11 2349.28   7
   0  -5  -7 1219.47 971.138  19
   0  -5   7 505.173 766.831   7
   0  -5   7 2032.20 718.921   9
   0  -5   8 6845.76 1232.20  12
   0  -5   8 7628.01 1080.74   9
   0  -5   9 20764.3 1909.87  12
   0  -5   9 19964.0 1585.45   9
   0  -5  10 345.845 484.776   9
   0  -5  10-64.6473 541.969  12
   0  -5  11 11911.2 1080.08  12
   0  -5  11 12525.5 1035.42   9
   0  -4   0 33002.7 2234.76  18
   0  -4   0 32935.3 2288.29  19
   0  -4   0 31684.6 2644.04   7
   0  -4   0 31827.3 2307.14   8
   0  -4   1 380767. 7316.69  18
   0  -4  -1 374188. 8014.25   8
   0  -4   1 367986. 7538.16   8
   0  -4  -1 372783. 7590.13  18
   0  -4   1 401664. 7864.90  19
   0  -4   1 358284. 8669.99   7
   0  -4  -1 394895. 8332.72  19
   0  -4  -2 86124.5 3070.82   1
   0  -4   2 90435.7 4081.26   8
   0  -4  -2 92162.0 4344.34  19
   0  -4  -2 97233.4 4654.19   8
   0  -4   2 82224.6 2967.75   3
   0  -4   2 94945.7 3994.74  19
   0  -4   2 88238.4 4697.63   7
   0  -4   2 88903.0 3746.15  18
   0  -4   3 86268.7 5079.57   7
   0  -4   3 87871.5 4097.69  18
   0  -4  -3 84440.8 4078.86  16
   0  -4   3 81061.0 3790.92   3
   0  -4  -3 84376.3 4539.12  19
   0  -4  -3 83696.1 3871.43   1
   0  -4  -4 77656.7 4431.39   1
   0  -4   4 76206.7 5339.97   7
   0  -4  -4 76177.6 4893.97  19
   0  -4  -4 84322.9 4720.70  16
   0  -4   4 78918.2 4407.89   3
   0  -4  -5 29660.5 3237.68   1
   0  -4  -5 28205.9 3265.21  16
   0  -4   5 28818.4 3793.00   7
   0  -4  -5 25761.6 3302.50  19
   0  -4   5 34004.3 3477.54   3
   0  -4  -6 966.280 1385.01  19
   0  -4   6 86.2734 945.688   3
   0  -4  -6 1276.25 900.808   1
   0  -4   6 1718.91 1253.33   7
   0  -4  -6 2445.21 1455.07  16
   0  -4   7 6889.14 2300.62   3
   0  -4   7 6948.89 1108.74   5
   0  -4  -7 4868.26 1888.64   1
   0  -4   7 5685.57 2244.85   7
   0  -4  -7 888.099 2013.00  16
   0  -4  -7 5351.67 2389.46  19
   0  -4   7 7632.78 1051.90   9
   0  -4   8 5126.88 917.931   9
   0  -4  -8 1932.14 1326.81   1
   0  -4   8 4059.24 947.311   5
   0  -4   9 2033.79 738.022   9
   0  -4   9 2482.87 885.429   5
   0  -4  10 21032.8 1656.01   5
   0  -4  10 23743.6 1832.76  12
   0  -4  10 20754.3 1553.47   9
   0  -4  11 3300.64 742.541  12
   0  -4  11 4320.11 727.395   9
   0  -4  12 1314.80 363.374  12
   0  -4  12 1491.38 383.514   9
   0  -3   0 288.915 596.421  19
   0  -3   0-487.816 843.895   7
   0  -3   0 465.099 609.848  18
   0  -3   0 230.792 603.168   8
   0  -3   1 238039. 4995.70  18
   0  -3   1 261784. 5485.88  19
   0  -3   1 227019. 3257.39   3
   0  -3   1 229784. 5223.13   8
   0  -3   1 231939. 6133.09   7
   0  -3  -1 248020. 5818.43   8
   0  -3  -1 225558. 3261.19   1
   0  -3  -1 249702. 5666.38  19
   0  -3  -1 246244. 5422.53  18
   0  -3   2 152934. 4510.25  19
   0  -3   2 142180. 4261.74  18
   0  -3   2 144244. 5299.85   7
   0  -3   2 142224. 3909.56   3
   0  -3   2 148165. 4673.16   8
   0  -3  -2 143732. 4201.20  16
   0  -3  -2 145513. 4761.87  19
   0  -3  -2 139453. 3850.67   1
   0  -3  -3 117033. 4524.38  16
   0  -3  -3 117680. 4375.99   1
   0  -3   3 121164. 4396.80   3
   0  -3  -3 114110. 4808.11  19
   0  -3   3 117090. 4412.92  18
   0  -3   3 116407. 5428.96   7
   0  -3   4 339502. 8642.04   3
   0  -3  -4 343313. 9077.85  16
   0  -3  -4 337336. 8654.04   1
   0  -3   4 324939. 10126.4   7
   0  -3   5 120644. 5996.73   3
   0  -3   5 118060. 7084.07   7
   0  -3  -5 124795. 6175.28   1
   0  -3  -5 120161. 6220.19  16
   0  -3  -6 13439.3 2561.24  16
   0  -3   6 18740.6 2935.13   3
   0  -3  -6 12762.5 2477.39  19
   0  -3  -6 16862.1 2818.94   1
   0  -3   6 15660.6 3076.98   7
   0  -3   7 7431.74 2447.71   7
   0  -3  -7 8282.08 2215.83   1
   0  -3   7 13302.6 2707.11   3
   0  -3   7 7473.58 974.982   9
   0  -3  -7 10058.5 2777.36  19
   0  -3  -7 6433.04 1927.58  16
   0  -3   7 7930.34 1120.61   5
   0  -3   8 34000.2 2026.99   9
   0  -3   8 33072.6 5201.00   7
   0  -3   8 23805.2 4241.43   3
   0  -3  -8 24395.9 4421.70  19
   0  -3   8 34701.3 2311.08   5
   0  -3  -8 23681.1 4292.67  16
   0  -3  -8 30804.8 4613.54   1
   0  -3   9 43907.3 2540.16   5
   0  -3   9 38975.4 2192.66   9
   0  -3  10 26652.1 2048.76  12
   0  -3  10 27363.4 1802.01   9
   0  -3  10 26930.0 1975.47   5
   0  -3  11 3365.43 724.539   5
   0  -3  11 2324.68 658.683  12
   0  -3  11 2897.64 673.051   9
   0  -3  12 4546.30 620.298   9
   0  -3  12 4307.29 612.309  12
   0  -2   0 68302.4 2687.82   7
   0  -2   0 64601.1 2106.69  18
   0  -2   0 63169.1 2210.75  19
   0  -2   1 492386. 6329.12  19
   0  -2  -1 487902. 4777.37   1
   0  -2  -1 501153. 5552.59  16
   0  -2   1 502805. 4900.67   3
   0  -2   1 495622. 6030.55  18
   0  -2  -2 465699. 6906.37  16
   0  -2   2 476118. 8382.21   7
   0  -2  -2 456571. 6657.60   1
   0  -2   2 460558. 6839.06  18
   0  -2  -3 196183. 5518.18  16
   0  -2  -3 195946. 5422.22   1
   0  -2   3 194087. 5403.41   3
   0  -2   3 202327. 6356.70   7
   0  -2   3 188430. 5418.87  14
   0  -2  -4 58982.0 3629.30  16
   0  -2   4 61789.7 4198.94   7
   0  -2   4 59590.0 3588.79  14
   0  -2   4 59225.0 3550.01   3
   0  -2  -4 63735.1 3690.50   1
   0  -2  -5 74747.2 4738.92  16
   0  -2   5 70630.4 4558.45  14
   0  -2   5 73616.4 4570.12   3
   0  -2  -5 73028.5 4594.26   1
   0  -2   5 76023.8 5294.99   7
   0  -2  -6 117740. 6775.00   1
   0  -2  -6 117264. 6726.95  16
   0  -2   6 115227. 7327.63   7
   0  -2   6 104469. 6204.81  14
   0  -2   6 107909. 6416.46   3
   0  -2  -7 13384.3 2751.92   1
   0  -2   7 11800.7 2918.11   7
   0  -2   7 8880.24 2358.58   3
   0  -2  -7 10917.3 2554.62  16
   0  -2  -8 36316.1 5057.62  16
   0  -2   8 40357.0 2209.48   9
   0  -2   8 39564.7 2412.96   5
   0  -2  -8 32441.9 4987.63  19
   0  -2   8 34709.2 5252.79   7
   0  -2   8 35465.9 4911.30   3
   0  -2  -8 33507.1 5025.35   1
   0  -2   9 67877.5 3128.38   5
   0  -2   9 65241.2 2838.13   9
   0  -2  10 11454.9 1277.41   9
   0  -2  10 12196.1 1422.18   5
   0  -2  11 5828.31 970.047  12
   0  -2  11 6561.43 919.261   9
   0  -2  11 6637.84 979.891   5
   0  -2  12 6677.76 737.514   9
   0  -2  12 5958.06 696.840  12
   0  -1   0-505.751 290.059   7
   0  -1   1 73481.5 2030.24  14
   0  -1  -1 69867.3 1798.39   1
   0  -1  -2 177022. 4075.92   1
   0  -1   2 177878. 3962.65  14
   0  -1  -2 167255. 3915.81  16
   0  -1   3 33495.3 2682.43   7
   0  -1  -3 32415.0 2224.97   1
   0  -1  -3 32318.4 2206.26  16
   0  -1   3 30224.6 2108.53  14
   0  -1   4 47050.7 3153.45   3
   0  -1  -4 49421.1 3187.15   1
   0  -1   4 48654.9 3742.88   7
   0  -1   4 50370.8 3087.05  14
   0  -1  -4 49735.7 3175.48  16
   0  -1   5 14237.6 2093.51   3
   0  -1   5 10259.4 2137.10   7
   0  -1  -5 11883.1 1918.50   1
   0  -1   5 10671.6 1818.54  14
   0  -1  -5 11644.8 1976.97  16
   0  -1   6 1510.11 1066.65   7
   0  -1  -6 94.4071 873.094  16
   0  -1   6 393.578 885.880   3
   0  -1  -6 1165.14 861.577   1
   0  -1   6 489.828 800.302  14
   0  -1  -7 20480.2 3200.70   1
   0  -1  -7 16602.1 3022.31  16
   0  -1   7 17267.3 3046.57  14
   0  -1   7 14657.3 3160.90   7
   0  -1   7 17630.4 3005.29   3
   0  -1   8 11331.5 3223.59   7
   0  -1  -8 14874.1 2995.53   1
   0  -1   8 15071.6 1527.49   5
   0  -1   8 4929.64 2043.92  14
   0  -1   8 13233.6 1369.50   9
   0  -1  -8 12128.4 3036.59  16
   0  -1   8 10953.3 2837.81   3
   0  -1   9 9655.01 1284.35   9
   0  -1   9 11528.2 1394.97   5
   0  -1  10-111.346 731.426   5
   0  -1  10-578.572 675.094   9
   0  -1  11 6722.06 1011.56   5
   0  -1  11 5202.06 888.245   9
   0  -1  11 5308.83 904.612  12
   0  -1  12 1290.86 399.707  12
   0  -1  12 1899.63 504.330   9
   0   0  -1 488614. 4529.14  16
   0   0  -1 489988. 4623.23   1
   0   0   1 487884. 4435.15  14
   0   0  -2 62660.3 2377.02  16
   0   0  -2 62030.8 2407.98   1
   0   0   2 67956.4 2382.27  14
   0   0   3 56214.0 2678.44  14
   0   0  -3 52280.3 2741.11   1
   0   0  -3 53292.0 2691.92  16
   0   0   4 280923. 7288.33   3
   0   0  -4 292404. 7424.85   1
   0   0  -4 294733. 7352.35  16
   0   0  -5 12860.7 1929.27   1
   0   0   5 10553.3 1790.52  14
   0   0  -5 13164.6 1985.45  16
   0   0   5 11467.6 1865.64   3
   0   0  -6 89545.1 5577.98   1
   0   0   6 79617.4 5348.16   3
   0   0   6 87523.1 5170.13  14
   0   0   6 73035.8 5731.02   7
   0   0  -6 86073.9 5509.78  16
   0   0   7 25122.6 3416.62  14
   0   0  -7 23418.4 3467.57  16
   0   0   7 20957.3 3720.32   7
   0   0  -7 24532.3 3443.24   1
   0   0   7 21078.1 3319.65   3
   0   0   8 530.798 1216.21   3
   0   0  -8-310.195 862.374   1
   0   0  -8-346.351 1336.75  16
   0   0   8 599.964 648.136   5
   0   0   8-536.620 598.815  14
   0   0   8-771.166 1230.32   7
   0   0   8 755.987 655.467   9
   0   0   9 33193.2 2195.10   5
   0   0   9 33336.1 2116.47   9
   0   0  10 6814.91 1135.17   5
   0   0  10 6785.36 1069.28   9
   0   0  11 1633.67 679.092   5
   0   0  11 1033.45 567.438   9
   0   0  11 1458.38 572.309  12
   0   0  12 2185.49 508.260   9
   0   0  12 2552.80 571.594   5
   0   1   0 91.5266 197.098  15
   0   1  -1 75195.9 1841.72   1
   0   1   1 75552.1 1765.00  15
   0   1  -1 77004.2 1900.94  16
   0   1   1 75016.0 1955.75  14
   0   1   2 182561. 3914.35  14
   0   1   2 179884. 3646.51  15
   0   1  -2 177251. 4005.00   1
   0   1  -3 32274.9 2137.42  16
   0   1  -3 32720.3 2221.33   1
   0   1   3 25970.1 1953.75  14
   0   1   4 45193.1 3081.21   3
   0   1  -4 51321.2 3209.25   1
   0   1   4 48541.9 2973.15  14
   0   1  -4 48145.9 3002.87  16
   0   1   5 10010.5 1769.96  14
   0   1   5 11418.6 1893.43   3
   0   1  -5 10923.1 1831.68  16
   0   1  -5 13561.1 1996.07   1
   0   1   6 1477.36 890.400   3
   0   1  -6-42.1828 814.141  16
   0   1  -6 255.362 910.072   1
   0   1  -7 17209.8 2958.18  16
   0   1  -7 14958.0 2883.18   1
   0   1   7 19618.5 3064.01   3
   0   1   7 16133.8 2785.90  14
   0   1  -8 12455.6 2992.94   1
   0   1   8 10855.9 2877.02   7
   0   1   8 13631.9 1401.29   9
   0   1   8 13759.7 2931.07   3
   0   1   8 8767.42 2184.23  14
   0   1  -8 11604.4 2910.53  16
   0   1   8 15333.3 1512.10   5
   0   1   9 10770.0 1320.44   9
   0   1   9 11637.0 1404.01   5
   0   1  10-172.299 621.322   9
   0   1  10-404.005 776.768   5
   0   1  11 6325.21 971.503   5
   0   1  11 5654.71 863.664   9
   0   1  11 6002.05 824.314  12
   0   1  12 1062.04 388.630   9
   0   2   0 73521.3 2403.47  15
   0   2  -1 486978. 5254.80  16
   0   2   1 474634. 6206.45  14
   0   2   1 507823. 5918.10  15
   0   2  -1 506638. 4795.66   1
   0   2   1 487786. 4801.50   3
   0   2  -2 452578. 6648.19  16
   0   2   2 450931. 6155.79  15
   0   2  -2 456656. 6563.37   1
   0   2   2 449170. 6738.58  14
   0   2   3 202375. 5231.75  14
   0   2   3 190554. 5338.38   3
   0   2  -3 192289. 5300.91   1
   0   2  -3 184635. 5092.90  16
   0   2   3 185702. 4781.33  15
   0   2   4 53018.7 3276.39  14
   0   2  -4 61042.0 3556.04   1
   0   2  -4 60357.6 3447.61  16
   0   2   4 59030.2 3535.89   3
   0   2   5 70674.2 4344.17  14
   0   2   5 73532.2 4549.57   3
   0   2  -5 70782.2 4443.63   1
   0   2  -5 72529.5 4371.37  16
   0   2   6 113253. 6553.76   3
   0   2   6 113766. 6013.48  14
   0   2  -6 114117. 6343.36  16
   0   2  -6 110841. 6453.39   1
   0   2   7 10415.8 2415.19   3
   0   2  -7 13213.4 2564.61  16
   0   2   7 8859.91 2138.13  14
   0   2  -7 12760.4 2697.89   1
   0   2   8 23558.7 3743.77  14
   0   2  -8 37057.8 5070.56   1
   0   2   8 31683.2 2059.92   9
   0   2   8 41296.1 2415.85   5
   0   2   8 39017.6 5000.11   3
   0   2  -8 31412.8 4628.06  16
   0   2   9 66461.4 3054.11   5
   0   2   9 62123.6 2826.66   9
   0   2  10 10813.1 1243.30   9
   0   2  10 12394.0 1397.82   5
   0   2  11 6838.18 880.332   9
   0   2  11 6007.80 972.721   5
   0   3   0-278.041 606.166  15
   0   3  -1 223161. 3210.03   1
   0   3  -1 226329. 4020.44  16
   0   3   1 221649. 3209.12   3
   0   3   2 136074. 3756.34   3
   0   3   2 144949. 3956.18  15
   0   3  -2 144129. 3959.90  16
   0   3   2 150020. 4459.55  14
   0   3  -2 143729. 3816.17   1
   0   3  -3 113301. 4224.86   1
   0   3   3 115579. 3914.05  15
   0   3  -3 111641. 4156.71  16
   0   3   3 119412. 4328.67  14
   0   3   3 115092. 4255.00   3
   0   3  -4 332249. 8475.44   1
   0   3   4 314044. 7490.14  15
   0   3   4 338273. 8590.71   3
   0   3   4 343308. 8268.53  14
   0   3  -4 343380. 8338.54  16
   0   3   5 105213. 5491.27  14
   0   3  -5 116398. 5642.92  16
   0   3  -5 116646. 5897.73   1
   0   3  -6 17085.5 2754.73   1
   0   3   6 13961.7 2807.97  14
   0   3   6 15265.1 2569.71   3
   0   3  -6 18135.9 2675.48  16
   0   3   7 7213.05 1111.96   5
   0   3   7 5193.30 1797.51   3
   0   3  -7 6308.91 2096.03  16
   0   3   7 8016.31 2331.25  14
   0   3  -7 9680.32 2481.46   1
   0   3   8 30471.1 4395.56   3
   0   3  -8 24972.3 4265.93  16
   0   3   8 34428.1 2229.21   5
   0   3  -8 26978.6 4370.78   1
   0   3   8 27366.8 1904.36   9
   0   3   9 35625.2 2144.25   9
   0   3   9 40261.7 2400.83   5
   0   3  10 23542.4 1637.34   9
   0   3  10 28109.8 1930.99   5
   0   3  11 1991.62 667.333   5
   0   3  11 2158.79 547.931   9
   0   4   0 35641.0 2415.81  15
   0   4  -1 359877. 5561.77  16
   0   4   1 385718. 7251.30  15
   0   4   2 93993.3 3663.23  15
   0   4   2 89007.3 3905.19  14
   0   4  -2 83971.3 2957.65   1
   0   4   2 83150.0 2952.52   3
   0   4  -2 92790.9 3398.67  16
   0   4  -3 83000.0 3787.93   1
   0   4   3 86522.7 3684.73  15
   0   4  -3 84387.5 3809.56  16
   0   4   3 79580.6 3967.23  14
   0   4   3 84789.4 3854.24   3
   0   4   4 79876.3 4331.05  14
   0   4  -4 80633.8 4296.78  16
   0   4  -4 81118.3 4422.95   1
   0   4   4 81153.0 4419.65   3
   0   4   4 79441.8 3950.62  15
   0   4  -5 28936.9 3174.27   1
   0   4   5 35134.0 3422.00  14
   0   4   5 31541.0 3270.84   3
   0   4  -5 33293.2 3234.39  16
   0   4   6 285.583 2055.22  14
   0   4  -6 2353.06 1270.12   1
   0   4   6 2689.13 1051.55   3
   0   4  -6 1375.78 953.477  16
   0   4   7 9195.46 2080.86   3
   0   4  -7 4035.19 1679.59  16
   0   4  -7 8633.68 2124.79   1
   0   4   7 5858.53 2401.78  14
   0   4   7 7480.67 1109.91   5
   0   4   8 3999.85 1550.61   3
   0   4   8 4199.08 891.861   9
   0   4   8 3518.23 917.427   5
   0   4   8 697.749 945.121  14
   0   4  -8 3627.69 1563.86   1
   0   4   9 1879.42 814.981   5
   0   4   9 784.909 669.878   9
   0   4  10 22396.0 1654.93   5
   0   5   0-43.9998 596.102  15
   0   5   1 204340. 6034.93  15
   0   5  -1 222676. 7202.15  15
   0   5   2 119436. 4656.69  15
   0   5   2 112637. 4977.54  14
   0   5  -2 110906. 3980.15  16
   0   5   3 220287. 7232.21  14
   0   5   3 224433. 6488.83  15
   0   5  -3 216375. 6416.54  16
   0   5   3 187661. 5684.20   3
   0   5  -3 185063. 5643.65   1
   0   5   4 66980.8 3968.98  15
   0   5   4 60216.7 3966.40   3
   0   5   4 70602.6 4514.93  14
   0   5  -4 68935.4 4197.92  16
   0   5  -4 55737.3 3892.08   1
   0   5  -5 49676.9 4166.36  16
   0   5  -5 39673.7 3841.00   1
   0   5   5 41227.4 3823.80   3
   0   5   5 45364.5 4224.30  14
   0   5   6 6870.01 2554.61  14
   0   5  -6 10005.4 2305.93  16
   0   5  -6 6845.91 1948.16   1
   0   5   6 7487.95 1845.34   3
   0   5  -7 4366.69 1739.10  16
   0   5   7 2140.59 2782.27  14
   0   5   9 18173.2 1602.35   5
   0   5  10 454.549 518.390   5
   0   6   0 25991.9 2597.82  15
   0   6   1 23751.3 2362.80  15
   0   6   1 23083.4 2554.02  14
   0   6  -1 23676.4 2687.85  15
   0   6  -2 19453.2 1782.43  16
   0   6   2 21656.8 2554.25  14
   0   6   2 23814.0 2368.62  15
   0   6  -2 26744.3 3077.87  15
   0   6  -3 143575. 7590.79  15
   0   6   3 139213. 5698.45  15
   0   6  -3 130040. 5257.26  16
   0   6   3 143073. 6572.10  14
   0   6   4 22418.2 2642.13  15
   0   6  -4 22154.8 2632.60  16
   0   6   4 23602.6 2919.48  14
   0   6  -5 17410.3 2744.88  16
   0   6   5 22777.8 3164.56  14
   0   6  -6 22279.2 3555.34  16
   0   6   6 25899.4 4011.56  14
   0   6   7 7044.74 3628.30  14
   0   7   0 825.647 920.602  15
   0   7   1 81578.9 5246.33  14
   0   7   1 79811.5 4806.89  15
   0   7  -1 81004.1 5292.56  15
   0   7   2 48481.3 3737.42  15
   0   7  -2 52314.5 4642.62  15
   0   7   2 49246.4 4177.14  14
   0   7   3 81733.7 4891.68  15
   0   7   3 89847.6 5748.53  14
   0   7  -3 92231.5 6729.23  15
   0   7  -4 2209.31 1307.21  15
   0   7   4 3580.59 1331.05  14
   0   7   5 16106.5 2891.22  14
   0   7  -5 15651.8 3599.00  15
   0   7  -6 41963.5 6371.35  15
   0   7   6 45073.4 5500.09  14
   0   8   0 175826. 8033.83  15
   0   8  -1 40869.3 4255.21  15
   0   8   1 33293.5 3754.08  14
   0   8   1 37638.5 3709.79  15
   0   8  -2 27158.0 3680.42  15
   0   8   2 30874.3 3675.48  14
   0   8   3 3915.07 1654.83  14
   0   8  -3 1577.06 1295.40  15
   0   8   4 6698.29 1946.16  14
   0   8  -4 5288.89 2095.34  15
   0   8   5 3435.69 1495.47  14
   0   8  -5 3783.89 1780.61  15
   0   9   0-1782.29 1384.10  15
   0   9   0-38.9650 1263.20  14
   0   9  -1 17843.0 3087.81  15
   0   9   1 19565.5 3185.43  14
   0   9  -2 70995.5 6294.34  15
   0   9   2 85668.7 6579.81  14
   0   9   3 144488. 8773.27  14
   0   9  -3 112513. 8363.24  15
   0   9  -4 6282.37 2349.83  15
   0   9   4 12249.1 2866.97  14
   0  10   0 11250.1 2619.21  14
   0  10   1 22164.0 3547.08  14
   0  10  -1 15403.4 3257.27  14
  -1 -14   3 1493.87 393.877  13
  -1 -14   2 67.0992 281.415  13
   1 -14   0 6521.59 714.446  11
   1 -14   1-555.460 459.920  11
   1 -14   2 3976.31 481.995  13
   1 -14   2 5336.26 663.213  11
   1 -14   3 824.217 342.217  11
  -1 -13   5 2841.58 540.656  13
  -1 -13   4 1399.99 537.692  13
  -1 -13   3 924.293 566.707  13
  -1 -13   3 1332.03 597.335  11
  -1 -13   2 23627.6 1500.02  13
  -1 -13   2 23656.9 1604.30  11
  -1 -13   1 6503.79 914.232  11
   1 -13  -1 4709.99 783.077  11
  -1 -13   1 5666.66 992.429  10
  -1 -13   1 5914.26 813.544  13
   1 -13   0 13834.2 1292.79  11
  -1 -13   0 12930.0 1216.85  10
  -1 -13   0 14792.6 1241.52  11
   1 -13   1 15261.5 1358.99  11
   1 -13   1 13835.9 1152.47  13
   1 -13   2 7336.20 920.042  13
   1 -13   2 8976.26 1038.52  11
   1 -13   3 2789.45 680.886  11
   1 -13   3 3169.00 670.590  13
   1 -13   4 2109.00 525.105  13
   1 -13   4 1554.18 532.193  11
   1 -13   5 224.565 295.600  11
   1 -13   5 381.527 319.405  13
  -1 -12   7 1232.00 378.014  13
  -1 -12   6 1457.71 532.325  13
  -1 -12   5 1405.29 627.980  13
  -1 -12   5 1182.93 623.751  11
  -1 -12   4 11384.9 1229.31  11
  -1 -12   4 11243.3 1177.10  13
  -1 -12   3 15271.5 1423.12  11
  -1 -12   3 16241.4 1610.53  10
  -1 -12   3 14034.3 1376.09  13
  -1 -12   2 41748.4 2268.53  13
  -1 -12   2 46277.0 2401.86  11
  -1 -12   2 39439.2 2166.96  10
   1 -12  -1 7171.97 1142.68  11
  -1 -12   1 8117.00 1190.81  11
  -1 -12   1 8276.99 1112.50  13
  -1 -12   1 9098.49 1188.73  10
  -1 -12   0 2943.18 801.242  11
   1 -12   0 3103.58 749.809  13
  -1 -12   0 3832.41 884.374  10
   1 -12   0 3073.18 940.035  11
  -1 -12   0 3362.18 823.867  13
   1 -12   1 1860.72 790.360  13
   1 -12   1 1579.68 853.376  11
  -1 -12  -1 543.838 581.300  10
   1 -12   2 19911.8 1615.40  13
   1 -12   2 21002.8 1712.73  11
   1 -12   3 10618.3 1231.23  11
   1 -12   3 9892.03 1200.37  13
   1 -12   4 652.220 583.567  11
   1 -12   4 1203.11 572.897  13
   1 -12   5 13881.3 1160.20  13
   1 -12   5 11311.8 1084.18  11
   1 -12   6 1897.51 412.317  11
   1 -12   6 4654.76 673.809  13
  -1 -11   7 2685.22 611.792  13
  -1 -11   6 128.712 614.620  13
  -1 -11   5 5401.86 956.046  11
  -1 -11   5 5879.78 1000.93  13
  -1 -11   4 11811.2 1474.58  10
  -1 -11   4 13547.4 1448.08  11
  -1 -11   4 13448.0 1416.45  13
  -1 -11   3 32780.9 2170.71  13
  -1 -11   3 35015.8 2217.29  11
  -1 -11   3 32838.0 2154.24  10
   1 -11  -2 25942.5 1948.91  11
  -1 -11   2 27998.5 2003.48  10
  -1 -11   2 30153.1 2127.22  11
  -1 -11   2 27599.5 2014.12  13
   1 -11  -1 38766.4 2463.13  11
  -1 -11   1 37111.0 2280.09  13
  -1 -11   1 38854.7 2430.54  11
  -1 -11   1 37874.5 2269.85  10
   1 -11   0 35950.2 2453.90  11
   1 -11   0 29436.0 2017.54  13
  -1 -11   0 29271.7 1982.53  13
  -1 -11   0 36976.7 2350.97  11
  -1 -11   0 37725.2 2265.01  10
  -1 -11  -1 28310.3 1975.68  11
  -1 -11  -1 34058.2 2144.41  10
   1 -11   1 32240.6 2203.62  13
   1 -11   1 34740.9 2360.88  11
   1 -11   2 10240.6 1385.85  11
   1 -11   2 8331.03 1288.93  13
   1 -11   3 5163.16 1098.33  13
   1 -11   3 5768.72 1077.68  11
   1 -11   4 5924.51 1059.70  11
   1 -11   4 5125.82 1012.46  13
   1 -11   4 4073.89 775.693   9
   1 -11   5 3277.80 841.585  11
   1 -11   5 5521.39 783.587   9
   1 -11   5 3758.43 864.937  13
   1 -11   6-110.145 533.609  13
   1 -11   6 55.3361 389.635   9
   1 -11   6-98.2563 442.013  11
   1 -11   7 636.781 289.644   9
   1 -11   7 888.853 419.182  13
  -1 -10   8 7271.67 749.885  13
  -1 -10   8 6938.50 841.907  12
  -1 -10   7 3438.49 721.367  12
  -1 -10   7 3336.27 722.849  13
  -1 -10   6 5709.14 982.818  11
  -1 -10   6 7337.98 1052.87  13
  -1 -10   6 5452.54 919.396  12
  -1 -10   5 8600.61 1212.31  11
  -1 -10   5 8658.42 1190.81  13
  -1 -10   4 9748.62 1341.69  10
  -1 -10   4 9935.78 1316.42  11
  -1 -10   4 10623.0 1318.03  13
  -1 -10   3 31457.7 2144.97  10
  -1 -10   3 28126.6 2064.22  13
  -1 -10   3 30079.2 2105.62  11
  -1 -10   2 4345.44 940.771  10
  -1 -10   2 4752.39 1082.86  11
   1 -10  -2 3197.32 842.105  11
  -1 -10   2 4531.78 1020.80  13
  -1 -10   1 294.484 733.236  11
   1 -10  -1-231.361 816.018  11
  -1 -10   1-98.4479 766.886  10
  -1 -10   1 450.452 690.610  13
   1 -10   0 5021.81 2196.68  19
   1 -10   0 8675.87 1420.92  11
  -1 -10   0 9196.02 1237.41  10
   1 -10   0 7863.86 1193.45  13
  -1 -10   0 3285.86 1663.69   8
  -1 -10   0 8449.38 1253.08  11
  -1 -10   0 7498.12 1106.87  13
  -1 -10  -1 7247.27 1108.57  11
   1 -10   1 10423.5 1489.02  11
  -1 -10  -1 9931.75 1253.50  10
   1 -10   1 8237.42 1257.51  13
  -1 -10  -2 16743.5 1552.96  10
   1 -10   2 16751.3 1757.48  13
   1 -10   2 18192.7 1750.59  11
   1 -10   3 10892.6 1205.61   9
   1 -10   3 11822.4 1456.09  13
   1 -10   3 10979.8 1486.95  11
   1 -10   4 15676.4 1618.74  13
   1 -10   4 15997.3 1652.28  11
   1 -10   4 16277.8 1437.95   9
   1 -10   5 4999.96 1004.04  11
   1 -10   5 5835.94 942.818   9
   1 -10   5 4183.17 978.553  13
   1 -10   6 1669.00 626.456  11
   1 -10   6 2948.41 659.053   9
   1 -10   6 3062.08 773.725  13
   1 -10   7-122.029 460.892   9
   1 -10   7 536.251 471.541  13
   1 -10   8 5802.86 662.467   9
  -1  -9   9 108.327 372.064  12
  -1  -9   8 6518.07 818.361  13
  -1  -9   8 5393.18 959.841  12
  -1  -9   7 613.843 617.475  12
  -1  -9   7 2278.74 740.289  13
  -1  -9   6 8201.44 1182.43  13
  -1  -9   6 6450.93 1123.29  12
  -1  -9   6 7524.25 1158.50  11
  -1  -9   5 8804.80 1402.05  10
  -1  -9   5 10273.5 1313.05  13
  -1  -9   5 11004.2 1353.71  11
  -1  -9   5 7802.68 1166.49  12
  -1  -9   4 25779.0 1979.43  11
   1  -9  -4 19946.0 3872.81  19
  -1  -9   4 23764.1 1953.70  10
  -1  -9   4 16646.6 1569.28  12
  -1  -9   4 26495.3 1973.48  13
   1  -9  -4 17024.3 3901.52  18
  -1  -9   3 13326.7 1462.05  11
  -1  -9   3 12734.8 1404.45  10
   1  -9  -3 10259.9 2731.75  19
  -1  -9   3 10487.1 2728.25   7
  -1  -9   3 12043.0 1398.42  13
   1  -9  -3 6897.92 2267.42  18
  -1  -9   2 35536.1 2285.77  11
   1  -9  -2 32658.8 4395.74  19
   1  -9  -2 27104.6 4110.59  18
  -1  -9   2 36604.7 2272.37  13
   1  -9  -2 26411.4 2027.53  11
  -1  -9   2 31144.6 3942.33   8
  -1  -9   2 29706.8 4594.61   7
  -1  -9   2 37033.7 2229.58  10
  -1  -9   1 1149.82 733.090  10
   1  -9  -1 2571.02 1640.54  18
  -1  -9   1 1116.01 714.862  11
   1  -9  -1 403.450 745.300  11
   1  -9  -1 179.792 1354.35  19
  -1  -9   1 972.922 773.145   8
  -1  -9   1 331.629 702.681  13
  -1  -9   0 8729.63 2064.01   8
   1  -9   0 5507.50 1901.86  18
   1  -9   0 6571.34 1043.33  13
  -1  -9   0 6972.03 1147.89  11
  -1  -9   0 7594.73 1065.67  13
  -1  -9   0 8346.35 1127.85  10
   1  -9   0 10375.5 2654.80  19
   1  -9   0 8090.22 1284.47  11
  -1  -9  -1 14015.4 2778.28   8
   1  -9   1 13874.7 1542.27  13
  -1  -9  -1 11008.9 1270.65  11
   1  -9   1 11719.1 2699.03  19
   1  -9   1 14836.6 1628.30  11
   1  -9   1 12450.8 1449.65  10
  -1  -9  -1 13093.7 1375.09  10
   1  -9   1 12049.5 2615.37  18
   1  -9   2 31274.9 4074.15  18
   1  -9   2 32971.9 4316.26  19
   1  -9   2 37660.9 2442.39  13
   1  -9   2 42297.7 2582.20  11
  -1  -9  -2 37762.4 4895.17   8
  -1  -9  -2 33452.2 2152.41  10
   1  -9   3 13094.5 1516.59  13
  -1  -9  -3 9899.73 2721.81   8
   1  -9   3 13852.2 1593.95  11
   1  -9   3 7862.29 2331.24  18
   1  -9   4 8720.78 1210.72   9
   1  -9   4 9375.98 1368.26  13
   1  -9   4 10115.3 1376.65  11
   1  -9   5 2107.70 830.897  11
   1  -9   5 2224.24 873.775  13
   1  -9   5 2704.34 790.590   9
   1  -9   6 35896.2 2012.06   9
   1  -9   6 34950.1 2191.35  13
   1  -9   6 32228.9 1986.20  11
   1  -9   7 13955.7 1245.27   9
   1  -9   7 12661.7 1270.39  13
   1  -9   8 2708.02 624.512   9
   1  -9   9 3078.58 542.137   9
  -1  -8  10 9192.84 905.783  12
  -1  -8   9 10240.4 1187.00  12
  -1  -8   9 11474.6 1011.89   9
  -1  -8   8 6830.44 1152.47  12
  -1  -8   8 6345.05 892.511   9
  -1  -8   7 14397.3 1334.96   9
  -1  -8   7 14582.6 1670.71  12
  -1  -8   7 15341.7 1454.62  13
  -1  -8   7 11268.6 1288.96  11
  -1  -8   6 46950.5 2493.53  13
  -1  -8   6 38517.2 2571.58  12
  -1  -8   6 44118.6 2435.04  11
   1  -8  -5 2182.07 1658.11  18
  -1  -8   5 4510.62 927.176  13
  -1  -8   5 2598.25 816.352  12
  -1  -8   5 3542.03 861.036  11
   1  -8  -5-415.227 1410.99  19
  -1  -8   5 3416.07 979.159  10
   1  -8  -4 5363.40 2083.20  19
  -1  -8   4 10487.9 2749.10   7
  -1  -8   4 8116.46 1181.61  11
  -1  -8   4 7425.44 1137.30  10
  -1  -8   4 7486.32 1131.54  13
   1  -8  -4 4233.94 1917.19  18
  -1  -8   4 5032.51 888.020  12
  -1  -8   3 36511.9 2145.29  10
  -1  -8   3 32245.5 4048.43   8
  -1  -8   3 35467.8 2144.32  13
   1  -8  -3 33993.0 4351.45  18
  -1  -8   3 34997.8 2166.26  11
  -1  -8   3 29200.5 4254.33   7
   1  -8  -3 36006.2 4417.52  19
   1  -8  -2 6345.42 1894.58  19
  -1  -8   2 7206.92 1773.86   8
  -1  -8   2 6719.60 2134.70   7
   1  -8  -2 7478.13 2091.74  18
   1  -8  -1 12388.1 2504.17  19
  -1  -8   1 13023.5 2426.19   8
   1  -8  -1 16967.8 2974.40  18
  -1  -8   1 13871.0 2885.00   7
   1  -8   0 5613.57 1912.96  19
   1  -8   0 1059.21 858.996   8
   1  -8   0 1886.65 1349.39  18
  -1  -8   0 3300.70 1387.30   8
   1  -8   1 48159.6 4806.59  19
  -1  -8  -1 48056.6 4954.78   8
   1  -8   1 43589.9 4434.02  18
   1  -8   1 40887.3 4527.02   7
   1  -8   2 32568.6 2174.10  13
   1  -8   2 31831.8 2191.98  11
   1  -8   2 34387.5 4014.56  18
  -1  -8  -2 37672.6 4535.32   8
   1  -8   2 35993.1 4286.00  19
   1  -8   2 25940.0 3730.40   7
  -1  -8  -3 45435.7 5433.04   8
   1  -8   3 46317.1 4821.94  18
   1  -8   3 51880.7 2799.01  11
   1  -8   3 51198.9 2696.14  13
   1  -8   4 19353.7 1784.48  11
   1  -8   4 22929.6 1907.66  13
   1  -8   4 18983.4 1572.55   9
  -1  -8  -4 17657.0 3470.29   8
   1  -8   4 15753.0 2962.32  18
   1  -8   5 3960.33 932.323  11
   1  -8   5 2856.23 844.780   9
   1  -8   5 3456.58 953.199  13
   1  -8   6 7986.33 1267.05  13
   1  -8   6 8375.08 1146.33   9
   1  -8   7 12415.9 1294.29   9
   1  -8   7 10493.6 1284.21  13
   1  -8   7 8930.42 1221.07  12
   1  -8   8 18389.2 1393.06   9
   1  -8   8 12418.1 1241.10  12
   1  -8   9 4715.03 730.147  12
   1  -8   9 7224.68 835.946   9
   1  -8  10 6381.37 625.296   9
  -1  -7  11 146.570 255.748  12
  -1  -7  10 563.177 449.604   9
  -1  -7  10 234.871 431.191  12
  -1  -7   9 96.9398 556.595  12
  -1  -7   9 46.3827 530.382   9
  -1  -7   8 3742.17 802.628   9
  -1  -7   8 3904.80 982.274  12
  -1  -7   7 15090.4 1407.05   9
  -1  -7   7 14101.5 1433.39  13
  -1  -7   7 15984.9 1766.14  12
   1  -7  -6 9932.43 2592.68  19
  -1  -7   6 9944.45 1153.35   9
  -1  -7   6 11772.4 1544.18  12
  -1  -7   6 10693.0 1315.59  13
   1  -7  -6 8998.60 2768.71  18
  -1  -7   6 11471.5 1367.86  11
  -1  -7   6 11851.8 3015.46   7
  -1  -7   5 11041.5 1381.49  10
   1  -7  -5 14874.9 3127.01  19
  -1  -7   5 9786.10 1314.93  12
  -1  -7   5 10437.9 1255.43  13
   1  -7  -5 9360.97 2680.44  18
  -1  -7   5 12951.2 2883.07   7
  -1  -7   5 9472.57 1236.66  11
   1  -7  -4 7812.72 1967.99  19
   1  -7  -4 3789.85 1692.59  18
  -1  -7   4 5052.94 1951.05   7
   1  -7  -3 15187.9 2669.74  18
  -1  -7   3 16763.6 2593.32   8
  -1  -7   3 14268.8 2835.72   7
   1  -7  -3 17410.4 2907.13  19
  -1  -7   2 141583. 7035.06   8
   1  -7  -2 122460. 5828.44   8
  -1  -7   2 127442. 7743.62   7
   1  -7  -2 145936. 7728.31  18
   1  -7  -2 139575. 7450.20  19
  -1  -7   1 36929.5 3623.09   8
   1  -7  -1 31956.0 2904.31   8
   1  -7  -1 37786.2 3793.15  19
   1  -7  -1 38275.6 3882.23  18
  -1  -7   1 33266.3 3966.00   7
  -1  -7   0 18332.3 2622.41   8
   1  -7   0 15932.9 2102.41   8
   1  -7   0 17419.1 2677.15  19
   1  -7   0 18913.4 2685.57  18
  -1  -7  -1 66270.4 5256.31   8
   1  -7   1 60115.5 4657.04  18
  -1  -7  -1 54841.2 4155.49  19
   1  -7   1 56732.2 4710.17   7
   1  -7   1 65407.5 5051.91  19
  -1  -7  -2 4771.67 1507.38  19
   1  -7   2 6436.20 1656.30  18
   1  -7   2 6458.93 1759.80   7
   1  -7   2 6186.65 1716.95  19
  -1  -7  -2 5422.07 1777.16   8
  -1  -7  -3 68950.5 6123.13   8
  -1  -7  -3 61187.3 5608.55  19
   1  -7   3 55185.9 5243.69   7
   1  -7   3 66336.3 5238.59  18
   1  -7   4 7464.58 1137.12  11
   1  -7   4 9270.21 2241.30  18
   1  -7   4 9690.11 1309.91  13
  -1  -7  -4 10964.2 2779.40  19
   1  -7   4 8829.15 1078.74   9
  -1  -7  -4 12186.7 2870.24   8
   1  -7   4 8961.54 2311.50   7
   1  -7   5 2795.87 813.643  11
   1  -7   5 4103.01 886.854   9
   1  -7   5 3746.70 951.433  13
   1  -7   5 5994.37 2200.38   7
  -1  -7  -5 6313.16 2306.26   8
   1  -7   6 11118.7 1366.34  13
   1  -7   6 11267.9 1273.66   9
   1  -7   6 9659.03 1380.41  12
   1  -7   7 2882.46 928.233  12
   1  -7   7 3452.24 844.697  13
   1  -7   7 5041.49 949.305   9
   1  -7   8 1420.13 703.177  12
   1  -7   8 1594.92 670.969   9
   1  -7   9 8129.56 948.734   9
   1  -7   9 5563.42 933.083  12
   1  -7  10 5783.02 695.080   9
   1  -7  10 3984.76 631.258  12
  -1  -6  11 2111.00 485.720   9
  -1  -6  11 1795.96 485.842  12
  -1  -6  10 1055.34 515.010   9
  -1  -6  10 905.841 563.500  12
  -1  -6   9 7645.47 1055.20   9
  -1  -6   9 6568.82 1110.71  12
  -1  -6   8 13954.5 1634.74  12
  -1  -6   8 13684.2 1393.65   9
  -1  -6   7 41785.2 2224.88   9
   1  -6  -7 37404.7 5235.78  19
  -1  -6   7 33334.5 5764.06   7
   1  -6  -7 31656.5 5093.72  18
  -1  -6   7 44139.9 2789.22  12
   1  -6  -6 49525.2 5920.82  19
  -1  -6   6 47017.4 6131.07   7
   1  -6  -6 42740.8 5482.45  18
  -1  -6   6 43738.1 2182.02   9
  -1  -6   6 44540.0 2293.99  13
  -1  -6   6 49378.2 2915.16  12
   1  -6  -5 8613.99 2434.19  18
  -1  -6   5 3944.04 1771.41   7
   1  -6  -5 11422.9 2671.57  19
  -1  -6   4 159158. 8879.66   7
   1  -6  -4 176103. 8924.72  19
   1  -6  -4 172670. 8645.32  18
   1  -6  -3 62060.6 4089.61   8
   1  -6  -3 75811.5 5365.52  19
  -1  -6   3 71377.5 5550.63   7
   1  -6  -3 70933.8 5127.13  18
  -1  -6   3 70198.1 4794.32   8
  -1  -6   2 17664.4 2315.77   8
   1  -6  -2 17835.5 2525.89  18
   1  -6  -2 17260.0 2510.31  19
   1  -6  -2 16788.9 2033.79   8
  -1  -6   2 16310.8 2602.84   7
   1  -6  -1 2061.39 1055.20  19
  -1  -6   1 2982.22 1154.83   8
  -1  -6   1 2130.48 1116.36   7
   1  -6  -1 1969.50 946.693  18
   1  -6  -1 2288.56 886.577   8
   1  -6   0 14399.0 2195.57  18
  -1  -6   0 12086.1 1671.19  19
  -1  -6   0 14297.7 2237.63   8
   1  -6   0 17103.9 2357.41  19
  -1  -6   0 13277.6 2419.82   7
   1  -6   0 15346.8 1851.24   8
   1  -6   0 14345.7 2229.70   7
   1  -6   1 9024.09 1779.80  19
  -1  -6  -1 6653.32 1665.27   8
  -1  -6  -1 8471.86 1593.42  19
   1  -6   1 8279.84 1723.46   7
   1  -6   1 9431.09 1776.22  18
   1  -6   2 284912. 9223.20  18
  -1  -6  -2 271738. 10330.2   8
  -1  -6  -2 282284. 9419.20  19
   1  -6   2 294948. 9774.06  19
   1  -6   3 93936.7 5587.52  18
   1  -6   3 72157.6 5441.65   7
  -1  -6  -3 93951.6 6631.66   8
  -1  -6  -3 86450.4 5841.08  19
  -1  -6  -4 2538.94 1372.15  19
   1  -6   4 1287.97 1153.57   7
   1  -6   4 1384.48 864.404  18
  -1  -6  -4 1743.52 1375.51   8
   1  -6   5 9066.67 1069.05   9
   1  -6   5 6721.53 1142.83  13
   1  -6   5 5759.12 2075.34   7
  -1  -6  -5 2655.34 1712.51   8
  -1  -6  -5 8858.96 2577.87  19
   1  -6   6 17647.5 1508.60   9
   1  -6   6 14382.8 3262.17   7
   1  -6   6 14523.2 1479.30  13
  -1  -6  -6 9017.29 3173.35   8
  -1  -6  -6 11648.3 3089.57  19
   1  -6   7 8762.16 1109.17   9
   1  -6   8 3887.23 861.061   9
   1  -6   8 4331.54 1039.65  12
   1  -6   9 997.530 659.627  12
   1  -6   9 1280.01 590.185   9
   1  -6  10 613.617 444.599   9
   1  -6  10 63.4140 422.855  12
   1  -6  11 170.844 244.080  12
   1  -6  11 184.058 266.111   9
  -1  -5  11 1246.20 508.910   9
  -1  -5  11 948.040 512.937  12
  -1  -5  10-99.0910 468.225   9
  -1  -5  10-171.068 515.769  12
  -1  -5   9 8433.72 1276.19  12
  -1  -5   9 7925.67 1132.18   9
  -1  -5   8 23783.6 1767.32   9
  -1  -5   8 22445.8 2011.50  12
  -1  -5   7 1442.42 744.094  12
   1  -5  -7-865.361 1014.03  19
  -1  -5   7 447.447 609.811   7
  -1  -5   7 1669.71 717.926   9
  -1  -5   6 13680.2 1565.01  12
  -1  -5   6 15279.2 3337.45   7
   1  -5  -6 16584.1 3040.65  19
  -1  -5   5 57074.4 5614.16   7
   1  -5  -5 54081.6 4275.40   1
   1  -5  -5 38898.6 4114.62   8
   1  -5  -5 56893.5 5154.39  19
   1  -5  -4 100854. 5598.93   8
   1  -5  -4 116876. 6615.49  19
  -1  -5   4 110133. 5537.29   3
  -1  -5   4 116467. 7253.75   7
   1  -5  -4 109146. 5229.18   1
   1  -5  -4 117769. 6572.68  18
  -1  -5   3 192243. 7194.01   8
   1  -5  -3 191243. 7638.83  18
   1  -5  -3 178839. 5627.75   1
   1  -5  -3 179702. 6447.57   8
   1  -5  -3 202253. 8010.66  19
  -1  -5   3 175627. 8043.77   7
  -1  -5   2 146840. 6880.64   7
   1  -5  -2 154597. 5404.18   8
  -1  -5   2 155188. 6019.87   8
   1  -5  -2 153984. 6348.85  18
   1  -5  -2 155343. 6500.70  19
   1  -5  -1 157113. 6228.02  18
   1  -5  -1 160610. 6249.50  19
  -1  -5   1 157851. 4738.36  19
  -1  -5   1 144881. 6650.76   7
  -1  -5   1 140509. 3895.08  18
  -1  -5   1 146949. 5844.99   8
   1  -5  -1 158667. 5087.77   8
  -1  -5   0 213593. 5056.31  18
  -1  -5   0 246290. 7823.84   8
   1  -5   0 266537. 8055.70  18
   1  -5   0 251751. 6368.44   8
  -1  -5   0 232577. 8445.01   7
   1  -5   0 270668. 8033.05  19
   1  -5   0 256967. 7722.18   7
  -1  -5   0 236507. 6215.94  19
   1  -5   1 41424.3 3166.63  18
   1  -5   1 38625.6 3170.19   7
   1  -5   1 43408.5 3410.85  19
  -1  -5  -1 35905.6 2497.20  18
  -1  -5  -1 46085.6 3644.72   8
  -1  -5  -1 42470.6 3082.05  19
  -1  -5  -2 935.012 1089.83   8
  -1  -5  -2 653.256 825.012  19
   1  -5   2 975.298 865.861  19
  -1  -5  -2-310.724 450.652  18
   1  -5   2 1083.39 829.358  18
   1  -5   2 1001.43 907.627   7
   1  -5   3 54305.1 4374.96   7
  -1  -5  -3 58287.9 4276.76  19
  -1  -5  -3 62527.5 5143.17   8
   1  -5   3 57874.3 4046.92  18
   1  -5   4 81085.1 4913.33   3
  -1  -5  -4 88857.4 6846.73   8
   1  -5   4 77225.2 5863.10   7
  -1  -5  -4 78200.5 5230.93   1
   1  -5   4 90050.7 5502.53  18
  -1  -5  -4 90090.6 5971.61  19
  -1  -5  -5 7970.61 2294.08  19
   1  -5   5 7083.46 2225.71   7
  -1  -5  -5 4250.63 1788.98  16
  -1  -5  -6 56118.3 5980.10  16
   1  -5   6 67635.4 2742.50   9
  -1  -5  -6 60752.1 6345.77  19
   1  -5   6 52391.8 6287.63   7
  -1  -5  -7 5075.17 2044.02  19
   1  -5   7 3628.31 2014.83   7
   1  -5   7 2728.75 798.291   9
   1  -5   8 23574.1 1707.52   9
   1  -5   9 2429.48 743.475   9
   1  -5   9 2537.95 809.908   5
   1  -5  10 1015.08 609.140  12
   1  -5  10 1386.06 580.552   9
   1  -5  11 2373.40 519.583  12
   1  -5  11 2554.63 522.585   9
  -1  -4  12 4127.13 556.236   9
  -1  -4  12 3380.03 505.890  12
  -1  -4  11 2438.33 673.366  12
  -1  -4  11 2964.97 669.293   9
  -1  -4  10 1092.70 630.793   9
  -1  -4  10 833.900 630.024  12
  -1  -4   9 20103.6 1670.62   9
  -1  -4   9 19950.6 1795.04   5
  -1  -4   9 18342.5 1825.19  12
  -1  -4   8 19116.5 3667.37   3
  -1  -4   8 25649.3 2171.39  12
   1  -4  -8 14949.3 3246.88   1
  -1  -4   8 22753.7 4100.56   7
  -1  -4   8 26838.6 1878.87   9
   1  -4  -8 12510.9 3243.76  19
  -1  -4   8 25327.8 1981.32   5
  -1  -4   7 7970.11 1168.08   5
  -1  -4   7 9946.54 1172.77   9
  -1  -4   7 12167.9 2977.04   7
   1  -4  -7 6973.93 2261.92  19
   1  -4  -7 11912.6 2453.22   1
  -1  -4   7 8966.46 2438.02   3
  -1  -4   7 10301.4 1436.89  12
   1  -4  -6-27.3123 1397.30  19
  -1  -4   6 957.224 1125.23   7
   1  -4  -6 4645.21 1543.70   1
  -1  -4   6 4312.63 1663.24   3
   1  -4  -5 34707.6 3352.61   1
  -1  -4   5 29932.3 3348.35   3
   1  -4  -5 30670.1 3606.68  19
  -1  -4   5 31690.8 4091.97   7
  -1  -4   4 40437.1 3289.70   3
  -1  -4   4 37763.0 3987.13   7
   1  -4  -4 38452.2 3052.20   1
   1  -4  -4 39693.6 3640.86  19
   1  -4  -3 117728. 5557.24  17
  -1  -4   3 126853. 5000.32   3
   1  -4  -3 130611. 5827.11  19
  -1  -4   3 121778. 6242.86   7
  -1  -4   3 122712. 5273.11   8
   1  -4  -3 116628. 5477.73  18
   1  -4  -3 111157. 4872.64   8
   1  -4  -3 129497. 4714.57   1
  -1  -4   2 212579. 5432.59   3
  -1  -4   2 214266. 5014.16   2
   1  -4  -2 212455. 6789.86  18
   1  -4  -2 200323. 6727.71  17
   1  -4  -2 204575. 5503.66   8
  -1  -4   2 207524. 7505.16   7
   1  -4  -2 238058. 7344.72  19
  -1  -4   2 207958. 6368.13   8
   1  -4  -2 228305. 5173.36   1
  -1  -4   1 27237.1 1577.40   3
  -1  -4   1 29220.6 1726.87  19
   1  -4  -1 30663.3 2583.77  17
   1  -4  -1 25848.2 1726.26   4
   1  -4  -1 29798.1 2536.28  18
  -1  -4   1 27666.7 1520.04   2
  -1  -4   1 28603.1 2777.35   7
   1  -4  -1 29825.2 2500.06  19
   1  -4  -1 28467.4 1900.41   8
  -1  -4   1 29550.4 2456.41   8
  -1  -4   1 28459.6 1485.51  18
   1  -4   0 259818. 7050.28  19
  -1  -4   0 254396. 7172.22   8
  -1  -4   0 227913. 4362.15  18
   1  -4   0 243568. 4546.37   4
  -1  -4   0 250193. 7879.91   7
   1  -4   0 271774. 7267.08  18
   1  -4   0 261402. 6869.81  17
  -1  -4   0 245757. 5461.31  19
   1  -4   0 232109. 6363.44   7
  -1  -4   0 220448. 4237.91   2
   1  -4   0 255396. 5556.93   8
   1  -4   1 82444.1 4118.13  18
   1  -4   1 89584.4 3052.51   4
  -1  -4  -1 88135.6 4572.89   8
   1  -4   1 92768.8 4499.27  19
   1  -4   1 80032.3 4004.30   7
   1  -4   1 91168.6 3901.41  17
  -1  -4  -1 77996.9 3213.28   2
  -1  -4  -1 77450.2 3142.98  18
  -1  -4  -1 94219.9 3929.90  19
   1  -4   2 61943.5 3687.64  18
   1  -4   2 66704.5 3160.43   4
   1  -4   2 65443.3 4025.39   7
  -1  -4  -2 74630.3 4674.16   8
  -1  -4  -2 70542.2 3822.01  19
   1  -4   2 69969.5 4044.68  19
  -1  -4  -3 74646.3 4448.90  19
  -1  -4  -3 71175.0 4525.38  16
   1  -4   3 71466.6 3858.57   4
   1  -4   3 68158.9 4505.25   7
   1  -4   3 68974.1 4108.03  18
  -1  -4  -3 74226.2 4251.09   1
   1  -4   4 122922. 6763.18   7
  -1  -4  -4 127513. 6568.72  19
  -1  -4  -4 123610. 6708.98  16
   1  -4   4 116172. 5834.48  18
  -1  -4  -4 125725. 6299.26   1
  -1  -4  -5 17103.2 2866.83  16
   1  -4   5 15318.5 2557.50   3
  -1  -4  -5 15661.4 2810.02  19
   1  -4   5 13483.7 2771.88   7
  -1  -4  -5 19017.0 2878.32   1
   1  -4   6 77327.0 6134.37   3
  -1  -4  -6 77479.7 6916.27  16
   1  -4   6 72029.0 6878.81   7
   1  -4   6 74650.9 2752.22   9
  -1  -4  -6 68027.6 6282.76  19
  -1  -4  -6 81627.9 6726.91   1
   1  -4   7 12916.7 1393.86   5
  -1  -4  -7 7259.04 2720.72  16
   1  -4   7 11627.9 3141.70   7
   1  -4   7 13865.2 1343.49   9
   1  -4   7 12612.6 2753.53   3
  -1  -4  -7 12218.1 3057.58  19
  -1  -4  -7 11011.1 3070.26   1
   1  -4   8 7092.89 1129.38   5
   1  -4   8 7743.82 1112.03   9
   1  -4   9 465.888 595.943   9
   1  -4   9 2286.83 788.074   5
   1  -4  10 20464.0 1663.84  12
   1  -4  10 21577.2 1490.12   9
   1  -4  10 19497.0 1506.23   5
   1  -4  11 1384.92 373.672   5
   1  -4  11 1202.16 470.660  12
   1  -4  11 920.461 449.661   9
  -1  -3  12 371.904 366.416   9
  -1  -3  12 217.365 251.629  12
  -1  -3  11 14891.2 1257.23   9
  -1  -3  11 14848.6 1335.59  12
  -1  -3  10 10706.9 1248.67   9
  -1  -3  10 11134.0 1349.05   5
  -1  -3  10 10079.7 1347.10  12
  -1  -3   9 39985.5 2478.32   5
  -1  -3   9 38712.5 2231.66   9
  -1  -3   9 39065.7 2542.28  12
  -1  -3   8 174.809 617.258  12
   1  -3  -8 3344.36 1772.87  19
  -1  -3   8 371.815 681.304   5
   1  -3  -8 1059.31 861.595   1
  -1  -3   8 2183.78 1500.43   3
  -1  -3   8 347.069 584.916   9
  -1  -3   7 44467.7 2284.16   9
   1  -3  -7 51850.5 5232.84   1
  -1  -3   7 48056.5 5182.84   3
   1  -3  -7 38186.2 4195.94  16
  -1  -3   7 48404.6 6063.95   7
   1  -3  -7 46838.8 5366.83  19
  -1  -3   6 74615.1 6673.78   7
   1  -3  -6 67600.7 4897.43  16
   1  -3  -6 65839.6 5652.84  19
  -1  -3   6 70643.6 5467.59   3
   1  -3  -6 80528.0 5639.67   1
   1  -3  -5 17408.8 2206.52  16
   1  -3  -5 16347.6 2580.00  19
  -1  -3   5 16792.8 2912.66   7
   1  -3  -5 19615.5 2472.54   1
  -1  -3   5 17641.9 2481.01   3
   1  -3  -4 29072.1 2812.92  17
   1  -3  -4 31179.1 3005.94  19
   1  -3  -4 33969.0 2551.57  16
  -1  -3   4 29228.8 3324.84   7
  -1  -3   4 30599.5 2832.41   3
   1  -3  -4 32044.0 2694.45   1
   1  -3  -3 47281.2 2793.07   1
  -1  -3   3 47085.3 2970.48   3
  -1  -3   3 43316.9 3567.56   7
   1  -3  -3 41209.5 3035.36  17
   1  -3  -3 41350.4 2312.59  16
   1  -3  -3 43977.1 3141.50  19
  -1  -3   2 87929.9 3233.78   2
   1  -3  -2 89492.6 3974.76  17
  -1  -3   2 95169.5 3723.19   3
  -1  -3   2 87624.0 3771.51   8
   1  -3  -2 90180.6 4043.22  18
   1  -3  -2 96830.6 3347.11   1
   1  -3  -2 78245.1 2261.25  16
  -1  -3   2 93914.3 4671.70   7
   1  -3  -2 71284.6 3033.44   8
   1  -3  -2 92203.6 4129.36  19
   1  -3  -1 961181. 12216.2  19
  -1  -3   1 895250. 7027.57  19
  -1  -3   1 875542. 9395.99   3
  -1  -3   1 921365. 6588.92  18
   1  -3  -1 913172. 8595.24   8
   1  -3  -1 899976. 11539.3  17
  -1  -3   1 932378. 13534.7   7
   1  -3  -1 947730. 11992.0  18
  -1  -3   1 971667. 12082.6   8
  -1  -3   1 892516. 8857.79   2
   1  -3   0 187987. 4208.90   4
   1  -3   0 192640. 5424.76  18
  -1  -3   0 186273. 4012.95  19
   1  -3   0 189425. 3963.31   8
   1  -3   0 181644. 5064.75  17
  -1  -3   0 191094. 5545.26   8
  -1  -3   0 174794. 4061.90   2
   1  -3   0 184443. 4712.38   7
  -1  -3   0 186738. 6053.94   7
  -1  -3  -1 1933.94 699.611   2
   1  -3   1 1781.85 812.775  19
   1  -3   1 2661.12 889.444  18
  -1  -3  -1 2663.82 971.547   8
   1  -3   1 2283.13 864.288   7
  -1  -3  -1 2417.64 696.827  19
   1  -3   1 1824.37 701.627  17
   1  -3   1 3074.82 736.740   4
   1  -3   2 18750.1 1451.77  17
   1  -3   2 17633.7 1971.94   7
  -1  -3  -2 21074.5 2203.14  16
   1  -3   2 18475.7 1867.35  18
  -1  -3  -2 22946.9 2048.46   1
   1  -3   2 22072.7 2143.10  19
   1  -3   2 20145.9 1743.25   4
  -1  -3  -3 3863.48 1326.41  16
  -1  -3  -3 3151.19 1037.48   1
   1  -3   3 2629.00 990.015  18
   1  -3   3 3103.21 1174.55   7
   1  -3   3 3042.17 951.761   4
  -1  -3  -4 102996. 5854.60  16
   1  -3   4 98271.2 4921.79   4
   1  -3   4 94072.3 5573.07   7
  -1  -3  -4 90280.3 5157.57   1
  -1  -3  -5 167697. 8401.30  16
   1  -3   5 167269. 8571.04   7
  -1  -3  -5 165067. 8001.33   1
   1  -3   6-2098.67 1471.27   7
  -1  -3  -6 360.214 1421.11  16
   1  -3   6 276.182 1305.32   3
  -1  -3  -6 2186.22 1582.97   1
   1  -3   7-40.5300 659.383   5
   1  -3   7-1696.30 1166.61   3
   1  -3   7-215.806 493.509   9
   1  -3   7-503.660 1473.54   7
   1  -3   8 6149.95 1117.84   5
   1  -3   8 6206.85 1051.85   9
   1  -3   9 4260.84 996.101   5
   1  -3   9 5338.79 949.642   9
   1  -3  10 4784.11 872.498   9
   1  -3  10 3816.60 890.258   5
   1  -3  11 22360.8 1420.81   5
   1  -3  11 23066.8 1394.50   9
   1  -3  11 21248.7 1486.20  12
  -1  -2  12 3901.27 626.547   9
  -1  -2  12 2556.83 483.330  12
  -1  -2  11 641.669 530.711   9
  -1  -2  11 1298.51 543.916  12
  -1  -2  11 1670.48 657.419   5
  -1  -2  10 9910.16 1219.55   9
  -1  -2  10 10405.5 1354.52   5
  -1  -2  10 8314.64 1242.97  12
  -1  -2   9 899.130 687.677   9
  -1  -2   9 762.027 674.198  12
  -1  -2   9 1067.49 765.679   5
   1  -2  -8 12759.9 3133.08  19
  -1  -2   8 17820.4 3715.85   3
  -1  -2   8 19810.3 1797.88   5
   1  -2  -8 17297.2 3345.50   1
   1  -2  -8 22068.9 3458.40  16
  -1  -2   8 16839.0 3906.50   7
  -1  -2   8 21049.8 1678.10   9
   1  -2  -7 116766. 7471.69   1
  -1  -2   7 105264. 7325.70   3
   1  -2  -7 99487.6 6743.71  16
   1  -2  -7 103544. 7529.08  19
  -1  -2   7 107448. 8377.01   7
   1  -2  -6 12058.0 2126.52  16
   1  -2  -6 13834.4 2378.12   1
  -1  -2   6 12161.2 2295.51   3
   1  -2  -6 13355.2 2506.90  19
  -1  -2   6 14904.6 2825.01   7
   1  -2  -5 27061.3 2661.56  16
  -1  -2   5 27368.5 3457.32   7
   1  -2  -5 25000.9 2899.39  19
  -1  -2   5 24658.3 2822.37   3
   1  -2  -5 27743.4 2863.86   1
   1  -2  -4 5272.18 1156.00  16
  -1  -2   4 5200.78 1519.89   7
   1  -2  -4 3956.93 1256.05  19
  -1  -2   4 4092.56 1250.75   3
   1  -2  -4 4128.05 1178.39  17
   1  -2  -4 4544.14 1248.60   1
  -1  -2   3 49883.3 2788.58   2
  -1  -2   3 48750.7 2941.77   3
   1  -2  -3 49369.0 2454.26  16
  -1  -2   3 52268.6 3563.32   7
   1  -2  -3 45041.4 2821.05  17
   1  -2  -3 51782.9 2828.93   1
   1  -2  -3 47228.1 2949.11  19
   1  -2  -2 77072.2 3295.63  17
   1  -2  -2 79509.0 3418.29  19
   1  -2  -2 77062.6 2403.38  16
   1  -2  -2 80912.3 3065.87   1
  -1  -2   2 77171.4 3012.99   2
  -1  -2   2 82247.4 3935.68   7
  -1  -2   2 79021.5 3298.54   3
  -1  -2   2 79833.3 3229.52   8
  -1  -2   1 257630. 5130.39   3
  -1  -2   1 261594. 5499.23   8
   1  -2  -1 240482. 3153.93   8
   1  -2  -1 246294. 2900.53  16
  -1  -2   1 244325. 4750.31   2
  -1  -2   1 262739. 6320.94   7
   1  -2  -1 258372. 5409.43  17
  -1  -2   0 902598. 6574.38  19
   1  -2   0 889625. 7556.92   7
  -1  -2   0 890101. 9103.58   2
  -1  -2   0 907497. 11506.4   7
   1  -2   0 913951. 9247.38   4
   1  -2   1 574275. 7580.13   7
   1  -2   1 567867. 7040.33  17
  -1  -2  -1 601059. 9205.70  16
   1  -2   1 603178. 7935.21   4
   1  -2   2 179422. 4865.68   4
   1  -2   2 164603. 3487.64  17
  -1  -2  -2 189645. 5805.80  16
   1  -2   2 182914. 5200.36   7
   1  -2   2 171430. 5015.09  14
  -1  -2  -2 178669. 5270.92   1
   1  -2   2 170806. 4955.06  18
   1  -2   3 174725. 6176.17   7
   1  -2   3 172506. 5469.45   4
  -1  -2  -3 172036. 5918.31   1
   1  -2   3 161404. 5488.37  14
  -1  -2  -3 175654. 6311.90  16
   1  -2   3 158056. 5325.46  18
   1  -2   4 143707. 6034.98  14
  -1  -2  -4 159749. 6808.72  16
  -1  -2  -4 150174. 6368.47   1
   1  -2   4 155060. 5988.78   4
   1  -2   4 155929. 6864.55   7
  -1  -2  -5 24530.7 3259.76  16
   1  -2   5 27091.2 3319.17   7
   1  -2   5 24219.8 2928.90  14
  -1  -2  -5 24946.8 3105.49   1
   1  -2   6 16719.3 2872.94   3
   1  -2   6 17885.5 3107.50   7
  -1  -2  -6 20908.8 3190.80   1
  -1  -2  -6 16409.2 2996.83  16
   1  -2   6 15914.4 2821.74  14
   1  -2   7 39445.8 4658.94   3
   1  -2   7 41611.0 2373.55   5
   1  -2   7 32477.1 4449.95  14
   1  -2   7 38251.6 2076.58   9
  -1  -2  -7 43146.8 5375.95  16
  -1  -2  -7 37531.0 4949.60   1
   1  -2   7 37785.6 5157.99   7
   1  -2   8 26525.5 2003.28   5
  -1  -2  -8 18837.7 3862.62   1
   1  -2   8 17629.3 3998.82   7
  -1  -2  -8 19811.5 4000.21  16
   1  -2   8 23432.3 1758.26   9
   1  -2   8 19072.7 3655.53   3
   1  -2   9 10891.0 1395.34   5
   1  -2   9 9404.88 1217.47   9
   1  -2  10 10011.9 1302.18   5
   1  -2  10 10323.6 1184.23   9
   1  -2  11 2447.26 639.413   5
   1  -2  11 1927.16 593.220   9
   1  -2  11 1034.16 590.180  12
   1  -2  12 1198.34 317.495  12
  -1  -1  12 458.140 436.793   9
  -1  -1  11 1026.20 616.450   5
  -1  -1  11 737.594 570.074   9
  -1  -1  11-32.9862 444.276  12
  -1  -1  10 3666.65 931.873  12
  -1  -1  10 4709.92 1065.01   5
  -1  -1  10 5214.73 989.850   9
  -1  -1   9 1941.76 770.625   9
  -1  -1   9 2124.67 837.892   5
  -1  -1   9 2839.41 897.099  12
   1  -1  -8-472.579 705.587   1
  -1  -1   8 421.284 693.474   5
   1  -1  -8 2310.33 1247.92  19
   1  -1  -8 957.066 1515.31  16
  -1  -1   8 33.3747 555.660   9
  -1  -1   8 1754.00 1095.10   3
   1  -1  -7 61969.8 5442.88   1
  -1  -1   7 55828.2 5218.75   3
   1  -1  -7 57896.4 5486.33  19
   1  -1  -7 57696.3 5127.93  16
  -1  -1   7 55548.7 5876.81   7
  -1  -1   6 10961.9 2417.80   7
   1  -1  -6 13198.8 2328.03   1
   1  -1  -6 11848.5 2035.45  16
  -1  -1   6 8512.94 1777.17  14
  -1  -1   6 10322.8 2102.63   3
  -1  -1   5 125652. 6037.66   3
  -1  -1   5 150489. 7202.82   7
  -1  -1   5 130540. 5312.74  14
   1  -1  -5 140246. 5721.81  16
   1  -1  -5 135864. 5979.93   1
  -1  -1   4 184429. 6336.41   3
   1  -1  -4 173831. 5365.21  17
  -1  -1   4 176017. 5208.84  14
   1  -1  -4 190519. 6128.35   1
   1  -1  -4 192013. 5756.58  16
  -1  -1   4 197254. 7173.09   7
  -1  -1   3 494049. 8565.53   2
  -1  -1   3 477597. 8751.98   3
   1  -1  -3 510958. 8554.66   1
   1  -1  -3 486832. 7904.01  17
   1  -1  -3 494475. 7817.98  16
  -1  -1   3 467440. 6870.37  14
  -1  -1   3 511676. 9952.44   7
   1  -1  -3 495122. 8505.18  19
  -1  -1   2 236798. 5212.14   2
   1  -1  -2 245317. 5144.63  19
   1  -1  -2 247014. 4933.38  17
   1  -1  -2 230711. 4415.12  16
  -1  -1   2 241603. 5466.40   3
  -1  -1   2 249574. 4939.87   8
  -1  -1   1 57879.9 2523.51   3
  -1  -1   1 58904.8 2568.59   7
   1  -1  -1 55069.6 2309.17  18
   1  -1  -1 59397.6 2212.10  17
  -1  -1   1 55462.5 2329.23   2
  -1  -1   1 55226.1 2119.87   8
   1  -1  -1 59587.0 2375.40  19
  -1  -1   0 496425. 6613.45   3
   1  -1   0 483297. 6664.05   4
   1  -1   0 528765. 6689.81  19
   1  -1   0 544438. 6072.08  17
  -1  -1   0 529529. 6970.66   8
  -1  -1   0 481776. 6651.32   2
  -1  -1   0 506643. 7111.53   7
   1  -1   0 499931. 6537.40  18
   1  -1   1 508683. 6881.08  18
  -1  -1  -1 524548. 7640.12   1
  -1  -1  -1 517458. 7868.83  16
   1  -1   1 500790. 5701.23  17
   1  -1   1 498854. 6520.65  14
   1  -1   1 510189. 7216.68   4
  -1  -1  -2 126651. 4314.41   1
  -1  -1  -2 135752. 4604.81  16
   1  -1   2 131647. 4084.81   4
   1  -1   2 139151. 4186.64  14
   1  -1   2 132959. 4013.39  18
   1  -1   3 78294.3 3623.44   4
  -1  -1  -3 83490.7 4140.91  16
   1  -1   3 81571.2 3781.56  14
  -1  -1  -3 83744.6 4054.99   1
  -1  -1  -4 5553.85 1410.99   1
  -1  -1  -4 4461.77 1408.28  16
   1  -1   4 6525.90 1456.28  14
   1  -1   4 4490.71 1227.97   4
   1  -1   5 14334.1 2252.32  14
  -1  -1  -5 16038.9 2507.44  16
  -1  -1  -5 15433.2 2375.95   1
   1  -1   5 13685.0 2596.98   7
   1  -1   6 868.096 1143.43  14
   1  -1   6 1702.99 1516.91   7
  -1  -1  -6 298.445 853.511   1
  -1  -1  -6 27.0177 1063.36  16
   1  -1   7 23984.2 1672.24   9
   1  -1   7 27979.3 3946.93   3
  -1  -1  -7 28497.1 4252.40  16
  -1  -1  -7 26919.5 4062.42   1
   1  -1   7 28867.5 1955.82   5
   1  -1   7 21248.0 3956.99   7
   1  -1   7 17640.7 3307.43  14
   1  -1   8 22453.6 1720.34   9
   1  -1   8 25340.8 1926.62   5
   1  -1   8 16907.3 3637.30  14
   1  -1   8 16297.4 3359.69   3
   1  -1   8 15958.2 3885.16   7
  -1  -1  -8 16008.3 3454.58   1
  -1  -1  -8 16176.3 3771.01  16
   1  -1   9 56699.9 2774.51   5
   1  -1   9 49540.3 2472.58   9
   1  -1  10 1615.44 759.476   5
   1  -1  10 2241.20 744.416   9
   1  -1  11 8151.08 979.672   5
   1  -1  11 9098.89 929.610   9
   1  -1  12 2330.60 470.802   5
  -1   0  12 282.411 408.538   9
  -1   0  11 3310.63 788.946   9
  -1   0  11 4217.11 850.560   5
  -1   0  11 4206.27 757.278  12
  -1   0  10 917.180 610.754  12
  -1   0  10 552.320 693.794   9
  -1   0  10 1356.26 765.511   5
  -1   0   9 6316.33 1092.07   9
  -1   0   9 7286.49 1164.79   5
   1   0  -8 2590.33 1443.88   1
  -1   0   8 2970.87 1554.40   7
   1   0  -8 3682.55 1555.74  19
  -1   0   8 3425.00 911.286   5
  -1   0   8 4159.20 904.036   9
   1   0  -8 7764.89 2013.42  16
  -1   0   8 991.904 1477.32   3
   1   0  -7 7484.89 2041.68   1
  -1   0   7 4687.42 1836.99   3
   1   0  -7 4890.68 1713.84  16
  -1   0   7 4789.26 1859.97   7
  -1   0   6 18179.9 2719.09   3
   1   0  -6 18773.6 2619.89  16
   1   0  -6 18207.4 2582.28   1
  -1   0   6 17039.1 2267.45  14
  -1   0   6 16430.2 2856.97   7
  -1   0   5 127165. 6419.00   7
  -1   0   5 114687. 5648.59   3
  -1   0   5 129722. 4975.89  14
   1   0  -5 129593. 5534.60  16
   1   0  -5 126793. 5692.62   1
  -1   0   4 850.421 848.851   7
   1   0  -4 425.086 647.183  16
  -1   0   4-226.754 742.370   3
   1   0  -4 287.970 553.628  17
  -1   0   4 608.887 664.708  14
   1   0  -4 353.059 699.562   1
   1   0  -3 579.176 546.738  17
  -1   0   3 269.179 609.663   3
  -1   0   3 677.338 651.175   2
   1   0  -3 175.400 528.899  16
   1   0  -3 455.071 604.414   1
  -1   0   3-17.3287 646.258   7
  -1   0   3 1439.08 529.206  14
  -1   0   2 351635. 3809.41  14
  -1   0   2 362232. 5790.69  15
   1   0  -2 364062. 5384.73  17
  -1   0   2 351502. 6305.60   2
   1   0  -2 356355. 5284.56  19
  -1   0   1 41543.8 1661.34   7
   1   0  -1 41504.9 1715.32  17
  -1   0   1 41700.0 1611.14  15
   1   0  -1 39501.6 1513.90  19
  -1   0   1 37602.6 1201.85   8
  -1   0   1 39671.4 1966.77   2
   1   0   0 989.330 400.267  18
   1   0   0 1023.86 394.324  19
  -1   0   0 1100.41 373.304  15
   1   0   0 915.683 309.824  14
  -1   0   0 1192.47 579.308   2
   1   0   0 874.609 453.536  17
  -1   0  -1 220803. 4912.27   1
   1   0   1 210244. 3724.26  17
  -1   0  -1 219673. 4828.54  16
   1   0   1 225420. 3941.06  18
  -1   0  -2 1619.28 770.353   1
  -1   0  -2 731.413 656.261  16
   1   0   2 1072.88 514.966  17
   1   0   2 886.578 650.268  14
  -1   0  -3 71.7049 679.766  16
   1   0   3 1295.08 522.948  17
  -1   0  -3 35.8132 794.251   1
   1   0   3 501.994 649.076  14
   1   0   3 385.201 563.715   4
  -1   0  -4 201.306 792.835   1
   1   0   4-379.430 759.461   4
   1   0   4-6.94064 719.149  14
  -1   0  -4-868.072 897.575  16
   1   0   4-67.2755 387.519  17
  -1   0  -5 119.027 803.592  16
   1   0   5 279.421 919.965  14
  -1   0  -5-167.146 1089.83   1
  -1   0  -6 9483.26 2097.66   1
   1   0   6 9111.05 2023.34  14
  -1   0  -6 8505.30 2102.46  16
   1   0   7 12405.1 2713.30   3
  -1   0  -7 14792.1 3019.25  16
  -1   0  -7 12503.5 2836.08   1
   1   0   7 10994.9 2625.39  14
   1   0   7 9271.33 2844.17   7
   1   0   7 12324.7 1337.97   5
   1   0   8-57.2824 500.097   9
   1   0   8-1708.47 1540.38  14
  -1   0  -8 2708.45 1559.83  16
   1   0   8 2735.35 1464.26   3
   1   0   8 1647.27 1078.96   7
   1   0   8 594.871 718.412   5
  -1   0  -8-2598.67 1898.45   1
   1   0   9 196039. 4996.07   5
   1   0   9 183577. 4628.73   9
   1   0  10 58.8242 689.330   5
   1   0  10 463.685 564.574   9
   1   0  11 9487.66 1066.04   5
   1   0  11 9022.71 908.272   9
   1   0  12 4430.21 629.778   5
  -1   1  12 401.821 384.362   9
  -1   1  11 299.254 526.799   9
  -1   1  11 726.599 619.931   5
  -1   1  10 5363.83 1026.64   9
  -1   1  10 5463.48 1080.52   5
  -1   1   9 2328.03 815.057   9
  -1   1   9 2664.74 930.868   5
   1   1  -8 1151.67 1099.65   1
  -1   1   8 246.001 683.849   5
   1   1  -8 596.264 1039.67  16
  -1   1   8 826.033 738.818   9
  -1   1   8 55.5546 1156.27   7
  -1   1   8-1614.31 943.315   3
  -1   1   7 58969.7 5277.69   3
  -1   1   7 40267.6 4076.77  14
   1   1  -7 61954.0 5196.38  16
  -1   1   7 49136.4 5480.18   7
   1   1  -7 56212.7 5197.75   1
   1   1  -6 13102.9 2286.80   1
  -1   1   6 13443.2 2264.70   3
  -1   1   6 7933.86 2203.61   7
   1   1  -6 13123.3 2228.98  16
  -1   1   6 12917.7 1992.31  14
   1   1  -5 132855. 5723.57  16
  -1   1   5 140198. 5184.63  14
  -1   1   5 126510. 6007.06   3
   1   1  -5 133257. 5894.96   1
   1   1  -4 197343. 6020.26  16
   1   1  -4 197643. 6187.84   1
  -1   1   4 205098. 5425.02  14
  -1   1   3 510687. 8850.59   2
   1   1  -3 460496. 6202.22  17
   1   1  -3 508814. 8512.36   1
  -1   1   3 469673. 8624.24   3
  -1   1   3 464396. 7869.15  15
  -1   1   3 435809. 6641.15  14
   1   1  -3 474069. 8159.23  16
  -1   1   2 243723. 4974.23  15
   1   1  -2 250297. 4292.18  17
  -1   1   2 247598. 3761.16  14
  -1   1   2 254729. 5466.92   2
  -1   1   1 58320.6 2326.54  15
   1   1  -1 56557.5 2005.82  17
  -1   1   1 58344.1 2539.42   3
  -1   1   1 53884.9 2333.98   2
  -1   1   0 517001. 6865.21   3
  -1   1   0 518347. 6618.01  15
  -1   1   0 494669. 6718.91   2
   1   1   0 486036. 6629.56   4
   1   1   0 521269. 4827.59  14
  -1   1  -1 513816. 7527.84   1
  -1   1  -1 517177. 6928.35  16
   1   1   1 509630. 7089.19   4
  -1   1  -2 133436. 4413.19   1
   1   1   2 129174. 4025.43   4
  -1   1  -2 137287. 4263.56  16
   1   1   3 78083.8 3607.14   4
   1   1   3 78662.6 3562.71  14
  -1   1  -3 79070.1 3914.24   1
  -1   1  -3 81237.7 3834.17  16
  -1   1  -4 3419.62 1143.30   1
  -1   1  -4 4831.98 1288.12  16
   1   1   4 4420.74 1233.83   4
   1   1   4 5841.04 1438.50  14
   1   1   5 14861.7 2177.48  14
  -1   1  -5 16997.4 2438.04  16
  -1   1  -5 15329.5 2338.72   1
   1   1   6 368.841 815.741  14
  -1   1  -6 1393.46 1177.59  16
  -1   1  -6 932.003 1034.66   1
   1   1   7 25826.6 3723.39   3
   1   1   7 28774.0 1935.52   5
  -1   1  -7 25073.9 3850.68   1
  -1   1  -7 24106.0 3873.39  16
   1   1   7 23233.5 3439.64  14
  -1   1  -8 13589.4 3585.11   1
   1   1   8 24698.2 1899.93   5
   1   1   8 11414.0 3675.68   7
   1   1   8 18058.3 1558.48   9
  -1   1  -8 17403.8 3794.05  16
   1   1   8 16593.1 3175.98  14
   1   1   8 18842.2 3745.99   3
   1   1   9 46132.5 2345.92   9
   1   1   9 53997.4 2700.19   5
   1   1  10 2405.72 792.704   5
   1   1  10 1383.52 628.595   9
   1   1  11 9330.15 1059.89   5
   1   1  12 3136.20 563.726   5
  -1   2  11 1044.22 577.446   9
  -1   2  11 1319.77 681.268   5
  -1   2  10 9308.32 1259.64   5
  -1   2  10 10189.9 1253.32   9
  -1   2   9 1656.68 749.259   9
  -1   2   9 683.965 719.425   5
  -1   2   8 13752.5 3176.91   7
   1   2  -8 17471.7 3434.25  16
   1   2  -8 22367.6 3650.89   1
  -1   2   8 21966.4 1830.80   5
  -1   2   8 18489.9 1667.08   9
  -1   2   8 21128.1 3452.54   3
  -1   2   7 99911.2 7052.05   3
  -1   2   7 78953.1 6718.33   7
  -1   2   7 85875.4 5768.67  14
   1   2  -7 106565. 6883.68  16
   1   2  -7 107843. 7233.55   1
   1   2  -6 12759.0 2266.26   1
  -1   2   6 13265.3 2404.78   3
   1   2  -6 12664.1 2218.15  16
  -1   2   6 11579.0 2004.51  14
  -1   2   5 28975.9 2845.49  14
   1   2  -5 26399.3 2720.26  16
  -1   2   5 26632.3 2883.60   3
   1   2  -5 28522.4 2876.59   1
   1   2  -4 4736.96 1167.68  16
  -1   2   4 4416.33 1118.34  14
   1   2  -4 3583.89 646.068  17
  -1   2   4 4512.91 1240.37   3
  -1   2   4 4605.20 1128.16  15
   1   2  -4 5655.68 1208.22   1
  -1   2   3 51102.6 2917.52   2
  -1   2   3 53661.7 2559.24  14
   1   2  -3 48712.8 2744.29   1
  -1   2   3 46713.5 2668.63  15
   1   2  -3 44013.8 1946.17  17
   1   2  -3 51316.8 2880.07  16
  -1   2   3 48611.5 2904.71   3
  -1   2   2 81488.5 3195.17   2
  -1   2   2 75937.2 3118.11  15
  -1   2   2 77934.2 3252.56   3
   1   2  -2 80700.3 2649.17  17
  -1   2   2 76744.5 2690.44  14
   1   2  -2 83613.3 3111.10   1
  -1   2   1 258591. 5224.73   3
  -1   2   1 258914. 5427.23  15
  -1   2   1 260029. 5035.08   2
   1   2   0 886440. 8333.94  14
  -1   2   0 911389. 9202.79   2
   1   2   0 896477. 8971.64   4
  -1   2  -1 572267. 7015.96  16
   1   2   1 581655. 7662.54   4
   1   2   2 173857. 4690.35   4
  -1   2  -2 185573. 5343.86   1
   1   2   2 190497. 4913.90  14
  -1   2  -2 180946. 4833.54  16
  -1   2  -3 174775. 5908.40   1
  -1   2  -3 165276. 5436.51  16
   1   2   3 163501. 5299.61   4
   1   2   3 155379. 5172.91  14
  -1   2  -4 145913. 5901.00  16
  -1   2  -4 150641. 6303.73   1
   1   2   4 150152. 5852.92   4
   1   2   5 27427.4 2992.59  14
  -1   2  -5 26198.6 2998.32  16
  -1   2  -5 23141.1 2984.23   1
  -1   2  -6 16720.7 2872.50   1
   1   2   6 19875.3 3009.40   3
  -1   2  -6 16978.1 2756.21  16
   1   2   6 14169.6 2532.80  14
   1   2   7 39760.8 4707.07   3
   1   2   7 40199.7 2297.82   5
  -1   2  -7 38479.7 4792.47  16
   1   2   7 36051.8 4212.55  14
  -1   2  -7 33014.7 4604.94   1
   1   2   8 15201.1 3163.43   3
  -1   2  -8 14680.6 3795.19   1
   1   2   8 24340.1 1892.72   5
   1   2   8 13978.5 3213.22  14
  -1   2  -8 14028.1 3563.31  16
   1   2   9 10914.8 1379.69   5
   1   2  10 11146.1 1300.17   5
   1   2  11 1132.62 609.018   5
  -1   3  11 13697.7 1211.18   9
  -1   3  10 12257.5 1404.33   5
  -1   3  10 10793.5 1248.31   9
  -1   3   9 39847.0 2408.97   5
  -1   3   9 37658.2 2275.60   9
  -1   3   8 209.690 688.333   9
   1   3  -8-6023.65 2304.98   1
  -1   3   8-205.659 707.380   5
  -1   3   8 2599.74 1611.70   3
   1   3  -8-551.143 842.303  16
  -1   3   8-5553.49 2084.62   7
  -1   3   7 40782.7 4164.48  14
  -1   3   7 44287.2 2379.79   9
   1   3  -7 54516.6 5327.56   1
   1   3  -7 53831.3 5114.24  16
  -1   3   7 51018.1 5140.18   3
  -1   3   6 75320.1 5582.71   3
   1   3  -6 74259.1 5420.84   1
   1   3  -6 72579.6 5203.97  16
  -1   3   6 67854.0 4904.82  14
   1   3  -5 18855.5 2444.19   1
  -1   3   5 17154.4 2427.46   3
   1   3  -5 18013.9 2392.23  16
  -1   3   5 16412.4 2222.83  15
  -1   3   5 14423.1 2263.88  14
   1   3  -4 31619.5 2717.41  16
  -1   3   4 33227.5 2600.99  14
  -1   3   4 29376.8 2539.89  15
  -1   3   4 29396.1 2726.59   3
   1   3  -4 30533.5 2613.42   1
   1   3  -3 44596.4 2124.53  17
  -1   3   3 42578.8 2776.12  15
  -1   3   3 44318.1 2852.48   3
   1   3  -3 45219.1 2700.15   1
  -1   3   3 47889.4 2711.41  14
   1   3  -3 45417.3 2889.21  16
  -1   3   2 100139. 3557.91   2
  -1   3   2 94091.9 3851.51  15
  -1   3   2 94057.7 3725.00   3
  -1   3   2 89907.0 3444.91  14
   1   3  -2 98184.1 3366.52   1
  -1   3   1 999999. 10384.4   3
  -1   3   1 978116. 11835.3  15
  -1   3   1 973561. 9671.31   2
  -1   3   0 191264. 5430.48  15
   1   3   0 192046. 3624.99  15
   1   3   0 184911. 4678.04  14
   1   3   0 176372. 3975.31   4
  -1   3   0 184339. 4243.18   2
  -1   3  -1 1885.91 676.024   2
  -1   3  -1 2336.97 945.055  15
   1   3   1 2105.40 726.173  14
   1   3   1 1635.99 287.721  15
  -1   3  -1 1989.18 508.311  16
   1   3   1 1883.15 583.499   4
   1   3   2 19568.4 1788.09  14
   1   3   2 18478.1 1621.23   4
  -1   3  -2 19899.2 1905.12   1
  -1   3  -2 18727.1 1642.40  16
  -1   3  -3 3256.59 1000.16  16
   1   3   3 2418.33 927.650  14
  -1   3  -3 2404.59 1008.20   1
   1   3   3 3292.07 988.215   4
   1   3   4 98088.5 4887.93   4
   1   3   4 86599.8 4607.54  14
  -1   3  -4 94128.1 5194.40   1
  -1   3  -4 88371.5 4721.96  16
   1   3   5 147328. 6747.38  14
  -1   3  -5 159526. 7291.87  16
  -1   3  -5 158422. 7676.98   1
   1   3   6 2283.47 1148.72   3
  -1   3  -6 3314.82 1325.20   1
   1   3   6 675.594 1322.50  14
  -1   3  -6 292.912 851.210  16
  -1   3  -7-2198.81 1754.04   1
   1   3   7 2782.61 1533.72   3
  -1   3  -7 606.225 1032.38  16
   1   3   7-2331.04 1399.44  14
   1   3   7 107.359 578.632   5
   1   3   8 6392.09 1086.36   5
   1   3   9 5765.90 1085.84   5
   1   3  10 5956.66 999.954   5
   1   3  11 24297.6 1455.11   5
  -1   4  10 1026.53 553.904   9
  -1   4   9 19216.9 1663.47   9
  -1   4   9 19993.9 1761.39   5
  -1   4   8 26160.6 1995.19   5
   1   4  -8 12487.7 3298.77   1
   1   4  -8 22364.6 3986.63  16
  -1   4   8 6638.31 2776.01   7
  -1   4   8 20201.8 3526.88   3
  -1   4   8 25321.0 1916.72   9
  -1   4   7 9359.05 1214.14   5
  -1   4   7 9329.47 1204.64   9
  -1   4   7 10814.0 2521.32   3
   1   4  -7 10366.3 2429.36  16
   1   4  -7 12262.7 2716.83   1
   1   4  -6 4432.90 1599.85   1
   1   4  -6 4377.57 1541.79  16
  -1   4   6 2113.35 1275.24   3
  -1   4   6 4173.80 2544.05  14
   1   4  -5 36104.8 3393.24   1
  -1   4   5 31176.3 3128.07  15
   1   4  -5 32328.9 3292.96  16
  -1   4   5 30047.9 3050.63  14
  -1   4   5 32053.9 3427.79   3
  -1   4   4 42260.3 3151.28  14
  -1   4   4 39928.7 3257.30   3
   1   4  -4 42051.1 3271.49  16
  -1   4   4 34681.8 2914.63  15
   1   4  -4 41830.0 3134.68   1
   1   4  -3 133978. 5200.02  16
  -1   4   3 129037. 5029.43   3
   1   4  -3 130171. 4109.50  17
  -1   4   3 123654. 5012.93  15
  -1   4   3 129754. 4932.27  14
   1   4  -3 127743. 4602.48   1
   1   4  -2 228143. 5078.03   1
  -1   4   2 229622. 5961.53   3
  -1   4   2 217880. 6147.15  14
  -1   4   2 228444. 5312.17   2
  -1   4   2 230992. 6647.55  15
  -1   4   1 32451.3 1704.80   2
  -1   4   1 30127.8 1804.58   3
   1   4  -1 27277.0 1720.02   4
  -1   4   1 31857.7 2461.82  15
   1   4   0 258047. 5238.37  15
   1   4   0 255762. 6397.18  14
   1   4   0 243035. 4320.61   4
  -1   4   0 242773. 4640.74   2
   1   4   1 88330.9 3868.60  14
  -1   4  -1 91868.3 4568.39  15
   1   4   1 81901.0 2836.66   4
  -1   4  -1 81965.4 3215.61   2
   1   4   1 78289.6 2404.15  15
  -1   4  -2 74701.2 4518.17  15
   1   4   2 61688.1 2996.64   4
  -1   4  -2 61000.2 2942.73  16
   1   4   2 54918.4 2193.31  15
   1   4   2 69283.6 3606.82  14
  -1   4  -3 67306.6 3999.94   1
   1   4   3 67974.2 3659.88   4
  -1   4  -3 67996.9 3689.11  16
   1   4   3 67943.0 3875.91  14
  -1   4  -4 119074. 5626.89  16
   1   4   4 116769. 5605.16  14
  -1   4  -4 114019. 5952.70   1
   1   4   5 16561.8 2583.79   3
  -1   4  -5 15468.3 2523.36  16
  -1   4  -5 13404.0 2496.32   1
   1   4   5 12744.4 2355.60  14
   1   4   6 80572.4 6193.08   3
  -1   4  -6 71242.3 6003.79  16
   1   4   6 72907.4 6039.90  14
  -1   4  -6 71934.8 6295.57   1
  -1   4  -7 7836.99 2735.34  16
   1   4   7 16855.6 2965.64   3
   1   4   7 7367.88 2314.78  14
  -1   4  -7 14395.7 2980.31   1
   1   4   7 12536.6 1397.75   5
   1   4   8 6592.21 1134.06   5
   1   4   9 1892.44 768.390   5
   1   4  10 19357.6 1484.46   5
   1   4  11 678.284 402.328   5
  -1   5   9 8784.10 1168.39   9
  -1   5   8 19280.4 1701.60   9
  -1   5   7 1676.79 746.846   9
   1   5  -7 4807.09 2120.21  16
   1   5  -6 13539.0 2631.56  16
  -1   5   6 14364.0 2674.85   3
  -1   5   6 12032.7 3067.73  14
   1   5  -5 56980.0 4589.00  16
  -1   5   5 49140.5 4270.56   3
   1   5  -5 49679.4 4084.16   1
  -1   5   5 54374.1 4320.02  15
  -1   5   5 57183.2 4381.14  14
  -1   5   4 118762. 5732.83  15
  -1   5   4 125779. 5780.04  14
   1   5  -4 121439. 5415.01   1
  -1   5   4 118331. 5706.79   3
   1   5  -4 137236. 6173.15  16
   1   5  -3 200248. 5792.41  17
  -1   5   3 188708. 6468.50   3
   1   5  -3 210296. 6925.69  16
  -1   5   3 209021. 6989.87  14
  -1   5   3 201942. 6962.78  15
  -1   5   2 157612. 5929.75  14
  -1   5   2 162794. 6190.79  15
   1   5  -1 183416. 6069.04  15
  -1   5   1 155262. 5935.91  15
   1   5   0 261786. 7482.61  14
   1   5   0 256412. 6158.24  15
  -1   5   0 249451. 7718.51  15
  -1   5  -1 43787.5 3547.34  15
   1   5   1 41074.3 2202.60  15
   1   5   1 41821.1 3057.69  14
  -1   5  -2 962.437 994.641  15
  -1   5  -2-300.682 431.583  16
   1   5   2 430.188 744.682  14
  -1   5  -2 107.191 416.854   2
  -1   5  -3 68518.2 5188.87  15
   1   5   3 60891.2 3996.80  14
   1   5   4 81515.9 4855.99   3
  -1   5  -4 79704.1 4913.85  16
  -1   5  -4 71340.2 4934.22   1
  -1   5  -5 7443.64 1872.40   1
   1   5   5 5298.21 1630.96   3
  -1   5  -5 6070.59 1801.16  16
   1   5   5 8584.84 2063.26  14
   1   5   6 58809.0 5659.54  14
  -1   5  -6 57364.7 5555.95  16
  -1   5  -7 2971.81 1819.42  16
   1   5   7 1245.68 2242.92  14
   1   5   8 21545.5 1744.15   5
   1   5   9 1583.44 655.183   5
   1   5  10 586.656 481.462   5
   1   6  -7 36037.0 4965.88  16
   1   6  -6 52913.6 5267.07  16
  -1   6   6 43207.4 4947.36  14
  -1   6   5 7139.47 1854.57  15
   1   6  -5 8954.06 1977.33  16
  -1   6   5 6506.76 1870.12  14
   1   6  -4 176901. 7507.37  16
  -1   6   4 179978. 7580.57  14
  -1   6   4 173190. 7422.08  15
   1   6  -3 81806.9 4653.26  16
  -1   6   3 79832.4 4879.69  14
  -1   6   3 72737.3 4651.03  15
   1   6  -2 17705.0 2084.42  16
   1   6  -2 20665.7 2601.55  15
  -1   6   2 18230.1 2368.91  14
  -1   6   2 18063.5 2391.57  15
  -1   6   1 2443.02 999.132  15
   1   6  -1 3489.64 957.508  15
   1   6   0 16201.4 2243.32  14
   1   6   0 17862.2 1835.90  15
  -1   6   0 14196.5 2176.81  15
   1   6   1 10644.0 1826.65  14
  -1   6  -1 7743.63 1753.34  15
  -1   6  -2 293145. 10570.7  15
   1   6   2 297157. 9220.12  14
   1   6   3 94212.4 5380.30  14
  -1   6  -3 99983.1 6831.02  15
   1   6   4 1823.98 1119.43  14
  -1   6  -4 2343.98 1614.93  15
  -1   6  -5 12654.8 3196.64  15
   1   6   5 7138.88 2026.23  14
  -1   6  -6 18729.4 3857.04  15
   1   6   6 12083.4 3270.01  14
   1   7  -6 11614.4 2565.90  16
  -1   7   6 10450.2 2692.47  14
  -1   7   5 10175.5 2319.74  14
   1   7  -5 9034.22 2142.62  16
  -1   7   5 9820.27 2203.03  15
  -1   7   4 5351.82 1698.14  14
   1   7  -4 4564.04 1561.44  16
   1   7  -4 4905.79 2038.38  15
  -1   7   4 6728.01 1849.66  15
   1   7  -3 19356.9 3014.68  15
  -1   7   3 16195.8 2542.44  15
  -1   7   3 18176.8 2668.98  14
   1   7  -3 19705.5 2560.38  16
   1   7  -2 133039. 5828.69  16
   1   7  -2 136483. 7060.18  15
  -1   7   2 137466. 6956.53  14
  -1   7   2 142146. 6993.09  15
  -1   7   1 39943.2 3740.47  15
   1   7  -1 31260.6 3075.34  15
  -1   7   0 14870.8 2426.75  15
   1   7   0 17488.0 2546.74  14
   1   7   1 60413.4 4598.69  14
  -1   7  -1 57824.2 4832.83  15
   1   7   2 6050.73 1728.84  14
  -1   7  -2 8784.16 2090.10  15
  -1   7  -3 68063.8 6032.31  15
   1   7   3 66728.7 5225.61  14
   1   7   4 7359.43 1902.24  14
  -1   7  -4 10478.0 2462.77  15
   1   7   5 4876.65 1675.88  14
  -1   7  -5 3631.57 1854.91  15
   1   8  -5-1461.51 1569.51  15
  -1   8   5 5814.53 1660.53  14
  -1   8   4 8843.30 2096.68  14
  -1   8   4 8462.21 1956.19  15
   1   8  -4 11763.5 2610.85  15
  -1   8   3 30215.0 3681.02  15
   1   8  -3 30918.8 3992.94  15
  -1   8   3 35917.5 4133.02  14
  -1   8   2 5009.99 1622.71  14
  -1   8   2 7339.57 2095.99  15
   1   8  -1 16373.8 2820.32  14
  -1   8   1 15406.9 2669.62  14
  -1   8   1 13249.9 2410.15  15
  -1   8   0 2857.20 1274.86  15
   1   8   0 6934.58 1801.33  14
   1   8   1 46803.6 4497.97  14
  -1   8  -1 48049.7 4822.49  15
   1   8   2 40810.7 4226.95  14
  -1   8  -2 33828.1 4236.31  15
   1   8   3 55581.8 5128.47  14
  -1   8  -3 53925.1 5770.22  15
  -1   8  -4 20985.7 3774.46  15
   1   8   4 15693.8 2984.15  14
  -1   9   4 22253.4 3399.09  14
  -1   9   3 7777.05 2092.83  15
  -1   9   3 12451.5 2777.72  14
   1   9  -2 24971.5 3873.43  14
  -1   9   2 28467.2 3725.59  15
  -1   9   2 37480.9 4342.84  14
  -1   9   1 4127.61 1601.33  15
   1   9  -1 3940.29 1426.33  14
  -1   9   0 7141.80 1972.79  15
   1   9   0 4958.53 1825.54  14
  -1   9  -1 15100.1 2944.25  15
   1   9   1 16148.8 2901.46  14
  -1   9  -2 35464.0 4654.65  15
   1   9   2 39059.1 4594.40  14
   1   9   3 15233.1 2915.78  14
  -1   9  -3 6226.89 2077.65  15
   1  10  -1-4354.22 2129.73  14
  -1  10   0 6256.00 2272.71  15
  -1  10   0 5717.71 2059.81  14
   1  10   0 7835.47 2199.20  14
   2 -14   0 2805.92 458.544  11
   2 -14   1 924.655 359.587  11
  -2 -13   5 2471.24 583.439  13
  -2 -13   4 392.495 450.298  13
  -2 -13   3 4325.11 737.919  13
  -2 -13   2 19034.8 1361.64  10
  -2 -13   2 19423.1 1331.60  13
   2 -13  -1 10650.1 1013.83  11
  -2 -13   1 11123.2 1069.54  10
  -2 -13   1 9187.70 1049.53  13
   2 -13   0 4242.30 753.491  11
  -2 -13   0 3146.46 688.854  10
   2 -13   1 3612.10 727.830  11
  -2 -13  -1 3162.86 616.753  10
   2 -13   1 3334.79 583.337  13
   2 -13   2 3050.26 655.157  11
   2 -13   2 2507.78 562.970  13
   2 -13   3 3834.22 638.799  11
   2 -13   3 4002.48 596.434  13
   2 -13   4 2225.14 420.531  11
   2 -13   4 2351.07 450.864  13
  -2 -12   6 9793.79 887.061  13
  -2 -12   5 4449.77 750.879  13
  -2 -12   4 13873.0 1401.40  10
  -2 -12   4 15541.3 1312.71  13
  -2 -12   3 1120.33 645.955  10
  -2 -12   3 697.665 575.920  13
   2 -12  -2 315.023 464.376  11
  -2 -12   2 930.567 611.716  10
  -2 -12   2 901.357 563.763  13
   2 -12  -1 11300.6 1245.00  11
  -2 -12   1 11036.9 1237.27  10
  -2 -12   1 10029.6 1130.99  13
   2 -12   0 2616.36 812.939  11
  -2 -12   0 2072.09 710.957  10
  -2 -12   0 706.395 611.515  13
   2 -12   0 1587.28 554.804  13
   2 -12   1 286.685 637.452  11
   2 -12   1-74.0242 467.048   9
   2 -12   1 878.861 529.802  13
  -2 -12  -1 177.802 522.629  10
   2 -12   2 3224.36 792.519  11
  -2 -12  -2 3002.95 701.688  10
   2 -12   2 4730.62 688.851   9
   2 -12   2 3652.77 813.968  13
   2 -12   3 9808.82 1113.53  11
   2 -12   3 10137.4 903.491   9
   2 -12   3 9975.08 1084.04  13
   2 -12   4 1580.97 557.081  11
   2 -12   4 2632.23 485.321   9
   2 -12   4 2822.58 610.151  13
   2 -12   5 274.977 365.273  11
   2 -12   5-13.5319 242.140   9
   2 -12   5 46.5602 365.442  13
  -2 -11   7 14583.1 1065.44  13
  -2 -11   7 11324.3 904.500  12
  -2 -11   6 1868.43 636.936  13
  -2 -11   6 1707.66 522.898  12
  -2 -11   5 162.540 525.809  13
  -2 -11   5 266.777 402.318  12
  -2 -11   4 414.919 687.518  10
  -2 -11   4-259.972 580.219  13
  -2 -11   3 15868.5 1536.57  10
  -2 -11   3 16422.9 1568.75  11
  -2 -11   3 17352.0 1586.91  13
  -2 -11   2 5056.51 1048.89  11
   2 -11  -2 4504.25 1015.76  11
  -2 -11   2 4407.09 978.884  10
  -2 -11   2 4598.30 988.115  13
  -2 -11   1 71917.3 3063.33  11
   2 -11  -1 66618.3 3180.60  11
  -2 -11   1 70492.1 3013.70  10
  -2 -11   1 64164.7 2871.86  13
  -2 -11   0 12276.0 1361.94  11
   2 -11   0 13456.0 1631.22  11
  -2 -11   0 13363.8 1424.72  10
  -2 -11   0 13125.2 1361.10  13
   2 -11   0 10444.8 1294.80  13
   2 -11   1 22665.4 1908.16  11
  -2 -11  -1 23824.4 1805.01  10
   2 -11   1 21521.5 1784.60  13
   2 -11   2 12639.3 1423.77  11
  -2 -11  -2 12856.1 1343.13  10
   2 -11   2 12192.0 1411.46  13
   2 -11   3 1249.19 794.197  11
  -2 -11  -3 1794.50 600.567  10
   2 -11   3 797.636 529.296   9
   2 -11   3 1477.04 722.283  13
   2 -11   4 6211.59 1025.03  11
   2 -11   4 6591.66 850.496   9
   2 -11   4 6111.63 993.325  13
   2 -11   5 23958.3 1513.91  11
   2 -11   5 27871.3 1486.87   9
   2 -11   5 23125.2 1554.28  13
   2 -11   6 1187.73 409.164   9
   2 -11   6 1452.83 500.391  13
  -2 -10   8-661.992 468.782  13
  -2 -10   8 47.8445 358.268  12
  -2 -10   7 2384.57 653.664  13
  -2 -10   7 1942.48 605.663  12
  -2 -10   6 84695.6 2947.67  13
  -2 -10   6 71979.8 2958.60  12
  -2 -10   5 2222.38 869.032  10
  -2 -10   5 2159.88 751.783  13
  -2 -10   5 1871.00 726.722  12
  -2 -10   4 34772.5 2167.70  11
  -2 -10   4 33151.4 2201.96  10
  -2 -10   4 32915.9 2103.34  13
  -2 -10   4 27378.0 1935.06  12
  -2 -10   3 8497.02 1228.51  11
  -2 -10   3 8625.17 1222.75  13
  -2 -10   3 7359.78 1166.93  10
  -2 -10   3 5680.24 976.091  12
   2 -10  -2 47984.7 2735.19  11
  -2 -10   2 50262.8 2609.97  10
  -2 -10   2 52533.6 2696.76  11
  -2 -10   2 49853.0 2610.97  13
  -2 -10   1-228.862 657.180  11
   2 -10  -1-17.5263 798.168  11
  -2 -10   1 225.471 702.302  10
  -2 -10   1 53.5832 638.226  13
   2 -10   0 6971.49 1286.65  11
  -2 -10   0 7331.26 1192.67  10
   2 -10   0 5514.07 1049.22  13
  -2 -10   0 7015.54 1125.91  11
  -2 -10   0 7135.02 1112.91  13
   2 -10   1 24076.0 2052.66  11
  -2 -10  -1 22039.0 1821.38  10
   2 -10   1 20972.7 1900.54  13
   2 -10   2 53.9506 700.313  11
  -2 -10  -2 178.669 720.904  10
   2 -10   2-199.529 683.076  13
   2 -10   3 46588.8 2654.24  11
  -2 -10  -3 44434.2 2445.23  10
   2 -10   3 45474.5 2614.37  13
   2 -10   3 49512.0 2376.05   9
   2 -10   4 12910.7 1458.32  11
   2 -10   4 13656.2 1311.04   9
   2 -10   4 12169.2 1427.82  13
   2 -10   5 3237.84 831.932  11
   2 -10   5 4142.75 797.093   9
   2 -10   5 2819.85 815.106  13
   2 -10   6 4707.42 869.463  13
   2 -10   6 4928.40 766.635   9
   2 -10   7 7932.44 805.415   9
   2 -10   7 7958.73 816.310  13
   2 -10   8 286.847 229.813   9
  -2  -9   9-125.579 368.525  12
  -2  -9   8 6729.85 799.585  13
  -2  -9   8 8591.61 1084.54  12
  -2  -9   7 9373.96 1224.50  12
  -2  -9   7 10038.1 1171.05  13
  -2  -9   6 30335.8 1943.89  13
  -2  -9   6 27472.9 2075.40  12
  -2  -9   5 15648.0 1591.20  11
  -2  -9   5 15322.9 1684.35  10
  -2  -9   5 17293.1 1597.32  13
  -2  -9   5 13721.2 1572.48  12
  -2  -9   4 45408.9 2489.54  11
  -2  -9   4 41991.2 2532.39  10
  -2  -9   4 42767.8 2410.00  13
  -2  -9   4 37762.6 2408.00  12
  -2  -9   3 946.108 730.264  10
  -2  -9   3 1503.93 738.531  11
  -2  -9   3 1657.99 725.768  13
  -2  -9   3 1475.35 685.482  12
  -2  -9   2 27618.0 2056.15  11
   2  -9  -2 23644.3 2022.48  11
  -2  -9   2 25425.5 1960.62  10
   2  -9  -2 29551.8 4320.45  18
  -2  -9   2 22828.3 3671.88   8
  -2  -9   2 28659.9 2012.14  13
  -2  -9   2 21688.9 1782.43  12
   2  -9  -2 21677.8 3737.38  19
  -2  -9   1 39843.9 2443.41  11
   2  -9  -1 35921.8 4728.50  19
  -2  -9   1 41144.7 2383.99  10
   2  -9  -1 32186.2 4442.37  18
  -2  -9   1 40083.0 2369.94  13
   2  -9  -1 41867.2 2696.83  11
  -2  -9   1 33860.4 4544.53   8
  -2  -9   0 7224.03 1175.05  11
   2  -9   0 8763.24 1391.39  11
  -2  -9   0 9041.26 1299.09  10
   2  -9   0 12298.2 2723.22  19
   2  -9   0 13201.0 2790.19  18
  -2  -9   0 6946.36 2053.28   8
  -2  -9   0 8703.76 1188.62  13
   2  -9   0 7216.95 1197.61  13
   2  -9   1 43056.0 2685.44  11
  -2  -9  -1 41093.5 2438.71  10
   2  -9   1 35129.0 4476.88  18
   2  -9   1 36176.6 4679.97  19
   2  -9   1 38934.1 2547.51  13
  -2  -9  -1 34856.9 4797.47   8
   2  -9   2 5027.40 1142.34  11
  -2  -9  -2 4841.97 1018.16  10
   2  -9   2 5430.33 1163.09  13
   2  -9   3 7711.05 1277.18  11
  -2  -9  -3 7529.39 1238.51  10
   2  -9   3 7137.46 1252.90  13
   2  -9   4 36087.3 2372.53  11
  -2  -9  -4 31803.1 2106.49  10
   2  -9   4 37935.4 2126.79   9
   2  -9   4 37785.2 2394.03  13
   2  -9   5 14675.8 1505.48  11
   2  -9   5 17230.9 1472.86   9
   2  -9   5 15895.0 1621.99  13
   2  -9   6 1630.76 747.950  13
   2  -9   6 1508.10 633.284   9
   2  -9   7 13033.9 1114.98   9
   2  -9   7 11134.7 1092.03  13
   2  -9   8 231.602 365.902   9
  -2  -8  10 3433.13 601.575  12
  -2  -8   9 1310.72 584.224  12
  -2  -8   8 5556.59 990.297  12
  -2  -8   7 6056.14 994.272  13
  -2  -8   7 6011.96 1105.74  12
  -2  -8   6 30183.7 2195.92  10
  -2  -8   6 33650.5 2108.34  13
  -2  -8   6 29649.7 2253.55  12
  -2  -8   5 189614. 4878.74  11
  -2  -8   5 188756. 5133.48  10
  -2  -8   5 186202. 4836.04  13
  -2  -8   4 91458.2 3415.86  11
   2  -8  -4 73734.1 6946.42  19
  -2  -8   4 87490.5 3463.68  10
   2  -8  -4 67858.6 6630.88  18
  -2  -8   4 84210.6 3274.14  13
  -2  -8   4 65250.3 6781.70   7
  -2  -8   4 75343.6 3359.41  12
  -2  -8   3 4607.35 944.043  11
   2  -8  -3 6378.82 2246.96  19
   2  -8  -3 5559.55 2048.33  18
  -2  -8   3 4308.11 940.583  10
  -2  -8   3 4544.76 1531.81   8
  -2  -8   3 4711.82 949.660  13
  -2  -8   3 6146.07 2209.75   7
  -2  -8   3 3281.52 818.312  12
  -2  -8   2 10165.4 1293.91  11
   2  -8  -2 10032.0 1359.53  11
  -2  -8   2 11255.0 1317.57  10
   2  -8  -2 14199.8 2684.19  19
   2  -8  -2 9745.36 2471.19  18
  -2  -8   2 11455.2 2377.75   8
  -2  -8   2 12803.5 1349.44  13
  -2  -8   2 8365.03 2400.40   7
  -2  -8   2 10074.1 1240.69  12
  -2  -8   1 2818.67 766.250  11
   2  -8  -1 3228.68 938.394  11
   2  -8  -1 1248.38 1051.02  18
  -2  -8   1 1742.38 1153.31   8
  -2  -8   1 2703.86 747.954  10
  -2  -8   1 3260.09 801.820  13
   2  -8  -1 3599.83 1742.43  19
  -2  -8   1 2487.86 770.686  12
  -2  -8   0 9218.75 1199.13  11
   2  -8   0 12719.2 1521.29  11
   2  -8   0 15355.7 2958.15  18
  -2  -8   0 11343.9 1315.26  10
  -2  -8   0 12460.9 2819.92   8
  -2  -8   0 10427.9 1181.25  13
   2  -8   0 10188.6 1349.07  13
   2  -8   0 14818.3 2900.52  19
   2  -8   1 37175.1 2388.78  11
  -2  -8  -1 33952.1 2216.69  10
  -2  -8  -1 37653.5 4753.32   8
   2  -8   1 30643.9 2209.67  13
   2  -8   1 37616.8 4540.04  19
   2  -8   1 38957.3 4419.22  18
   2  -8   2 29434.3 2235.61  11
   2  -8   2 28807.2 4043.88  19
  -2  -8  -2 27569.6 2051.71  10
  -2  -8  -2 22196.6 3966.54   8
   2  -8   2 27609.9 2084.70  13
   2  -8   2 26042.8 3662.79  18
   2  -8   3 40340.9 2622.44  11
  -2  -8  -3 37367.8 2428.36  10
   2  -8   3 41974.8 2555.57  13
  -2  -8  -3 33972.3 5127.75   8
   2  -8   3 35541.3 4491.75  18
   2  -8   4 4586.02 1035.48  11
  -2  -8  -4 4290.64 1009.18  10
   2  -8   4 4103.63 857.185   9
   2  -8   4 4648.23 1085.48  13
   2  -8   5 48876.6 2597.17  11
   2  -8   5 52726.3 2518.58   9
   2  -8   5 54113.6 2884.90  13
   2  -8   6 12279.3 1284.41   9
   2  -8   6 11361.7 1398.48  13
   2  -8   7 7250.11 953.391   9
   2  -8   7 6311.32 1005.22  13
   2  -8   8 1725.17 547.027   9
   2  -8   9 1285.33 386.907   9
  -2  -7  11 609.061 269.492  12
  -2  -7  10 2041.51 593.046  12
  -2  -7   9 9034.79 1155.00  12
  -2  -7   8 2190.22 826.086  12
  -2  -7   7 3751.83 859.430  13
  -2  -7   7 4268.25 1006.71  12
  -2  -7   6 7134.06 1172.75  10
  -2  -7   6 6841.02 1092.85  13
  -2  -7   6 6132.64 1136.61  12
  -2  -7   5 24691.0 1840.55  11
  -2  -7   5 22260.5 1914.69  10
   2  -7  -5 22668.0 3884.64  18
  -2  -7   5 24889.8 4231.10   7
  -2  -7   5 25132.2 1820.66  13
  -2  -7   5 20833.5 1872.52  12
   2  -7  -5 23599.3 3698.61  19
  -2  -7   4 38855.4 2247.02  11
   2  -7  -4 39295.1 4823.10  18
  -2  -7   4 35441.5 2274.67  10
   2  -7  -4 41597.1 4746.58  19
  -2  -7   4 37474.7 4954.79   7
  -2  -7   4 36467.4 2156.51  13
  -2  -7   4 34480.0 2250.85  12
  -2  -7   3 11043.5 1236.07  11
   2  -7  -3 12680.7 2501.93  19
   2  -7  -3 11641.4 2439.59  18
  -2  -7   3 10693.9 2277.02   8
  -2  -7   3 12023.3 1254.93  13
  -2  -7   3 14138.2 2935.15   7
   2  -7  -2 2512.54 1389.20  18
   2  -7  -2 1352.95 1140.77  19
  -2  -7   2 725.563 776.403   7
  -2  -7   2 602.693 981.565   8
   2  -7  -1 41720.4 4359.70  19
   2  -7  -1 43087.8 4459.04  18
  -2  -7   1 37350.8 4615.42   7
  -2  -7   1 41328.5 4352.33   8
   2  -7   0 34045.5 3947.15  18
   2  -7   0 35648.9 4068.73  19
  -2  -7   0 33409.8 4022.40   8
   2  -7   1 11373.2 2282.80  18
  -2  -7  -1 10694.5 2539.57   8
   2  -7   1 9326.60 2280.12  19
   2  -7   2 36986.7 4079.70  18
  -2  -7  -2 41630.3 5012.28   8
   2  -7   2 43974.9 4684.00  19
   2  -7   3 72292.0 3278.04  11
  -2  -7  -3 58293.1 2947.45  10
   2  -7   3 70793.4 5869.92  18
  -2  -7  -3 69634.8 6870.14   8
   2  -7   4 35498.3 2353.33  11
  -2  -7  -4 28057.3 2193.32  10
   2  -7   4 31729.6 4173.81  18
  -2  -7  -4 30927.0 5055.67   8
   2  -7   4 39896.2 2472.82  13
   2  -7   5 3866.41 1033.94  11
   2  -7   5 3017.42 823.729   9
   2  -7   5 4114.22 1054.91  13
   2  -7   6 1300.44 669.611   9
   2  -7   6 1414.46 810.263  13
   2  -7   7 14883.4 1333.56   9
   2  -7   7 14328.8 1435.81  13
   2  -7   7 11229.2 1335.19  12
   2  -7   8 536.460 356.950  12
   2  -7   8 1042.72 534.979   9
   2  -7   9 2591.73 564.628   9
   2  -7   9 2233.96 500.968  12
   2  -7  10 4561.47 500.436   9
  -2  -6  11 1118.70 427.899  12
  -2  -6  10 3020.27 616.699   9
  -2  -6  10 3310.40 729.768  12
  -2  -6   9 2909.99 688.294   9
  -2  -6   9 2615.16 792.037  12
  -2  -6   8 27521.2 1818.37   9
  -2  -6   8 34099.8 2280.20  12
  -2  -6   7 28676.2 2224.16  12
  -2  -6   6 54281.2 2819.24  10
   2  -6  -6 59755.1 6427.42  19
  -2  -6   6 65733.0 7184.09   7
  -2  -6   6 63274.2 2761.15  13
   2  -6  -6 63635.1 6538.30  18
  -2  -6   6 67602.3 3289.69  12
  -2  -6   5 118269. 3814.33  11
  -2  -6   5 133267. 9540.32   7
  -2  -6   5 101149. 3648.40  10
   2  -6  -5 132283. 8563.46  19
   2  -6  -5 115388. 8003.88  18
  -2  -6   5 113462. 3669.52  13
  -2  -6   5 116702. 4098.63  12
   2  -6  -4 124902. 7653.04  18
   2  -6  -4 126854. 7725.86  19
  -2  -6   4 121317. 8411.34   7
   2  -6  -3 32890.3 3827.98  18
   2  -6  -3 40301.2 4136.61  19
  -2  -6   3 35438.7 3793.79   8
  -2  -6   3 32944.4 4192.22   7
   2  -6  -2 113863. 6707.44  18
  -2  -6   2 115757. 6439.59   8
   2  -6  -2 119924. 6924.98  17
  -2  -6   2 113222. 7285.81   7
   2  -6  -2 121262. 6779.77  19
   2  -6  -1 2532.42 1292.58  19
   2  -6  -1 1420.21 822.925  18
  -2  -6   1 2315.77 1231.46   8
  -2  -6   1 1187.05 1101.36   7
   2  -6  -1 1260.83 1301.85  17
   2  -6   0 103459. 6204.18  18
  -2  -6   0 104841. 6548.23   8
   2  -6   0 103083. 6277.24  19
   2  -6   0 100743. 6048.42  17
  -2  -6  -1 51401.3 4905.30   8
   2  -6   1 53966.2 4706.78  19
   2  -6   1 52105.8 4377.83  18
   2  -6   2 41527.7 4015.41  18
  -2  -6  -2 43843.1 4811.17   8
   2  -6   2 41562.6 4201.39  19
   2  -6   3 49619.5 4546.39  18
  -2  -6  -3 49609.7 5486.26   8
  -2  -6  -4 78476.7 3541.28  10
   2  -6   4 99715.7 6908.45  18
  -2  -6  -4 98894.1 8317.69   8
  -2  -6  -5 4578.44 1030.84  10
   2  -6   5 4413.30 880.653   9
  -2  -6  -5 3953.44 2149.96   8
   2  -6   5 2455.75 869.625  13
   2  -6   6 6737.27 1030.97   9
   2  -6   6 5059.81 1093.16  13
   2  -6   7 12323.1 1441.52  13
   2  -6   7 17694.4 1500.56   9
   2  -6   8 3774.46 791.529   9
   2  -6   9 920.627 526.327  12
   2  -6   9 525.912 452.468   9
   2  -6  10 508.840 343.975   9
   2  -6  10 591.319 313.037  12
  -2  -5  11 1076.89 426.768   9
  -2  -5  11 762.000 392.630  12
  -2  -5  10 723.258 477.250   9
  -2  -5  10 666.383 526.740  12
  -2  -5   9 20472.1 1596.76   9
  -2  -5   9 20940.9 1810.87  12
  -2  -5   8 34145.4 2072.05   9
  -2  -5   8 37054.6 2423.01  12
  -2  -5   7 47747.2 2783.43  12
  -2  -5   7 40618.2 2207.75   9
   2  -5  -7 42856.5 5573.61  19
  -2  -5   7 49062.9 6559.72   7
   2  -5  -7 35285.9 5245.94  18
   2  -5  -6 17662.2 3378.86  19
   2  -5  -6 14716.4 3177.57  18
  -2  -5   6 19049.7 3786.28   7
  -2  -5   6 18214.5 1700.76  12
   2  -5  -5 15686.0 2993.57  19
   2  -5  -5 15098.9 2906.51  18
  -2  -5   5 17884.3 3433.59   7
   2  -5  -5 16382.7 2550.30   1
   2  -5  -4 5115.41 1642.70  18
   2  -5  -4 6717.48 1997.79  17
   2  -5  -4 6511.08 1463.37   1
  -2  -5   4 6946.81 2043.53   7
   2  -5  -4 5211.64 1602.62  19
  -2  -5   3 33422.2 2945.73   3
   2  -5  -3 31573.6 2707.90   1
  -2  -5   3 32462.3 2754.88   2
   2  -5  -3 37487.7 3683.43  19
   2  -5  -3 34806.1 3597.01  18
   2  -5  -3 34128.0 3613.88  17
  -2  -5   3 37554.4 4111.89   7
  -2  -5   3 36376.9 3496.54   8
   2  -5  -3 30991.1 2983.85   4
  -2  -5   2 34567.8 2671.60   3
  -2  -5   2 37115.0 2716.85   2
   2  -5  -2 43753.4 3822.75  19
   2  -5  -2 41531.3 3701.85  18
  -2  -5   2 42309.1 3607.87   8
   2  -5  -2 39887.0 2791.39   1
  -2  -5   2 39792.2 4030.42   7
   2  -5  -2 35210.1 2934.22   4
   2  -5  -2 38995.7 3646.04  17
   2  -5  -1 33262.1 3383.92  17
   2  -5  -1 33593.0 3324.04  18
  -2  -5   1 36410.2 3438.34   8
   2  -5  -1 32614.5 2600.20   4
  -2  -5   1 30993.8 3489.97   7
   2  -5  -1 37198.6 3452.57  19
   2  -5   0 149460. 6883.05  19
   2  -5   0 130168. 6367.42  18
   2  -5   0 128746. 6197.24  17
   2  -5   0 128768. 5038.79   4
  -2  -5   0 138179. 6858.58   8
   2  -5   1 42338.7 3485.04  17
   2  -5   1 48492.2 4035.10  19
   2  -5   1 44375.1 3752.83  18
  -2  -5  -1 45720.0 4274.71   8
  -2  -5  -1 36473.0 3023.27   2
   2  -5   1 39659.6 2864.61   4
   2  -5   2 109203. 5966.26  18
   2  -5   2 118091. 6498.06  19
  -2  -5  -2 118760. 7223.63   8
   2  -5   2 107188. 5121.96   4
  -2  -5  -3 45262.8 4205.79  19
   2  -5   3 55065.1 4484.70  18
  -2  -5  -3 58865.4 5744.64   8
  -2  -5  -3 47977.4 4383.41   2
   2  -5   3 50879.5 4035.02   4
   2  -5   4 7481.84 1925.15  18
  -2  -5  -4 7863.25 2566.29   8
  -2  -5  -4 6350.48 2128.93  19
  -2  -5  -5 33730.8 5025.60  19
   2  -5   5 49142.5 2346.69   9
  -2  -5  -5 35708.3 5769.43   8
   2  -5   6 33222.8 2016.42   9
  -2  -5  -6 17893.7 4110.29  19
  -2  -5  -6 9182.77 4061.68   8
   2  -5   6 26973.4 2046.03  13
   2  -5   7 12848.8 1336.85   9
   2  -5   8 2225.26 732.579   5
   2  -5   8 1914.01 682.104   9
   2  -5   9 4576.96 801.599   9
   2  -5  10 339.225 355.105  12
   2  -5  10 988.934 432.064   9
  -2  -4  11 1415.53 485.011   6
  -2  -4  11 2140.69 579.315   9
  -2  -4  11 2188.05 585.061  12
  -2  -4  10 14601.2 1321.40   9
  -2  -4  10 15668.2 1432.72  12
  -2  -4   9 3078.85 876.426   9
  -2  -4   9 2518.46 836.013  12
  -2  -4   8 20580.6 1697.56   9
  -2  -4   8 21620.3 1911.76  12
   2  -4  -7 5988.06 2357.26  19
   2  -4  -7 7744.30 2248.96  18
  -2  -4   7 1033.51 1455.26   3
  -2  -4   7 4017.96 840.822   9
  -2  -4   7 5994.99 2329.89   7
   2  -4  -7 3745.63 1533.51   1
  -2  -4   7 5580.50 1089.94  12
  -2  -4   6 5227.46 1672.90   3
   2  -4  -6 6823.36 1876.39  19
   2  -4  -6 7673.54 2203.18  18
  -2  -4   6 6003.53 1975.73   7
   2  -4  -6 6928.87 1833.09   1
  -2  -4   6 5755.15 1022.85  12
  -2  -4   5 25991.4 3537.80   3
   2  -4  -5 25130.7 3418.28  19
   2  -4  -5 24599.0 3371.45  18
   2  -4  -5 22020.0 3244.07  17
  -2  -4   5 22825.8 3725.87   7
   2  -4  -5 22004.8 2824.70   1
  -2  -4   4 25359.0 2989.75   3
  -2  -4   4 25332.7 2702.49   2
   2  -4  -4 25534.8 3153.98  19
   2  -4  -4 23959.9 2979.38  17
   2  -4  -4 24091.0 3049.12  18
  -2  -4   4 27579.7 3633.38   7
   2  -4  -4 26933.1 2764.32   1
  -2  -4   3 34662.3 2835.39   2
  -2  -4   3 35972.8 3032.58   3
   2  -4  -3 38962.7 3485.70  19
   2  -4  -3 35838.1 3316.62  18
   2  -4  -3 36174.3 3409.83  17
  -2  -4   3 36142.2 3229.09   8
   2  -4  -3 38480.5 2954.41   1
  -2  -4   3 33700.0 3653.39   7
   2  -4  -2 1793.84 987.064  19
  -2  -4   2 1269.67 746.583   3
   2  -4  -2 2068.19 996.341  18
  -2  -4   2 1668.19 989.447   8
   2  -4  -2 1419.70 979.291  17
   2  -4  -2 2309.86 926.862   4
  -2  -4   2 1759.01 1171.34   7
  -2  -4   2 1985.55 777.169   2
  -2  -4   1 19178.6 2313.59   8
   2  -4  -1 20912.6 2428.44  19
   2  -4  -1 19277.9 2090.17   4
  -2  -4   1 18183.4 2485.59   7
   2  -4  -1 20549.3 2365.13  17
  -2  -4   1 18566.7 1930.01   2
   2  -4  -1 18830.2 2317.35  18
   2  -4   0 221.131 838.931  19
   2  -4   0 793.722 1008.78  17
  -2  -4   0 777.772 960.785   8
   2  -4   0 251.948 884.365  18
  -2  -4   0 139.954 699.528   2
   2  -4   0 118.913 747.570   4
   2  -4   1 65657.4 4384.97  19
   2  -4   1 60564.2 3593.14   4
   2  -4   1 63620.9 3741.50  17
  -2  -4  -1 62717.1 4520.76   8
  -2  -4  -1 59696.3 3843.18   2
   2  -4   1 58256.9 3948.94  18
   2  -4   2 63390.5 4417.67  19
  -2  -4  -2 49344.3 3505.14  19
   2  -4   2 52139.2 3329.44  17
  -2  -4  -2 55641.9 4111.79   2
   2  -4   2 59233.8 3752.19   4
   2  -4   2 39729.9 3018.32   7
  -2  -4  -2 65287.0 5140.07   8
   2  -4   2 56902.2 4002.73  18
   2  -4   3 25046.4 2861.96  18
  -2  -4  -3 24750.4 3112.58   2
   2  -4   3 27874.9 2869.04   4
   2  -4   3 20270.3 2625.99   7
  -2  -4  -3 22905.3 3623.49   8
   2  -4   4 25363.8 3190.27   4
   2  -4   4 21758.3 3181.46   7
   2  -4   4 28404.9 3365.42  18
   2  -4   5 13678.9 2855.57   7
  -2  -4  -6 48388.0 5738.65  19
   2  -4   6 54805.2 2666.44   5
   2  -4   6 63297.0 2693.87   9
   2  -4   6 46949.7 5388.15   3
  -2  -4  -6 55091.2 6472.17  16
   2  -4   7 15608.9 1453.71   9
   2  -4   7 15492.5 1562.68   5
   2  -4   8 7680.06 1203.65   5
   2  -4   8 7933.93 1073.23   9
   2  -4   9 8249.41 1094.83   5
   2  -4   9 8209.18 1007.40   9
   2  -4  10 551.681 469.362   5
   2  -4  10 1031.90 488.232   9
   2  -4  11 984.249 326.542  12
  -2  -3  12 1053.20 306.790   6
  -2  -3  12 2204.52 451.648   9
  -2  -3  11 4316.18 761.846   9
  -2  -3  11 4392.22 738.512  12
  -2  -3  10 17951.4 1513.78   9
  -2  -3  10 15426.4 1526.34  12
  -2  -3   9 3847.95 910.497   9
  -2  -3   9 3506.87 925.525  12
   2  -3  -8 48441.7 5930.36   1
  -2  -3   8 49016.7 6142.97   3
  -2  -3   8 62582.4 3069.18   5
  -2  -3   8 54532.6 6972.38   7
  -2  -3   8 58407.0 2765.53   9
  -2  -3   8 60603.0 3014.59  12
   2  -3  -7 70727.8 6314.47   1
  -2  -3   7 61512.8 6261.21   3
  -2  -3   7 59168.8 2910.12   5
   2  -3  -7 59852.1 6057.98  19
  -2  -3   7 57405.0 2649.33   9
  -2  -3   7 67789.5 7319.69   7
  -2  -3   7 62124.6 3059.81  12
  -2  -3   6 34245.4 4347.63   3
   2  -3  -6 32767.8 4094.77  19
  -2  -3   6 33919.9 4763.77   7
   2  -3  -6 36338.5 4076.15   1
  -2  -3   5 64661.7 5172.92   3
   2  -3  -5 59908.2 4922.24  19
  -2  -3   5 68780.9 5874.34   7
   2  -3  -5 69057.6 4837.55   1
   2  -3  -5 55667.1 4680.43  17
  -2  -3   4 69575.1 4300.45   2
  -2  -3   4 77846.3 5152.87   3
   2  -3  -4 69936.9 4603.22  17
   2  -3  -4 74790.6 4943.74  19
   2  -3  -4 58695.7 3233.06  16
  -2  -3   4 73051.1 5426.59   7
   2  -3  -4 77507.6 4502.34   1
   2  -3  -4 66627.4 4681.76  18
  -2  -3   3 14684.1 1885.48   2
  -2  -3   3 14972.0 2125.05   3
  -2  -3   3 13672.8 1879.52   8
   2  -3  -3 14842.5 1920.09   1
   2  -3  -3 12390.5 1920.41  19
   2  -3  -3 14314.2 2090.72  18
   2  -3  -3 15052.3 2072.31  17
   2  -3  -3 12709.7 1313.89  16
  -2  -3   3 16303.9 2386.59   7
  -2  -3   2 151226. 5585.56   3
   2  -3  -2 156100. 5990.26  19
   2  -3  -2 146702. 5822.19  18
   2  -3  -2 159321. 5783.34  17
  -2  -3   2 153017. 5520.77   8
  -2  -3   2 146927. 6349.79   7
   2  -3  -2 129943. 3280.35  16
  -2  -3   2 147689. 5320.53   2
  -2  -3   1 171692. 5596.25   3
   2  -3  -1 183832. 6356.62  19
   2  -3  -1 173115. 5961.09   4
   2  -3  -1 181104. 5872.81  17
  -2  -3   1 174817. 6036.14   8
  -2  -3   1 172027. 6595.95   7
   2  -3  -1 175066. 6218.86  18
  -2  -3   1 173920. 5792.85   2
   2  -3   0 244339. 7413.59  18
  -2  -3   0 233197. 6878.71   2
   2  -3   0 256098. 7621.09  19
   2  -3   0 241053. 6692.13  17
  -2  -3   0 230277. 7298.75   8
   2  -3   0 242500. 6885.03   4
   2  -3   1 10134.6 1650.08  18
   2  -3   1 11580.0 1603.20  17
  -2  -3  -1 11276.4 1940.89   8
  -2  -3  -1 9875.37 1706.81   2
   2  -3   1 13175.1 1734.13   4
   2  -3   1 6235.91 840.190   7
   2  -3   1 11935.4 1859.88  19
   2  -3   2 32609.4 2869.05  18
   2  -3   2 33735.8 2429.57  17
  -2  -3  -2 32780.2 3102.49   2
   2  -3   2 33512.1 2800.67   4
   2  -3   2 28991.6 2415.29   7
   2  -3   3 38605.8 3355.13  18
   2  -3   3 38233.7 3262.25   4
   2  -3   3 36654.5 3192.38   7
  -2  -3  -4 8960.12 2208.03  16
   2  -3   4 5410.00 1655.10   7
   2  -3   4 9846.47 1979.67   4
  -2  -3  -5 29395.5 4026.19   1
  -2  -3  -5 28056.3 4189.00  16
   2  -3   5 22586.4 3575.15   7
   2  -3   5 27253.8 3616.96   4
  -2  -3  -6 70981.1 6811.42   1
   2  -3   6 61669.5 2618.62   9
  -2  -3  -6 67787.3 7002.36  16
   2  -3   6 67899.7 2941.37   5
  -2  -3  -7 45280.8 6232.31  16
   2  -3   7 61273.7 2899.49   5
   2  -3   7 40854.7 5516.76   3
   2  -3   7 58059.2 2603.80   9
   2  -3   8 17656.7 1676.67   5
   2  -3   8 17122.3 1513.91   9
   2  -3   9 10871.5 1197.37   9
   2  -3   9 10130.0 1299.98   5
   2  -3  10 9324.99 1047.98   5
   2  -3  10 9033.05 969.355   9
   2  -3  11 889.252 384.395  12
   2  -3  11 173.821 293.667   5
  -2  -2  12 277.365 302.581   6
  -2  -2  12 429.502 367.278   9
  -2  -2  11 562.917 543.416   9
  -2  -2  11 33.1016 313.573  12
  -2  -2  10 3948.26 931.775   9
  -2  -2  10 3769.55 892.751  12
  -2  -2   9 2131.51 779.783   9
  -2  -2   9 1792.15 773.597  12
   2  -2  -8 28731.9 4508.43   1
  -2  -2   8 30815.0 2168.25   5
  -2  -2   8 33373.1 2134.41   9
   2  -2  -8 24016.1 3888.74  19
  -2  -2   8 18099.9 4238.21   7
  -2  -2   8 24300.2 4299.36   3
  -2  -2   8 28352.6 2107.43  12
   2  -2  -7 30017.7 4110.70   1
  -2  -2   7 28127.3 4092.38   3
  -2  -2   7 23828.7 1881.26   5
   2  -2  -7 20793.0 3543.78  19
  -2  -2   7 22979.2 1716.89   9
  -2  -2   7 23644.4 4088.86   7
   2  -2  -7 23038.1 3359.09  16
  -2  -2   7 21115.7 1778.12  12
  -2  -2   6 40360.7 4444.77   3
   2  -2  -6 37942.8 4153.28  19
   2  -2  -6 31961.1 3578.07  17
   2  -2  -6 35109.2 3481.04  16
  -2  -2   6 39627.3 4964.56   7
   2  -2  -6 42429.1 4210.94   1
   2  -2  -5 6771.50 1404.86  16
  -2  -2   5 2765.01 1234.10   2
   2  -2  -5 4775.51 1492.17  19
  -2  -2   5 5385.79 1748.69   3
   2  -2  -5 3955.66 1385.26   1
  -2  -2   5 6306.56 1839.80   7
   2  -2  -5 5456.57 1604.36  17
  -2  -2   4 87405.6 4714.53   2
  -2  -2   4 91595.8 5405.22   3
   2  -2  -4 79716.7 4692.97  19
   2  -2  -4 82909.5 3987.87  16
   2  -2  -4 93125.9 4853.54   1
  -2  -2   4 93620.6 5722.91   7
   2  -2  -4 79388.4 4499.79  17
  -2  -2   3 115983. 4989.55   2
  -2  -2   3 127166. 5698.79   3
   2  -2  -3 132062. 5455.52  19
   2  -2  -3 115685. 5269.57  18
   2  -2  -3 127753. 4233.51  16
  -2  -2   3 119982. 5778.39   7
   2  -2  -3 125896. 5156.29  17
  -2  -2   2 149924. 5475.41   3
   2  -2  -2 161080. 5538.63  19
  -2  -2   2 150859. 5796.77   7
  -2  -2   2 149650. 4801.59   8
   2  -2  -2 149502. 5106.29  17
  -2  -2   2 147853. 5252.01   2
   2  -2  -2 145776. 5398.59  18
  -2  -2   1 109206. 4458.67   3
  -2  -2   1 105589. 4469.22   2
   2  -2  -1 123084. 4715.18  19
   2  -2  -1 105176. 4131.72  17
  -2  -2   1 105654. 4197.98   8
  -2  -2   1 103559. 4617.26   7
   2  -2  -1 108301. 4639.03   4
   2  -2  -1 109298. 4533.60  18
   2  -2   0 28282.7 2152.87  17
  -2  -2   0 26835.3 2339.06   8
  -2  -2   0 25001.1 2288.48   2
   2  -2   0 27048.0 2313.97   4
   2  -2   0 29259.7 2433.39  18
   2  -2   0 32055.4 2546.76  19
   2  -2   1 77545.7 3968.88  19
  -2  -2  -1 66917.0 3873.96   2
   2  -2   1 63810.6 3131.96  17
   2  -2   1 66220.8 3652.86   4
   2  -2   1 65894.6 3549.89  18
   2  -2   2 289226. 6522.39  17
   2  -2   2 284098. 7606.17  18
   2  -2   2 285406. 7813.89   4
   2  -2   2 282157. 7521.59  14
  -2  -2  -3 2638.89 1239.11  16
   2  -2   3 531.203 777.827  18
   2  -2   3 2435.79 1130.65  14
   2  -2   3 1012.12 817.252   7
   2  -2   3 1055.96 823.917   4
  -2  -2  -4 16984.1 2673.58   1
  -2  -2  -4 13345.5 2519.06  16
   2  -2   4 13214.4 2227.29   4
   2  -2   4 13273.6 2294.47  14
   2  -2   4 8822.69 2132.03   7
  -2  -2  -5 29298.0 3905.06   1
  -2  -2  -5 23313.8 3566.66  16
   2  -2   5 24550.4 3322.58   4
   2  -2   5 19091.2 3196.73   7
   2  -2   5 24017.7 3255.99  14
  -2  -2  -6 14951.5 3084.33   1
   2  -2   6 12940.7 1358.10   5
   2  -2   6 9762.50 1110.01   9
  -2  -2  -6 10788.5 2715.11  16
   2  -2   6 9306.69 2353.51  14
   2  -2   6 8488.67 2490.87   7
  -2  -2  -7-3639.87 1886.32   1
   2  -2   7-44.3523 515.702   9
   2  -2   7-33.8320 778.505   5
   2  -2   7-2271.32 1527.18   3
   2  -2   7-3177.62 1451.44   7
   2  -2   8 37899.1 2349.93   5
   2  -2   8 36810.9 2104.01   9
   2  -2   9 6657.60 994.131   9
   2  -2   9 6293.53 1064.54   5
   2  -2  10 5054.54 882.957   5
   2  -2  10 5068.24 786.589   9
   2  -2  11 459.271 385.480  12
   2  -2  11 256.542 379.006   5
  -2  -1  12 115.953 304.123   6
  -2  -1  12 49.9390 367.483   9
  -2  -1  11 18726.7 1413.35   9
  -2  -1  10 459.428 692.319   9
  -2  -1  10 1151.75 582.262  12
  -2  -1   9 26712.2 2029.73   5
  -2  -1   9 25355.9 1920.87   9
  -2  -1   9 21727.3 1853.76  12
   2  -1  -8 16287.8 3333.66   1
   2  -1  -8 16793.6 3232.58  16
  -2  -1   8 15893.1 1615.21   5
  -2  -1   8 16370.7 1570.52   9
  -2  -1   8 13361.2 3246.73   3
  -2  -1   8 20191.5 3990.76   7
  -2  -1   8 12043.2 1418.85  12
   2  -1  -7 79711.2 6381.67   1
  -2  -1   7 65126.4 6084.95   3
  -2  -1   7 60780.9 2872.06   5
   2  -1  -7 53022.2 5233.43  19
  -2  -1   7 57739.5 2686.36   9
   2  -1  -7 66580.7 5528.67  16
  -2  -1   7 73132.0 7122.67   7
  -2  -1   6 17811.1 2931.06   3
   2  -1  -6 14745.4 2542.78  19
   2  -1  -6 18952.4 2476.84  17
   2  -1  -6 21937.1 2824.39  16
  -2  -1   6 21080.0 3495.36   7
   2  -1  -6 24291.7 3187.65   1
   2  -1  -5-596.177 670.432  19
   2  -1  -5 451.912 913.348  17
  -2  -1   5 241.829 786.362   3
   2  -1  -5-681.775 818.041  16
   2  -1  -5 965.290 860.452   1
  -2  -1   5-194.068 685.672   2
  -2  -1   5 494.208 938.721   7
  -2  -1   4 87982.8 4733.63   2
  -2  -1   4 92151.1 5221.12   3
   2  -1  -4 90881.3 4590.49  19
   2  -1  -4 97813.2 4622.33  17
   2  -1  -4 94174.8 4336.45  16
   2  -1  -4 101334. 5012.54   1
  -2  -1   4 94668.0 5411.33   7
  -2  -1   3 440271. 9497.77   2
  -2  -1   3 477122. 10997.5   3
   2  -1  -3 461759. 8993.43  17
   2  -1  -3 467080. 9360.21  19
   2  -1  -3 448232. 8461.15  16
  -2  -1   3 487346. 10597.6   7
  -2  -1   2 314664. 7745.39   3
   2  -1  -2 319611. 6947.59  19
   2  -1  -2 314290. 7242.87  18
   2  -1  -2 316491. 6857.39  17
  -2  -1   2 299315. 5857.49   8
  -2  -1   2 305274. 7303.91   7
  -2  -1   2 300512. 7409.12   2
   2  -1  -1 7291.20 1341.52   4
  -2  -1   1 7046.10 1277.59   3
   2  -1  -1 7253.81 1128.75  19
   2  -1  -1 7636.12 1221.48  18
   2  -1  -1 5318.85 1091.84  17
  -2  -1   1 6732.69 1004.22   8
  -2  -1   1 7137.89 848.187  15
  -2  -1   1 6663.85 1112.50   7
  -2  -1   1 6531.72 1288.12   2
   2  -1   0 11026.8 1405.51  18
  -2  -1   0 10372.5 1377.24   8
  -2  -1   0 10205.9 732.804  15
  -2  -1   0 9203.40 1476.32   2
   2  -1   0 11957.7 1613.37   4
   2  -1   0 10539.2 1320.23  17
   2  -1   0 12033.0 1462.46  19
   2  -1   1 151085. 4797.52  18
   2  -1   1 153059. 4584.62  17
   2  -1   1 146980. 5295.42   4
  -2  -1  -1 151391. 5661.20   2
   2  -1   1 162031. 4693.56  14
   2  -1   2 231520. 5687.27  17
   2  -1   2 246744. 6550.57  14
   2  -1   2 231225. 6927.10   4
  -2  -1  -2 230814. 7515.12  16
   2  -1   2 240080. 6464.31  18
   2  -1   3 13617.3 1471.71  17
  -2  -1  -3 13637.1 2224.70  16
  -2  -1  -3 14455.6 2173.14   1
   2  -1   3 14396.0 2000.54   4
   2  -1   3 12223.9 1829.84  14
  -2  -1  -4 144968. 7259.56   1
  -2  -1  -4 144830. 7219.09  16
   2  -1   4 142587. 6577.28   4
   2  -1   4 146359. 6448.85  14
  -2  -1  -5 25707.1 3514.09   1
  -2  -1  -5 27544.4 3682.66  16
   2  -1   5 28120.1 3389.36   4
   2  -1   5 14833.6 3126.69   7
   2  -1   5 21528.7 2945.02  14
  -2  -1  -6 27030.7 4046.87   1
   2  -1   6 33812.3 2064.59   5
  -2  -1  -6 34554.7 4713.06  16
   2  -1   6 23695.7 3833.21   7
   2  -1   6 26527.4 3631.89  14
   2  -1   7 7930.64 1059.29   9
   2  -1   7 8076.25 1206.68   5
  -2  -1  -7 9856.97 2534.53  16
   2  -1   7 6128.65 2310.12   3
   2  -1   7 6163.24 2105.64  14
   2  -1   7 7125.70 2381.48   7
  -2  -1  -7 3463.84 1508.79   1
   2  -1   8 18996.4 1567.51   9
   2  -1   8 20223.0 1757.36   5
   2  -1   9 3314.76 782.566   9
   2  -1   9 3859.45 943.526   5
   2  -1  10 501.456 428.160   9
   2  -1  10 903.844 575.038   5
   2  -1  11 778.163 459.598   5
  -2   0  12-224.486 381.426   9
  -2   0  11 10946.8 1133.14   9
  -2   0  10 20252.2 1671.19   9
  -2   0   9 3986.15 997.896   5
  -2   0   9 3241.25 921.415   9
  -2   0   8 488.607 697.604   5
  -2   0   8 172.127 627.784   9
  -2   0   8 159.941 955.515   3
   2   0  -8-4198.87 1910.93  16
  -2   0   8-5301.89 2562.92   7
   2   0  -8-6023.95 2209.54   1
  -2   0   7 9190.76 1200.21   5
  -2   0   7 9201.45 1157.65   9
  -2   0   7 8022.60 2305.48   3
   2   0  -7 10415.6 2242.59  16
  -2   0   7 13684.0 2764.20   7
   2   0  -7 10002.3 2368.09   1
   2   0  -6 14.2273 596.699  19
  -2   0   6 547.041 947.208   3
   2   0  -6 494.942 840.279  16
   2   0  -6 1438.20 893.358   1
  -2   0   6 887.382 972.863   7
  -2   0   5 169113. 7207.36   2
  -2   0   5 170335. 7762.95   7
  -2   0   5 157117. 7353.29   3
   2   0  -5 146279. 6213.72  19
   2   0  -5 159917. 6045.18  17
   2   0  -5 177108. 6887.40  16
   2   0  -5 182919. 7422.02   1
  -2   0   4 138191. 5817.36   2
   2   0  -4 137154. 5103.78  17
  -2   0   4 133628. 6135.45   3
   2   0  -4 124267. 4925.16  19
   2   0  -4 146740. 5554.03  16
   2   0  -4 148784. 6005.45   1
  -2   0   4 143613. 6121.93   7
  -2   0   3 37470.2 2859.46   2
  -2   0   3 43621.7 3341.10   3
   2   0  -3 38771.2 2448.35  19
  -2   0   3 41372.4 2723.89  15
  -2   0   3 42250.9 2939.17   7
   2   0  -3 40781.0 2659.09  17
  -2   0   2 518696. 9887.02   3
   2   0  -2 528531. 8561.16  18
   2   0  -2 575291. 8887.08  17
  -2   0   2 594598. 8722.79  15
  -2   0   2 503450. 8053.76   7
  -2   0   2 490258. 9389.49   2
   2   0  -2 529397. 7574.84  19
  -2   0   1 147598. 5064.52   3
  -2   0   1 127911. 2979.12   8
   2   0  -1 166275. 4096.62  19
   2   0  -1 156361. 4538.09  17
   2   0  -1 150557. 4201.19  18
  -2   0   1 169190. 4230.48  15
  -2   0   1 127483. 3282.41   7
  -2   0   1 142645. 5031.87   2
   2   0  -1 149624. 5314.80   4
   2   0   0 83364.4 3027.07  18
   2   0   0 79373.0 3271.12  17
  -2   0   0 91670.4 3060.95  15
  -2   0   0 69366.0 2973.28   8
   2   0   0 87200.3 2657.96  14
  -2   0   0 79251.3 3812.54   2
   2   0   0 82895.9 3896.72   4
   2   0   1 2681.62 743.193  18
   2   0   1 2934.70 866.085  17
  -2   0  -1 2041.66 971.289   2
  -2   0  -1 2889.96 703.629  15
   2   0   1 2401.25 779.852  14
   2   0   1 2957.69 940.125   4
   2   0   2 96377.4 3848.70  18
  -2   0  -2 90010.9 4568.20  16
  -2   0  -2 91225.4 3701.21  15
   2   0   2 84892.6 3492.10  17
   2   0   2 102186. 4162.86  14
   2   0   2 86665.4 4201.79   4
  -2   0  -3 44382.1 3579.26   1
   2   0   3 43466.6 2577.31  17
  -2   0  -3 47132.1 3703.81  16
   2   0   3 40726.5 3174.86   4
   2   0   3 47152.4 3231.81  14
  -2   0  -4 210778. 8549.32   1
  -2   0  -4 212725. 8570.94  16
   2   0   4 204738. 7693.82   4
   2   0   4 211794. 7442.78  14
  -2   0  -5 43008.2 4457.92  16
   2   0   5 41545.6 4084.79   4
   2   0   5 39038.7 3726.95  14
  -2   0  -5 44147.6 4488.94   1
   2   0   6 25451.0 1766.70   5
  -2   0  -6 26061.1 3907.84  16
   2   0   6 21369.9 3462.78   4
   2   0   6 20271.1 3093.39  14
  -2   0  -6 23694.0 3663.99   1
  -2   0  -7 74126.8 7203.63   1
  -2   0  -7 77576.5 7454.36  16
   2   0   7 62912.4 6064.50  14
   2   0   8-32.7330 676.623   5
   2   0   9 1388.40 765.339   5
   2   0  10 519.927 559.728   5
   2   0  11 121.605 395.855   5
  -2   1  12-8.27481 330.465   6
  -2   1  11 19943.2 1472.81   9
  -2   1  10-447.035 647.770   9
  -2   1   9 24216.4 1957.72   5
  -2   1   9 24861.4 1911.63   9
   2   1  -8 19069.2 3567.29   1
  -2   1   8 17328.3 1675.33   5
  -2   1   8 16575.4 1594.75   9
  -2   1   8 12061.8 2981.18   3
   2   1  -8 15450.5 3068.39  16
  -2   1   8 14416.4 2880.20   7
   2   1  -7 78465.2 6313.90   1
  -2   1   7 66027.1 6085.16   3
  -2   1   7 62892.8 2876.54   5
  -2   1   7 61809.6 2806.80   9
   2   1  -7 80906.5 6182.32  16
  -2   1   7 61249.9 5955.95   7
  -2   1   6 21139.7 3103.74   3
   2   1  -6 21724.1 3056.30  16
  -2   1   6 21061.4 3131.54   7
   2   1  -6 21157.0 3076.40   1
   2   1  -5-223.357 541.186  17
   2   1  -5 62.8507 844.594  19
  -2   1   5 411.253 894.262   3
   2   1  -5 116.936 705.131  16
   2   1  -5-327.563 785.196   1
  -2   1   5 93.6354 664.812   2
  -2   1   5 105.394 720.040   7
  -2   1   4 91905.0 4883.46   2
  -2   1   4 95138.2 5256.76   3
   2   1  -4 98544.8 4809.95  16
   2   1  -4 90741.9 4082.14  17
  -2   1   4 95939.5 4661.36  15
   2   1  -4 102700. 5088.82   1
  -2   1   4 90536.8 4650.64   7
  -2   1   3 448421. 9691.55   2
  -2   1   3 477341. 10933.1   3
   2   1  -3 471825. 8515.27  17
  -2   1   3 469655. 9059.26  15
  -2   1   3 442527. 8311.26   7
  -2   1   2 311389. 7710.47   3
   2   1  -2 295025. 5667.47  18
  -2   1   2 338037. 7081.76  15
   2   1  -2 337116. 6934.15  17
  -2   1   2 316464. 7668.29   2
   2   1  -1 7651.13 800.313  18
  -2   1   1 7281.65 1308.63   3
   2   1  -1 8526.84 1176.88  17
  -2   1   1 8259.87 1208.03  15
   2   1  -1 4057.19 400.640  14
  -2   1   1 7111.60 1326.03   2
   2   1  -1 7770.21 1431.19   4
   2   1   0 9466.79 808.902  18
   2   1   0 10071.4 1303.56  17
   2   1   0 10795.6 985.815  14
  -2   1   0 9756.84 1491.51   2
   2   1   0 9907.67 1506.04   4
  -2   1   0 10577.7 1313.94  15
  -2   1  -1 144236. 5086.68  16
   2   1   1 145278. 4639.70  17
  -2   1  -1 147944. 4818.95  15
  -2   1  -1 149438. 5561.43   2
   2   1   1 160399. 4532.82  14
   2   1   1 143431. 5193.13   4
   2   1   2 206902. 5792.40  17
  -2   1  -2 236238. 7112.25  16
  -2   1  -2 254382. 7173.02  15
   2   1   2 261504. 6510.54  14
   2   1   2 224849. 6808.36   4
  -2   1  -3 15426.6 2273.84   1
   2   1   3 12074.0 1552.17  17
  -2   1  -3 15969.3 2178.11  16
   2   1   3 13485.3 1924.83   4
   2   1   3 14212.0 1914.79  14
  -2   1  -4 144175. 7183.96   1
  -2   1  -4 130767. 6699.37  16
   2   1   4 142623. 6493.12   4
   2   1   4 151953. 6237.20  14
   2   1   4 128721. 4865.82  17
  -2   1  -5 21541.2 3321.98   1
  -2   1  -5 25732.3 3485.65  16
   2   1   5 23832.1 3104.59   4
   2   1   5 25679.1 3123.61  14
  -2   1  -6 31585.0 4350.84   1
   2   1   6 31424.5 1969.53   5
  -2   1  -6 27608.3 3978.02  16
   2   1   6 29130.9 3671.39  14
  -2   1  -7 5395.26 2043.63   1
   2   1   7 9163.45 1198.28   5
  -2   1  -7 6240.10 2283.23  16
   2   1   7 6943.94 2498.09   3
   2   1   7 5709.46 2032.88  14
   2   1   8 21388.1 1777.22   5
   2   1   9 3610.23 903.796   5
   2   1  10 1284.93 647.570   5
   2   1  11 393.848 449.954   5
  -2   2  12 236.876 306.179   6
  -2   2  11 745.287 565.162   9
  -2   2  10 5146.22 998.448   9
  -2   2   9 2727.06 852.880   9
  -2   2   8 27208.9 4466.51   3
   2   2  -8 34562.8 4810.93   1
  -2   2   8 30886.7 2170.38   5
  -2   2   8 28439.3 2041.51   9
   2   2  -8 28626.5 4187.33  16
   2   2  -7 31042.8 4236.98   1
  -2   2   7 24785.2 1848.06   9
  -2   2   7 27491.1 4009.30   3
  -2   2   7 24246.7 1901.34   5
   2   2  -7 29756.3 3833.12  16
  -2   2   7 27832.2 3753.23   7
  -2   2   6 40067.5 4417.87   3
   2   2  -6 40977.4 4057.68  16
  -2   2   6 35676.6 4053.03   7
   2   2  -6 46903.9 4464.48   1
  -2   2   5 6040.73 1699.75   3
   2   2  -5 6228.90 1544.07  16
  -2   2   5 5246.86 1546.19   2
   2   2  -5 7400.53 1737.02   1
  -2   2   5 2992.31 1191.68  15
  -2   2   5 5815.65 1524.20   7
  -2   2   4 84919.4 4810.58   2
  -2   2   4 89747.6 5256.69   3
  -2   2   4 83110.5 4435.20  15
   2   2  -4 91865.3 4898.67  16
   2   2  -4 92205.6 4932.45   1
   2   2  -4 78796.6 3802.26  17
  -2   2   3 129759. 5383.43   2
  -2   2   3 130012. 5729.65   3
   2   2  -3 130830. 4680.03  17
  -2   2   3 130787. 5073.74  15
  -2   2   3 116236. 3243.69  14
  -2   2   2 152673. 5569.05   3
   2   2  -2 166030. 5073.67  17
  -2   2   2 164448. 5379.95  15
  -2   2   2 135993. 3314.74  14
  -2   2   2 149909. 5399.32   2
  -2   2   1 115591. 4692.67   3
   2   2  -1 116325. 4204.90  17
  -2   2   1 107623. 4536.04   2
  -2   2   1 116965. 4508.10  15
   2   2  -1 109277. 2674.84  14
   2   2  -1 113309. 4870.77   4
   2   2   0 28569.8 2170.03  17
  -2   2   0 27310.8 2227.31  15
   2   2   0 30037.0 1752.04  14
  -2   2   0 26822.8 2355.82   2
   2   2   0 26454.1 2336.53   4
   2   2   1 67079.8 3374.49  17
  -2   2  -1 59010.4 3250.96  16
  -2   2  -1 70354.5 3746.87  15
  -2   2  -1 67769.7 3858.84   2
   2   2   1 71610.4 3203.15  14
   2   2   1 68583.7 3686.41   4
   2   2   2 275839. 7039.44  17
  -2   2  -2 281567. 7671.73  16
  -2   2  -2 303039. 8476.52  15
   2   2   2 258051. 6841.79  14
   2   2   2 283089. 7695.42   4
  -2   2  -3 1464.28 938.109  16
  -2   2  -3 2118.58 1020.68  15
   2   2   3 1506.16 887.145  14
   2   2   3 1219.86 775.216   4
   2   2   3 892.731 714.841  17
  -2   2  -4 13393.4 2438.57   1
   2   2   4 13420.1 1796.31  17
  -2   2  -4 16790.7 2518.26  16
   2   2   4 14683.4 2228.58   4
   2   2   4 14658.7 2178.38  14
  -2   2  -5 23132.5 3479.71   1
  -2   2  -5 20109.7 3072.05  16
   2   2   5 25106.5 3241.61   4
   2   2   5 26029.6 3134.07  14
   2   2   6 12627.0 1354.38   5
  -2   2  -6 10572.8 2644.74  16
  -2   2  -6 10487.9 2720.74   1
   2   2   6 11491.4 2416.07  14
  -2   2  -7 2318.68 1748.70   1
   2   2   7 831.119 716.992   5
   2   2   7-1299.63 2028.87   3
   2   2   7-783.393 1299.74  14
   2   2   8 36060.4 2269.89   5
   2   2   9 7364.41 1116.22   5
   2   2  10 4484.60 880.683   5
   2   2  11 390.249 406.022   5
  -2   3  12 686.089 307.912   6
  -2   3  10 19869.1 1628.26   9
  -2   3   9 3510.66 947.240   9
  -2   3   8 46814.3 5972.86   3
  -2   3   8 60073.9 2960.32   5
   2   3  -8 46324.6 5792.44   1
  -2   3   8 59314.7 2899.00   9
   2   3  -8 50398.1 5638.78  16
   2   3  -7 74515.5 6635.20   1
  -2   3   7 68065.0 6579.93   3
  -2   3   7 61774.1 2926.97   5
  -2   3   7 66370.4 3013.41   9
   2   3  -7 72313.5 6129.93  16
  -2   3   6 33275.3 4174.63   3
   2   3  -6 38998.4 4050.03  16
   2   3  -6 36784.5 4074.20   1
  -2   3   5 66438.4 5244.78   3
   2   3  -5 68312.3 4867.72  16
  -2   3   5 59863.9 4357.05  15
   2   3  -5 68920.6 4919.60   1
  -2   3   4 74241.4 4648.79   2
  -2   3   4 78320.3 5154.42   3
   2   3  -4 67066.8 3594.87  17
  -2   3   4 67652.3 4174.32  15
   2   3  -4 79654.5 4772.03  16
   2   3  -4 81046.4 4735.55   1
  -2   3   3 16511.4 2055.72   2
  -2   3   3 16811.6 2224.98   3
   2   3  -3 15570.5 1759.15  17
  -2   3   3 15793.0 1983.53  15
   2   3  -3 17624.7 2134.50   1
  -2   3   3 15255.9 1521.36  14
  -2   3   2 158442. 5839.12   3
   2   3  -2 184570. 5712.70  17
  -2   3   2 161697. 5795.23  15
  -2   3   2 140436. 4301.14  14
   2   3  -2 135235. 3692.89  14
  -2   3   2 157771. 5656.59   2
  -2   3   1 189300. 6123.20   3
   2   3  -1 192392. 5765.80  17
  -2   3   1 186864. 6175.97  15
   2   3  -1 175602. 4373.15  14
   2   3  -1 187652. 6360.10   4
  -2   3   1 179616. 5952.55   2
   2   3   0 235294. 6374.38  17
  -2   3   0 245642. 7195.19  15
   2   3   0 244782. 5500.57  14
  -2   3   0 228865. 6781.33   2
   2   3   0 240794. 6821.36   4
  -2   3  -1 9420.04 1610.21  15
  -2   3  -1 9992.88 1654.55   2
   2   3   1 10725.3 1391.95  14
   2   3   1 11346.6 1638.33   4
  -2   3  -2 29763.7 2556.44  16
  -2   3  -2 32366.5 3095.84  15
  -2   3  -2 30865.7 2967.54   2
   2   3   2 33885.9 2670.27  14
   2   3   2 32025.8 2710.88   4
   2   3   3 38223.4 3175.49   4
  -2   3  -3 31233.6 2917.03  16
  -2   3  -3 40444.3 3936.22  15
   2   3   3 32260.8 2913.27  14
  -2   3  -4 8184.28 1933.32  16
  -2   3  -4 11073.3 2439.91  15
   2   3   4 8948.44 1836.44  14
   2   3   4 8958.63 1823.52   4
  -2   3  -5 29349.3 3945.34   1
  -2   3  -5 25742.3 3550.08  16
  -2   3  -5 30728.4 4226.61  15
   2   3   5 30612.9 3650.94   4
   2   3   5 25195.9 3241.35  14
   2   3   6 68932.5 2878.96   5
  -2   3  -6 51101.1 5546.59  16
  -2   3  -6 56337.4 6391.28  15
   2   3   6 61820.3 5414.34  14
  -2   3  -6 62240.8 6284.83   1
  -2   3  -7 34642.0 5140.93  16
  -2   3  -7 31297.2 5373.55  15
   2   3   7 34604.3 4708.00  14
   2   3   7 43717.3 5465.89   3
   2   3   8 18286.7 1679.73   5
   2   3   9 11264.6 1299.40   5
   2   3  10 9476.98 1087.59   5
   2   3  11 718.547 408.734   5
  -2   4  11 654.681 420.930   6
  -2   4   9 2929.92 911.160   9
  -2   4   8 20538.4 1797.98   9
   2   4  -7 3812.18 1760.71   1
  -2   4   7 5245.07 1077.09   9
  -2   4   7 4695.37 1811.31   3
   2   4  -7 7240.30 2072.25  16
  -2   4   6 4961.67 1002.07   9
  -2   4   6 5760.14 1771.78   3
   2   4  -6 7979.06 2126.84  16
  -2   4   6 5861.35 1622.01  15
   2   4  -6 5033.98 1706.99   1
  -2   4   5 27206.0 3574.91   3
   2   4  -5 23600.0 3048.03  16
  -2   4   5 19681.5 2799.20  15
   2   4  -5 27214.7 3206.42   1
  -2   4   4 25326.0 2881.06   3
  -2   4   4 24970.1 2807.02   2
   2   4  -4 30657.5 3228.40  16
  -2   4   4 23326.3 2746.18  15
   2   4  -4 28623.2 2957.29   1
   2   4  -4 23934.5 2294.67  17
  -2   4   3 38114.4 3083.73   2
  -2   4   3 38217.2 3195.43   3
  -2   4   3 35956.7 3093.08  15
  -2   4   3 34837.6 2626.99  14
   2   4  -3 42631.3 3195.73   1
   2   4  -3 39042.5 2947.32  17
   2   4  -2 1825.28 969.971   4
  -2   4   2 1450.94 851.085   3
   2   4  -2 1461.96 904.117  17
  -2   4   2 2385.55 906.767   2
  -2   4   2 1947.28 968.188  15
  -2   4   2 1371.69 740.511  14
   2   4  -2 1124.08 563.708  14
   2   4  -1 20907.1 2143.91  17
  -2   4   1 20415.9 2316.86  15
   2   4  -1 19537.6 1780.19  14
   2   4  -1 19290.9 2098.47   4
  -2   4   1 17807.8 1933.29   2
  -2   4   0 267.418 783.133   2
  -2   4   0 1479.57 1057.91  15
   2   4   0 398.497 584.907  14
   2   4   0 1146.49 766.743   4
   2   4   1 64333.9 3499.63  14
  -2   4  -1 58051.6 3700.83   2
   2   4   1 60754.8 3499.95   4
  -2   4  -1 62112.1 4221.26  15
  -2   4  -2 60333.3 4595.47  15
   2   4   2 55715.8 3562.51   4
  -2   4  -2 45177.7 3131.41  16
  -2   4  -2 55161.0 3991.34   2
   2   4   2 58096.6 3683.27  14
  -2   4  -3 21122.3 2492.44  16
  -2   4  -3 27239.7 3455.80  15
  -2   4  -3 21473.2 2805.24   2
   2   4   3 24933.3 2663.47   4
   2   4   3 22955.2 2602.73  14
  -2   4  -4 23487.4 3125.91  16
  -2   4  -4 26675.5 3842.38  15
   2   4   4 25932.3 3080.05   4
   2   4   4 25093.5 3052.53  14
  -2   4  -5 15731.0 2807.37  16
  -2   4  -5 19040.2 3724.88  15
   2   4   5 18578.9 3042.33  14
   2   4   6 55156.5 2613.24   5
   2   4   6 49824.0 5351.34   3
  -2   4  -6 44724.8 5175.37  16
  -2   4  -6 58185.8 6692.82  15
   2   4   6 54650.4 5249.13  14
   2   4   7 15759.3 1530.55   5
   2   4   8 7758.78 1156.62   5
   2   4   9 9485.14 1156.44   5
   2   4  10 780.265 472.229   5
   2   5  -7 49054.7 5672.58  16
   2   5  -6 22328.1 3397.64  16
  -2   5   6 18686.6 3124.37  15
  -2   5   5 15175.5 2491.12   3
  -2   5   5 16943.3 2667.85  15
   2   5  -5 20077.9 3066.92  16
   2   5  -5 16739.5 2672.75   1
  -2   5   4 9118.58 1836.30   3
   2   5  -4 10528.2 2111.74  16
  -2   5   4 7171.34 1717.00  15
   2   5  -4 7735.50 1709.26   1
  -2   5   4 8420.63 1521.02  14
  -2   5   3 34418.8 3069.59   3
  -2   5   3 37251.9 3133.82   2
   2   5  -3 39124.4 3191.44  17
  -2   5   3 38345.1 3487.82  15
  -2   5   3 39816.0 3116.13  14
   2   5  -3 40549.9 3125.77   1
   2   5  -3 31353.7 3128.18   4
  -2   5   2 43401.4 3219.49   3
  -2   5   2 42060.0 2976.83   2
   2   5  -2 49060.9 3462.37  17
  -2   5   2 44286.0 3648.11  15
   2   5  -2 46584.5 3071.27   1
  -2   5   2 37375.9 3013.73  14
   2   5  -2 36755.2 2826.36  14
   2   5  -2 39190.7 3152.97   4
  -2   5   1 36387.2 3249.84  15
   2   5  -1 34834.8 2759.76  14
   2   5  -1 32354.7 2606.24   4
  -2   5   1 31707.2 2494.18   2
   2   5   0 120304. 4743.86   4
  -2   5   0 132225. 6262.42  15
  -2   5   0 120345. 4949.57   2
  -2   5  -1 42400.0 3833.74  15
   2   5   1 44617.4 3283.93  14
   2   5   1 41001.5 2818.37   4
  -2   5  -1 39705.9 3085.61   2
  -2   5  -2 109327. 6498.40  15
   2   5   2 103668. 4864.64   4
   2   5   2 116170. 5614.84  14
  -2   5  -2 96853.2 5309.11   2
   2   5   3 48137.2 3786.19   4
  -2   5  -3 60645.8 5456.95  15
  -2   5  -3 46756.4 4251.19   2
   2   5   3 58300.6 4404.56  14
  -2   5  -4 5641.57 1807.23   2
  -2   5  -4 8924.45 2522.04  15
   2   5   4 7443.30 1932.17  14
   2   5   4 8498.51 1664.02   4
  -2   5  -5 52393.5 6280.68  15
   2   5   5 45927.3 4748.76  14
  -2   5  -6 21641.0 4791.70  15
   2   5   6 29482.1 4292.43  14
   2   5   8 1240.34 668.492   5
   2   5   9 3852.16 759.038   5
  -2   6   6 57772.4 5613.90  15
   2   6  -6 67297.6 6346.61  16
   2   6  -5 145772. 8309.54  16
  -2   6   5 128859. 7512.76  15
  -2   6   4 113411. 6080.64  14
  -2   6   4 120152. 6736.47  15
   2   6  -3 37803.7 3403.51  17
   2   6  -3 44393.0 4146.25  16
  -2   6   3 37864.5 3699.59  15
  -2   6   3 34321.8 3285.19  14
   2   6  -2 123751. 5967.72  17
  -2   6   2 110236. 6180.47  15
  -2   6   2 115741. 5939.65  14
   2   6  -2 109956. 5603.59  14
  -2   6   1 2831.36 1360.91  15
   2   6  -1 2312.61 927.919  14
  -2   6   0 103129. 6038.02  15
   2   6   0 109528. 5614.76  14
  -2   6  -1 52159.2 4592.68  15
   2   6   1 51649.6 3953.99  14
  -2   6  -2 43791.7 4464.33  15
   2   6   2 46693.5 3990.26  14
  -2   6  -3 49964.3 5320.32  15
   2   6   3 54237.6 4539.02  14
  -2   6  -4 112183. 8494.88  15
   2   6   4 87799.7 6520.60  14
  -2   6  -5 8908.87 2886.33  15
   2   6   5 1699.95 1714.60  14
   2   7  -5 18037.3 3324.56  16
  -2   7   5 20183.5 3223.70  15
   2   7  -4 40575.0 4455.15  16
  -2   7   4 37752.8 4199.44  15
   2   7  -3 14702.2 2578.93  16
  -2   7   3 13210.5 2414.09  15
  -2   7   3 12597.2 2271.82  14
   2   7  -2-465.203 835.539  17
  -2   7   2-1450.31 1058.47  15
  -2   7   2 513.300 1062.42  14
   2   7  -2-179.943 1307.86  14
   2   7  -1 40825.5 3742.78  14
  -2   7   1 40251.2 4105.35  15
  -2   7   0 33624.8 3790.95  15
   2   7   0 34785.1 3493.88  14
  -2   7  -1 11366.7 2365.63  15
   2   7   1 13895.4 2399.67  14
  -2   7  -2 42131.8 4764.34  15
   2   7   2 44197.9 4213.99  14
  -2   7  -3 70031.3 6387.36  15
   2   7   3 77776.8 5907.78  14
  -2   7  -4 33217.2 4968.54  15
   2   7   4 29562.1 4093.83  14
  -2   8   4 66569.2 5886.39  15
  -2   8   3 4725.23 1542.39  15
  -2   8   3 580.312 1492.08  14
   2   8  -2 11570.4 2353.70  17
  -2   8   2 11255.3 2500.85  15
  -2   8   2 9701.14 2135.18  14
   2   8  -2 11320.8 2178.16  14
  -2   8   1 4977.19 1588.50  15
   2   8  -1 1563.79 1279.28  14
  -2   8   0 12315.8 2596.82  15
   2   8   0 12356.4 2435.21  14
  -2   8  -1 41045.0 4728.44  15
   2   8   1 38062.6 4138.02  14
  -2   8  -2 28177.2 4157.53  15
   2   8   2 29166.3 3700.80  14
  -2   8  -3 42186.8 5193.13  15
   2   8   3 36896.8 4384.22  14
  -2   9   2 27887.1 3847.74  15
  -2   9   2 23645.8 3455.71  14
   2   9  -1 26982.1 3635.00  17
  -2   9   1 36402.4 4605.67  15
  -2   9   1 27184.8 3894.45  14
   2   9  -1 24773.9 3571.71  14
  -2   9   0 9373.45 2436.34  15
   2   9   0 5230.79 2060.65  14
  -2   9  -1 38786.2 4886.38  15
   2   9   1 32930.9 4147.14  14
   2   9   2 3530.20 2135.72  14
  -3 -13   2 2748.27 590.048  10
   3 -13  -1 4843.40 594.137  11
  -3 -13   1 5207.49 730.356  10
   3 -13   0 8047.35 813.410  11
  -3 -13   0 8998.86 846.339  10
   3 -13   1 7310.42 750.280  11
  -3 -13  -1 6992.76 673.996  10
   3 -13   2 11076.2 819.610  11
  -3 -12   5 4265.04 1147.16  13
  -3 -12   4 6100.08 895.518  10
  -3 -12   4 4928.02 1171.45  13
  -3 -12   3 12472.6 1143.84  10
  -3 -12   3 13864.0 1554.93  13
   3 -12  -2 12976.9 1114.27  11
  -3 -12   2 15609.3 1282.44  10
  -3 -12   2 15019.1 1684.79  13
   3 -12  -1 5275.29 853.554  11
  -3 -12   1 5061.83 845.322  10
   3 -12   0 5546.98 901.359  11
  -3 -12   0 8096.51 1018.04  10
   3 -12   1 6088.11 893.323  11
  -3 -12  -1 6473.26 893.511  10
   3 -12   1 7065.38 752.854   9
   3 -12   1 5319.60 760.221  13
   3 -12   2 3044.82 702.961  11
  -3 -12  -2 3441.96 646.819  10
   3 -12   2 4091.17 609.072   9
   3 -12   2 4123.83 675.746  13
   3 -12   3 7191.77 822.578  11
   3 -12   3 7621.29 698.442   9
   3 -12   3 7131.80 793.053  13
   3 -12   4 2620.44 440.031  11
   3 -12   4 3862.87 451.834   9
   3 -12   4 3555.93 524.537  13
  -3 -11   6 32326.5 1724.18  13
  -3 -11   6 25803.9 1413.62  12
  -3 -11   5 902.473 653.482  10
  -3 -11   5 331.453 699.479  13
  -3 -11   5 5.21661 409.534  12
  -3 -11   4 558.957 584.952  10
  -3 -11   4-544.183 679.979  13
  -3 -11   4 542.504 396.536  12
   3 -11  -3 2675.57 688.505  11
  -3 -11   3 3371.19 805.421  10
  -3 -11   3 2912.77 842.415  13
  -3 -11   3 3164.61 638.113  12
   3 -11  -2 3170.99 795.190  11
  -3 -11   2 2904.82 808.011  10
  -3 -11   2 4482.30 1090.97  13
  -3 -11   2 2918.00 639.323  12
   3 -11  -1 38524.3 2289.52  11
  -3 -11   1 45102.8 2305.72  10
  -3 -11   1 41090.5 2420.71  13
   3 -11   0 37899.3 2239.07  11
  -3 -11   0 38490.9 2158.90  10
   3 -11   1 42.2240 632.394  11
   3 -11   1-5.25970 494.965  13
  -3 -11  -1 590.222 646.749  10
   3 -11   2 11040.8 1037.85   9
   3 -11   2 9549.14 1175.12  11
  -3 -11  -2 9986.35 1184.98  10
   3 -11   2 9458.72 1169.28  13
   3 -11   3 16067.9 1356.71  11
  -3 -11  -3 16919.1 1292.38  10
   3 -11   3 17410.8 1216.19   9
   3 -11   3 15723.7 1335.42  13
   3 -11   4 13037.7 996.429   9
   3 -11   4 11631.7 1065.03  13
   3 -11   5 5289.75 600.173   9
   3 -11   5 3002.42 569.996  13
  -3 -10   8 3086.93 515.031  12
  -3 -10   7 3889.09 1111.42  13
  -3 -10   7 4335.04 736.991  12
  -3 -10   6 7899.85 1097.93  13
  -3 -10   6 7267.69 1011.75  12
  -3 -10   5 45718.9 2333.23  10
  -3 -10   5 46009.5 2205.56  13
  -3 -10   5 44399.6 2303.86  12
  -3 -10   4 35481.6 2204.04  10
  -3 -10   4 33849.0 2034.16  13
  -3 -10   4 35296.8 2139.94  12
   3 -10  -3 587.765 655.697  11
  -3 -10   3 2457.63 842.724  10
  -3 -10   3 2183.87 856.038  13
  -3 -10   3 1749.60 714.917  12
   3 -10  -2 1376.65 797.401  11
  -3 -10   2 1274.13 753.946  10
  -3 -10   2 2499.85 841.378  13
  -3 -10   2 2351.22 683.770  12
   3 -10  -1 15314.2 1709.44  11
  -3 -10   1 17757.5 1637.48  10
  -3 -10   1 16397.1 1655.22  13
  -3 -10   1 16409.1 1485.91  12
   3 -10   0 19041.5 1795.67  11
  -3 -10   0 20088.3 1749.00  10
  -3 -10   0 17019.3 1943.42  13
   3 -10   0 13702.0 1475.82  13
   3 -10   1 8430.83 1268.80  11
  -3 -10  -1 9288.16 1319.78  10
   3 -10   1 8355.01 1312.38  13
   3 -10   2-451.058 733.201  11
  -3 -10  -2 119.940 647.863  10
   3 -10   2 867.468 703.699  13
   3 -10   3 41107.3 2287.31  11
  -3 -10  -3 44345.3 2340.43  10
   3 -10   3 44615.4 2086.88   9
   3 -10   3 41870.4 2296.96  13
   3 -10   4 255.816 541.021  11
  -3 -10  -4 743.354 548.371  10
   3 -10   4 451.930 482.052   9
   3 -10   4 635.244 603.213  13
   3 -10   5 15560.1 1151.29   9
   3 -10   5 13357.2 1222.17  13
   3 -10   6 2867.58 520.506   9
   3 -10   6 1803.79 495.201  13
   3 -10   7 4363.42 445.660   9
  -3  -9   9 31.2750 270.804  12
  -3  -9   8 2319.93 601.417  12
  -3  -9   7 1029.75 835.939  13
  -3  -9   7 957.089 529.592  12
  -3  -9   6 1460.35 696.125  10
  -3  -9   6 937.991 671.877  13
  -3  -9   6 1711.54 733.378  12
  -3  -9   5 2773.39 899.082  10
  -3  -9   5 3572.63 897.326  13
  -3  -9   5 3210.51 844.790  12
  -3  -9   4 8188.97 1265.48  10
  -3  -9   4 8673.78 1185.91  13
  -3  -9   4 7863.17 1227.69  12
   3  -9  -3 17095.1 1685.81  11
  -3  -9   3 19037.4 1754.36  10
  -3  -9   3 18824.4 1641.54  13
  -3  -9   3 17652.9 1740.33  12
   3  -9  -2 13486.6 1614.06  11
  -3  -9   2 13665.0 1507.02  10
  -3  -9   2 13425.6 1484.34  13
  -3  -9   2 13195.6 1476.22  12
   3  -9  -1 3414.48 1041.33  11
  -3  -9   1 3385.11 983.610  10
  -3  -9   1 3372.76 925.100  13
   3  -9  -1 2912.90 861.416  13
  -3  -9   1 4016.04 917.755  12
   3  -9   0 8105.23 1374.84  11
  -3  -9   0 7152.92 1223.44  10
  -3  -9   0 8393.99 1400.08  13
   3  -9   0 7087.04 1233.96  13
  -3  -9   0 7681.21 1169.02  12
   3  -9   1 4994.67 1119.92  11
  -3  -9  -1 5550.84 1097.11  10
  -3  -9  -1 3354.27 1867.32  13
   3  -9   1 3909.51 1066.30  13
   3  -9   2 28107.8 2164.24  11
  -3  -9  -2 28663.5 2165.82  10
   3  -9   2 25315.5 2048.35  13
   3  -9   3 57553.7 2954.73  11
  -3  -9  -3 63275.3 3058.05  10
   3  -9   3 62414.1 2959.20  13
   3  -9   4 3246.38 892.321  11
  -3  -9  -4 3151.35 904.970  10
   3  -9   4 3064.48 767.930   9
   3  -9   4 2698.11 867.217  13
  -3  -9  -5 32727.4 1865.00  10
   3  -9   5 33334.0 1784.65   9
   3  -9   5 35804.8 2051.62  13
   3  -9   6 461.017 434.333   9
   3  -9   6 42.6084 477.008  13
   3  -9   7 1705.76 436.479   9
   3  -9   7 873.944 374.269  13
  -3  -8  10 3112.60 440.906  12
  -3  -8   9 4385.72 707.758  12
  -3  -8   8 3321.95 751.856  12
  -3  -8   7 3112.22 870.497  13
  -3  -8   7 2773.63 823.663  12
  -3  -8   6 46061.7 2346.31  13
  -3  -8   6 42901.4 2557.30  12
  -3  -8   5 11607.4 1407.42  10
  -3  -8   5 12767.6 1400.40  13
  -3  -8   5 11664.7 1440.04  12
  -3  -8   4 55737.2 2816.08  10
  -3  -8   4 54276.0 2669.82  13
  -3  -8   4 52618.2 2865.00  12
   3  -8  -3 10706.6 1444.85  11
  -3  -8   3 11340.7 1430.37  10
  -3  -8   3 12629.6 1381.43  13
  -3  -8   3 12823.3 1506.80  12
   3  -8  -2 27816.3 2229.81  11
  -3  -8   2 25207.6 2022.52  10
  -3  -8   2 26128.4 1954.48  13
  -3  -8   2 24706.8 3806.87   8
  -3  -8   2 25264.5 1991.07  12
   3  -8  -2 23907.8 3862.20  19
   3  -8  -2 19850.2 3680.91  18
   3  -8  -1 9410.89 1386.40  11
  -3  -8   1 7947.55 1264.52  10
   3  -8  -1 6386.72 1933.46  19
   3  -8  -1 5202.53 1991.17  18
  -3  -8   1 5120.75 1833.48   8
  -3  -8   1 8902.87 1292.52  13
  -3  -8   1 8969.42 1329.72  12
   3  -8   0 2637.11 875.503  11
  -3  -8   0 2067.53 814.777  10
   3  -8   0 4401.85 1640.00  18
  -3  -8   0 5795.89 2060.21   8
  -3  -8   0 2944.04 1010.34  13
  -3  -8   0 3299.14 894.965  12
   3  -8   0 1673.32 1711.00  19
   3  -8   1 5023.07 1108.50  11
   3  -8   1 5539.57 2279.89  19
  -3  -8  -1 4264.06 1072.72  10
   3  -8   1 539.981 1272.91  18
  -3  -8  -1 333.035 2034.12   8
  -3  -8  -1 2961.32 1479.28  13
   3  -8   2 17286.2 1789.14  11
  -3  -8  -2 18729.2 1779.78  10
   3  -8   3 19702.6 1851.61  11
  -3  -8  -3 18702.6 1842.90  10
   3  -8   4 151302. 4563.12  11
  -3  -8  -4 164290. 4878.73  10
   3  -8   4 155649. 4077.08   9
   3  -8   4 159131. 4697.78  13
   3  -8   5 1958.14 752.038  11
  -3  -8  -5 1696.12 779.640  10
   3  -8   5 1278.41 639.162   9
   3  -8   5 2058.97 829.846  13
  -3  -8  -6 9128.94 1084.83  10
   3  -8   6 12118.1 1131.28   9
   3  -8   6 11289.7 1272.39  13
   3  -8   7 1136.30 515.741   9
   3  -8   7 561.396 438.737  13
   3  -8   8 1306.47 399.273   9
  -3  -7  10 3791.22 595.609  12
  -3  -7   9 574.427 509.674  12
  -3  -7   8 3364.96 805.191  12
  -3  -7   7 12776.1 1343.11  13
  -3  -7   7 13845.3 1522.34  12
  -3  -7   6 19756.7 1731.59  10
  -3  -7   6 25291.3 1819.55  13
  -3  -7   6 20953.6 1887.97  12
  -3  -7   5 13489.8 1498.38  10
  -3  -7   5 15268.8 1473.01  13
  -3  -7   5 14804.5 1639.56  12
  -3  -7   4 53058.4 2763.92  10
   3  -7  -4 48064.1 5485.91  19
   3  -7  -4 47184.9 5512.94  18
  -3  -7   4 57208.4 2727.81  13
  -3  -7   4 51505.9 2820.30  12
   3  -7  -3 4090.48 1069.16  11
   3  -7  -3 8851.29 2325.22  19
   3  -7  -3 2423.94 1384.77  18
  -3  -7   3 4766.83 1032.79  10
  -3  -7   3 4672.82 1703.61   8
  -3  -7   3 5075.88 964.809  13
  -3  -7   3 5158.12 1022.31  12
  -3  -7   2 1658.10 813.915  10
   3  -7  -2 934.383 714.613  11
   3  -7  -2 3193.24 1466.47  19
   3  -7  -2 1852.92 1344.93  18
  -3  -7   2 2583.57 1449.35   8
  -3  -7   2 1592.80 619.799  13
  -3  -7   2 1072.50 634.002  12
   3  -7  -1 2694.12 974.786  11
   3  -7  -1 3173.97 1456.99  19
  -3  -7   1 2710.63 858.182  10
   3  -7  -1 2397.92 1244.21  18
   3  -7  -1 330.983 1269.21  17
  -3  -7   1 2783.87 1517.40   8
  -3  -7   1 2796.76 853.085  13
  -3  -7   1 2778.07 831.908  12
   3  -7   0 4042.77 1092.33  11
   3  -7   0 5333.90 1842.78  19
  -3  -7   0 4766.96 939.950  10
   3  -7   0 3994.95 1654.64  18
  -3  -7   0 2317.26 1484.13   8
  -3  -7   0 4086.69 978.590  13
  -3  -7   0 3861.15 868.039  12
   3  -7   1 50336.2 2801.27  11
  -3  -7  -1 47482.6 2705.13  10
   3  -7   1 49438.1 5276.29  19
   3  -7   1 46714.4 4861.14  18
  -3  -7  -1 50397.9 5803.33   8
  -3  -7  -1 36738.2 2477.64  13
  -3  -7  -1 49888.9 2767.01  12
   3  -7   2 24340.5 2052.59  11
  -3  -7  -2 22144.7 1976.98  10
   3  -7   2 23029.4 3447.72  18
  -3  -7  -2 19827.8 3869.95   8
   3  -7   3 40950.4 2550.57  11
  -3  -7  -3 43408.0 2722.51  10
   3  -7   4 24882.9 2037.79  11
  -3  -7  -4 26346.6 2218.33  10
  -3  -7  -5 50989.7 2817.28  10
   3  -7   5 51703.5 2409.73   9
   3  -7   5 54380.6 2800.98  13
  -3  -7  -6 30264.7 2002.22  10
   3  -7   6 33832.1 1887.40   9
   3  -7   6 33087.8 2083.11  13
   3  -7   7 251.727 518.383   9
   3  -7   7-210.815 497.408  13
   3  -7   8 6549.81 763.383   9
  -3  -6  10 609.822 438.143  12
  -3  -6   9 10979.5 1210.40  12
  -3  -6   8 8193.86 1199.28  12
  -3  -6   7 321.268 643.709  13
  -3  -6   7 241.812 630.870  12
  -3  -6   6 2463.59 806.457  13
  -3  -6   6 2611.46 833.020  12
  -3  -6   5 31286.9 2129.15  10
   3  -6  -5 39138.5 5041.37  19
   3  -6  -5 32586.5 4646.25  18
  -3  -6   5 45775.8 2407.10  13
  -3  -6   5 31036.8 4697.64   7
  -3  -6   5 39248.3 2439.71  12
  -3  -6   4 17700.6 1557.63  10
   3  -6  -4 17754.6 3161.71  19
   3  -6  -4 18234.6 3418.29  18
   3  -6  -4 14950.3 3257.83  17
  -3  -6   4 21082.6 1710.34  13
  -3  -6   4 15189.4 3253.46   7
  -3  -6   4 20188.8 1759.47  12
   3  -6  -3 1227.15 910.243  19
  -3  -6   3-280.475 790.690  10
   3  -6  -3 240.500 728.024  18
   3  -6  -3 2866.72 1433.71  17
  -3  -6   3-26.8915 1206.60   8
  -3  -6   3 1222.01 634.956  13
  -3  -6   3 3422.14 1517.88   7
  -3  -6   3 169.107 534.098  12
   3  -6  -2 36456.4 4266.69  19
   3  -6  -2 31132.1 3999.53  18
   3  -6  -2 26603.1 3728.43  17
  -3  -6   2 30217.2 3878.02   8
  -3  -6   2 31206.9 1940.37  13
  -3  -6   2 29091.1 4221.01   7
  -3  -6   2 27954.4 1980.62  12
   3  -6  -1 22180.8 3388.57  17
  -3  -6   1 29060.7 3810.50   8
   3  -6  -1 32704.7 4050.37  19
   3  -6  -1 31324.8 3884.02  18
   3  -6   0 23224.8 3393.10  18
   3  -6   0 22962.5 3433.41  19
   3  -6   0 16758.0 3006.23  17
  -3  -6   0 24343.3 3640.12   8
   3  -6   1 16646.9 1640.02  11
   3  -6   1 18502.1 2962.12  18
   3  -6   1 19450.6 3183.97  19
  -3  -6  -1 17041.0 1690.44  10
  -3  -6  -1 19095.7 3584.76   8
  -3  -6  -1 16995.6 1599.21  12
   3  -6   2 12512.2 1535.03  11
  -3  -6  -2 12168.2 1485.89  10
   3  -6   2 12232.9 2440.56  18
  -3  -6  -2 13234.5 3152.56   8
   3  -6   3 26196.7 2077.21  11
  -3  -6  -3 32493.2 2375.58  10
   3  -6   3 29260.4 3949.19  18
  -3  -6  -3 26124.2 4431.00   8
   3  -6   4 36293.9 2351.19  11
  -3  -6  -4 51987.0 3087.01  10
   3  -6   4 41919.0 5074.62  18
  -3  -6  -4 37710.8 5766.88   8
   3  -6   5 79958.4 3007.26   9
  -3  -6  -5 83202.3 3684.79  10
  -3  -6  -6 1240.04 724.758  10
   3  -6   6 755.710 584.468   9
   3  -6   6 41.2955 690.112  13
  -3  -6  -7 2466.21 750.943  10
   3  -6   7 2855.36 731.350   9
   3  -6   7 1356.76 571.466  13
   3  -6   8 925.854 469.422  12
   3  -6   8 1519.11 512.743   9
   3  -6   9 4414.31 567.748   9
  -3  -5  11 2917.29 475.436  12
  -3  -5  10 6893.81 892.503  12
  -3  -5   9 73.1551 513.000  12
  -3  -5   8 19691.4 1746.13  12
  -3  -5   7 2812.23 885.266  12
   3  -5  -6 24539.7 3859.73  19
   3  -5  -6 20654.9 3987.66  18
  -3  -5   6 22875.5 1776.21  13
  -3  -5   6 18456.1 3664.70   7
  -3  -5   6 22722.2 1900.55  12
   3  -5  -5 78153.9 6627.63  19
   3  -5  -5 78992.6 6739.64  17
  -3  -5   5 85941.7 3242.89  13
  -3  -5   5 79073.4 7221.85   7
  -3  -5   5 82267.5 3452.51  12
   3  -5  -5 85058.4 7105.70  18
   3  -5  -4 16826.9 2968.49  19
   3  -5  -4 12968.4 2564.41  18
   3  -5  -4 15259.2 2881.91  17
  -3  -5   4 15452.4 1430.51  13
  -3  -5   4 19427.6 3296.84   7
  -3  -5   4 15219.3 1472.11  12
   3  -5  -3 7003.68 1819.42  19
   3  -5  -3 3731.56 1150.50   1
  -3  -5   3 2230.59 1128.21   8
   3  -5  -3 4530.96 1465.10  17
   3  -5  -3 3120.42 1457.33  18
  -3  -5   3 2860.37 1250.80   7
   3  -5  -3 3326.21 1526.09   4
   3  -5  -2 1263.83 951.796  18
   3  -5  -2 453.683 1393.09  17
  -3  -5   2 2007.21 1005.96   8
  -3  -5   2 3966.70 1379.70   7
   3  -5  -2 1813.73 1086.75   4
   3  -5  -1 81055.4 5881.43  18
   3  -5  -1 71930.2 5364.46  17
  -3  -5   1 70990.8 5444.38   8
   3  -5  -1 71277.9 4969.66   4
  -3  -5   1 62585.0 4487.90   2
   3  -5   0 155017. 8180.11  19
   3  -5   0 135116. 7444.53  18
   3  -5   0 132168. 7177.50  17
  -3  -5   0 135191. 7931.89   8
   3  -5   0 128029. 6564.18   4
  -3  -5   0 113052. 6377.16   2
   3  -5   1 29289.6 3761.73  19
   3  -5   1 19815.1 2869.78  17
   3  -5   1 26783.4 3380.58  18
  -3  -5  -1 23045.3 3645.91   8
   3  -5   1 22208.5 2851.92   4
   3  -5   2-1365.84 929.633  18
  -3  -5  -2-3349.26 1950.92   8
   3  -5   3 463.646 753.594  11
  -3  -5  -3 1234.64 881.970  10
   3  -5   3-979.169 1015.06  18
  -3  -5  -3 593.435 1075.82   8
  -3  -5  -4 30316.3 2501.81  10
   3  -5   4 29884.6 4143.03  18
   3  -5   5 4911.34 942.062   9
  -3  -5  -5 5278.06 1205.39  10
  -3  -5  -6 10749.5 1508.53  10
   3  -5   6 9862.81 1185.43   9
   3  -5   7 28356.3 1847.60   5
  -3  -5  -7 26324.4 2058.19  10
   3  -5   8 1205.18 561.110   9
   3  -5   9 16017.5 1049.62   9
   3  -5   9 11012.1 1035.63  12
  -3  -4  11 729.327 316.838   9
  -3  -4  11 580.621 330.312   6
  -3  -4  11 1208.96 380.037  12
  -3  -4  10 823.192 489.336   6
  -3  -4  10 2240.46 607.843   9
  -3  -4  10 1790.39 604.257  12
  -3  -4   9 6421.14 1088.24   6
  -3  -4   9 7157.82 1025.93   9
  -3  -4   9 7163.48 1077.67  12
  -3  -4   8 5854.55 1155.07   6
  -3  -4   8 8189.83 1230.27  12
  -3  -4   7 100304. 4018.20   6
  -3  -4   7 122583. 4254.95  12
  -3  -4   6 37425.4 2394.48   6
  -3  -4   6 41255.5 4957.86   3
   3  -4  -6 40489.4 4864.49  19
   3  -4  -6 41444.5 5258.66  18
   3  -4  -6 37440.1 4723.96  17
  -3  -4   6 40307.0 5375.00   7
   3  -4  -6 40146.3 4734.33   1
  -3  -4   6 53183.7 2813.50  12
   3  -4  -5 9208.15 2122.41  19
   3  -4  -5 7719.48 2241.88  18
  -3  -4   5 8716.53 2061.64   3
   3  -4  -5 10630.6 2299.47   1
  -3  -4   5 11805.3 2240.00   2
  -3  -4   5 6899.70 2222.98   7
   3  -4  -5 11802.1 2491.51  17
  -3  -4   5 9251.20 1180.30  12
  -3  -4   4 63829.1 5159.22   3
  -3  -4   4 68552.2 5242.33   2
   3  -4  -4 74394.0 5691.52  19
   3  -4  -4 69007.6 5684.68  18
   3  -4  -4 67087.1 5388.86  17
   3  -4  -4 84624.8 5650.99   1
  -3  -4   4 62927.6 5679.29   7
   3  -4  -4 64953.9 5487.91   4
  -3  -4   3 128683. 6592.99   2
  -3  -4   3 121903. 6610.05   3
   3  -4  -3 132016. 7111.80  19
   3  -4  -3 131860. 7346.55  18
   3  -4  -3 120741. 6625.79  17
  -3  -4   3 117936. 6281.73   8
  -3  -4   3 121851. 7313.61   7
   3  -4  -3 122195. 6986.62   4
  -3  -4   2 48447.6 3995.97   3
   3  -4  -2 50665.9 4378.74  19
   3  -4  -2 51435.7 4447.91  18
   3  -4  -2 46828.1 4064.09  17
  -3  -4   2 43919.8 3743.59   8
  -3  -4   2 42850.5 4248.60   7
   3  -4  -2 44889.9 4035.63   4
  -3  -4   2 47916.1 3938.17   2
   3  -4  -1 12587.5 2279.23  19
   3  -4  -1 12824.2 2275.53  18
  -3  -4   1 13013.7 2221.05   8
   3  -4  -1 12024.3 2126.84   4
  -3  -4   1 16105.7 2409.87   2
   3  -4  -1 11677.0 2044.55  17
   3  -4   0 8138.17 1920.12  19
   3  -4   0 9698.33 1949.71  18
  -3  -4   0 9666.87 1902.71   2
   3  -4   0 8445.27 1865.34  17
  -3  -4   0 10034.5 2056.94   8
   3  -4   0 8317.61 1816.62   4
   3  -4   1 18045.6 2785.65  19
   3  -4   1 16941.9 2620.50  18
   3  -4   1 15772.4 2326.61  17
  -3  -4  -1 16161.6 2724.24   8
   3  -4   1 20001.9 2743.69   4
  -3  -4  -1 17873.1 2711.60   2
   3  -4   2 47304.7 4388.94  18
  -3  -4  -2 41705.4 4857.89   8
   3  -4   2 44451.2 4163.28   4
  -3  -4  -2 48340.9 4662.40   2
   3  -4   3 25979.7 3405.84  18
   3  -4   3 22344.7 3225.24   4
  -3  -4  -3 19862.0 3979.62   8
  -3  -4  -3 27749.2 3937.90   2
   3  -4   4 20464.8 1632.45   5
   3  -4   4 21683.0 3499.73   4
  -3  -4  -4 23977.9 3938.86   2
  -3  -4  -4 18376.7 1642.16   6
  -3  -4  -5-683.071 1267.07   2
   3  -4   5 3413.15 819.372   9
   3  -4   5 4475.66 962.972   5
  -3  -4  -5-212.526 1855.84   8
   3  -4   5 2706.56 1244.63   4
   3  -4   6 8980.16 1217.42   5
   3  -4   6 9737.77 1178.82   9
   3  -4   7 131.039 530.823   9
   3  -4   7-170.582 737.975   5
   3  -4   8 6618.51 981.281   5
  -3  -4  -8 5780.84 1019.79  10
   3  -4   8 8169.68 999.616   9
   3  -4   9 5282.17 710.948   9
   3  -4   9 3843.10 656.313   5
   3  -4  10 785.719 332.789  12
  -3  -3  11 5274.13 789.778   6
  -3  -3  11 7183.55 792.891   9
  -3  -3  11 6444.30 670.757  12
  -3  -3  10 5535.57 939.735   6
  -3  -3  10 5529.91 855.040   9
  -3  -3  10 6034.25 870.385  12
  -3  -3   9 4208.96 987.433   6
  -3  -3   9 4205.43 888.209   9
  -3  -3   9 4167.89 907.049  12
  -3  -3   8 40459.9 2296.67   9
  -3  -3   8 43716.2 2527.47  12
  -3  -3   7 26485.7 4189.50   3
   3  -3  -7 19207.9 3603.15  18
  -3  -3   7 26632.4 2013.28  12
   3  -3  -7 24661.5 3999.03   1
  -3  -3   6 21545.3 3494.39   3
   3  -3  -6 17258.9 2891.74  19
   3  -3  -6 18496.0 3427.46  18
   3  -3  -6 20167.0 3335.92  17
   3  -3  -6 25086.6 3562.50   1
  -3  -3   6 18946.8 3480.84   7
  -3  -3   6 18513.9 1662.48  12
  -3  -3   5 18374.7 3058.69   3
  -3  -3   5 17573.3 2892.75   2
   3  -3  -5 16677.7 2717.90  19
   3  -3  -5 18482.3 3111.48  18
   3  -3  -5 20208.6 3485.79  17
   3  -3  -5 25173.2 3359.47   1
  -3  -3   5 19732.2 3305.07   7
  -3  -3   4 56865.6 4676.03   2
  -3  -3   4 54487.2 4750.09   3
   3  -3  -4 53270.2 4463.23  19
   3  -3  -4 49034.7 4523.83  18
   3  -3  -4 57150.6 4635.87  17
   3  -3  -4 61874.6 4845.22   1
  -3  -3   4 51939.1 4810.18   7
   3  -3  -3 10936.2 2138.73   4
  -3  -3   3 11613.6 2217.43   3
   3  -3  -3 11379.4 2014.10  19
   3  -3  -3 10246.9 1995.67  18
   3  -3  -3 11870.6 2042.34  17
  -3  -3   3 9676.65 1797.77   8
  -3  -3   3 9948.72 1933.45   7
  -3  -3   3 12238.7 2115.33   2
  -3  -3   2 24328.4 2868.10   3
   3  -3  -2 25876.5 2887.34  19
   3  -3  -2 22714.2 2829.63  18
   3  -3  -2 21281.5 2635.96  17
  -3  -3   2 24209.1 2517.60   8
  -3  -3   2 18963.2 2587.58   7
   3  -3  -2 24338.3 3022.23   4
  -3  -3   2 20264.8 2538.61   2
   3  -3  -1 26400.9 2969.91  19
   3  -3  -1 24248.3 2864.85  18
   3  -3  -1 25499.1 2704.27  17
  -3  -3   1 22697.6 2612.27   8
   3  -3  -1 22652.8 2858.28   4
  -3  -3   1 24359.3 2844.66   2
   3  -3   0 19678.2 2652.03  19
   3  -3   0 17581.5 2416.23  18
   3  -3   0 19070.7 2380.83  17
  -3  -3   0 15973.1 2407.84   8
   3  -3   0 17236.7 2487.08   4
  -3  -3   0 17960.3 2547.59   2
   3  -3   1 86426.1 5229.48  18
   3  -3   1 83509.6 4737.35  17
  -3  -3  -1 74451.2 5342.88   8
  -3  -3  -1 79254.9 5469.82   2
   3  -3   1 82185.5 5264.59   4
   3  -3   2 28489.7 3190.64  18
  -3  -3  -2 20406.5 3289.71   8
  -3  -3  -2 25337.6 3354.54   2
   3  -3   2 29937.0 3293.99   4
   3  -3   2 23677.9 2571.35  17
   3  -3   3 37544.7 3892.97  18
  -3  -3  -3 40308.1 4626.76   2
   3  -3   3 37613.7 3923.85   4
  -3  -3  -4 8403.22 2186.99   2
   3  -3   4 5571.31 1647.50   4
  -3  -3  -5 7442.08 2324.59   2
   3  -3   5 4809.38 848.930   9
   3  -3   5 6551.19 1108.86   5
  -3  -3  -5 5969.37 1126.90   6
   3  -3   5 5228.85 1904.85   4
   3  -3   6 43781.2 2471.29   5
   3  -3   6 38144.2 2128.30   9
   3  -3   7 36352.8 2363.65   5
   3  -3   7 28304.5 1814.80   9
   3  -3   8 3130.12 694.186   9
   3  -3   8 2454.82 806.972   5
   3  -3   9 11561.2 1143.61   5
   3  -3   9 10210.0 923.737   9
   3  -3  10 2192.66 485.683   5
  -3  -2  11 1656.42 550.403   6
  -3  -2  11 2251.02 567.580   9
  -3  -2  10 3948.30 870.693   6
  -3  -2  10 5315.60 915.285   9
  -3  -2  10 5103.18 819.317  12
  -3  -2   9 24959.5 1832.92   9
  -3  -2   9 22950.6 1757.85  12
  -3  -2   8 1231.28 745.941   9
  -3  -2   8 256.494 543.949  12
  -3  -2   7 4704.75 928.986   9
  -3  -2   7 9506.10 2673.16   3
   3  -2  -7 6549.64 2365.28   1
  -3  -2   7 5136.16 980.016  12
   3  -2  -6 181.867 690.275  18
  -3  -2   6 1231.21 1305.82   3
   3  -2  -6 454.872 1117.83   1
   3  -2  -6 367.525 1231.21  17
  -3  -2   6 621.535 516.977  12
   3  -2  -5 10425.2 2297.40  17
   3  -2  -5 12196.4 2037.63  19
   3  -2  -5 12005.5 2219.95  18
  -3  -2   5 13025.2 2588.07   3
  -3  -2   5 11473.4 2307.55   2
   3  -2  -5 12701.5 2521.34   1
  -3  -2   5 9791.43 2074.84   7
  -3  -2   4 11665.2 2131.29   2
   3  -2  -4 8790.36 1689.90  19
   3  -2  -4 10116.4 2006.62  18
   3  -2  -4 11337.3 2182.04  17
  -3  -2   4 9344.11 2050.62   3
   3  -2  -4 10288.5 1639.65  16
   3  -2  -4 15058.1 2373.15   1
  -3  -2   4 8760.37 1909.24   7
  -3  -2   3 29283.4 3264.45   3
   3  -2  -3 27357.6 2791.39  19
   3  -2  -3 26281.8 2922.74  18
   3  -2  -3 27889.0 2882.46  17
   3  -2  -3 24957.7 2363.45  16
  -3  -2   3 23980.7 2827.19   7
   3  -2  -3 29001.7 3365.50   4
  -3  -2   3 24413.8 2843.17   2
  -3  -2   2 12460.1 2084.11   3
   3  -2  -2 13463.3 2014.82  19
   3  -2  -2 11921.1 1906.96  18
   3  -2  -2 11637.0 1910.80  17
  -3  -2   2 10713.8 1558.78   8
   3  -2  -2 12761.6 2233.17   4
  -3  -2   2 9369.84 1645.03   7
  -3  -2   2 10588.0 1893.27   2
   3  -2  -1 125246. 5800.16  19
   3  -2  -1 122048. 5857.68  18
   3  -2  -1 106203. 5067.14  17
  -3  -2   1 95380.7 4649.87   8
   3  -2  -1 108673. 5898.76   4
  -3  -2   1 107114. 5781.13   2
   3  -2   0 42034.7 3427.68  19
   3  -2   0 39140.0 3308.73  18
   3  -2   0 32859.4 2857.38  17
  -3  -2   0 31480.8 2945.30   8
  -3  -2   0 33300.4 3350.07   2
   3  -2   0 32733.7 3298.28   4
   3  -2   1 55387.0 3860.68  18
   3  -2   1 48322.8 3494.57  17
  -3  -2  -1 48881.1 3999.86   8
  -3  -2  -1 48036.3 4161.86   2
   3  -2   1 54291.6 4218.39   4
   3  -2   2 93363.5 5244.71  18
   3  -2   2 81360.9 4463.20  17
  -3  -2  -2 81930.5 5777.72   2
   3  -2   2 82445.8 5347.58   4
   3  -2   3 105379. 6022.17  18
  -3  -2  -3 86779.6 6441.47   2
   3  -2   3 92891.4 5925.08   4
  -3  -2  -4 8461.79 2294.05   2
   3  -2   4 6951.14 1938.93   4
   3  -2   5 53048.2 2617.05   5
  -3  -2  -5 42826.4 5522.11   2
   3  -2   5 41816.2 5147.49   4
  -3  -2  -5 52512.9 2913.81   6
   3  -2   6 80516.5 2959.05   9
  -3  -2  -6 67228.9 7538.84   2
   3  -2   6 63434.9 6628.80   4
   3  -2   7 32469.9 2149.66   5
   3  -2   7 26061.7 1737.14   9
   3  -2   8 15840.3 1540.29   5
   3  -2   9 9390.61 1088.51   5
   3  -2  10 3945.40 659.964   5
  -3  -1  12 621.638 325.110   6
  -3  -1  11-80.4323 375.731   6
  -3  -1  11 111.137 431.333   9
  -3  -1  10 1577.39 646.135   9
  -3  -1   9 13255.0 1445.57   9
  -3  -1   8 1149.19 789.670   9
  -3  -1   7 9950.22 1249.64   9
   3  -1  -7 10105.3 2839.96  18
  -3  -1   7 8606.21 2528.92   3
   3  -1  -7 2548.96 1639.66  16
   3  -1  -7 11267.6 2656.50   1
  -3  -1   6 43097.5 4950.88   3
  -3  -1   6 39835.7 4611.25   2
   3  -1  -6 33384.7 4224.74  18
   3  -1  -6 41914.9 4507.87  17
   3  -1  -6 42012.0 4154.61  16
   3  -1  -6 50494.3 5123.29   1
  -3  -1   5 54773.4 4756.39   2
  -3  -1   5 51948.5 4862.44   3
   3  -1  -5 46839.3 4360.54  18
   3  -1  -5 50990.8 4492.70  17
   3  -1  -5 58637.6 4414.86  16
   3  -1  -5 61148.4 5081.68   1
  -3  -1   4 67295.2 4807.01   2
  -3  -1   4 62431.2 4859.00   3
   3  -1  -4 60142.9 4443.69  18
   3  -1  -4 66491.7 4620.54  17
   3  -1  -4 73097.3 4519.99  16
  -3  -1   3 163842. 7315.22   3
   3  -1  -3 171559. 6129.29  19
   3  -1  -3 169338. 6761.61  18
   3  -1  -3 181332. 6817.46  17
   3  -1  -3 166080. 7729.07   4
  -3  -1   3 168719. 7140.62   2
  -3  -1   2 144833. 6507.44   3
   3  -1  -2 156410. 5745.66  19
   3  -1  -2 148381. 6107.24  18
   3  -1  -2 135793. 5707.17  17
   3  -1  -2 147850. 7035.15   4
  -3  -1   2 145816. 6556.13   2
  -3  -1   1 9643.48 1813.70   3
   3  -1  -1 11720.0 1667.84  19
   3  -1  -1 12545.4 1836.51  18
   3  -1  -1 11225.4 1702.77  17
  -3  -1   1 7978.15 1124.98   8
  -3  -1   1 10357.9 1872.49   2
   3  -1  -1 9610.18 1964.20   4
   3  -1   0 74271.3 4009.86  18
   3  -1   0 78251.8 4161.66  17
  -3  -1   0 60074.1 3566.18   8
  -3  -1   0 67741.2 4622.28   2
   3  -1   0 71577.2 4737.52   4
   3  -1   1 158569. 5932.58  18
  -3  -1  -1 142359. 6885.44   2
   3  -1   1 150099. 6805.31   4
   3  -1   1 150377. 5809.75  17
   3  -1   2 143707. 6022.14  18
   3  -1   2 132783. 5575.06  17
  -3  -1  -2 126931. 6985.49   2
   3  -1   2 127278. 6520.27   4
   3  -1   2 112924. 5486.53  14
  -3  -1  -3 8804.11 2106.82   2
   3  -1   3 6709.48 1332.74  17
   3  -1   3 10333.0 2092.94   4
   3  -1   3 8937.80 1855.04  14
  -3  -1  -4 6269.89 1998.53   2
   3  -1   4 2234.76 1492.25  14
   3  -1   4 4947.57 1715.50   4
  -3  -1  -5 11252.5 2610.04   2
   3  -1   5 12475.1 1434.48   5
  -3  -1  -5 10746.1 2950.34  16
   3  -1   5 7772.92 2237.82  14
  -3  -1  -5 12031.2 1479.06   6
   3  -1   5 12046.2 2646.88   4
  -3  -1  -6 3562.04 2053.26   2
   3  -1   6 10984.6 1356.11   5
  -3  -1  -6 3468.91 1978.89  16
   3  -1   6 8685.93 2478.88  14
   3  -1   6 9547.58 2612.33   4
   3  -1   7 16493.0 1594.26   5
   3  -1   8 1338.99 726.969   5
   3  -1   9 973.373 608.508   5
   3  -1  10 4419.93 731.167   5
  -3   0  12-53.4985 221.350   6
  -3   0  11 256.754 418.469   6
  -3   0  11-14.9568 446.255   9
  -3   0  10-95.7859 624.319   9
  -3   0   9 1760.23 811.927   9
  -3   0   8 28182.5 2048.90   9
  -3   0   7 495.849 1419.83   3
  -3   0   7 1030.24 667.945   9
   3   0  -7 611.730 1077.01  16
  -3   0   6 10343.4 2591.55   3
   3   0  -6 10809.6 2330.78  16
  -3   0   6 7814.03 1975.89   2
   3   0  -6 8562.69 2119.29   1
   3   0  -5-1264.86 1033.54   1
   3   0  -5-176.535 427.000  18
  -3   0   5 181.128 1021.25   3
   3   0  -5 155.842 850.170  17
  -3   0   5-23.1021 963.293   2
   3   0  -5 2259.45 976.880  16
  -3   0   4 39333.7 3678.14   2
  -3   0   4 37732.9 3761.94   3
   3   0  -4 30687.0 3078.32  18
   3   0  -4 38481.3 3468.84  17
   3   0  -4 40507.0 3600.46  16
  -3   0   3 20554.6 2660.12   3
   3   0  -3 17476.0 2139.83  18
  -3   0   3 21454.7 2377.14  15
   3   0  -3 19681.4 2768.73   4
  -3   0   3 17290.8 2383.10   2
   3   0  -3 21607.4 2421.33  17
  -3   0   2 48361.0 3785.72   3
   3   0  -2 49330.5 3174.49  18
   3   0  -2 49660.4 3420.20  17
  -3   0   2 57274.9 3352.59  15
   3   0  -2 54015.1 4288.94   4
  -3   0   2 47675.2 3760.64   2
   3   0  -1 703.813 600.962  18
  -3   0   1 71.2779 848.255   2
  -3   0   1 1403.70 981.005   3
   3   0  -1 326.285 735.575  17
  -3   0   1 1016.31 576.637  15
   3   0  -1-292.089 809.615   4
   3   0   0 140811. 4751.81  18
   3   0   0 137063. 5437.25  17
  -3   0   0 137297. 4485.16  15
  -3   0   0 130668. 6254.95   2
   3   0   0 138721. 6477.87   4
   3   0   1 70839.6 3544.13  18
   3   0   1 70833.4 4038.05  17
  -3   0  -1 64825.9 4612.07   2
   3   0   1 68911.2 3611.61  14
   3   0   1 67802.5 4592.77   4
   3   0   2 160264. 6173.50  17
  -3   0  -2 165087. 7848.85   2
   3   0   2 171688. 6428.84  14
   3   0   2 167658. 7317.86   4
   3   0   3 32440.4 2872.26  17
  -3   0  -3 32726.8 3814.86   2
   3   0   3 37128.3 3712.34   4
   3   0   3 28630.0 3121.42  14
  -3   0  -4 21114.1 3373.00  16
  -3   0  -4 19487.4 3313.70   2
   3   0   4 19657.6 3025.02   4
   3   0   4 18595.7 2890.97  14
  -3   0  -5 4654.21 1026.93   6
  -3   0  -5 3856.82 1534.92   2
  -3   0  -5 158.913 1856.04  16
   3   0   5 4935.24 916.188   5
   3   0   5 1995.81 1299.36  14
   3   0   5 4059.87 1573.85   4
   3   0   6 42535.6 2354.80   5
  -3   0  -6 28729.3 4787.08  16
  -3   0  -6 31448.3 4806.18   2
   3   0   6 27394.5 4523.23   4
   3   0   6 29989.9 4214.77  14
   3   0   7 14.6603 714.578   5
   3   0   8 7971.97 1171.01   5
   3   0   9 1324.07 627.272   5
   3   0  10 940.027 501.436   5
  -3   1  12 1024.13 365.614   6
  -3   1  11-106.067 406.185   6
  -3   1  10 1892.49 732.882   9
  -3   1   9 14536.7 1498.18   9
  -3   1   8 2473.06 813.927   9
  -3   1   7 11201.2 1389.99   9
  -3   1   7 12706.1 2724.78   3
   3   1  -7 9643.22 2398.56  16
   3   1  -7 15131.5 2985.59   1
  -3   1   6 43952.7 4872.42   3
  -3   1   6 45549.1 4864.99   2
  -3   1   6 33035.0 2114.38   9
   3   1  -6 48027.3 4741.29  16
   3   1  -6 51564.2 5256.53   1
  -3   1   5 55703.1 4735.42   2
  -3   1   5 50646.7 4725.07   3
   3   1  -5 45923.2 3990.19  17
   3   1  -5 60982.4 4895.75  16
   3   1  -5 62387.1 5165.53   1
  -3   1   4 63432.2 4789.27   2
  -3   1   4 65877.8 4892.90   3
   3   1  -4 68399.4 4512.48  17
   3   1  -4 79200.7 5199.57  16
  -3   1   4 73245.5 4794.93  15
  -3   1   3 172654. 7470.21   3
   3   1  -3 190828. 6947.34  17
  -3   1   3 198749. 7056.57  15
   3   1  -3 173260. 7988.70   4
  -3   1   3 169869. 7186.81   2
  -3   1   2 149187. 6599.88   3
   3   1  -2 147580. 5880.96  17
  -3   1   2 161939. 5878.71  15
   3   1  -2 154256. 7310.48   4
  -3   1   2 139752. 6391.31   2
  -3   1   1 10904.4 1858.47   3
   3   1  -1 10258.2 1651.15  17
  -3   1   1 12653.2 1683.09  15
  -3   1   1 10410.6 1872.94   2
   3   1  -1 10708.2 2046.12   4
  -3   1   0 77128.2 3936.99  15
   3   1   0 70341.4 3993.10  17
  -3   1   0 63043.3 4413.49   2
   3   1   0 68618.9 4668.91   4
   3   1   1 149228. 5883.54  17
  -3   1  -1 144010. 5458.59  15
  -3   1  -1 133125. 6619.60   2
   3   1   1 146631. 5114.32  14
   3   1   1 157958. 6997.93   4
   3   1   2 124657. 5564.58  17
  -3   1  -2 130953. 7044.72   2
   3   1   2 130162. 5574.75  14
   3   1   2 139015. 6738.90   4
  -3   1  -3 10075.5 2237.16   2
   3   1   3 9199.50 1685.04  17
   3   1   3 9614.44 1989.21   4
   3   1   3 9176.06 1822.92  14
  -3   1  -4 6857.98 2088.90   2
  -3   1  -4 6317.81 2020.23  16
   3   1   4 5668.14 1802.69  14
   3   1   4 3406.40 1299.48   4
  -3   1  -5 8454.18 2487.08   2
   3   1   5 11622.4 1311.27   5
  -3   1  -5 7739.86 2304.20  16
   3   1   5 6818.13 2015.77  14
  -3   1  -5 12683.0 1520.49   6
   3   1   5 7708.18 2215.57   4
  -3   1  -6 11852.9 2860.88   2
   3   1   6 10088.5 1275.81   5
  -3   1  -6 5286.19 2214.38  16
   3   1   6 8792.73 2518.52  14
   3   1   6 4661.39 1913.95   4
   3   1   7 15554.9 1551.88   5
   3   1   8 712.407 669.752   5
   3   1   9 906.359 661.037   5
   3   1  10 5626.18 794.313   5
  -3   2  11 1657.61 519.499   6
  -3   2  10 4428.21 937.106   6
  -3   2  10 5657.07 954.451   9
  -3   2   9 24377.1 1912.25   9
  -3   2   8 1093.94 693.240   9
  -3   2   7 5071.05 2059.30   3
  -3   2   7 6304.98 1119.30   9
   3   2  -7 9479.96 2404.54  16
   3   2  -7 5762.99 2027.66   1
  -3   2   6-994.177 911.632   3
  -3   2   6 554.585 660.491   9
   3   2  -6 1533.42 1437.68  16
  -3   2   5 13729.1 2583.89   3
   3   2  -5 11987.5 2464.90   1
   3   2  -5 11849.7 2138.01  17
   3   2  -5 16805.0 2732.21  16
  -3   2   5 11240.6 2334.30   2
  -3   2   5 9421.82 2223.48  15
  -3   2   4 11217.6 2172.91   2
  -3   2   4 10710.8 2166.63   3
   3   2  -4 8707.44 1865.63  17
  -3   2   4 10597.9 2027.30  15
   3   2  -4 16149.5 2659.21   1
  -3   2   3 30500.6 3257.68   3
   3   2  -3 30387.7 2971.98  17
  -3   2   3 29559.5 2908.92  15
   3   2  -3 31422.8 3599.48   4
  -3   2   3 30153.0 3201.39   2
  -3   2   2 13805.9 2155.97   3
   3   2  -2 13105.0 1973.02  17
  -3   2   2 14062.1 1961.12  15
   3   2  -2 13546.3 2373.02   4
  -3   2   2 13422.0 2120.68   2
   3   2  -1 114374. 5184.81  17
  -3   2   1 121146. 5408.87  15
   3   2  -1 117259. 6275.91   4
  -3   2   1 104628. 5661.03   2
   3   2   0 32424.6 2853.20  17
  -3   2   0 34729.8 2912.50  15
  -3   2   0 31828.4 3233.79   2
   3   2   0 32540.7 3328.72   4
   3   2   1 50179.7 3611.59  17
  -3   2  -1 52981.2 3683.76  15
   3   2   1 52992.7 3162.39  14
  -3   2  -1 50710.5 4197.59   2
   3   2   1 53563.6 4191.68   4
   3   2   2 74575.0 4586.41  17
  -3   2  -2 76872.0 4800.84  15
  -3   2  -2 81772.7 5702.49   2
   3   2   2 82544.9 4516.62  14
   3   2   2 84435.2 5370.66   4
   3   2   3 87614.2 5089.54  17
  -3   2  -3 78234.0 5319.50  15
  -3   2  -3 88453.1 6414.08   2
   3   2   3 95727.6 6038.31   4
   3   2   3 92588.2 5360.32  14
  -3   2  -4 6600.20 2212.93   2
   3   2   4 6305.10 1535.78  17
  -3   2  -4 9891.07 2293.58  16
   3   2   4 8370.04 2024.92  14
   3   2   4 9214.00 2061.69   4
  -3   2  -5 37514.5 4993.41  16
  -3   2  -5 46105.9 5617.90   2
   3   2   5 42221.8 5142.19   4
   3   2   5 39790.0 4433.40  14
   3   2   5 54531.4 2633.41   5
  -3   2  -5 56449.9 3149.32   6
  -3   2  -6 48363.1 6435.67  16
  -3   2  -6 61006.3 7030.38   2
   3   2   6 63844.9 6593.86   4
   3   2   6 60826.9 6025.29  14
   3   2   7 32868.7 2135.90   5
   3   2   8 15824.4 1506.35   5
   3   2   9 8962.03 1071.61   5
   3   2  10 4617.25 727.435   5
  -3   3  11 4548.32 747.683   6
  -3   3  10 4319.80 861.853   6
  -3   3   9 3542.40 868.914   6
  -3   3   8 46440.0 2601.55   9
  -3   3   7 29064.6 4281.29   3
  -3   3   7 27967.2 2092.75   9
   3   3  -7 31531.6 4427.69  16
   3   3  -7 39056.0 4941.24   1
  -3   3   6 21294.9 3595.87   3
  -3   3   6 19661.1 1700.23   9
   3   3  -6 25444.4 3659.92  16
   3   3  -6 23624.2 3816.14   1
  -3   3   5 18787.8 3130.19   3
  -3   3   5 18610.6 3057.09   2
   3   3  -5 25262.1 3428.54  16
  -3   3   5 16808.3 2821.15  15
   3   3  -5 22795.4 3378.26   1
  -3   3   4 57313.3 4728.59   2
  -3   3   4 58734.2 4887.75   3
   3   3  -4 57626.6 4277.80  17
  -3   3   4 51581.0 4320.48  15
   3   3  -4 62781.4 5073.97   1
   3   3  -3 11485.8 2306.57   4
   3   3  -3 11572.2 1961.66  17
  -3   3   3 8993.34 1824.50   3
  -3   3   3 11505.0 2002.86  15
  -3   3   3 10788.6 2062.36   2
  -3   3   2 23800.0 2800.54   3
   3   3  -2 23442.4 2628.82  17
  -3   3   2 24689.2 2704.99  15
   3   3  -2 23523.6 3059.79   4
  -3   3   2 22546.4 2728.53   2
   3   3  -1 25096.2 2637.63  17
  -3   3   1 25420.1 2750.18  15
   3   3  -1 27940.9 3172.43   4
  -3   3   1 26483.8 2960.25   2
   3   3   0 17959.8 2277.49  17
  -3   3   0 17239.2 2334.86  15
   3   3   0 17717.9 2485.94   4
  -3   3   0 15703.0 2397.92   2
   3   3   1 73424.6 4511.53  17
  -3   3  -1 72792.4 4741.14  15
   3   3   1 81615.2 4139.39  14
  -3   3  -1 75866.2 5248.31   2
   3   3   1 90816.9 5474.43   4
   3   3   2 27015.7 2946.78  17
  -3   3  -2 25439.4 3102.63  15
  -3   3  -2 22582.7 3086.58   2
   3   3   2 27386.8 2734.70  14
   3   3   2 29343.7 3252.69   4
   3   3   3 36931.2 3511.01  17
  -3   3  -3 34554.8 3819.41  15
  -3   3  -3 37418.0 4270.63   2
   3   3   3 41711.5 4111.21   4
   3   3   3 37940.5 3589.94  14
  -3   3  -4 6066.57 2179.28   2
   3   3   4 2139.42 1324.03  17
  -3   3  -4 4523.06 1770.12  16
  -3   3  -4 7703.70 1864.76  15
   3   3   4 6429.39 1744.09  14
   3   3   4 9242.61 2277.29   4
  -3   3  -5 8912.28 2747.40   2
   3   3   5 6974.14 1077.08   5
  -3   3  -5 1412.48 1535.85  16
   3   3   5 2364.10 1512.29  14
  -3   3  -5 6805.70 1226.02   6
   3   3   5 3231.85 1550.22   4
   3   3   6 46395.6 2479.78   5
   3   3   7 29988.3 2003.68   5
   3   3   8 3425.09 865.897   5
   3   3   9 12253.3 1201.42   5
   3   3  10 2034.06 485.192   5
  -3   4  11 378.569 291.508   6
  -3   4  10 1410.47 540.057   6
  -3   4   9 6086.91 1029.22   6
  -3   4   8 7444.13 1198.60   6
  -3   4   7 105313. 4079.86   6
  -3   4   6 40774.7 2516.93   6
  -3   4   6 44845.0 5092.56   3
  -3   4   6 44112.4 5007.25  15
   3   4  -6 53050.4 5658.72   1
  -3   4   5 7499.97 1925.96   3
   3   4  -5 16215.6 2887.04  16
  -3   4   5 11969.2 2668.32   2
   3   4  -5 11904.2 2637.57   1
  -3   4   5 9128.12 2101.27  15
  -3   4   4 74001.2 5581.51   3
  -3   4   4 77233.0 5615.48   2
   3   4  -4 75891.4 5167.63  17
   3   4  -4 81669.9 6059.39  16
  -3   4   4 69639.2 5241.03  15
   3   4  -4 95027.7 6287.33   1
   3   4  -4 71344.8 5893.43   4
  -3   4   3 129798. 6746.86   2
  -3   4   3 133923. 6984.48   3
   3   4  -3 138078. 6601.06  17
  -3   4   3 132966. 6801.29  15
   3   4  -3 145659. 7882.10   4
  -3   4   2 52204.7 4241.73   3
   3   4  -2 51885.0 4035.36  17
  -3   4   2 49702.8 4104.02  15
   3   4  -2 53098.7 4542.92   4
  -3   4   2 49243.3 3995.31   2
   3   4  -1 11959.9 1998.67  17
  -3   4   1 12239.5 2023.37   2
  -3   4   1 12679.5 2144.70  15
   3   4  -1 13739.7 2212.61   4
  -3   4   0 7546.59 1790.21   2
   3   4   0 7087.70 1532.45  17
  -3   4   0 8909.41 1842.08  15
   3   4   0 9581.93 1842.71   4
   3   4   1 15461.5 2265.95  17
  -3   4  -1 16323.7 2484.13  15
   3   4   1 13866.4 1933.92  14
   3   4   1 14952.1 2273.10   4
  -3   4  -1 16623.1 2539.23   2
   3   4   2 41114.8 3832.24  17
  -3   4  -2 45844.5 4411.92  15
   3   4   2 38380.9 3466.54  14
   3   4   2 50879.3 4320.13   4
  -3   4  -2 44097.3 4330.49   2
   3   4   3 25801.1 3141.26  17
  -3   4  -3 26459.1 3651.45  15
   3   4   3 24279.6 3272.06   4
  -3   4  -3 27047.3 3761.81   2
   3   4   3 26873.9 3200.23  14
   3   4   4 21718.9 1633.88   5
   3   4   4 17358.3 2679.20  17
  -3   4  -4 20636.6 3463.60  15
   3   4   4 21146.7 3285.20   4
  -3   4  -4 20112.5 3670.69   2
   3   4   4 20213.1 3083.01  14
  -3   4  -4 21141.6 1928.62   6
  -3   4  -5 3653.35 1556.91   2
   3   4   5 3575.27 892.918   5
   3   4   5 6380.23 1899.89  14
   3   4   6 10931.9 1301.73   5
   3   4   7 921.617 620.783   5
   3   4   8 7429.98 1029.68   5
   3   4   9 4715.19 750.718   5
  -3   5  10 3614.95 628.603   6
  -3   5   9-670.319 571.218   6
  -3   5   8 12316.0 1462.25   6
  -3   5   7 2643.78 775.303   6
   3   5  -6 30079.8 4422.12  16
  -3   5   6 17079.8 3255.24  15
   3   5  -5 99225.9 7424.40  16
  -3   5   5 84095.8 6375.96  15
  -3   5   4 13582.3 2354.20   3
   3   5  -4 18492.7 3154.59  16
  -3   5   4 12232.5 2453.51   2
  -3   5   4 14968.4 2627.71  15
   3   5  -4 14901.8 2636.20   4
   3   5  -3 4314.26 1459.73   1
  -3   5   3 4532.52 1301.70   3
   3   5  -3 4715.65 1603.53  17
  -3   5   3-290.741 774.587   2
  -3   5   3 2786.51 1215.61  15
   3   5  -3 3483.42 1358.19   4
  -3   5   2 427.109 927.608   2
  -3   5   2 2037.11 1105.33  15
   3   5  -2 1579.43 930.410   4
   3   5  -1 70295.9 4847.68  17
  -3   5   1 74908.2 5458.03  15
   3   5  -1 69942.2 4919.89   4
  -3   5   1 64768.7 4617.86   2
   3   5   0 131369. 6552.92  17
  -3   5   0 137022. 7312.70  15
   3   5   0 131628. 6546.05   4
  -3   5   0 118563. 6461.53   2
   3   5   1 23628.5 2892.97  17
  -3   5  -1 27346.2 3450.30  15
   3   5   1 24026.0 2757.40  14
   3   5   1 24442.6 2888.42   4
  -3   5  -1 21131.7 2949.97   2
   3   5   2-629.917 853.514  17
  -3   5  -2-94.7443 957.657  15
   3   5   2 602.892 748.670  14
   3   5   2 417.602 567.911   4
   3   5   3-84.0703 941.845  17
  -3   5  -3 889.988 975.743  15
   3   5   3 2014.45 1210.94  14
   3   5   4 23729.3 3369.99  17
  -3   5  -4 25879.0 4121.06  15
   3   5   4 23749.1 3501.53  14
   3   5   6 8825.25 1187.87   5
   3   5   7 28675.6 1804.19   5
   3   5   8 1587.12 585.410   5
   3   6  -5 41510.3 5079.88  16
  -3   6   5 29699.7 4089.90  15
   3   6  -4 25325.4 3851.00  16
  -3   6   4 18983.2 3027.29  15
   3   6  -3 4.78970 1244.69  17
  -3   6   3 3583.81 1254.28  15
   3   6  -2 29416.6 3549.92  17
  -3   6   2 33626.3 3866.56  15
   3   6  -1 26120.3 3274.09  17
  -3   6   1 26718.1 3472.09  15
   3   6   0 18585.5 2719.45  17
  -3   6   0 19996.3 3156.06  15
   3   6   1 14949.3 2583.82  17
  -3   6  -1 17157.2 3050.05  15
   3   6   2 6904.18 1917.66  17
  -3   6  -2 11400.1 2509.29  15
   3   6   2 6594.31 1780.40  14
   3   6   3 25286.4 3450.51  17
  -3   6  -3 23676.0 3989.64  15
   3   6   3 23460.6 3254.94  14
   3   6   4 31887.3 4118.44  17
  -3   6  -4 35959.6 5150.11  15
   3   6   4 27335.6 4088.12  14
   3   7  -4 55361.1 5975.25  16
  -3   7   4 46019.3 4930.27  15
   3   7  -3 6282.84 2040.32  16
  -3   7   3 5186.86 1721.67  15
   3   7  -2-245.538 1799.31  17
  -3   7   2 550.319 925.109  15
   3   7  -1 2593.27 1125.03  17
  -3   7   1 7509.15 1973.40  15
   3   7   0 5098.34 1670.79  17
  -3   7   0 2364.24 1378.72  15
   3   7   1 37369.7 4074.23  17
  -3   7  -1 42430.1 4869.74  15
   3   7   2 17956.5 2936.55  17
  -3   7  -2 17542.6 3516.93  15
   3   7   2 11068.1 2547.70  14
   3   7   3 28906.4 4010.07  17
  -3   7  -3 32902.0 4947.04  15
   3   7   3 24531.2 3477.86  14
   3   8  -2 13576.3 2913.10  17
  -3   8   2 21334.0 3446.75  15
   3   8  -1 4450.36 1583.54  17
  -3   8   1 5205.61 2026.27  15
   3   8   0 3229.03 1277.31  17
  -3   8   0 784.392 1045.65  15
   3   8   1 3551.80 1381.69  17
  -3   8  -1 6652.83 2052.95  15
  -4 -12   3 2572.18 512.527  10
   4 -12  -2 963.143 298.430  11
  -4 -12   2 1267.83 437.441  10
   4 -12  -1 1278.92 413.695  11
  -4 -12   1 1801.48 502.463  10
   4 -12   0 5382.26 672.643  11
  -4 -12   0 7169.68 782.020  10
   4 -12   0 6846.32 589.313   9
   4 -12   1 6734.98 678.398  11
  -4 -12  -1 7643.60 735.871  10
   4 -12   1 8692.82 616.884   9
  -4 -11   4 904.063 470.660  10
   4 -11  -3 12558.4 1004.04  11
  -4 -11   3 15895.0 1266.50  10
   4 -11  -2 3136.56 675.679  11
  -4 -11   2 3585.25 743.433  10
   4 -11  -1 485.879 502.545  11
  -4 -11   1 854.612 560.883  10
   4 -11   0 13937.7 1209.74  11
   4 -11   0 11416.1 950.510  13
   4 -11   1 4079.84 738.795  11
  -4 -11  -1 3937.39 761.568  10
   4 -11   1 2681.03 617.339  13
   4 -11   2 10945.6 1007.10  11
  -4 -11  -2 12532.3 1061.50  10
   4 -11   2 10589.2 950.937  13
   4 -11   3 16964.9 1028.26  11
  -4 -11  -3 17505.7 1055.56  10
   4 -11   3 18374.3 1097.82  13
   4 -11   4 1557.97 301.853   9
   4 -11   4 1168.37 313.364  13
  -4 -10   7 2702.45 465.439  12
  -4 -10   6 6774.30 797.830  12
  -4 -10   5 4382.15 758.635  10
  -4 -10   5 4916.64 777.695  12
  -4 -10   4 8042.66 1016.89  10
  -4 -10   4 7514.89 980.691  12
   4 -10  -3 6300.95 932.877  11
  -4 -10   3 7058.19 1005.19  10
  -4 -10   3 7507.35 995.077  12
   4 -10  -2 10516.4 1223.48  11
  -4 -10   2 12199.7 1306.05  10
   4 -10  -1 1465.81 758.624  11
  -4 -10   1 1977.18 674.593  10
   4 -10   0 9545.09 1176.24  11
  -4 -10   0 9269.13 1165.53  10
   4 -10   0 7400.40 995.116  13
   4 -10   1 8772.24 1149.07  11
  -4 -10  -1 9552.38 1198.58  10
   4 -10   1 8764.05 1092.38  13
   4 -10   2 2768.33 768.838  11
  -4 -10  -2 3202.43 823.427  10
   4 -10   2 3858.86 770.203  13
   4 -10   3 684.347 534.384  11
  -4 -10  -3 165.087 495.171  10
   4 -10   3 937.134 505.630   9
   4 -10   3 696.869 487.885  13
   4 -10   4 6673.12 678.715  11
  -4 -10  -4 7694.12 814.544  10
   4 -10   4 7310.17 832.219  13
   4 -10   5 859.956 304.954   9
   4 -10   5 357.895 358.926  13
  -4  -9   8 9583.64 781.639  12
  -4  -9   7 3567.17 645.151  12
  -4  -9   6 4865.16 842.112  12
  -4  -9   5-192.638 460.814  10
  -4  -9   5 152.198 508.026  12
   4  -9  -4 4672.32 889.278  11
  -4  -9   4 7391.02 1049.06  10
  -4  -9   4 7143.66 2160.95  13
  -4  -9   4 6528.36 1010.05  12
   4  -9  -3-273.586 609.399  11
  -4  -9   3-6.58510 647.579  10
  -4  -9   3 298.101 2148.59  13
  -4  -9   3-180.033 671.974  12
   4  -9  -2 25870.8 1988.76  11
  -4  -9   2 27036.0 2038.44  10
  -4  -9   2 28429.2 1989.20  12
   4  -9  -1 33013.5 2257.91  11
  -4  -9   1 32465.3 2172.57  10
   4  -9   0 5478.74 1113.78  11
  -4  -9   0 5978.85 1104.47  10
   4  -9   0 6439.12 1074.57  13
   4  -9   1 11633.6 1405.75  11
  -4  -9  -1 14171.2 1518.15  10
   4  -9   1 11203.7 1336.76  13
   4  -9   2 528.729 655.237  11
  -4  -9  -2 1432.88 783.474  10
   4  -9   2 370.045 606.223  13
   4  -9   3 3202.88 785.982  11
  -4  -9  -3 3239.97 848.354  10
   4  -9   3 3830.11 714.932   9
   4  -9   3 4028.03 813.532  13
   4  -9   4 3103.58 687.470  11
  -4  -9  -4 5193.40 871.789  10
   4  -9   4 5333.11 759.063   9
   4  -9   4 4913.55 833.491  13
  -4  -9  -5 12429.2 1005.08  10
   4  -9   5 12963.8 1078.73  13
   4  -9   6 8661.41 656.311   9
   4  -9   6 4996.76 559.100  13
  -4  -8   9 1768.38 369.480  12
  -4  -8   8 578.554 410.893  12
  -4  -8   7 19023.0 1433.90  12
  -4  -8   6 5892.99 971.768  12
  -4  -8   5 4045.33 853.361  10
  -4  -8   5 5047.79 1891.93  13
  -4  -8   5 4930.10 960.705  12
   4  -8  -4 7046.69 1210.88  11
  -4  -8   4 7728.26 1175.40  10
  -4  -8   4 8781.20 1924.13  13
  -4  -8   4 9608.44 1285.38  12
   4  -8  -3 25523.2 2064.18  11
  -4  -8   3 26802.5 2066.06  10
  -4  -8   3 29343.5 2566.80  13
  -4  -8   3 26448.4 2025.72  12
   4  -8  -2 42095.5 2681.49  11
  -4  -8   2 49561.5 2761.71  10
  -4  -8   2 45620.5 3296.77  13
  -4  -8   2 46093.0 2659.54  12
   4  -8  -1 10558.3 1446.12  11
  -4  -8   1 11073.8 1451.21  10
  -4  -8   1 10690.7 1378.35  12
   4  -8   0 2681.47 877.210  11
  -4  -8   0 2844.97 986.484  10
   4  -8   1 4370.55 1067.77  11
  -4  -8  -1 3545.94 965.005  10
   4  -8   2 3031.29 921.572  11
  -4  -8  -2 3139.75 934.619  10
   4  -8   3 30358.8 2003.90  11
  -4  -8  -3 29645.8 2158.93  10
   4  -8   4-101.909 519.130  11
  -4  -8  -4-250.379 686.191  10
   4  -8   4 236.886 482.801   9
   4  -8   4 126.293 586.256  13
  -4  -8  -5 11764.3 1192.92  10
   4  -8   5 13758.1 1092.97   9
   4  -8   5 12558.1 1172.31  13
  -4  -8  -6 2787.56 577.265  10
   4  -8   6 4790.14 616.348   9
   4  -8   6 4290.56 635.325  13
  -4  -7   9 6353.77 733.004  12
  -4  -7   8 4220.00 779.913  12
  -4  -7   7 4453.11 883.646  12
  -4  -7   6 10187.9 1275.72  12
  -4  -7   5 9997.95 2047.23  13
  -4  -7   5 9550.63 1253.09  12
   4  -7  -4 8799.11 1361.15  11
  -4  -7   4 11831.6 1381.35  10
  -4  -7   4 13007.7 2052.67  13
  -4  -7   4 13107.8 1493.45  12
   4  -7  -3 2316.71 918.238  11
  -4  -7   3 2349.73 919.524  10
  -4  -7   3 2153.55 1705.80  13
  -4  -7   3 2950.76 909.837  12
   4  -7  -2 37752.9 2568.59  11
  -4  -7   2 39750.4 2551.33  10
  -4  -7   2 44428.2 2986.90  13
  -4  -7   2 38968.6 2458.35  12
   4  -7  -1 3574.53 1006.96  11
  -4  -7   1 3016.33 976.218  10
  -4  -7   1 3171.24 915.289  12
   4  -7   0 22493.9 1969.90  11
  -4  -7   0 22660.3 1996.62  10
   4  -7   1 11491.9 1485.40  11
  -4  -7  -1 11175.2 1529.67  10
   4  -7   2 10159.1 1419.27  11
  -4  -7  -2 11014.0 1525.80  10
   4  -7   3 647.093 656.709  11
  -4  -7  -3 1150.15 897.906  10
   4  -7   4 9539.48 1176.10  11
  -4  -7  -4 9793.14 1398.13  10
   4  -7   4 11420.4 1185.39   9
  -4  -7  -5 19893.4 1684.55  10
   4  -7   5 20787.9 1406.82   9
   4  -7   5 15883.0 1479.09  13
  -4  -7  -6 397.050 534.928  10
   4  -7   6 1131.42 465.996   9
   4  -7   6 1818.50 540.201  13
   4  -7   7 5130.53 579.800   9
  -4  -6   9 211.693 401.230  12
  -4  -6   8 2807.65 717.682  12
  -4  -6   7 690.130 609.266  12
  -4  -6   6 12224.5 1415.95  12
  -4  -6   5 3494.56 1754.01  13
  -4  -6   5 3469.22 937.588  12
  -4  -6   4 48582.1 2584.22  10
  -4  -6   4 54906.0 2880.64  12
  -4  -6   3 29680.1 2103.39  10
   4  -6  -3 28739.9 4286.19  19
  -4  -6   3 36947.5 2638.24  13
  -4  -6   3 31578.3 2190.09  12
  -4  -6   2 10656.1 1416.20  10
   4  -6  -2 5470.70 1983.51  19
   4  -6  -2 15015.1 3102.31  18
   4  -6  -2 7869.37 2128.57  17
  -4  -6   2 9548.83 2155.80  13
  -4  -6   2 10932.8 1347.90  12
  -4  -6   1 48325.2 2838.60  10
   4  -6  -1 40416.4 4863.28  19
   4  -6  -1 41824.3 4927.20  18
  -4  -6   1 50084.5 2734.39  12
  -4  -6   0 43891.8 2697.57  10
   4  -6   0 37811.3 4593.07  18
   4  -6   0 28648.7 4048.58  17
  -4  -6   0 26126.4 4153.74   8
  -4  -6   0 43161.8 2584.01  12
   4  -6   1 8572.44 1316.67  11
  -4  -6  -1 10717.0 1498.61  10
   4  -6   2 23070.7 1993.22  11
  -4  -6  -2 23141.8 2046.85  10
   4  -6   3 49178.5 2770.85  11
  -4  -6  -3 56523.0 3191.58  10
  -4  -6  -4 16315.3 1804.40  10
   4  -6   4 16292.9 1411.10   9
  -4  -6  -5 456.313 696.142  10
   4  -6   5 680.010 539.451   9
  -4  -6  -6 1202.07 696.573  10
   4  -6   6 790.075 515.034  13
  -4  -6  -7 1729.36 569.853  10
   4  -6   7 1943.73 481.215   9
  -4  -5  10 5590.95 620.693  12
  -4  -5   9 2357.16 586.605  12
  -4  -5   8 10.7625 454.830  12
  -4  -5   7 18665.0 1675.90  12
  -4  -5   6 14990.4 1589.34  12
  -4  -5   5 9007.23 1280.20  12
   4  -5  -4 18944.8 3484.71  18
   4  -5  -4 15721.0 3259.33  17
  -4  -5   4 24841.7 2362.97  13
  -4  -5   4 21017.4 1825.18  12
  -4  -5   3 12256.8 1443.63  10
   4  -5  -3 19677.0 3285.19  19
   4  -5  -3 16038.3 3288.82  18
   4  -5  -3 11521.4 2781.89  17
  -4  -5   3 18962.1 2197.88  13
  -4  -5   3 18148.6 1660.89  12
   4  -5  -2 5509.73 1789.35  19
  -4  -5   2 5972.23 1115.97  10
   4  -5  -2 7889.85 2181.16  18
   4  -5  -2 5881.82 1902.56  17
  -4  -5   2 7838.37 1203.91  12
  -4  -5   1 37199.5 2445.03  10
   4  -5  -1 37183.9 4452.10  19
   4  -5  -1 34723.4 4324.56  18
   4  -5  -1 30990.2 4258.27  17
  -4  -5   1 36174.4 2329.70  12
  -4  -5   0 30623.4 2309.48  10
   4  -5   0 28669.1 3898.92  18
   4  -5   0 22117.1 3415.04  17
  -4  -5   0 31133.9 2144.56  12
  -4  -5  -1 17718.3 1846.17  10
   4  -5   1 18299.7 3114.93  18
  -4  -5  -1 14386.0 2955.15   8
  -4  -5  -2 25855.9 2197.16  10
   4  -5   2 21207.8 3370.01  18
  -4  -5  -2 17390.9 3650.69   8
   4  -5   3 30507.6 2286.11  11
  -4  -5  -3 36376.3 2656.83  10
  -4  -5  -4 12392.2 1700.70  10
   4  -5   4 12954.0 1309.23   9
  -4  -5  -5 4549.92 1144.41  10
   4  -5   5 4675.59 877.082   9
   4  -5   5 4739.01 870.668   5
  -4  -5  -6 6775.81 1134.76  10
   4  -5   6 6138.84 868.060   5
   4  -5   6 6015.67 885.180   9
  -4  -5  -7 6699.38 990.819  10
   4  -5   7 8686.60 872.303   9
  -4  -4  10 2507.56 507.869   6
  -4  -4  10 2671.13 477.083  12
  -4  -4   9 2975.39 697.702   6
  -4  -4   9 3246.47 672.718  12
  -4  -4   8 4363.67 920.383   6
  -4  -4   8 5757.83 994.983  12
  -4  -4   7 2889.16 877.628   6
  -4  -4   7 1539.37 735.284  12
  -4  -4   6 6715.97 1096.36   6
  -4  -4   6 6207.88 1050.32  12
  -4  -4   5 9088.08 1267.55   6
   4  -4  -5 3626.07 1839.55  18
  -4  -4   5 4084.21 2169.40   3
   4  -4  -5 12396.9 2673.63   1
   4  -4  -5 9375.58 2620.19  17
  -4  -4   5 8778.62 2325.49   2
  -4  -4   5 13008.4 1475.34  12
   4  -4  -5 5668.18 2574.62   4
  -4  -4   4 11824.9 1389.41   6
   4  -4  -4 15505.1 2889.76   1
   4  -4  -4 12365.0 2685.82  18
  -4  -4   4 10315.4 2722.96   3
   4  -4  -4 11949.2 2681.85  17
  -4  -4   4 10982.6 2554.78   2
  -4  -4   4 15331.6 1571.81  12
   4  -4  -4 15895.9 3370.97   4
  -4  -4   3 5017.42 949.804   6
   4  -4  -3 4641.16 1551.81  19
   4  -4  -3 4462.49 1900.28  18
   4  -4  -3 9351.16 2521.48  17
  -4  -4   3 11416.7 2526.67   2
  -4  -4   3 7675.40 1142.06  12
   4  -4  -3 3492.69 1862.87   4
   4  -4  -2 3578.57 1503.79  17
  -4  -4   2 2001.36 671.867   6
   4  -4  -2 3377.27 1282.10  19
   4  -4  -2 6288.80 1901.30  18
  -4  -4   2 4129.55 1427.11   2
  -4  -4   2 3342.49 841.342  12
   4  -4  -2 3603.18 1784.17   4
   4  -4  -1 56414.2 5189.94  19
  -4  -4   1 44161.9 2628.32  10
   4  -4  -1 57443.5 5246.86  18
   4  -4  -1 48505.1 4835.42  17
   4  -4  -1 44320.1 4688.56   4
  -4  -4   1 51770.9 2717.48  12
  -4  -4   1 46447.5 4825.10   2
  -4  -4   0 12320.6 1486.71  10
   4  -4   0 15132.3 2726.69  18
  -4  -4   0 14415.9 2769.88   2
   4  -4   0 11235.6 2423.88  17
  -4  -4   0 12652.7 1423.89  12
   4  -4   0 12783.7 2587.49   4
  -4  -4   0 8917.36 1126.67   6
  -4  -4  -1 16307.1 1787.43  10
   4  -4   1 16626.6 2763.44  18
  -4  -4  -1 13411.3 2731.32   2
   4  -4   1 10016.7 2190.04  17
   4  -4   1 13307.3 2778.88   4
  -4  -4  -1 12846.0 1371.81   6
  -4  -4  -2 48821.1 2987.91  10
   4  -4   2 40751.3 4538.02  18
   4  -4   2 41332.0 4693.70   4
  -4  -4  -2 33612.9 4752.04   2
  -4  -4  -2 40166.8 2361.38   6
  -4  -4  -3 3361.63 882.046   6
   4  -4   3 1664.16 797.604  11
  -4  -4  -3 1611.53 1184.90   2
   4  -4   3 2834.02 1595.73  18
   4  -4   3 2894.83 862.304   5
   4  -4   3 1346.18 1533.47   4
  -4  -4  -4 848.757 562.332   6
   4  -4   4 375.218 560.420   9
   4  -4   4 1193.58 662.318   5
   4  -4   5 28406.3 1943.22   5
   4  -4   5 25703.6 1734.96   9
  -4  -4  -6 20477.7 1881.15  10
   4  -4   6 18653.0 1540.26   5
   4  -4   6 19020.0 1386.53   9
  -4  -4  -7 4983.18 973.987  10
   4  -4   7 5457.22 824.522   5
   4  -4   8 10439.3 887.547   5
  -4  -4  -8 5056.31 791.952  10
  -4  -3  10 3352.75 660.735   6
  -4  -3   9 1240.95 567.330   6
  -4  -3   9 1037.59 498.825  12
  -4  -3   8 4537.51 969.508   6
  -4  -3   8 3488.15 816.984  12
  -4  -3   7 3290.92 874.595   6
  -4  -3   7 3482.64 856.398  12
  -4  -3   6 62240.1 3156.99   6
  -4  -3   6 62872.7 3025.81  12
  -4  -3   5 13845.5 1517.70   6
   4  -3  -5 11513.8 2509.30  18
   4  -3  -5 17677.0 3111.03   1
  -4  -3   5 12819.3 2966.31   3
   4  -3  -5 13112.8 3126.07  17
  -4  -3   5 18996.4 3221.23   2
  -4  -3   5 15387.6 1530.38  12
   4  -3  -5 13842.0 2976.34   4
  -4  -3   4 11115.2 1352.63   6
   4  -3  -4 14656.6 2700.19   1
   4  -3  -4 13943.6 2587.77  18
  -4  -3   4 11351.5 2604.36   3
   4  -3  -4 8476.86 2295.21  17
  -4  -3   4 14455.8 2830.26   2
  -4  -3   4 10836.2 1311.12  12
   4  -3  -4 13610.1 3106.29   4
  -4  -3   3 10624.4 1274.34   6
   4  -3  -3 13120.6 2535.88  18
  -4  -3   3 12291.2 2520.25   3
   4  -3  -3 13606.3 2492.05  17
  -4  -3   3 11393.8 2491.83   2
  -4  -3   3 13204.9 1375.16  12
   4  -3  -3 10417.9 2498.52   4
   4  -3  -2-148.569 687.219  18
  -4  -3   2 1437.09 999.030   2
   4  -3  -1 11071.9 2182.83  19
   4  -3  -1 9484.10 2073.48  18
  -4  -3   1 13233.5 2680.73   2
   4  -3  -1 8574.18 1964.87  17
   4  -3  -1 11198.7 2564.80   4
   4  -3   0 19730.3 2835.88  18
  -4  -3   0 16526.1 2960.70   2
   4  -3   0 16929.2 2844.78  17
   4  -3   0 17241.4 2991.91   4
   4  -3   1 21959.8 3126.11  18
  -4  -3  -1 17763.5 3274.75   2
   4  -3   1 16952.6 2804.46  17
   4  -3   1 20232.4 3285.17   4
  -4  -3  -1 21130.9 1741.71   6
   4  -3   2 82054.2 6091.51  18
   4  -3   2 87439.2 6719.74   4
  -4  -3  -2 79809.0 7119.42   2
  -4  -3  -2 83878.1 3481.55   6
  -4  -3  -3 11043.0 2801.78   2
   4  -3   3 7390.86 1136.82   5
  -4  -3  -3 7342.37 1121.04   6
   4  -3   3 8618.49 2295.63   4
   4  -3   4 16497.9 1564.04   5
  -4  -3  -4 17099.5 1695.51   6
   4  -3   5 45687.1 2474.11   5
  -4  -3  -5 45573.3 2729.53   6
   4  -3   6 3960.87 913.209   5
   4  -3   7 10152.1 1138.15   5
  -4  -3  -8 710.608 589.908  10
   4  -3   8 1350.55 548.693   5
   4  -3   9 2614.94 442.341   5
  -4  -2  11 1159.19 393.051   6
  -4  -2  10 15059.8 1291.47   6
  -4  -2   9 8257.75 1127.37   6
  -4  -2   8 3880.39 939.416   6
  -4  -2   7 26787.3 2134.26   6
  -4  -2   7 25316.1 1907.70  12
   4  -2  -6 10807.4 2919.89   4
  -4  -2   6 6846.94 1178.79   6
  -4  -2   6 7271.28 2283.79   3
   4  -2  -6 6098.27 2488.55  17
   4  -2  -6 7324.12 2105.70   1
  -4  -2   6 7858.34 2179.44   2
  -4  -2   6 6299.92 1045.93  12
   4  -2  -5 16268.4 3329.24   4
  -4  -2   5 15128.3 1587.26   6
  -4  -2   5 14588.4 2990.34   3
   4  -2  -5 12606.6 2680.49  17
  -4  -2   5 15026.5 2975.35   2
   4  -2  -5 19035.8 3362.41   1
  -4  -2   5 14501.2 1448.21  12
  -4  -2   4 12401.2 1395.56   6
  -4  -2   4 10870.3 2383.26   3
   4  -2  -4 14223.2 2683.41  17
  -4  -2   4 12799.8 2614.65   2
  -4  -2   4 11323.9 1310.63  12
   4  -2  -4 16647.9 3119.71   4
  -4  -2   3 19003.7 3196.57   3
   4  -2  -3 18425.8 2794.79  17
   4  -2  -3 22397.2 3654.27   4
  -4  -2   3 18764.3 2965.56   2
   4  -2  -2 41801.1 3941.45  18
   4  -2  -2 36907.3 3901.64  17
   4  -2  -2 42870.1 4766.34   4
  -4  -2   2 42258.1 4401.48   2
   4  -2  -1 6714.54 1550.26  18
  -4  -2   1 5927.76 1823.64   2
   4  -2  -1 4873.00 1545.40  17
   4  -2  -1 9134.15 2348.52   4
   4  -2   0 68177.1 4819.46  18
   4  -2   0 66894.5 5069.94  17
   4  -2   0 67982.6 5769.34   4
  -4  -2   0 62105.4 5588.21   2
  -4  -2  -1 2871.97 1509.28   2
   4  -2   1 566.598 527.319  18
   4  -2   1 1169.47 1140.26  17
   4  -2   1 710.159 1091.69   4
  -4  -2  -2 9453.38 2441.14   2
   4  -2   2 6454.47 1782.01  17
   4  -2   2 13187.0 2591.81   4
  -4  -2  -2 12081.9 1400.28   6
  -4  -2  -3 14251.2 2958.51   2
  -4  -2  -3 14023.6 1537.87   6
   4  -2   3 10171.2 2495.20   4
  -4  -2  -4 5202.33 2118.63   2
   4  -2   4 8162.96 1182.29   5
  -4  -2  -4 7327.43 1217.96   6
   4  -2   4 5785.76 2059.87   4
  -4  -2  -5 934.636 711.862   6
   4  -2   5 1373.67 793.355   5
   4  -2   6 8871.66 1211.63   5
   4  -2   7 3838.77 856.320   5
   4  -2   8 9246.62 1015.28   5
   4  -2   9 5329.76 709.468   5
  -4  -1  11 172.925 273.008   6
  -4  -1  10 9381.37 1069.82   6
  -4  -1   9 440.336 538.630   6
  -4  -1   8 28519.1 2124.91   6
  -4  -1   8 24499.9 1813.70   9
  -4  -1   7 353.681 571.849   6
  -4  -1   7 20.0478 544.401   9
   4  -1  -6-125.799 1206.75   4
  -4  -1   6 1868.58 734.758   6
  -4  -1   6 1627.30 1291.31   3
   4  -1  -6 566.083 1862.47  17
   4  -1  -6 2809.42 1313.43   1
  -4  -1   6 3396.25 1452.06   2
  -4  -1   5 34199.9 2292.88   6
  -4  -1   5 32153.4 4374.51   3
  -4  -1   5 34925.6 4393.74   2
   4  -1  -5 36376.6 4263.74  17
   4  -1  -5 43560.6 4995.15   1
   4  -1  -5 39745.3 5211.15   4
  -4  -1   4 39216.2 4449.47   2
  -4  -1   4 33905.2 2193.94   6
  -4  -1   4 40246.9 4539.98   3
   4  -1  -4 40293.3 4230.79  17
   4  -1  -4 37559.2 4789.18   4
  -4  -1   3 71249.2 5798.83   3
   4  -1  -3 74887.2 5394.44  17
   4  -1  -3 81338.5 6651.88   4
  -4  -1   3 70393.1 5674.05   2
  -4  -1   2 3820.90 1423.09   2
   4  -1  -2 1820.64 944.644  17
   4  -1  -2 2358.13 1427.82   4
   4  -1  -1 28366.1 3295.41  17
   4  -1  -1 27889.3 3732.50   4
  -4  -1   1 30375.1 3794.44   2
  -4  -1   0 4516.13 1734.31   2
   4  -1   0 3980.93 1497.73  17
   4  -1   0 2437.97 1354.68   4
  -4  -1  -1 5241.37 1693.90   2
   4  -1   1 3797.01 1500.53  17
   4  -1   1 4551.55 1626.33   4
   4  -1   2 48391.0 4383.71  17
   4  -1   2 62229.6 5656.85   4
  -4  -1  -2 60012.8 5803.60   2
  -4  -1  -2 62849.4 2997.28   6
  -4  -1  -3 13711.5 2827.14   2
  -4  -1  -3 15206.1 1579.05   6
   4  -1   3 12852.6 2756.89   4
  -4  -1  -4 4937.15 1089.13   6
  -4  -1  -4 7610.56 2358.47   2
   4  -1   4 4394.86 972.066   5
   4  -1   4 3957.40 1696.78   4
   4  -1   5 14565.9 1495.43   5
  -4  -1  -5 16085.2 1717.66   6
   4  -1   6 31816.3 2080.89   5
   4  -1   7 3446.21 847.835   5
   4  -1   8 6839.48 933.117   5
  -4  -1  -9 215.160 439.576  10
   4  -1   9 1574.13 514.732   5
  -4   0  11 1596.62 455.209   6
  -4   0  10 13360.5 1210.50   6
  -4   0   9 9774.57 1241.42   6
  -4   0   8 34457.3 2273.13   6
  -4   0   7 20345.9 1856.22   6
  -4   0   6 45528.7 2648.67   6
  -4   0   6 43469.2 5332.75   3
  -4   0   6 49969.0 5508.67   2
   4   0  -6 35954.2 4439.94  16
   4   0  -6 57657.4 6046.07   1
   4   0  -6 38474.5 5437.78   4
  -4   0   5 47877.8 2647.66   6
  -4   0   5 46502.9 5123.53   3
  -4   0   5 53552.8 5295.54   2
   4   0  -5 49912.0 4979.01  17
   4   0  -5 47407.5 4856.89  16
   4   0  -5 66969.8 6140.37   1
   4   0  -5 51214.6 5783.13   4
   4   0  -4 13627.2 2859.51   4
  -4   0   4 15222.5 2797.67   2
  -4   0   4 13370.2 1415.08   6
  -4   0   4 16668.3 3032.58   3
   4   0  -4 16670.3 2695.47  17
   4   0  -4 14926.1 2657.49  16
  -4   0   3 28415.4 3676.00   3
   4   0  -3 34330.2 3738.82  17
   4   0  -3 32625.8 4252.44   4
  -4   0   3 29239.3 3615.57   2
   4   0  -2 112165. 6296.34  17
   4   0  -2 119468. 7796.14   4
  -4   0   2 101653. 6590.63   2
   4   0  -1 102795. 5956.42  17
   4   0  -1 104225. 7078.70   4
  -4   0   1 98624.6 6624.05   2
   4   0   0 12210.0 2184.51  17
  -4   0   0 12350.1 2544.67   2
   4   0   0 12766.9 2696.92   4
   4   0   1 88234.1 5828.17  17
   4   0   1 101549. 6987.71   4
  -4   0  -1 103351. 7104.36   2
  -4   0  -2 7461.35 2039.71   2
   4   0   2 7318.88 1783.02  17
   4   0   2 6524.26 2065.70   4
  -4   0  -2 8132.53 1219.49   6
   4   0   3 30738.4 4009.18   4
  -4   0  -3 30202.4 4212.58   2
  -4   0  -3 32926.2 2299.21   6
  -4   0  -4 9376.00 2545.87   2
   4   0   4 8214.84 1176.08   5
  -4   0  -4 7978.37 1288.59   6
   4   0   4 5065.12 1915.53   4
   4   0   5 5624.92 1064.78   5
  -4   0  -5 5534.07 1150.39   6
   4   0   6 1603.00 799.392   5
   4   0   7 2501.39 803.720   5
   4   0   8-193.862 535.371   5
   4   0   9 261.413 392.318   5
  -4   1  11-41.3342 281.199   6
  -4   1  10 8710.99 1060.83   6
  -4   1   9 582.485 526.690   6
  -4   1   8 26620.0 2061.50   6
  -4   1   7 991.449 677.917   6
   4   1  -6-3181.39 2111.00   4
  -4   1   6 1706.07 728.025   6
  -4   1   6 3832.85 1718.54   3
   4   1  -6-2655.39 1746.53   1
   4   1  -6-1962.27 1406.31  16
  -4   1   6 1240.29 857.816   2
  -4   1   5 34053.0 2270.76   6
  -4   1   5 36982.4 4479.52   3
  -4   1   5 39756.2 4739.78   2
   4   1  -5 30476.7 4014.29  17
   4   1  -5 38405.1 4535.35  16
   4   1  -5 46631.0 5275.00   1
   4   1  -5 31551.1 4578.44   4
  -4   1   4 38034.8 4300.51   2
  -4   1   4 36055.5 2238.83   6
  -4   1   4 41403.5 4463.36   3
   4   1  -4 40797.5 4300.08  17
   4   1  -4 45127.4 4670.15  16
   4   1  -4 36115.9 4654.16   4
  -4   1   3 70028.3 5687.25   3
   4   1  -3 78461.6 5559.36  17
  -4   1   3 69104.6 5125.16  15
   4   1  -3 76107.6 6453.03   4
  -4   1   3 68695.1 5590.57   2
  -4   1   2 2292.20 1193.09   2
   4   1  -2 4838.18 1421.91  17
   4   1  -2 4297.34 1551.01   4
   4   1  -1 27749.5 3275.43  17
   4   1  -1 32120.4 4016.00   4
  -4   1   1 31046.9 3784.42   2
  -4   1   0 3351.17 1329.61   2
   4   1   0 3862.46 1431.01  17
   4   1   0 5130.03 1689.85   4
  -4   1  -1 2178.96 1226.03   2
   4   1   1 3972.08 1441.86  17
   4   1   1 3838.85 1490.80   4
   4   1   2 55227.6 4670.79  17
   4   1   2 64345.5 5762.67   4
  -4   1  -2 62064.2 5864.21   2
  -4   1  -2 69668.7 3243.15   6
  -4   1  -3 13097.0 2855.06   2
   4   1   3 10833.7 2186.60  17
  -4   1  -3 15231.2 1609.42   6
   4   1   3 11395.8 2706.42   4
  -4   1  -4 5606.85 1093.78   6
  -4   1  -4 9885.13 2800.02   2
   4   1   4 5502.45 1054.63   5
   4   1   4 8389.12 2261.29   4
   4   1   5 16145.9 1551.53   5
  -4   1  -5 17433.8 1828.03   6
   4   1   6 31235.8 2048.80   5
   4   1   7 3993.35 920.783   5
   4   1   8 7730.16 968.624   5
   4   1   9 651.718 458.321   5
  -4   2  11 1004.75 381.482   6
  -4   2  10 16882.2 1304.80   6
  -4   2   9 8355.37 1132.18   6
  -4   2   8 3203.92 875.199   6
  -4   2   7 27278.8 2119.91   6
   4   2  -6 4081.29 2197.83   4
  -4   2   6 7866.12 1239.11   6
  -4   2   6 10608.2 2610.72   3
   4   2  -6 4238.25 2077.14   1
   4   2  -6 11375.4 2541.89  16
  -4   2   6 9082.06 2380.24   2
   4   2  -5 14077.0 3202.33   4
  -4   2   5 16299.9 1619.44   6
  -4   2   5 19809.6 3302.55   3
  -4   2   5 16761.9 3099.04   2
   4   2  -5 12637.2 2774.75  17
   4   2  -5 21913.3 3622.95  16
   4   2  -5 24612.2 3885.34   1
  -4   2   4 12479.7 1410.51   6
  -4   2   4 20698.3 3265.71   3
   4   2  -4 13519.5 2550.34  17
  -4   2   4 12708.9 2515.88   2
  -4   2   4 14821.4 2650.97  15
   4   2  -4 15420.3 3123.05   4
  -4   2   3 19951.2 3127.61   3
   4   2  -3 22300.5 3056.06  17
  -4   2   3 15970.8 2573.82  15
   4   2  -3 21222.7 3553.34   4
  -4   2   3 19430.8 3071.88   2
   4   2  -2 39261.8 3941.22  17
  -4   2   2 41759.4 3882.83  15
   4   2  -2 52948.0 5347.90   4
  -4   2   2 41588.7 4348.75   2
  -4   2   1 3661.46 1326.95   2
   4   2  -1 5655.20 1529.88  17
   4   2  -1 4904.57 1768.19   4
   4   2   0 63378.4 4890.20  17
   4   2   0 74376.2 6133.72   4
  -4   2   0 66734.7 5740.79   2
  -4   2  -1 1237.36 989.959   2
   4   2   1 1745.49 1165.74  17
   4   2   1 4182.27 1486.46   4
  -4   2  -2 12437.3 2595.45   2
   4   2   2 9926.19 2167.37  17
   4   2   2 12572.8 2487.68   4
  -4   2  -2 12371.3 1487.61   6
  -4   2  -3 9985.77 2396.92   2
   4   2   3 8196.00 2164.37  17
  -4   2  -3 14268.4 1626.02   6
   4   2   3 13894.3 2883.90   4
  -4   2  -4 7031.18 2600.06   2
   4   2   4 7053.88 1144.12   5
  -4   2  -4 7129.00 1315.34   6
   4   2   4 1649.86 1460.93   4
  -4   2  -5 1291.56 764.685   6
   4   2   5 1604.82 736.643   5
   4   2   6 10352.3 1291.50   5
   4   2   7 3900.54 853.601   5
   4   2   8 10280.9 1075.26   5
   4   2   9 5689.11 721.027   5
  -4   3  10 3503.56 679.426   6
  -4   3   9 1484.41 588.672   6
  -4   3   8 3630.09 885.937   6
  -4   3   7 2690.43 840.506   6
  -4   3   6 59421.1 3025.12   6
  -4   3   5 14547.5 1536.68   6
   4   3  -5 13551.4 3001.55   1
  -4   3   5 14169.8 2941.35   3
  -4   3   5 15507.1 2927.81   2
   4   3  -5 17396.1 3523.98  16
  -4   3   5 13154.2 2870.39  15
   4   3  -5 11280.4 2958.42   4
  -4   3   4 10444.5 1294.34   6
   4   3  -4 15719.2 3092.99   1
  -4   3   4 9036.79 2148.11   3
   4   3  -4 12382.2 2680.20  17
  -4   3   4 12713.2 2626.94   2
  -4   3   4 9485.14 2321.01  15
   4   3  -4 14320.3 2967.23   4
  -4   3   3 10263.4 1238.14   6
  -4   3   3 14044.6 2607.92   3
   4   3  -3 11060.8 2500.60  17
  -4   3   3 13277.2 2742.47   2
  -4   3   3 12012.7 2324.08  15
   4   3  -3 14268.7 3032.39   4
  -4   3   2 2242.52 1206.97   2
   4   3  -2 3280.67 1209.33  17
  -4   3   2-1736.86 1000.69  15
   4   3  -2-2333.88 1643.18   4
  -4   3   1 12762.9 2525.96   2
   4   3  -1 10325.5 2173.65  17
  -4   3   1 11146.9 2068.64  15
   4   3  -1 8485.64 2168.83   4
   4   3   0 15590.2 2654.29  17
  -4   3   0 17771.6 2608.70  15
   4   3   0 20928.1 3210.52   4
  -4   3   0 20017.9 3265.17   2
   4   3   1 19607.0 3017.57  17
   4   3   1 26427.4 3705.30   4
  -4   3  -1 20222.9 3444.90   2
  -4   3  -1 22948.7 1879.03   6
   4   3   2 74764.2 5778.59  17
   4   3   2 89614.5 6837.30   4
  -4   3  -2 72072.9 6602.54   2
  -4   3  -2 93895.2 3812.32   6
  -4   3  -3 11486.0 2778.17   2
   4   3   3 5432.47 2061.02  17
   4   3   3 7973.11 1139.08   5
  -4   3  -3 8847.60 1288.79   6
   4   3   3 7918.87 2244.47   4
   4   3   4 17168.0 1593.84   5
  -4   3  -4 17379.2 1825.59   6
   4   3   5 46114.1 2491.51   5
  -4   3  -5 50348.0 2982.29   6
   4   3   6 3851.15 903.011   5
   4   3   7 12604.0 1251.62   5
   4   3   8 1759.96 595.859   5
   4   3   9 2721.57 498.965   5
  -4   4  10 1679.40 480.622   6
  -4   4   9 2991.70 709.889   6
  -4   4   8 4573.23 956.402   6
  -4   4   7 2101.37 746.981   6
  -4   4   6 5628.57 1098.26   6
  -4   4   5 11254.6 1387.58   6
  -4   4   5 10204.8 2491.48   3
   4   4  -5 10463.3 2669.02   1
   4   4  -5 9998.96 2651.12  16
  -4   4   5 9352.72 2443.05   2
  -4   4   5 7806.50 2191.51  15
   4   4  -5 12744.6 3044.65   4
  -4   4   4 12926.6 1429.60   6
   4   4  -4 13276.7 3015.90   1
  -4   4   4 9153.49 2411.96   3
   4   4  -4 15519.7 2663.98  17
   4   4  -4 18455.4 3370.84  16
  -4   4   4 17584.8 3053.09   2
  -4   4   4 11279.9 2611.97  15
   4   4  -4 12482.9 2893.61   4
  -4   4   3 6474.43 1087.80   6
  -4   4   3 5418.12 1427.08   2
  -4   4   3 5049.14 1677.65  15
   4   4  -3 7038.02 2122.31   4
  -4   4   2 1370.76 540.876   6
  -4   4   2 861.470 1230.53   2
   4   4  -2 1584.13 1231.61  17
  -4   4   2 5190.89 1594.96  15
   4   4  -2 4735.19 1667.86   4
   4   4  -1 44257.7 4342.05  17
  -4   4   1 46231.5 4566.80  15
   4   4  -1 56426.4 5454.13   4
  -4   4   1 50481.4 5005.13   2
  -4   4   1 41979.9 2454.26   6
  -4   4   0 10569.2 2457.01   2
   4   4   0 12489.5 2380.15  17
  -4   4   0 10805.9 2349.86  15
   4   4   0 8631.57 2200.58   4
  -4   4   0 10740.5 1317.13   6
  -4   4  -1 11032.8 2638.25   2
   4   4   1 10728.2 2273.16  17
  -4   4  -1 16903.9 2828.94  15
   4   4   1 14787.3 2878.67   4
  -4   4  -1 15934.3 1647.32   6
   4   4   2 35510.5 4196.97  17
   4   4   2 40998.3 4571.04   4
  -4   4  -2 34924.6 4649.48   2
  -4   4  -2 45935.1 2699.65   6
  -4   4  -3 4692.06 1055.58   6
  -4   4  -3 2666.90 2039.38   2
   4   4   3 3179.58 1425.41  17
   4   4   3 3632.38 887.893   5
  -4   4  -4 1362.59 751.409   6
   4   4   4 2873.01 868.255   5
   4   4   5 28423.2 1937.44   5
   4   4   6 21268.7 1633.30   5
   4   4   7 7345.73 954.366   5
   4   4   8 12002.9 990.599   5
  -4   5   9 977.496 408.932   6
  -4   5   8 207.998 432.888   6
  -4   5   7 13628.2 1469.37   6
  -4   5   6 12202.0 1390.65   6
  -4   5   5 7651.32 1156.26   6
   4   5  -4 22080.4 3755.82  16
  -4   5   4 18242.0 3041.78  15
   4   5  -3 16189.0 3023.45  17
  -4   5   3 13090.5 2688.68  15
   4   5  -2 4059.82 1634.31  17
  -4   5   2 5020.49 1610.55  15
   4   5  -1 35186.9 4103.94  17
  -4   5   1 31245.4 3962.71  15
   4   5   0 26558.6 3611.66  17
  -4   5   0 27569.6 3656.25  15
   4   5   1 14266.4 2737.32  17
  -4   5  -1 11530.9 2390.59  15
   4   5   2 12930.7 2734.85  17
   4   5   4 12280.6 1327.13   5
  -4   5  -4 11058.0 1445.28   6
   4   5   5 5160.55 951.090   5
   4   5   6 6081.02 877.747   5
   4   6  -3 15451.5 3251.31  17
   4   6  -2 6554.23 2235.30  17
  -4   6   2 11302.5 2521.08  15
   4   6  -1 39475.1 4577.31  17
  -4   6   1 40715.0 4689.18  15
   4   6   0 26315.0 3646.93  17
  -4   6   0 31220.6 4332.09  15
  -4   6  -1 6246.28 2028.78  15
   5 -11  -1 303.375 206.819   9
   5 -10  -3 1343.27 387.742  11
  -5 -10   3 1031.16 396.726  10
   5 -10  -2 3102.20 618.063  11
  -5 -10   2 2463.40 594.948  10
   5 -10  -1 3507.24 653.830  11
  -5 -10   1 3537.56 652.845  10
   5 -10   0 23136.0 1331.14  11
  -5 -10   0 29673.9 1533.36  10
   5 -10   1 7420.86 802.416  11
  -5 -10  -1 10701.1 953.181  10
   5 -10   1 11183.7 761.973   9
   5 -10   1 7370.68 713.078  13
  -5 -10  -2 4853.09 641.739  10
   5 -10   2 5637.85 530.582   9
   5 -10   2 4268.75 533.347  13
  -5  -9   6 4565.54 583.002  12
  -5  -9   5 2974.93 580.233  12
   5  -9  -4 4994.75 713.010  11
  -5  -9   4 4963.74 675.334  10
   5  -9  -3 12055.5 1159.58  11
  -5  -9   3 13896.3 1189.37  10
   5  -9  -2 5249.58 888.038  11
  -5  -9   2 6417.40 883.430  10
   5  -9  -1 5192.03 871.856  11
  -5  -9   1 5683.98 908.562  10
   5  -9   0 7826.38 1011.33  11
  -5  -9   0 10022.2 1148.41  10
   5  -9   0 7779.03 910.099  13
   5  -9   1 9152.15 1019.58  11
  -5  -9  -1 12592.9 1177.46  10
   5  -9   1 9771.46 1008.52  13
   5  -9   2 11294.1 1012.40  11
  -5  -9  -2 13306.2 1152.03  10
   5  -9   2 10917.0 990.016  13
   5  -9   3 353.556 308.455  11
  -5  -9  -3 971.799 465.636  10
   5  -9   3 544.573 288.168   9
   5  -9   3 493.302 370.746  13
   5  -9   4 273.448 260.400  13
  -5  -8   7 763.810 364.950  12
  -5  -8   6 3081.23 643.805  12
  -5  -8   5 1011.01 513.207  12
   5  -8  -4 2029.76 582.315  11
  -5  -8   4 1621.23 594.275  12
   5  -8  -3 2962.51 850.187  11
  -5  -8   3 3155.40 740.921  10
  -5  -8   3 3586.20 800.669  12
   5  -8  -2 6522.95 1068.98  11
  -5  -8   2 7602.60 1105.62  10
   5  -8  -1 11522.1 1301.92  11
  -5  -8   1 13195.6 1357.81  10
   5  -8   0 770.390 643.218  11
  -5  -8   0 207.572 643.044  10
   5  -8   1 6117.01 968.698  11
  -5  -8  -1 7847.52 1111.68  10
   5  -8   2 32490.2 1796.81  11
  -5  -8  -2 36617.4 2059.28  10
   5  -8   2 35378.7 1629.69   9
   5  -8   3 4421.88 691.450  11
  -5  -8  -3 5498.12 879.830  10
   5  -8   3 5940.75 689.752   9
   5  -8   3 3988.06 740.035  13
  -5  -8  -4-29.0330 474.363  10
   5  -8   4 299.849 333.099   9
   5  -8   4-422.222 428.382  13
  -5  -7   8 7079.35 661.542  12
  -5  -7   7 22754.2 1356.70  12
  -5  -7   6 5199.50 817.357  12
   5  -7  -5 2537.85 661.465  11
  -5  -7   5 5735.97 938.505  12
   5  -7  -4 1956.86 817.188  11
  -5  -7   4 4216.44 885.487  12
   5  -7  -3 2310.32 854.741  11
  -5  -7   3 2185.44 696.527  10
  -5  -7   3 3450.99 828.229  12
   5  -7  -2 27698.7 2065.16  11
  -5  -7   2 26634.0 1904.63  10
   5  -7  -1 46281.8 2553.85  11
  -5  -7   1 53270.5 2711.19  10
   5  -7   0 23900.4 1868.58  11
  -5  -7   0 25351.0 1944.14  10
   5  -7   1 16185.0 1556.81  11
  -5  -7  -1 17592.1 1674.80  10
   5  -7   2 9414.91 1125.12  11
  -5  -7  -2 10108.2 1268.47  10
   5  -7   3 2300.89 660.638  11
  -5  -7  -3 2000.44 733.566  10
   5  -7   3 2013.18 538.563   9
  -5  -7  -4 219.785 510.014  10
   5  -7   4-213.023 354.256   9
   5  -7   4-24.4775 464.168  13
  -5  -7  -5 3661.07 700.299  10
   5  -7   5 4892.08 502.994   9
   5  -7   5 4308.58 639.348  13
  -5  -6   8 810.347 398.892  12
  -5  -6   7 485.518 440.354  12
  -5  -6   6 5349.35 893.356  12
   5  -6  -5 474.418 542.031  11
  -5  -6   5 2960.37 774.031  12
  -5  -6   4 23682.8 1787.57  12
  -5  -6   3 9156.95 1234.31  10
  -5  -6   3 12568.6 1423.71  12
  -5  -6   2 17927.7 1673.11  10
  -5  -6   2 20850.7 1768.85  12
  -5  -6   1 6693.75 1235.43  10
   5  -6   0 12652.2 1474.27  11
  -5  -6   0 11423.6 1449.52  10
   5  -6   1 1852.22 812.402  11
  -5  -6  -1 1982.95 892.283  10
   5  -6   2 3030.50 865.713  11
  -5  -6  -2 3477.74 971.926  10
   5  -6   3 1726.63 678.222  11
  -5  -6  -3 1909.46 869.368  10
   5  -6   3 1101.81 497.261   9
  -5  -6  -4 6555.40 1098.69  10
   5  -6   4 7157.19 791.437   9
  -5  -6  -5 692.433 597.859  10
   5  -6   5 690.640 501.842  13
  -5  -6  -6 354.129 373.388  10
  -5  -5   8 7468.21 809.980  12
  -5  -5   7 5195.16 822.265  12
  -5  -5   6 21291.8 1631.19  12
  -5  -5   5 29654.1 1980.68  12
  -5  -5   4 73531.9 3172.23  12
  -5  -5   3 14907.3 1529.77  12
  -5  -5   2 55203.6 2821.80  10
  -5  -5   2 67446.2 3097.04  12
  -5  -5   1 9718.66 1360.81  10
  -5  -5   0 236.835 750.270  10
  -5  -5  -1 14901.7 1699.34  10
   5  -5   1 12952.2 1291.05   5
   5  -5   2 9506.01 1324.32  11
  -5  -5  -2 12073.2 1569.56  10
   5  -5   2 9804.84 1130.96   5
  -5  -5  -2 10565.6 1197.07   6
  -5  -5  -3 4088.14 784.287   6
   5  -5   3 2652.10 735.908  11
  -5  -5  -3 3816.87 1043.42  10
   5  -5   3 3677.05 693.556   9
   5  -5   3 3748.28 718.445   5
  -5  -5  -4 1460.40 798.578  10
   5  -5   4 2552.68 604.336   5
  -5  -5  -5 15672.9 1499.02  10
  -5  -5  -6 213.080 435.180  10
   5  -5   6 363.978 301.912  13
  -5  -4   9 661.132 285.406   6
  -5  -4   8 146.946 415.440   6
  -5  -4   8-185.152 425.773  12
  -5  -4   7 3139.46 723.607   6
  -5  -4   7 2817.37 665.126  12
  -5  -4   6 1291.38 601.714   6
  -5  -4   6 1580.23 665.579  12
  -5  -4   5 13550.3 1431.88   6
  -5  -4   5 12781.9 1405.13  12
  -5  -4   4 15354.3 1579.00   6
  -5  -4   4 18149.5 1668.13  12
  -5  -4   3 6527.71 1108.99  12
  -5  -4   3 6330.51 1051.85   6
  -5  -4   2 25058.9 1952.08  12
  -5  -4   2 21699.1 1755.11   6
  -5  -4   1 1079.71 580.814   6
  -5  -4   1 1311.02 751.124  10
  -5  -4   0 21423.7 2059.73  10
  -5  -4   0 25322.0 1916.16   6
  -5  -4  -1 14122.1 1725.06  10
  -5  -4  -1 14452.1 1477.85   6
  -5  -4  -2 19062.9 1927.06  10
   5  -4   2 19261.6 1589.89   5
  -5  -4  -2 16219.7 1557.87   6
  -5  -4  -3 55464.0 3137.94  10
   5  -4   3 58036.9 2555.10   5
  -5  -4  -3 54507.8 2648.32   6
  -5  -4  -4 3552.63 1065.36  10
   5  -4   4 3666.50 787.005   5
  -5  -4  -5 5929.86 1111.15  10
   5  -4   5 7069.30 879.706   5
  -5  -4  -6 1157.50 665.883  10
   5  -4   6 1955.28 468.938   5
   5  -4   6 291.019 391.290  13
  -5  -4  -7 1389.97 449.391  10
  -5  -3   9 2337.46 540.982   6
  -5  -3   8 3583.38 745.192   6
  -5  -3   7 284.569 472.975   6
  -5  -3   7 676.554 426.999  12
  -5  -3   6 9130.35 1255.61   6
  -5  -3   6 8235.13 1094.11  12
  -5  -3   5 41902.7 2503.54   6
  -5  -3   5 43431.1 2412.29  12
  -5  -3   4 15981.8 1621.81   6
  -5  -3   4 17711.5 1608.53  12
  -5  -3   3 1448.23 749.541   6
  -5  -3   3 1834.59 667.611  12
  -5  -3   2 45415.5 2574.92  12
  -5  -3   2 47916.8 2647.22   6
  -5  -3   1 20304.6 1826.87  10
  -5  -3   1 25964.7 2013.90   6
  -5  -3   0 11134.1 1515.66  10
  -5  -3   0 11935.9 1404.51   6
  -5  -3  -1 36487.0 2596.68  10
  -5  -3  -1 36507.8 2374.88   6
  -5  -3  -2 13935.4 1747.78  10
  -5  -3  -2 15161.3 1575.23   6
  -5  -3  -3 25113.5 2236.39  10
   5  -3   3 26491.5 1871.62   5
  -5  -3  -3 27504.7 2036.58   6
  -5  -3  -4 15070.4 1778.53  10
   5  -3   4 15675.8 1445.71   5
  -5  -3  -4 14196.3 1493.98   6
  -5  -3  -5 19.5203 656.067  10
   5  -3   5 350.588 502.899   5
  -5  -3  -6 2939.60 817.633  10
   5  -3   6 3698.61 696.526   5
   5  -3   7 4339.49 574.842   5
  -5  -3  -7 1254.42 561.380  10
  -5  -2  10 11538.3 880.501   6
  -5  -2   9 8852.83 952.957   6
  -5  -2   8 8626.25 1071.53   6
  -5  -2   7 12240.8 1375.25   6
  -5  -2   6 3994.71 948.170   6
  -5  -2   5 19643.7 1771.23   6
  -5  -2   4 6462.75 1140.58   6
  -5  -2   4 6527.48 1031.65  12
  -5  -2   3 19084.3 1774.25   6
  -5  -2   3 17909.2 1599.12  12
   5  -2  -2 46767.7 5284.52  17
   5  -2  -2 51131.4 5881.00   4
  -5  -2   2 42303.2 5164.38   2
  -5  -2   2 62251.2 3068.36   6
  -5  -2   1 13974.4 3095.60   2
   5  -2  -1 11029.1 2527.68  17
   5  -2  -1 18518.9 3705.31   4
  -5  -2   1 21256.5 1839.48   6
  -5  -2   0 40539.0 2638.90  10
   5  -2   0 28923.1 4341.22  17
  -5  -2  -1 25852.0 2249.62  10
  -5  -2  -1 31018.1 2220.43   6
  -5  -2  -2 24515.6 1980.18   6
   5  -2   3 5402.65 1052.94   5
  -5  -2  -3 6818.25 1150.37   6
   5  -2   4 11131.6 1297.69   5
  -5  -2  -4 11089.6 1370.45   6
   5  -2   5 4995.45 916.951   5
  -5  -2  -6 1592.72 784.089  10
   5  -2   6 3295.00 725.055   5
  -5  -2  -7 279.269 511.556  10
   5  -2   7-90.0826 395.524   5
  -5  -1  10 4473.70 602.187   6
  -5  -1   9 1517.89 515.734   6
  -5  -1   8 11841.2 1233.59   6
  -5  -1   7 8452.61 1162.31   6
  -5  -1   6 1273.81 717.480   6
  -5  -1   5 16776.0 1666.34   6
  -5  -1   4 2768.20 847.380   6
  -5  -1   3 17523.2 1670.96   6
  -5  -1   2 10600.0 2562.23   2
   5  -1  -2 8297.88 2320.48  17
   5  -1  -2 9313.85 2850.72   4
  -5  -1   2 10081.8 1288.29   6
   5  -1  -1 69957.0 6197.65  17
   5  -1  -1 92852.7 7809.87   4
  -5  -1   1 76003.4 6931.77   2
  -5  -1   1 94765.1 3745.97   6
   5  -1   0 25723.2 3860.65  17
   5  -1   0 38563.7 5012.86   4
  -5  -1   0 30929.6 4539.07   2
  -5  -1   0 44766.6 2617.85   6
  -5  -1  -1 49826.2 2826.01   6
  -5  -1  -2 9263.50 1306.55   6
  -5  -1  -3 4267.37 959.458   6
   5  -1   3 3815.51 913.633   5
  -5  -1  -4 1635.48 721.180   6
   5  -1   4 1333.93 720.479   5
   5  -1   5 6072.21 1003.83   5
   5  -1   6 9561.19 1073.53   5
  -5  -1  -7 356.165 567.906  10
   5  -1   7 1416.19 535.103   5
   5  -1   8 3112.69 470.645   5
  -5   0  10 6638.39 727.835   6
  -5   0   9 1077.33 456.556   6
  -5   0   8 722.971 512.489   6
  -5   0   7-204.332 549.235   6
  -5   0   6 598.735 598.081   6
  -5   0   5 353.305 519.963   6
  -5   0   4-201.371 518.910   6
  -5   0   3 5492.15 1019.18   6
   5   0  -3 5739.42 2301.86  17
  -5   0   3 10553.9 2522.10   2
   5   0  -3 5505.30 2114.03   4
   5   0  -2 20818.5 3385.39  17
   5   0  -2 27976.0 4400.98   4
  -5   0   2 29754.3 4241.39   2
  -5   0   2 31160.8 2166.53   6
   5   0  -1 183076. 9838.88  17
   5   0  -1 214451. 11912.2   4
  -5   0   1 199773. 10985.1   2
  -5   0   1 233560. 5709.03   6
  -5   0   0 16526.7 3337.33   2
   5   0   0 13512.8 3037.89  17
   5   0   0 17530.8 3548.97   4
  -5   0   0 22864.0 1886.24   6
  -5   0  -1 968.796 620.269   6
  -5   0  -2 7539.05 1211.54   6
  -5   0  -3 546.112 551.032   6
   5   0   3 509.425 673.990   5
   5   0   4 27207.3 1880.03   5
  -5   0  -4 28013.7 2051.43   6
   5   0   5 38146.1 2116.55   5
  -5   0  -5 38715.0 2338.09   6
   5   0   6 17944.6 1376.65   5
   5   0   7 10314.3 991.513   5
   5   0   8 3473.34 500.811   5
  -5   1  10 3881.88 591.228   6
  -5   1   9 1575.80 520.745   6
  -5   1   8 11301.1 1212.33   6
  -5   1   7 8845.78 1188.10   6
  -5   1   6 1388.57 679.922   6
  -5   1   5 17603.9 1678.28   6
  -5   1   4 2513.78 826.644   6
  -5   1   3 18354.9 1698.15   6
  -5   1   3 15622.9 3114.09   2
   5   1  -2 5863.28 1743.81  17
   5   1  -2 6905.83 2361.10   4
  -5   1   2 9786.69 1285.37   6
   5   1  -1 86426.7 7621.29   4
  -5   1   1 80718.6 7016.90   2
  -5   1   1 97253.2 3765.66   6
   5   1   0 24855.9 3903.23  17
   5   1   0 42869.0 5293.49   4
  -5   1   0 27744.7 4302.58   2
  -5   1   0 43229.9 2578.29   6
  -5   1  -1 48534.1 2795.38   6
  -5   1  -2 9507.27 1333.10   6
  -5   1  -3 3067.91 892.062   6
   5   1   3 2648.64 860.596   5
  -5   1  -4 1664.81 741.452   6
   5   1   4 1925.00 803.515   5
   5   1   5 6043.45 1051.98   5
   5   1   6 9906.82 1121.88   5
   5   1   7 1391.54 528.299   5
   5   1   8 3118.57 492.937   5
  -5   2  10 10828.3 863.128   6
  -5   2   9 8154.14 948.931   6
  -5   2   8 7018.46 998.836   6
  -5   2   7 10800.0 1293.02   6
  -5   2   6 4470.88 928.948   6
  -5   2   5 19288.4 1740.29   6
  -5   2   4 6567.12 1101.97   6
  -5   2   3 17213.4 1677.79   6
   5   2  -2 42051.4 4941.79  17
   5   2  -2 57140.6 6130.63   4
  -5   2   2 49297.4 5546.54   2
  -5   2   2 60324.8 2975.71   6
  -5   2   1 15387.5 3151.50   2
   5   2  -1 14669.7 2968.58  17
   5   2  -1 20962.3 3844.03   4
  -5   2   1 19624.1 1757.82   6
  -5   2   0 53091.1 2856.92   6
  -5   2  -1 30145.6 2258.28   6
  -5   2  -2 26022.9 2077.56   6
   5   2   3 6240.36 1133.26   5
  -5   2  -3 7040.61 1170.03   6
   5   2   4 12204.3 1383.72   5
  -5   2  -4 12031.7 1451.27   6
   5   2   5 5685.62 979.623   5
   5   2   6 3432.50 786.715   5
   5   2   7 373.568 427.236   5
  -5   3   9 2674.86 555.264   6
  -5   3   8 3648.88 754.772   6
  -5   3   7 749.201 527.349   6
  -5   3   6 8737.40 1194.36   6
  -5   3   5 36809.5 2335.19   6
  -5   3   4 16471.0 1622.97   6
  -5   3   3 1746.85 692.746   6
  -5   3   2 49835.5 2721.64   6
  -5   3   1 26507.8 2014.76   6
  -5   3   0 11805.9 1436.55   6
  -5   3  -1 40780.5 2563.08   6
  -5   3  -2 16283.3 1681.03   6
   5   3   3 27057.0 1952.53   5
  -5   3  -3 26994.7 2113.80   6
   5   3   4 17144.8 1539.26   5
  -5   3  -4 16572.7 1621.09   6
   5   3   5 686.502 646.681   5
   5   3   6 4138.74 763.245   5
   5   3   7 4561.46 643.629   5
  -5   4   9 353.498 301.474   6
  -5   4   8 136.719 308.989   6
  -5   4   7 2803.35 697.977   6
  -5   4   6 1846.32 638.893   6
  -5   4   5 11835.1 1360.35   6
  -5   4   4 16565.8 1587.59   6
  -5   4   3 6256.66 1034.24   6
  -5   4   2 23764.0 1891.39   6
  -5   4   1 1570.14 716.236   6
  -5   4   0 28863.9 2115.64   6
  -5   4  -1 16174.7 1596.16   6
   5   4   2 19645.9 1640.14   5
  -5   4  -2 20714.2 1801.76   6
   5   4   3 58561.2 2639.37   5
  -5   4  -3 57864.0 2907.54   6
  -5   4  -4 3989.38 868.663   6
   5   4   4 3852.94 874.811   5
   5   4   5 8262.86 1015.47   5
   5   4   6 2661.67 588.011   5
  -5   5   7 3850.20 715.007   6
  -5   5   6 15508.5 1373.54   6
  -5   5   5 27072.5 1857.31   6
  -5   5   4 62903.2 2833.42   6
  -5   5   3 11186.7 1274.45   6
  -5   5   2 60977.8 2862.67   6
  -5   5   1 9034.75 1207.55   6
  -5   5   0 713.218 538.874   6
   5   5   1 13805.6 1344.46   5
  -5   5  -1 13092.8 1425.56   6
   5   5   2 12614.2 1276.44   5
  -5   5  -2 10297.0 1280.61   6
  -5   5  -3 4931.75 903.361   6
   5   5   3 5077.63 907.790   5
   5   5   4 731.483 546.171   5
   6  -8  -3 4006.40 604.145  11
   6  -8  -2 3377.69 584.000  11
   6  -8  -1 4496.86 655.311  11
  -6  -8   1 3594.86 467.872  10
   6  -8   0 45.8273 400.785  11
  -6  -8   0 690.746 327.436  10
  -6  -8  -1 6125.77 656.616  10
   6  -8   1 4932.65 556.864  13
   6  -7  -4 1468.76 455.970  11
   6  -7  -3 6921.91 912.584  11
   6  -7  -2 7865.30 987.494  11
   6  -7  -1 2114.20 645.308  11
  -6  -7   1 2556.09 558.553  10
   6  -7   0 2508.42 623.783  11
  -6  -7   0 3013.01 617.866  10
   6  -7   0 2820.91 464.233   9
   6  -7   1 2512.30 589.323  11
  -6  -7  -1 4428.12 697.461  10
  -6  -7  -2 7379.26 803.381  10
   6  -7   2 6472.02 706.632  13
   6  -7   3 1959.67 387.285  13
   6  -6  -5 2296.28 542.563  11
   6  -6  -4 1473.74 648.423  11
   6  -6  -3 1907.97 709.610  11
   6  -6  -2 4528.17 853.674  11
   6  -6  -1 9944.34 1155.63  11
  -6  -6   1 9407.15 997.240  10
   6  -6   0 894.076 572.789  11
  -6  -6   0 1147.21 513.864  10
   6  -6   1 2797.73 673.191  11
  -6  -6  -1 2218.42 665.579  10
   6  -6   2 3011.12 561.817  11
  -6  -6  -2 5151.03 782.549  10
  -6  -6  -3 8871.72 916.523  10
   6  -5  -5 1607.89 636.846  11
  -6  -5   1 18.6291 418.304  10
   6  -5   0 3235.61 808.471  11
  -6  -5   0 2725.24 749.679  10
   6  -5   1 6271.79 983.718  11
  -6  -5  -1 8199.90 1038.02  10
   6  -5   2 1450.40 532.117  11
  -6  -5  -2 1994.41 672.370  10
  -6  -5  -3 5494.90 879.137  10
  -6  -5  -4 1812.45 533.220  10
  -6  -4   7 3903.21 511.586   6
  -6  -4   6 8156.16 843.095   6
  -6  -4   5 188.677 372.104   6
  -6  -4   4 825.409 431.421   6
  -6  -4   3 8624.03 1025.30   6
  -6  -4   2 24493.6 1678.31   6
  -6  -4   1 2008.37 568.591   6
  -6  -4   0 12541.3 1272.49  10
  -6  -4   0 16001.7 1320.17   6
   6  -4   1 4104.87 912.061  11
  -6  -4  -1 4251.54 860.793  10
   6  -4   1 5683.96 818.217   5
  -6  -4  -1 6060.25 813.083   6
  -6  -4  -2 761.150 436.872   6
   6  -4   2 238.210 459.971  11
  -6  -4  -2 1201.19 665.971  10
   6  -4   2 866.240 470.843   5
  -6  -4  -3 1612.14 667.195  10
   6  -4   3 2975.89 550.585   5
  -6  -4  -4 1149.97 528.057  10
   6  -4   4 2758.67 428.646   5
  -6  -4  -5 1282.88 455.260  10
  -6  -3   8 2196.06 386.818   6
  -6  -3   7 2123.38 485.789   6
  -6  -3   6 8600.18 960.793   6
  -6  -3   5 5690.60 871.912   6
  -6  -3   4 5407.87 874.096   6
  -6  -3   3 4.14483 471.960   6
  -6  -3   2 52162.9 2511.84   6
  -6  -3   1 7373.88 1045.88   6
  -6  -3   0 3281.25 758.133  10
  -6  -3   0 5415.70 882.149   6
  -6  -3  -1 9495.25 1198.61  10
   6  -3   1 11666.1 1167.06   5
  -6  -3  -1 12186.9 1217.85   6
  -6  -3  -2 2029.26 607.598   6
   6  -3   2 1436.30 585.261  11
  -6  -3  -2 1491.42 732.681  10
   6  -3   2 2141.22 664.657   5
  -6  -3  -3 2854.86 632.108   6
  -6  -3  -3 2058.65 726.777  10
   6  -3   3 3459.80 655.965   5
  -6  -3  -4 2345.60 697.365  10
   6  -3   4 5134.33 677.004   5
  -6  -3  -5 1398.37 537.195  10
   6  -3   5 3830.12 473.147   5
  -6  -2   8 2373.29 468.267   6
  -6  -2   7 796.213 423.314   6
  -6  -2   6 2414.23 619.266   6
  -6  -2   5 5291.63 864.706   6
  -6  -2   4 2270.98 691.876   6
  -6  -2   3 2673.09 739.811   6
  -6  -2   2 16100.4 1527.66   6
  -6  -2   1 49070.3 2508.57   6
  -6  -2   0 6153.60 1003.05   6
  -6  -2  -1 1233.56 616.085   6
  -6  -2  -1 161.011 596.425  10
  -6  -2  -2 2761.57 698.346   6
  -6  -2  -2 2188.56 746.188  10
   6  -2   2 3112.30 739.064   5
  -6  -2  -3 1349.05 553.417   6
  -6  -2  -3 1020.26 629.869  10
   6  -2   3 2058.64 624.226   5
  -6  -2  -4 6644.94 1031.79  10
   6  -2   4 13202.3 1075.28   5
  -6  -2  -5 308.028 437.604  10
   6  -2   5 1127.03 427.622   5
  -6  -1   8 16360.4 1097.68   6
  -6  -1   7 8845.77 968.361   6
  -6  -1   6 5379.35 840.220   6
  -6  -1   5 1750.24 603.362   6
  -6  -1   4 13396.0 1356.74   6
  -6  -1   3 13806.8 1387.21   6
  -6  -1   2 6954.87 1074.26   6
  -6  -1   1 25076.5 1866.81   6
  -6  -1   0 55911.7 2687.26   6
  -6  -1  -1 33559.3 2097.90  10
  -6  -1  -1 60075.9 2728.23   6
   6  -1   2 24026.1 1662.64   5
  -6  -1  -2 25897.8 1748.00   6
  -6  -1  -3 1387.85 531.804   6
  -6  -1  -3 854.259 593.408  10
   6  -1   3 1203.96 617.376   5
  -6  -1  -4 575.227 634.028  10
   6  -1   4 3551.55 696.196   5
  -6  -1  -5 259.669 437.526  10
   6  -1   5 1273.74 466.512   5
  -6   0   8 669.481 329.600   6
  -6   0   7-56.9507 360.923   6
  -6   0   6 8774.09 1044.26   6
  -6   0   5 2769.23 693.156   6
  -6   0   4 9909.49 1190.96   6
  -6   0   3 576.164 531.373   6
  -6   0   2 16469.5 1504.76   6
  -6   0   1 850.922 630.121   6
  -6   0   0 15071.6 1458.74   6
  -6   0  -1 762.345 550.492   6
  -6   0  -2 1404.71 580.778   6
  -6   0  -2 628.875 592.848  10
   6   0   2 1824.99 672.110   5
  -6   0  -3 200.130 414.988   6
  -6   0  -3-13.3211 515.369  10
   6   0   3-304.871 607.021   5
  -6   0  -4 1373.06 622.361  10
   6   0   4 2197.49 651.289   5
  -6   0  -5-110.860 404.573  10
   6   0   5 793.850 422.917   5
   6   0   6 221.038 238.080   5
  -6   1   8 16319.4 1092.94   6
  -6   1   7 8601.55 942.823   6
  -6   1   6 5675.78 858.038   6
  -6   1   5 2348.69 667.778   6
  -6   1   4 12055.9 1295.58   6
  -6   1   3 14180.7 1391.54   6
  -6   1   2 6948.71 1053.29   6
  -6   1   1 24077.7 1804.50   6
  -6   1   0 54988.4 2666.83   6
  -6   1  -1 57979.1 2686.32   6
   6   1   2 25886.4 1753.24   5
  -6   1  -2 25083.1 1763.26   6
  -6   1  -3 1632.46 615.728   6
  -6   1  -3 462.598 612.991  10
   6   1   3 1013.01 654.072   5
  -6   1  -4 746.003 559.602  10
   6   1   4 4476.78 772.004   5
  -6   1  -5-18.5743 447.534  10
   6   1   5 1320.05 506.033   5
  -6   2   8 2274.05 448.728   6
  -6   2   7 519.986 414.326   6
  -6   2   6 3230.34 681.585   6
  -6   2   5 5138.74 845.373   6
  -6   2   4 2112.53 675.907   6
  -6   2   3 3977.11 828.360   6
  -6   2   2 18456.3 1589.28   6
  -6   2   1 47343.7 2467.78   6
  -6   2   0 6472.61 1004.95   6
  -6   2  -1 814.711 581.236   6
  -6   2  -2 2920.24 739.258   6
   6   2   2 2999.93 798.796   5
  -6   2  -3 1616.94 586.743   6
   6   2   3 2191.07 660.961   5
   6   2   4 13725.7 1132.59   5
  -6   2  -5-108.789 359.563  10
   6   2   5 746.280 406.078   5
  -6   3   8 2758.05 413.015   6
  -6   3   7 1823.86 486.827   6
  -6   3   6 7005.02 891.543   6
  -6   3   5 5301.37 829.447   6
  -6   3   4 6985.48 954.435   6
  -6   3   3 383.520 506.274   6
  -6   3   2 53227.4 2527.19   6
  -6   3   1 7254.79 1040.56   6
  -6   3   0 5539.48 937.556   6
   6   3   1 13071.0 1311.76   5
  -6   3  -1 12884.9 1295.28   6
  -6   3  -2 2358.17 650.139   6
   6   3   2 3149.03 794.904   5
  -6   3  -3 3051.15 666.107   6
   6   3   3 3885.35 772.951   5
   6   3   4 5090.27 720.022   5
   6   3   5 3888.22 528.095   5
  -6   4   7 3067.18 488.932   6
  -6   4   6 8365.14 861.324   6
  -6   4   5 718.637 446.945   6
  -6   4   4 769.107 496.115   6
  -6   4   3 9458.16 1077.36   6
  -6   4   2 24937.1 1687.73   6
  -6   4   1 1919.22 624.861   6
  -6   4   0 17557.9 1397.94   6
   6   4   1 6907.08 925.755   5
  -6   4  -1 6786.79 895.973   6
  -6   4  -2 1082.64 533.247   6
   6   4   2 963.790 550.519   5
   6   4   3 3522.66 640.232   5
   6   4   4 2781.70 464.942   5
  -6   5   4 17469.6 1237.28   6
  -6   5   3 16019.6 1221.20   6
  -6   5   2 2917.39 576.026   6
  -6   5   1-186.150 509.800   6
  -6   5   0 4044.09 681.426   6
  -6   5  -1 9252.31 913.011   6
   7  -5  -2 903.289 338.018  11
   7  -4  -3-457.186 403.532  11
   7  -4  -2 1046.76 493.965  11
   7  -4  -1-27.0487 392.188  11
  -7  -3   4 988.434 263.984   6
   7  -3  -4 242.320 391.615  11
  -7  -3   3 1041.85 308.586   6
   7  -3  -2 5762.84 600.834   5
  -7  -3   2 5252.95 602.797   6
  -7  -3   1 311.903 263.990   6
   7  -3  -1 317.318 430.173  11
   7  -3  -1 737.112 371.980   5
  -7  -3   0 1175.43 301.667   6
   7  -3   0 668.562 401.691  11
   7  -3   0 1416.84 362.271   5
  -7  -2   5 2177.47 382.381   6
  -7  -2   4 11836.8 878.682   6
  -7  -2   3 14363.4 991.879   6
  -7  -2   2 4342.92 596.533   6
  -7  -2   1 273.197 325.283   6
   7  -2  -1 239.722 363.424   5
   7  -2   0 13003.5 906.735   5
  -7  -2   0 11970.7 901.978   6
   7  -2   1 16326.6 937.126   5
  -7  -2  -1 15759.2 970.022   6
  -7  -1   5 9504.29 765.180   6
  -7  -1   4 7323.67 749.048   6
  -7  -1   3 941.829 406.384   6
  -7  -1   2 5146.16 680.004   6
  -7  -1   1 1704.24 464.180   6
   7  -1   0 12557.0 960.864   5
  -7  -1   0 11550.9 914.110   6
   7  -1   1 9064.22 775.953   5
  -7  -1  -1 8584.68 762.022   6
   7  -1   2 14276.5 846.607   5
  -7   0   6 14813.4 816.185   6
  -7   0   5 177.020 282.833   6
  -7   0   4 5817.35 677.624   6
  -7   0   3 20928.5 1236.81   6
  -7   0   2 188.394 322.181   6
  -7   0   1 1443.79 449.886   6
   7   0   0 6282.17 716.238   5
  -7   0   0 6318.68 704.195   6
   7   0   1 22969.1 1187.72   5
  -7   0  -1 21847.5 1185.25   6
   7   0   2 7905.55 672.754   5
  -7   0  -2 7131.29 643.305   6
  -7   1   5 11114.5 814.089   6
  -7   1   4 6406.42 707.688   6
  -7   1   3 711.488 378.082   6
  -7   1   2 4671.21 649.159   6
  -7   1   1 1312.95 464.197   6
   7   1   0 12606.6 971.523   5
  -7   1   0 11866.7 936.061   6
   7   1   1 9645.02 813.664   5
  -7   1  -1 8588.46 777.419   6
   7   1   2 14581.9 866.719   5
  -7   2   5 2046.89 375.858   6
  -7   2   4 12165.9 881.791   6
  -7   2   3 15069.1 1027.68   6
  -7   2   2 3379.44 570.809   6
  -7   2   1 387.757 329.254   6
   7   2  -1 685.587 425.924   5
   7   2   0 13615.7 943.525   5
  -7   2   0 12968.9 941.426   6
   7   2   1 17092.6 980.726   5
  -7   2  -1 16077.9 961.575   6
  -7   3   4 418.552 263.299   6
  -7   3   3 971.766 328.360   6
   7   3  -2 5761.09 620.760   5
  -7   3   2 5645.77 631.655   6
  -7   3   1 1176.11 350.714   6
   7   3  -1 1036.18 383.868   5
  -7   3   0 1549.73 371.376   6
   7   3   0 1856.18 437.819   5
   0   0   0    0.00    0.00   0

TITL MDH024 in P2(1)
REM P2(1) (#4 in standard setting)
CELL 1.54184   5.926475  11.800324  10.092795  90.0000  98.2401  90.0000
ZERR    4.00   0.000327   0.000567   0.000630   0.0000   0.0056   0.0000
LATT -1
SYMM -x, y+1/2,-z
SFAC C H N O
UNIT 40.00 40.00 8.00 8.00
TREF
HKLF 4
END
;
_shelx_hkl_checksum              67754
_olex2_exptl_crystal_mounting_method 'mounted on a nylon loop'
_olex2_submission_special_instructions 'No special instructions were received'
_oxdiff_exptl_absorpt_empirical_details
;
Empirical correction (ABSPACK) includes:
- Absorption correction using spherical harmonics
- Frame scaling
- Detector area scaling
;
_oxdiff_exptl_absorpt_empirical_full_max 1.553
_oxdiff_exptl_absorpt_empirical_full_min 0.683
loop_
_space_group_symop_operation_xyz
'x, y, z'
'-x, y+1/2, -z'
loop_
_atom_site_label
_atom_site_type_symbol
_atom_site_fract_x
_atom_site_fract_y
_atom_site_fract_z
_atom_site_U_iso_or_equiv
_atom_site_adp_type
_atom_site_occupancy
_atom_site_site_symmetry_order
_atom_site_calc_flag
_atom_site_refinement_flags_posn
F1 F 0.4775(5) 0.0424(2) 0.7542(3) 0.0431(7) Uani 1 1 d .
F2 F 0.2455(3) -0.0111(2) 0.5817(3) 0.0361(6) Uani 1 1 d .
F3 F 0.4576(4) -0.1340(2) 0.6971(3) 0.0375(6) Uani 1 1 d .
O1 O 0.5913(4) -0.0856(2) 0.4514(3) 0.0264(6) Uani 1 1 d .
H1 H 0.6772 -0.1425 0.4633 0.040 Uiso 1 1 calc GR
O2 O 1.1260(4) 0.2436(2) 0.4750(3) 0.0319(6) Uani 1 1 d .
O3 O 0.9029(4) 0.1563(2) 0.7276(3) 0.0286(6) Uani 1 1 d .
N1 N 0.8102(5) 0.1270(3) 0.4147(3) 0.0226(6) Uani 1 1 d .
C1 C 0.6459(5) 0.1101(3) 0.5107(4) 0.0208(7) Uani 1 1 d .
H1A H 0.4907 0.1402 0.4765 0.025 Uiso 1 1 calc R
C2 C 0.9491(6) 0.1969(3) 0.4928(4) 0.0241(7) Uani 1 1 d .
C3 C 0.7950(6) 0.1968(3) 0.6030(4) 0.0240(7) Uani 1 1 d .
H3 H 0.7162 0.2710 0.6104 0.029 Uiso 1 1 calc R
C4 C 0.6396(6) -0.0114(3) 0.5613(4) 0.0231(7) Uani 1 1 d .
H4 H 0.7907 -0.0313 0.6136 0.028 Uiso 1 1 calc R
C5 C 0.4536(6) -0.0276(3) 0.6483(4) 0.0265(8) Uani 1 1 d .
C6 C 0.8145(7) 0.1014(4) 0.2726(4) 0.0313(8) Uani 1 1 d .
H6 H 0.8901 0.1668 0.2338 0.038 Uiso 1 1 calc R
C7 C 0.5728(8) 0.0939(4) 0.1982(4) 0.0379(10) Uani 1 1 d .
H7A H 0.4975 0.0266 0.2282 0.057 Uiso 1 1 calc GR
H7B H 0.5778 0.0884 0.1018 0.057 Uiso 1 1 calc GR
H7C H 0.4874 0.1618 0.2167 0.057 Uiso 1 1 calc GR
C8 C 0.9553(7) -0.0032(4) 0.2543(4) 0.0370(10) Uani 1 1 d .
H8A H 1.1062 0.0045 0.3077 0.056 Uiso 1 1 calc GR
H8B H 0.9721 -0.0113 0.1596 0.056 Uiso 1 1 calc GR
H8C H 0.8786 -0.0702 0.2837 0.056 Uiso 1 1 calc GR
C9 C 0.8897(6) 0.2229(3) 0.8403(4) 0.0253(8) Uani 1 1 d .
C10 C 1.0848(6) 0.2274(4) 0.9336(4) 0.0285(8) Uani 1 1 d .
H10 H 1.2167 0.1857 0.9200 0.034 Uiso 1 1 calc R
C11 C 1.0853(7) 0.2934(4) 1.0472(4) 0.0332(9) Uani 1 1 d .
H11 H 1.2185 0.2966 1.1119 0.040 Uiso 1 1 calc R
C12 C 0.8946(7) 0.3547(4) 1.0677(4) 0.0318(9) Uani 1 1 d .
H12 H 0.8977 0.4018 1.1444 0.038 Uiso 1 1 calc R
C13 C 0.6984(6) 0.3466(4) 0.9748(4) 0.0309(8) Uani 1 1 d .
H13 H 0.5650 0.3864 0.9899 0.037 Uiso 1 1 calc R
C14 C 0.6943(6) 0.2811(3) 0.8603(4) 0.0283(8) Uani 1 1 d .
H14 H 0.5600 0.2762 0.7967 0.034 Uiso 1 1 calc R
loop_
_atom_site_aniso_label
_atom_site_aniso_U_11
_atom_site_aniso_U_22
_atom_site_aniso_U_33
_atom_site_aniso_U_23
_atom_site_aniso_U_13
_atom_site_aniso_U_12
F1 0.0489(15) 0.0405(15) 0.0432(13) -0.0095(12) 0.0184(12) -0.0100(12)
F2 0.0184(10) 0.0365(13) 0.0540(14) 0.0104(12) 0.0065(9) 0.0038(10)
F3 0.0352(12) 0.0270(12) 0.0510(14) 0.0141(12) 0.0090(10) 0.0001(10)
O1 0.0240(12) 0.0183(12) 0.0358(14) -0.0010(12) 0.0010(11) -0.0004(10)
O2 0.0229(12) 0.0229(13) 0.0506(16) -0.0022(13) 0.0075(11) -0.0060(11)
O3 0.0285(13) 0.0239(14) 0.0313(14) -0.0042(11) -0.0030(11) 0.0064(11)
N1 0.0174(12) 0.0186(15) 0.0314(15) 0.0017(13) 0.0022(12) -0.0020(11)
C1 0.0130(13) 0.0181(16) 0.0312(17) 0.0010(15) 0.0026(12) -0.0010(13)
C2 0.0189(15) 0.0143(16) 0.0378(19) 0.0019(15) -0.0009(14) -0.0007(13)
C3 0.0194(15) 0.0188(16) 0.0321(18) -0.0009(15) -0.0019(13) 0.0005(13)
C4 0.0178(14) 0.0185(17) 0.0322(18) 0.0008(15) 0.0014(13) 0.0004(13)
C5 0.0247(16) 0.0210(18) 0.034(2) 0.0048(17) 0.0052(14) -0.0021(15)
C6 0.038(2) 0.0255(19) 0.0303(19) 0.0027(17) 0.0035(16) -0.0059(16)
C7 0.048(2) 0.027(2) 0.035(2) -0.0001(19) -0.0046(18) 0.0008(18)
C8 0.0316(19) 0.041(2) 0.041(2) -0.006(2) 0.0122(17) -0.0003(19)
C9 0.0272(17) 0.0192(18) 0.0291(17) 0.0017(16) 0.0022(14) -0.0015(14)
C10 0.0248(17) 0.028(2) 0.0312(18) 0.0021(16) 0.0005(14) 0.0024(15)
C11 0.0305(19) 0.034(2) 0.0323(19) 0.0003(17) -0.0031(15) 0.0014(17)
C12 0.041(2) 0.029(2) 0.0259(18) 0.0034(17) 0.0039(16) 0.0005(18)
C13 0.0296(18) 0.027(2) 0.037(2) 0.0046(18) 0.0113(15) 0.0055(16)
C14 0.0226(16) 0.029(2) 0.0325(19) 0.0022(17) -0.0001(14) 0.0027(15)
loop_
_atom_type_symbol
_atom_type_description
_atom_type_scat_dispersion_real
_atom_type_scat_dispersion_imag
_atom_type_scat_source
C C 0.0181 0.0091 'International Tables Vol C Tables 4.2.6.8 and 6.1.1.4'
H H 0.0000 0.0000 'International Tables Vol C Tables 4.2.6.8 and 6.1.1.4'
F F 0.0727 0.0534 'International Tables Vol C Tables 4.2.6.8 and 6.1.1.4'
N N 0.0311 0.0180 'International Tables Vol C Tables 4.2.6.8 and 6.1.1.4'
O O 0.0492 0.0322 'International Tables Vol C Tables 4.2.6.8 and 6.1.1.4'
loop_
_exptl_crystal_face_index_h
_exptl_crystal_face_index_k
_exptl_crystal_face_index_l
_exptl_crystal_face_perp_dist
-4 0 1 0.0726
0 7 -2 0.1657
4 0 -1 0.1269
3 -4 0 0.1363
-3 -4 2 0.1119
0 0 7 0.0239
0 0 -7 0.0239
0 -2 -6 0.0459
1 4 -6 0.1165
3 0 -4 0.1078
3 -4 -3 0.1247
loop_
_geom_angle_atom_site_label_1
_geom_angle_atom_site_label_2
_geom_angle_atom_site_label_3
_geom_angle
C4 O1 H1 109.5
C9 O3 C3 117.7(3)
C2 N1 C1 96.0(3)
C2 N1 C6 127.3(3)
C6 N1 C1 135.6(3)
N1 C1 H1A 112.6
N1 C1 C3 86.2(2)
N1 C1 C4 113.3(3)
C3 C1 H1A 112.6
C4 C1 H1A 112.6
C4 C1 C3 116.9(3)
O2 C2 N1 131.3(4)
O2 C2 C3 136.0(4)
N1 C2 C3 92.6(3)
O3 C3 C1 117.0(3)
O3 C3 C2 113.9(3)
O3 C3 H3 112.7
C1 C3 H3 112.7
C2 C3 C1 85.1(3)
C2 C3 H3 112.7
O1 C4 C1 109.4(3)
O1 C4 H4 109.6
O1 C4 C5 107.1(3)
C1 C4 H4 109.6
C5 C4 C1 111.6(3)
C5 C4 H4 109.6
F1 C5 F3 106.7(3)
F1 C5 C4 112.4(3)
F2 C5 F1 107.2(3)
F2 C5 F3 106.7(3)
F2 C5 C4 112.8(3)
F3 C5 C4 110.7(3)
N1 C6 H6 107.2
N1 C6 C7 110.3(3)
N1 C6 C8 111.9(3)
C7 C6 H6 107.2
C8 C6 H6 107.2
C8 C6 C7 112.8(4)
C6 C7 H7A 109.5
C6 C7 H7B 109.5
C6 C7 H7C 109.5
H7A C7 H7B 109.5
H7A C7 H7C 109.5
H7B C7 H7C 109.5
C6 C8 H8A 109.5
C6 C8 H8B 109.5
C6 C8 H8C 109.5
H8A C8 H8B 109.5
H8A C8 H8C 109.5
H8B C8 H8C 109.5
C10 C9 O3 116.0(3)
C10 C9 C14 121.1(4)
C14 C9 O3 122.9(3)
C9 C10 H10 120.4
C9 C10 C11 119.1(4)
C11 C10 H10 120.4
C10 C11 H11 119.6
C12 C11 C10 120.9(4)
C12 C11 H11 119.6
C11 C12 H12 120.5
C11 C12 C13 119.1(4)
C13 C12 H12 120.5
C12 C13 H13 119.5
C14 C13 C12 120.9(4)
C14 C13 H13 119.5
C9 C14 C13 118.8(3)
C9 C14 H14 120.6
C13 C14 H14 120.6
loop_
_geom_bond_atom_site_label_1
_geom_bond_atom_site_label_2
_geom_bond_distance
F1 C5 1.342(5)
F2 C5 1.332(4)
F3 C5 1.347(4)
O1 H1 0.8400
O1 C4 1.410(4)
O2 C2 1.220(4)
O3 C3 1.411(4)
O3 C9 1.394(4)
N1 C1 1.482(4)
N1 C2 1.339(4)
N1 C6 1.470(5)
C1 H1A 1.0000
C1 C3 1.568(5)
C1 C4 1.524(5)
C2 C3 1.537(5)
C3 H3 1.0000
C4 H4 1.0000
C4 C5 1.517(5)
C6 H6 1.0000
C6 C7 1.521(5)
C6 C8 1.516(6)
C7 H7A 0.9800
C7 H7B 0.9800
C7 H7C 0.9800
C8 H8A 0.9800
C8 H8B 0.9800
C8 H8C 0.9800
C9 C10 1.384(5)
C9 C14 1.386(5)
C10 H10 0.9500
C10 C11 1.386(6)
C11 H11 0.9500
C11 C12 1.382(6)
C12 H12 0.9500
C12 C13 1.389(5)
C13 H13 0.9500
C13 C14 1.388(6)
C14 H14 0.9500
loop_
_geom_torsion_atom_site_label_1
_geom_torsion_atom_site_label_2
_geom_torsion_atom_site_label_3
_geom_torsion_atom_site_label_4
_geom_torsion
O1 C4 C5 F1 -177.7(3)
O1 C4 C5 F2 -56.3(4)
O1 C4 C5 F3 63.1(4)
O2 C2 C3 O3 -62.2(5)
O2 C2 C3 C1 -179.6(4)
O3 C9 C10 C11 179.0(4)
O3 C9 C14 C13 -179.1(3)
N1 C1 C3 O3 -116.9(3)
N1 C1 C3 C2 -2.6(2)
N1 C1 C4 O1 -56.1(3)
N1 C1 C4 C5 -174.4(3)
N1 C2 C3 O3 120.2(3)
N1 C2 C3 C1 2.8(3)
C1 N1 C2 O2 179.2(4)
C1 N1 C2 C3 -3.0(3)
C1 N1 C6 C7 25.1(6)
C1 N1 C6 C8 -101.4(5)
C1 C4 C5 F1 -57.9(4)
C1 C4 C5 F2 63.4(4)
C1 C4 C5 F3 -177.2(3)
C2 N1 C1 C3 2.9(3)
C2 N1 C1 C4 -114.8(3)
C2 N1 C6 C7 -140.1(4)
C2 N1 C6 C8 93.5(4)
C3 O3 C9 C10 -141.0(3)
C3 O3 C9 C14 39.6(5)
C3 C1 C4 O1 -154.0(3)
C3 C1 C4 C5 87.7(4)
C4 C1 C3 O3 -2.7(5)
C4 C1 C3 C2 111.7(3)
C6 N1 C1 C3 -165.2(4)
C6 N1 C1 C4 77.0(5)
C6 N1 C2 O2 -11.2(6)
C6 N1 C2 C3 166.6(4)
C9 O3 C3 C1 -134.1(3)
C9 O3 C3 C2 129.0(3)
C9 C10 C11 C12 -0.2(6)
C10 C9 C14 C13 1.4(6)
C10 C11 C12 C13 2.1(6)
C11 C12 C13 C14 -2.2(6)
C12 C13 C14 C9 0.4(6)
C14 C9 C10 C11 -1.5(6)
loop_
_exptl_oxdiff_crystal_face_indexfrac_h
_exptl_oxdiff_crystal_face_indexfrac_k
_exptl_oxdiff_crystal_face_indexfrac_l
_exptl_oxdiff_crystal_face_x
_exptl_oxdiff_crystal_face_y
_exptl_oxdiff_crystal_face_z
-3.9997 0.0003 0.9912 0.8065 -0.4767 0.4506
0.0060 6.9832 -2.0058 0.3793 -0.1749 -0.8677
3.9997 -0.0003 -0.9912 -0.8065 0.4767 -0.4506
2.9962 -3.9919 0.0094 -0.7857 0.5040 0.1427
-3.0031 -3.9898 1.9969 0.3783 -0.2703 0.8380
0.0024 0.0235 7.0084 -0.6383 -0.8293 0.2707
-0.0024 -0.0235 -7.0084 0.6383 0.8293 -0.2707
-0.0039 -2.0172 -6.0062 0.4908 0.8285 -0.0062
1.0018 3.9749 -6.0067 0.4352 0.5651 -0.7867
2.9986 -0.0111 -3.9973 -0.3085 0.7426 -0.4637
2.9952 -4.0020 -2.9942 -0.5122 0.8594 0.0267
